AV-unprocessed.smi:657|AV-procd|sdf|3229|dock3
  -GOLD-   22720 0173D 1   1.00000     0.00000
 Structure written by MMmdl.
 46 47  0  0  0  0  0  0  0  0  3 V2000
  149.2472  133.5771  153.8865 C   0  0  0  0  0  0  0  0  0  0  0  0
  147.8547  134.0743  154.3106 C   0  0  0  0  0  0  0  0  0  0  0  0
  147.1139  133.0284  155.1669 C   0  0  0  0  0  0  0  0  0  0  0  0
  147.0546  134.5685  153.1392 N   0  3  1  0  0  0  0  0  0  0  0  0
  146.9081  133.5514  152.0559 C   0  0  0  0  0  0  0  0  0  0  0  0
  146.2720  134.1446  150.7921 C   0  0  0  0  0  0  0  0  0  0  0  0
  144.8987  134.7325  151.1164 C   0  0  0  0  0  0  0  0  0  0  0  0
  145.0497  135.7838  152.2182 C   0  0  0  0  0  0  0  0  0  0  0  0
  145.7413  135.2137  153.4815 C   0  0  2  0  0  0  0  0  0  0  0  0
  145.8856  136.3649  154.4979 C   0  0  0  0  0  0  0  0  0  0  0  0
  145.4707  136.1845  155.6485 O   0  0  0  0  0  0  0  0  0  0  0  0
  146.4593  137.4604  153.9282 N   0  5  0  0  0  0  0  0  0  0  0  0
  146.0577  138.8368  154.2219 C   0  0  0  0  0  0  0  0  0  0  0  0
  147.0029  139.8448  153.5288 C   0  0  0  0  0  0  0  0  0  0  0  0
  148.4462  139.7745  153.9835 C   0  0  0  0  0  0  0  0  0  0  0  0
  149.2676  140.8635  154.3945 C   0  0  0  0  0  0  0  0  0  0  0  0
  150.4866  140.4907  154.7491 N   0  0  0  0  0  0  0  0  0  0  0  0
  150.4928  139.1548  154.5682 N   0  0  0  0  0  0  0  0  0  0  0  0
  151.6891  138.3992  154.8696 C   0  0  0  0  0  0  0  0  0  0  0  0
  149.2836  138.6963  154.0928 C   0  0  0  0  0  0  0  0  0  0  0  0
  149.8710  133.3965  154.7625 H   0  0  0  0  0  0  0  0  0  0  0  0
  149.7586  134.3181  153.2717 H   0  0  0  0  0  0  0  0  0  0  0  0
  149.2045  132.6428  153.3279 H   0  0  0  0  0  0  0  0  0  0  0  0
  148.0714  134.9161  154.9639 H   0  0  0  0  0  0  0  0  0  0  0  0
  147.7069  132.7617  156.0418 H   0  0  0  0  0  0  0  0  0  0  0  0
  146.9240  132.1055  154.6197 H   0  0  0  0  0  0  0  0  0  0  0  0
  146.1610  133.4099  155.5329 H   0  0  0  0  0  0  0  0  0  0  0  0
  147.8761  133.1338  151.7846 H   0  0  0  0  0  0  0  0  0  0  0  0
  146.2930  132.7219  152.4060 H   0  0  0  0  0  0  0  0  0  0  0  0
  146.9208  134.9165  150.3758 H   0  0  0  0  0  0  0  0  0  0  0  0
  146.1742  133.3734  150.0275 H   0  0  0  0  0  0  0  0  0  0  0  0
  144.4578  135.1796  150.2251 H   0  0  0  0  0  0  0  0  0  0  0  0
  144.2197  133.9436  151.4429 H   0  0  0  0  0  0  0  0  0  0  0  0
  145.6208  136.6255  151.8226 H   0  0  0  0  0  0  0  0  0  0  0  0
  144.0654  136.1777  152.4764 H   0  0  0  0  0  0  0  0  0  0  0  0
  145.0935  134.4331  153.8863 H   0  0  0  0  0  0  0  0  0  0  0  0
  145.0315  139.0520  153.9201 H   0  0  0  0  0  0  0  0  0  0  0  0
  146.0825  139.0228  155.2956 H   0  0  0  0  0  0  0  0  0  0  0  0
  146.9482  139.6780  152.4529 H   0  0  0  0  0  0  0  0  0  0  0  0
  146.6094  140.8510  153.6787 H   0  0  0  0  0  0  0  0  0  0  0  0
  149.0086  141.9101  154.4568 H   0  0  0  0  0  0  0  0  0  0  0  0
  151.4662  137.3320  154.8672 H   0  0  0  0  0  0  0  0  0  0  0  0
  152.0669  138.6787  155.8536 H   0  0  0  0  0  0  0  0  0  0  0  0
  152.4526  138.6054  154.1192 H   0  0  0  0  0  0  0  0  0  0  0  0
  149.1121  137.6498  153.8884 H   0  0  0  0  0  0  0  0  0  0  0  0
  147.6069  135.3166  152.7455 H   0  0  0  0  0  0  0  0  0  0  0  0
  1  2  1  0  0  0  0
  1 21  1  0  0  0  0
  1 22  1  0  0  0  0
  1 23  1  0  0  0  0
  2  3  1  0  0  0  0
  2  4  1  0  0  0  0
  2 24  1  0  0  0  0
  3 25  1  0  0  0  0
  3 26  1  0  0  0  0
  3 27  1  0  0  0  0
  4  9  1  0  0  0  0
  4  5  1  0  0  0  0
  4 46  1  0  0  0  0
  5  6  1  0  0  0  0
  5 28  1  0  0  0  0
  5 29  1  0  0  0  0
  6  7  1  0  0  0  0
  6 30  1  0  0  0  0
  6 31  1  0  0  0  0
  7  8  1  0  0  0  0
  7 32  1  0  0  0  0
  7 33  1  0  0  0  0
  8  9  1  0  0  0  0
  8 34  1  0  0  0  0
  8 35  1  0  0  0  0
  9 10  1  0  0  0  0
  9 36  1  0  0  0  0
 10 11  2  0  0  0  0
 10 12  1  0  0  0  0
 12 13  1  0  0  0  0
 13 14  1  0  0  0  0
 13 37  1  0  0  0  0
 13 38  1  0  0  0  0
 14 15  1  0  0  0  0
 14 39  1  0  0  0  0
 14 40  1  0  0  0  0
 15 20  2  0  0  0  0
 15 16  1  0  0  0  0
 16 17  2  0  0  0  0
 16 41  1  0  0  0  0
 17 18  1  0  0  0  0
 18 19  1  0  0  0  0
 18 20  1  0  0  0  0
 19 42  1  0  0  0  0
 19 43  1  0  0  0  0
 19 44  1  0  0  0  0
 20 45  1  0  0  0  0
M  CHG  1   4   1
M  CHG  1  12  -1
M  END
> <s_m_source_file>
AV-unprocessed.smi

> <i_m_source_file_index>
657

> <i_lp_mmshare_version>
43012

> <i_f3d_flags>
0

> <s_epik_input>
W0NIM11bQ0hdKFtDSDNdKU4xW0NIMl1bQ0gyXVtDSDJdW0NIMl1bQ0BIXTFDKD1PKVtOSF1bQ0gyXVtDSDJdYzJbY0hdbm4oW0NIM10pW2NIXTI=

> <s_epik_cmdline>
J2VwaWtfcHl0aG9uJywgJy1waCcsICc3LjAnLCAnLXRuJywgJzgnLCAnLW1hJywgJzIwMCcsICctbWV0YWxfYmluZGluZycsICctaW1hZScsICc8aW5maWxlLm1hZT4nLCAnLW9tYWUnLCAnPG91dGZpbGUubWFlPic=

> <r_lp_tautomer_probability>
1

> <r_epik_Ionization_Penalty>
6.1622

> <r_epik_Ionization_Penalty_Charging>
6.16146

> <r_epik_Ionization_Penalty_Neutral>
0.00073675

> <r_epik_State_Penalty>
6.18018

> <r_epik_Charging_Adjusted_Penalty>
12.3416

> <i_epik_Tot_Q>
0

> <i_epik_Tot_abs_Q>
2

> <r_epik_Metal_State_Penalty>
2.12232

> <b_epik_Metal_Only>
1

> <s_lp_Force_Field>
OPLS_2005

> <r_lp_Energy>
9.74682

> <b_lp_Chiralities_Consistent>
1

> <s_lp_Variant>
AV-unprocessed.smi:657-10

> <Gold.Version>
5.8.1

> <Gold.Id.Protein>
6NUR|6NUR_protein|mol2

> <Gold.PLP.Fitness>
41.6348

> <Gold.PLP.PLP>
-30.7238

> <Gold.PLP.part.hbond>
-2.0000

> <Gold.PLP.part.metal>
0.0000

> <Gold.PLP.part.buried>
-1.5864

> <Gold.PLP.part.nonpolar>
-26.3312

> <Gold.PLP.part.repulsive>
0.1980

> <Gold.PLP.ligand.clash>
0.0000

> <Gold.PLP.ligand.torsion>
0.6476

> <Gold.PLP.Chemscore.Hbond>
3.0000

> <Gold.PLP.Chemscore.CHOScore>
1.0000

> <Gold.PLP.Chemscore.Metal>
0.0000

> <Gold.Chemscore.Hbonds>
donor molecule, donor type, donor heavy atom, donor atom, acceptor molecule, acceptor atom, score
      L1  H     4    46       P1  7948  2.00
      P1  H  7989  7998       L1    17  0.85
      L1  C    20    45       P1  7948  1.00

> <Gold.PLP.Chemscore.Internal.Correction>
0.2061

> <Gold.Rescore>
     Score         DG    S(hbond)    S(metal)    S(lipo)     H(rot)  DE(clash)    DE(int)     intcor
     13.20     -15.29       1.65        0.00      71.21       1.57       0.16       1.93       ----

> <Gold.Chemscore.Fitness>
13.2006

> <Gold.Chemscore.DG>
-15.2905

> <Gold.Chemscore.ZeroCoef>
-5.4800

> <Gold.Chemscore.Hbond>
1.6492

> <Gold.Chemscore.Metal>
0.0000

> <Gold.Chemscore.Lipo>
71.2113

> <Gold.Chemscore.Internal_Hbond>
0.0000

> <Gold.Chemscore.DEClash>
0.1587

> <Gold.Chemscore.DEInternal>
1.9312

> <Gold.Chemscore.Rot>
1.5741

> <Gold.Chemscore.Internal.Correction>
   9.000000E+99

> <Gold.Chemscore.Hbonds>
donor molecule, donor type, donor heavy atom, donor atom, acceptor molecule, acceptor atom, score
      L1  H     4    46       P1  7948  1.00
      P1  H  7989  7998       L1    17  0.10

> <Gold.Chemscore.Hbond.Weighted>
-5.5084

> <Gold.Chemscore.Metal.Weighted>
-0.0000

> <Gold.Chemscore.Lipo.Weighted>
-8.3317

> <Gold.Chemscore.Internal_Hbond.Weighted>
0.0000

> <Gold.Chemscore.DEClash.Weighted>
0.1587

> <Gold.Chemscore.DEInternal.Weighted>
1.9312

> <Gold.Chemscore.Rot.Weighted>
4.0297

> <Gold.Chemscore.Internal.Correction.Weighted>
   9.000000E+99

> <Gold.Protein.RotatedTorsions>
[ 6907 6896 6895 6894 ] final   16.26 input  -60.11 | X-H torsion
[ 7974 7965 7964 7962 ] final  -44.66 input  175.53 | X-H torsion
[ 8008 7997 7996 7995 ] final   35.82 input   59.86 | X-H torsion
[ 10167 10162 10161 10158 ] final -138.59 input  -65.29 | X-H torsion
[ 10718 10713 10712 10709 ] final   99.42 input   66.30 | X-H torsion
[ 10763 10752 10751 10750 ] final  131.90 input  -60.55 | X-H torsion
[ 11005 11000 10999 10996 ] final -174.12 input  -57.11 | X-H torsion

> <Gold.Protein.ActiveResidues>
 VAL166  LYS551  ARG553  GLY616  TRP617  ASP618  TYR619  PRO620  LYS621  CYS622 
 ASP623  PHE694  ASN695  SER759  ASP760  ASP761  ALA762  ILE779  LEU786  VAL792 
 PHE793  MET794  SER795  GLU796  ALA797  LYS798  CYS799  TRP800  GLU811  SER814 

> <Gold.Protein.RotatedAtoms>
  151.8311  135.0621  160.0436 H   0  0  0  0  0  0  0  0  0  0  0  0  # atno 6907 bound_to 6896
  152.2880  133.5529  159.5547 H   0  0  0  0  0  0  0  0  0  0  0  0  # atno 6908 bound_to 6896
  150.7217  134.0386  159.3800 H   0  0  0  0  0  0  0  0  0  0  0  0  # atno 6909 bound_to 6896
  145.9899  140.7192  142.9322 H   0  0  0  0  0  0  0  0  0  0  0  0  # atno 7974 bound_to 7965
  155.1773  140.3297  155.4381 H   0  0  0  0  0  0  0  0  0  0  0  0  # atno 8008 bound_to 7997
  156.2489  140.1933  156.6823 H   0  0  0  0  0  0  0  0  0  0  0  0  # atno 8009 bound_to 7997
  154.6296  140.0584  156.9701 H   0  0  0  0  0  0  0  0  0  0  0  0  # atno 8010 bound_to 7997
  139.8463  143.7256  152.2660 H   0  0  0  0  0  0  0  0  0  0  0  0  # atno 10167 bound_to 10162
  157.6876  131.0669  150.4945 H   0  0  0  0  0  0  0  0  0  0  0  0  # atno 10718 bound_to 10713
  153.7819  135.3167  155.3367 H   0  0  0  0  0  0  0  0  0  0  0  0  # atno 10763 bound_to 10752
  154.8158  135.4637  154.0642 H   0  0  0  0  0  0  0  0  0  0  0  0  # atno 10764 bound_to 10752
  153.1934  135.6912  153.8409 H   0  0  0  0  0  0  0  0  0  0  0  0  # atno 10765 bound_to 10752
  140.4780  134.6102  157.4908 H   0  0  0  0  0  0  0  0  0  0  0  0  # atno 11005 bound_to 11000
  144.6886  140.3051  143.7257 LP  0  0  0  0  0  0  0  0  0  0  0  0  # atno 17320 bound_to 7965
  145.7646  139.1836  143.2247 LP  0  0  0  0  0  0  0  0  0  0  0  0  # atno 17321 bound_to 7965
  139.7509  144.7534  151.0508 LP  0  0  0  0  0  0  0  0  0  0  0  0  # atno 17342 bound_to 10162
  140.7792  143.4861  150.9954 LP  0  0  0  0  0  0  0  0  0  0  0  0  # atno 17343 bound_to 10162
  156.5270  130.4175  149.6221 LP  0  0  0  0  0  0  0  0  0  0  0  0  # atno 17370 bound_to 10713
  156.3103  130.7225  151.2117 LP  0  0  0  0  0  0  0  0  0  0  0  0  # atno 17371 bound_to 10713
  139.9844  134.7086  155.9801 LP  0  0  0  0  0  0  0  0  0  0  0  0  # atno 17394 bound_to 11000
  141.1545  133.6544  156.4117 LP  0  0  0  0  0  0  0  0  0  0  0  0  # atno 17395 bound_to 11000

$$$$
