#       Name:                AV-unprocessed.smi:3208
#       Creating user name   scv26
#       Creation time:       Fri Mar 27 18:10:17 2020


#       File generated by GOLD software.
#

@<TRIPOS>MOLECULE
AV-unprocessed.smi:3208
    34    34     1
SMALL
NO_CHARGES


@<TRIPOS>ATOM
      1 ****        -4.6010  -0.3477   0.3572 C.2            1 S1                 0.0000
      2 ****        -3.7206  -0.6162   1.3330 C.2            1 S1                 0.0000
      3 ****        -2.2349  -0.3443   1.2471 C.3            1 S1                 0.0000
      4 ****        -1.5039  -1.5530   1.4145 O.3            1 S1                 0.0000
      5 ****        -0.0884  -1.4060   1.5047 C.3            1 S1                 0.0000
      6 ****         0.4872  -2.7487   1.9787 C.3            1 S1                 0.0000
      7 ****         0.4995  -0.9955   0.1448 C.2            1 S1                 0.0000
      8 ****         0.4478  -1.7795  -0.8039 O.2            1 S1                 0.0000
      9 ****         1.0299   0.2401   0.0913 N.am           1 S1                 0.0000
     10 ****         1.6519   0.8971  -1.0060 C.ar           1 S1                 0.0000
     11 ****         1.8021   0.3171  -2.2235 N.ar           1 S1                 0.0000
     12 ****         2.4086   1.0046  -3.2130 C.ar           1 S1                 0.0000
     13 ****         2.9034   2.3109  -3.0533 C.ar           1 S1                 0.0000
     14 ****         2.7542   2.9256  -1.7981 C.ar           1 S1                 0.0000
     15 ****         2.1212   2.2144  -0.7589 C.ar           1 S1                 0.0000
     16 ****         1.9764   2.8137   0.4632 O.co2          1 S1                -1.0000
     17 ****        -4.2859   0.0929  -0.5775 H              1 S1                 0.0000
     18 ****        -5.6511  -0.5667   0.4824 H              1 S1                 0.0000
     19 ****        -4.0715  -1.0577   2.2543 H              1 S1                 0.0000
     20 ****        -2.0055   0.1236   0.2887 H              1 S1                 0.0000
     21 ****        -1.9717   0.3660   2.0319 H              1 S1                 0.0000
     22 ****         0.1487  -0.6495   2.2554 H              1 S1                 0.0000
     23 ****         1.5746  -2.7089   2.0536 H              1 S1                 0.0000
     24 ****         0.2269  -3.5601   1.2981 H              1 S1                 0.0000
     25 ****         0.0990  -3.0087   2.9636 H              1 S1                 0.0000
     26 ****         0.9942   0.7836   0.9418 H              1 S1                 0.0000
     27 ****         2.5028   0.4965  -4.1613 H              1 S1                 0.0000
     28 ****         3.3840   2.8273  -3.8707 H              1 S1                 0.0000
     29 ****         3.1216   3.9285  -1.6367 H              1 S1                 0.0000
     30 ****        -1.7032  -2.1445   0.6331 LP             1 S1                 0.0000
     31 ****        -1.8223  -1.9920   2.2546 LP             1 S1                 0.0000
     32 ****         0.0249  -2.6781  -0.6875 LP             1 S1                 0.0000
     33 ****         0.8288  -1.5173  -1.6906 LP             1 S1                 0.0000
     34 ****         1.4665  -0.6108  -2.3856 LP             1 S1                 0.0000
@<TRIPOS>BOND
    1    1    2 2     
    2    1   17 1     
    3    1   18 1     
    4    2    3 1     
    5    2   19 1     
    6    3    4 1     
    7    3   20 1     
    8    3   21 1     
    9    4    5 1     
   10    5    6 1     
   11    5    7 1     
   12    5   22 1     
   13    6   23 1     
   14    6   24 1     
   15    6   25 1     
   16    7    8 2     
   17    7    9 am    
   18    9   26 1     
   19    9   10 1     
   20   10   15 ar    
   21   10   11 ar    
   22   11   12 ar    
   23   12   27 1     
   24   12   13 ar    
   25   13   28 1     
   26   13   14 ar    
   27   14   15 ar    
   28   14   29 1     
   29   15   16 ar    
   30    4   30 1     
   31    4   31 1     
   32    8   32 1     
   33    8   33 1     
   34   11   34 1     
@<TRIPOS>SUBSTRUCTURE
      1 S1             1
@<TRIPOS>SET
LONE_PAIRS      STATIC     ATOMS    <user>   **** ""
6 30 31 32 33 34 16
DONOR_HYDROGENS      STATIC     ATOMS    <user>   **** ""
1 26
ATOM$BLUE        STATIC     ATOMS    COLORGROUP SYSTEM
6 30 31 32 33 34 16
ATOM$RED        STATIC     ATOMS    COLORGROUP SYSTEM
1 26
