#       Name:                AV-unprocessed.smi:66
#       Creating user name   scv26
#       Creation time:       Thu Mar 26 16:52:04 2020


#       File generated by GOLD software.
#

@<TRIPOS>MOLECULE
AV-unprocessed.smi:66
    37    39     1
SMALL
NO_CHARGES


@<TRIPOS>ATOM
      1 ****        -1.8779   2.9929  -1.2552 O.co2          1 S1                 0.0000
      2 ****        -1.7060   1.7636  -1.4070 C.2            1 S1                 0.0000
      3 ****        -2.6032   0.9363  -1.6840 O.co2          1 S1                -1.0000
      4 ****        -0.2691   1.2430  -1.2556 C.3            1 S1                 0.0000
      5 ****         0.3165   0.7657  -2.5926 C.3            1 S1                 0.0000
      6 ****         1.3499  -0.2657  -2.1500 C.3            1 S1                 0.0000
      7 ****         1.6781  -1.1826  -3.1730 O.3            1 S1                 0.0000
      8 ****         0.6871  -0.9356  -0.9442 C.3            1 S1                 0.0000
      9 ****        -0.1763   0.0852  -0.3619 N.pl3          1 S1                 0.0000
     10 ****        -0.2556   0.2177   1.0428 C.ar           1 S1                 0.0000
     11 ****        -0.2816   1.4685   1.5708 N.ar           1 S1                 0.0000
     12 ****        -0.3522   1.5867   2.9010 C.ar           1 S1                 0.0000
     13 ****        -0.3974   0.5955   3.7959 N.ar           1 S1                 0.0000
     14 ****        -0.3775  -0.6539   3.2883 C.ar           1 S1                 0.0000
     15 ****        -0.4180  -1.8458   3.8621 N.pl3          1 S1                -1.0000
     16 ****        -0.3808  -2.7725   2.8708 C.2            1 S1                 0.0000
     17 ****        -0.3142  -2.2371   1.6350 N.2            1 S1                 0.0000
     18 ****        -0.3068  -0.8999   1.9173 C.ar           1 S1                 0.0000
     19 ****         0.3655   2.0397  -0.8645 H              1 S1                 0.0000
     20 ****        -0.4479   0.2860  -3.2075 H              1 S1                 0.0000
     21 ****         0.7549   1.5776  -3.1734 H              1 S1                 0.0000
     22 ****         2.2554   0.2497  -1.8263 H              1 S1                 0.0000
     23 ****         2.0312  -0.6991  -3.9037 H              1 S1                 0.0000
     24 ****         0.0616  -1.7748  -1.2514 H              1 S1                 0.0000
     25 ****         1.4402  -1.3072  -0.2482 H              1 S1                 0.0000
     26 ****        -0.3687   2.5922   3.2948 H              1 S1                 0.0000
     27 ****        -0.4080  -3.8266   3.1185 H              1 S1                 0.0000
     28 ****        -2.7919   3.3860  -1.3549 LP             1 S1                 0.0000
     29 ****        -1.1013   3.5828  -1.0340 LP             1 S1                 0.0000
     30 ****        -3.5475   1.2435  -1.8016 LP             1 S1                 0.0000
     31 ****        -2.3758  -0.0319  -1.7876 LP             1 S1                 0.0000
     32 ****         0.8575  -1.6769  -3.4597 LP             1 S1                 0.0000
     33 ****         2.3592  -1.8335  -2.8376 LP             1 S1                 0.0000
     34 ****        -0.2489   2.2767   0.9828 LP             1 S1                 0.0000
     35 ****        -0.4431   0.7691   4.7797 LP             1 S1                 0.0000
     36 ****        -0.4669  -2.0296   4.8439 LP             1 S1                 0.0000
     37 ****        -0.2794  -2.6965   0.7475 LP             1 S1                 0.0000
@<TRIPOS>BOND
    1    1    2 ar    
    2    2    3 ar    
    3    2    4 1     
    4    4    5 1     
    5    4   19 1     
    6    4    9 1     
    7    5    6 1     
    8    5   20 1     
    9    5   21 1     
   10    6    7 1     
   11    6    8 1     
   12    6   22 1     
   13    7   23 1     
   14    8   24 1     
   15    8   25 1     
   16    8    9 1     
   17    9   10 1     
   18   10   11 ar    
   19   10   18 ar    
   20   11   12 ar    
   21   12   26 1     
   22   12   13 ar    
   23   13   14 ar    
   24   14   15 1     
   25   14   18 ar    
   26   15   16 1     
   27   16   17 2     
   28   16   27 1     
   29   17   18 1     
   30    1   28 1     
   31    1   29 1     
   32    3   30 1     
   33    3   31 1     
   34    7   32 1     
   35    7   33 1     
   36   11   34 1     
   37   13   35 1     
   38   15   36 1     
   39   17   37 1     
@<TRIPOS>SUBSTRUCTURE
      1 S1             1
@<TRIPOS>SET
LONE_PAIRS      STATIC     ATOMS    <user>   **** ""
10 28 29 30 31 32 33 34 35 36 37
DONOR_HYDROGENS      STATIC     ATOMS    <user>   **** ""
1 23
ATOM$BLUE        STATIC     ATOMS    COLORGROUP SYSTEM
10 28 29 30 31 32 33 34 35 36 37
ATOM$RED        STATIC     ATOMS    COLORGROUP SYSTEM
1 23
