#       Name:                AV-unprocessed.smi:2033
#       Creating user name   scv26
#       Creation time:       Fri Mar 27 10:53:36 2020


#       File generated by GOLD software.
#

@<TRIPOS>MOLECULE
AV-unprocessed.smi:2033
    39    40     1
SMALL
NO_CHARGES


@<TRIPOS>ATOM
      1 ****        -6.8549   2.3342  -0.7264 C.3            1 S1                 0.0000
      2 ****        -5.4879   1.7599  -0.5737 C.2            1 S1                 0.0000
      3 ****        -5.2380   0.4471  -0.6533 N.2            1 S1                 0.0000
      4 ****        -3.8921   0.1563  -0.4789 N.2            1 S1                 0.0000
      5 ****        -3.1649   1.2626  -0.2716 C.2            1 S1                 0.0000
      6 ****        -1.7605   1.2567  -0.0632 N.am           1 S1                 0.0000
      7 ****        -0.9322   0.1999   0.0067 C.2            1 S1                 0.0000
      8 ****        -1.2702  -0.9792  -0.1021 O.2            1 S1                 0.0000
      9 ****         0.3334   0.5906   0.2161 N.am           1 S1                 0.0000
     10 ****         1.4860  -0.2959   0.3860 C.3            1 S1                 0.0000
     11 ****         2.0334  -0.7297  -0.9923 C.3            1 S1                 0.0000
     12 ****         2.8453  -2.0345  -0.9586 C.3            1 S1                 0.0000
     13 ****         4.1296  -1.9738  -0.1185 C.3            1 S1                 0.0000
     14 ****         3.8751  -1.7721   1.3852 C.3            1 S1                 0.0000
     15 ****         3.5818  -0.3849   1.7229 N.am           1 S1                 0.0000
     16 ****         2.5371   0.3487   1.3094 C.2            1 S1                 0.0000
     17 ****         2.4236   1.5241   1.6573 O.2            1 S1                 0.0000
     18 ****        -4.0744   2.7638  -0.2768 S.3            1 S1                 0.0000
     19 ****        -7.6030   1.5422  -0.7761 H              1 S1                 0.0000
     20 ****        -6.9096   2.9249  -1.6407 H              1 S1                 0.0000
     21 ****        -7.0852   2.9787   0.1221 H              1 S1                 0.0000
     22 ****        -1.3369   2.1652   0.0540 H              1 S1                 0.0000
     23 ****         0.5180   1.5801   0.2959 H              1 S1                 0.0000
     24 ****         1.1261  -1.1840   0.9091 H              1 S1                 0.0000
     25 ****         1.2031  -0.8850  -1.6825 H              1 S1                 0.0000
     26 ****         2.6310   0.0722  -1.4283 H              1 S1                 0.0000
     27 ****         2.2123  -2.8462  -0.5979 H              1 S1                 0.0000
     28 ****         3.1136  -2.3006  -1.9814 H              1 S1                 0.0000
     29 ****         4.6622  -2.9161  -0.2515 H              1 S1                 0.0000
     30 ****         4.7967  -1.1988  -0.4984 H              1 S1                 0.0000
     31 ****         3.0803  -2.4283   1.7431 H              1 S1                 0.0000
     32 ****         4.7725  -2.0502   1.9382 H              1 S1                 0.0000
     33 ****         4.2484   0.0729   2.3276 H              1 S1                 0.0000
     34 ****        -5.9406  -0.2448  -0.8194 LP             1 S1                 0.0000
     35 ****        -3.5109  -0.7678  -0.5049 LP             1 S1                 0.0000
     36 ****        -2.2305  -1.2119  -0.2559 LP             1 S1                 0.0000
     37 ****        -0.5844  -1.7040  -0.0368 LP             1 S1                 0.0000
     38 ****         1.6456   2.0664   1.3403 LP             1 S1                 0.0000
     39 ****         3.1095   1.9365   2.2568 LP             1 S1                 0.0000
@<TRIPOS>BOND
    1    1    2 1     
    2    1   19 1     
    3    1   20 1     
    4    1   21 1     
    5    2   18 1     
    6    2    3 2     
    7    3    4 1     
    8    4    5 2     
    9    5    6 1     
   10    5   18 1     
   11    6    7 am    
   12    6   22 1     
   13    7    8 2     
   14    7    9 am    
   15    9   10 1     
   16    9   23 1     
   17   10   16 1     
   18   10   11 1     
   19   10   24 1     
   20   11   12 1     
   21   11   25 1     
   22   11   26 1     
   23   12   13 1     
   24   12   27 1     
   25   12   28 1     
   26   13   14 1     
   27   13   29 1     
   28   13   30 1     
   29   14   15 1     
   30   14   31 1     
   31   14   32 1     
   32   15   16 am    
   33   15   33 1     
   34   16   17 2     
   35    3   34 1     
   36    4   35 1     
   37    8   36 1     
   38    8   37 1     
   39   17   38 1     
   40   17   39 1     
@<TRIPOS>SUBSTRUCTURE
      1 S1             1
@<TRIPOS>SET
LONE_PAIRS      STATIC     ATOMS    <user>   **** ""
6 34 35 36 37 38 39
DONOR_HYDROGENS      STATIC     ATOMS    <user>   **** ""
3 22 23 33
ATOM$BLUE        STATIC     ATOMS    COLORGROUP SYSTEM
6 34 35 36 37 38 39
ATOM$RED        STATIC     ATOMS    COLORGROUP SYSTEM
3 22 23 33
