AV-unprocessed.smi:3287|AV-procd|sdf|12599|dock6
  -GOLD-   2272018523D 1   1.00000     0.00000
 Structure written by MMmdl.
 43 44  0  0  0  0  0  0  0  0  2 V2000
  152.5549  143.3429  161.8982 C   0  0  0  0  0  0  0  0  0  0  0  0
  152.5956  143.4075  160.3609 C   0  0  1  0  0  0  0  0  0  0  0  0
  152.2470  142.0256  159.7727 C   0  0  0  0  0  0  0  0  0  0  0  0
  152.2807  142.0224  158.2363 C   0  0  0  0  0  0  0  0  0  0  0  0
  151.3610  143.0987  157.6359 C   0  0  1  0  0  0  0  0  0  0  0  0
  149.9380  142.7339  157.8295 N   0  3  0  0  0  0  0  0  0  0  0  0
  149.5028  141.4909  157.1566 C   0  0  0  0  0  0  0  0  0  0  0  0
  150.1065  141.3743  155.7464 C   0  0  2  0  0  0  0  0  0  0  0  0
  149.1305  141.7590  154.7972 O   0  0  0  0  0  0  0  0  0  0  0  0
  150.6236  139.9676  155.4891 C   0  0  0  0  0  0  0  0  0  0  0  0
  151.9978  139.6774  155.6216 C   0  0  0  0  0  0  0  0  0  0  0  0
  152.4347  138.3590  155.3828 C   0  0  0  0  0  0  0  0  0  0  0  0
  151.6030  137.3541  155.0341 N   0  0  0  0  0  0  0  0  0  0  0  0
  150.2884  137.6357  154.9110 C   0  0  0  0  0  0  0  0  0  0  0  0
  149.7487  138.9194  155.1286 C   0  0  0  0  0  0  0  0  0  0  0  0
  151.7016  144.4809  158.2308 C   0  0  0  0  0  0  0  0  0  0  0  0
  151.6660  144.5033  159.7750 C   0  0  2  0  0  0  0  0  0  0  0  0
  152.0126  145.9148  160.2819 C   0  0  0  0  0  0  0  0  0  0  0  0
  151.5397  143.1827  162.2625 H   0  0  0  0  0  0  0  0  0  0  0  0
  152.9356  144.2567  162.3533 H   0  0  0  0  0  0  0  0  0  0  0  0
  153.1728  142.5253  162.2710 H   0  0  0  0  0  0  0  0  0  0  0  0
  153.6210  143.6420  160.0699 H   0  0  0  0  0  0  0  0  0  0  0  0
  152.9466  141.2770  160.1466 H   0  0  0  0  0  0  0  0  0  0  0  0
  151.2598  141.7164  160.1187 H   0  0  0  0  0  0  0  0  0  0  0  0
  153.3045  142.2010  157.9047 H   0  0  0  0  0  0  0  0  0  0  0  0
  152.0082  141.0365  157.8576 H   0  0  0  0  0  0  0  0  0  0  0  0
  151.5456  143.1247  156.5610 H   0  0  0  0  0  0  0  0  0  0  0  0
  149.7885  142.5984  158.8195 H   0  0  0  0  0  0  0  0  0  0  0  0
  149.8168  140.6335  157.7517 H   0  0  0  0  0  0  0  0  0  0  0  0
  148.4134  141.4625  157.1040 H   0  0  0  0  0  0  0  0  0  0  0  0
  150.9419  142.0699  155.6531 H   0  0  0  0  0  0  0  0  0  0  0  0
  148.3695  142.0752  155.2612 H   0  0  0  0  0  0  0  0  0  0  0  0
  152.7062  140.4438  155.9007 H   0  0  0  0  0  0  0  0  0  0  0  0
  153.4802  138.1049  155.4764 H   0  0  0  0  0  0  0  0  0  0  0  0
  149.6463  136.8131  154.6327 H   0  0  0  0  0  0  0  0  0  0  0  0
  148.6872  139.0886  155.0208 H   0  0  0  0  0  0  0  0  0  0  0  0
  152.7027  144.7621  157.8998 H   0  0  0  0  0  0  0  0  0  0  0  0
  151.0386  145.2462  157.8278 H   0  0  0  0  0  0  0  0  0  0  0  0
  150.6442  144.2877  160.0906 H   0  0  0  0  0  0  0  0  0  0  0  0
  153.0493  146.1722  160.0624 H   0  0  0  0  0  0  0  0  0  0  0  0
  151.8643  146.0074  161.3574 H   0  0  0  0  0  0  0  0  0  0  0  0
  151.3788  146.6666  159.8110 H   0  0  0  0  0  0  0  0  0  0  0  0
  149.3583  143.5017  157.5225 H   0  0  0  0  0  0  0  0  0  0  0  0
  1  2  1  0  0  0  0
  1 19  1  0  0  0  0
  1 20  1  0  0  0  0
  1 21  1  0  0  0  0
  2 17  1  0  0  0  0
  2  3  1  0  0  0  0
  2 22  1  0  0  0  0
  3  4  1  0  0  0  0
  3 23  1  0  0  0  0
  3 24  1  0  0  0  0
  4  5  1  0  0  0  0
  4 25  1  0  0  0  0
  4 26  1  0  0  0  0
  5  6  1  0  0  0  0
  5 16  1  0  0  0  0
  5 27  1  0  0  0  0
  6  7  1  0  0  0  0
  6 28  1  0  0  0  0
  6 43  1  0  0  0  0
  7  8  1  0  0  0  0
  7 29  1  0  0  0  0
  7 30  1  0  0  0  0
  8  9  1  0  0  0  0
  8 10  1  0  0  0  0
  8 31  1  0  0  0  0
  9 32  1  0  0  0  0
 10 15  1  0  0  0  0
 10 11  2  0  0  0  0
 11 12  1  0  0  0  0
 11 33  1  0  0  0  0
 12 13  2  0  0  0  0
 12 34  1  0  0  0  0
 13 14  1  0  0  0  0
 14 15  2  0  0  0  0
 14 35  1  0  0  0  0
 15 36  1  0  0  0  0
 16 17  1  0  0  0  0
 16 37  1  0  0  0  0
 16 38  1  0  0  0  0
 17 18  1  0  0  0  0
 17 39  1  0  0  0  0
 18 40  1  0  0  0  0
 18 41  1  0  0  0  0
 18 42  1  0  0  0  0
M  CHG  1   6   1
M  END
> <s_m_source_file>
AV-unprocessed.smi

> <i_m_source_file_index>
3287

> <i_lp_mmshare_version>
43012

> <i_f3d_flags>
0

> <s_epik_input>
W0NIM11bQ0BASF0xW0NIMl1bQ0gyXVtDQEhdKFtDSDJdW0NASF0xW0NIM10pW05IXVtDSDJdW0NASF0oW09IXSljMltjSF1bY0hdbltjSF1bY0hdMg==

> <s_epik_cmdline>
J2VwaWtfcHl0aG9uJywgJy1waCcsICc3LjAnLCAnLXRuJywgJzgnLCAnLW1hJywgJzIwMCcsICctbWV0YWxfYmluZGluZycsICctaW1hZScsICc8aW5maWxlLm1hZT4nLCAnLW9tYWUnLCAnPG91dGZpbGUubWFlPic=

> <r_lp_tautomer_probability>
1

> <r_epik_Ionization_Penalty>
0.00537262

> <r_epik_Ionization_Penalty_Charging>
0.00321624

> <r_epik_Ionization_Penalty_Neutral>
0.00215638

> <r_epik_State_Penalty>
-0

> <r_epik_Charging_Adjusted_Penalty>
0.00321624

> <i_epik_Tot_Q>
1

> <i_epik_Tot_abs_Q>
1

> <r_epik_Metal_State_Penalty>
-0

> <b_epik_Metal_Only>
0

> <s_lp_Force_Field>
OPLS_2005

> <r_lp_Energy>
19.0403

> <b_lp_Chiralities_Consistent>
1

> <s_lp_Variant>
AV-unprocessed.smi:3287-10

> <Gold.Version>
5.8.1

> <Gold.Id.Protein>
6NUR|6NUR_protein|mol2

> <Gold.PLP.Fitness>
56.1231

> <Gold.PLP.PLP>
-45.7304

> <Gold.PLP.part.hbond>
-4.1128

> <Gold.PLP.part.metal>
0.0000

> <Gold.PLP.part.buried>
-1.1213

> <Gold.PLP.part.nonpolar>
-39.0540

> <Gold.PLP.part.repulsive>
0.1466

> <Gold.PLP.ligand.clash>
0.0000

> <Gold.PLP.ligand.torsion>
1.2376

> <Gold.PLP.Chemscore.Hbond>
3.2823

> <Gold.PLP.Chemscore.CHOScore>
1.0000

> <Gold.PLP.Chemscore.Metal>
0.0000

> <Gold.Chemscore.Hbonds>
donor molecule, donor type, donor heavy atom, donor atom, acceptor molecule, acceptor atom, score
      L1  H     6    43       P1  8028  0.70
      P1  H 10752 10764       L1    13  0.33
      L1  C    14    35       P1  7948  0.09

> <Gold.PLP.Chemscore.Internal.Correction>
0.0209

> <Gold.Rescore>
     Score         DG    S(hbond)    S(metal)    S(lipo)     H(rot)  DE(clash)    DE(int)     intcor
     21.42     -22.51       1.90        0.00     133.10       1.90       0.16       0.93       ----

> <Gold.Chemscore.Fitness>
21.4153

> <Gold.Chemscore.DG>
-22.5088

> <Gold.Chemscore.ZeroCoef>
-5.4800

> <Gold.Chemscore.Hbond>
1.8950

> <Gold.Chemscore.Metal>
0.0000

> <Gold.Chemscore.Lipo>
133.0974

> <Gold.Chemscore.Internal_Hbond>
0.0000

> <Gold.Chemscore.DEClash>
0.1608

> <Gold.Chemscore.DEInternal>
0.9327

> <Gold.Chemscore.Rot>
1.9035

> <Gold.Chemscore.Internal.Correction>
   9.000000E+99

> <Gold.Chemscore.Hbonds>
donor molecule, donor type, donor heavy atom, donor atom, acceptor molecule, acceptor atom, score
      L1  H     6    43       P1  8028  0.20
      P1  H 10752 10764       L1    13  0.17

> <Gold.Chemscore.Hbond.Weighted>
-6.3293

> <Gold.Chemscore.Metal.Weighted>
-0.0000

> <Gold.Chemscore.Lipo.Weighted>
-15.5724

> <Gold.Chemscore.Internal_Hbond.Weighted>
0.0000

> <Gold.Chemscore.DEClash.Weighted>
0.1608

> <Gold.Chemscore.DEInternal.Weighted>
0.9327

> <Gold.Chemscore.Rot.Weighted>
4.8729

> <Gold.Chemscore.Internal.Correction.Weighted>
   9.000000E+99

> <Gold.Protein.RotatedTorsions>
[ 6907 6896 6895 6894 ] final  -58.43 input  -60.11 | X-H torsion
[ 7974 7965 7964 7962 ] final -113.25 input  175.53 | X-H torsion
[ 8008 7997 7996 7995 ] final   11.69 input   59.86 | X-H torsion
[ 10167 10162 10161 10158 ] final  -88.31 input  -65.29 | X-H torsion
[ 10718 10713 10712 10709 ] final  108.70 input   66.30 | X-H torsion
[ 10763 10752 10751 10750 ] final  -79.75 input  -60.55 | X-H torsion
[ 11005 11000 10999 10996 ] final  -78.58 input  -57.11 | X-H torsion

> <Gold.Protein.ActiveResidues>
 VAL166  LYS551  ARG553  GLY616  TRP617  ASP618  TYR619  PRO620  LYS621  CYS622 
 ASP623  PHE694  ASN695  SER759  ASP760  ASP761  ALA762  ILE779  LEU786  VAL792 
 PHE793  MET794  SER795  GLU796  ALA797  LYS798  CYS799  TRP800  GLU811  SER814 

> <Gold.Protein.RotatedAtoms>
  150.8008  134.7100  159.6597 H   0  0  0  0  0  0  0  0  0  0  0  0  # atno 6907 bound_to 6896
  152.4124  134.6097  160.0032 H   0  0  0  0  0  0  0  0  0  0  0  0  # atno 6908 bound_to 6896
  151.6336  133.3293  159.3150 H   0  0  0  0  0  0  0  0  0  0  0  0  # atno 6909 bound_to 6896
  145.1343  140.8742  143.3739 H   0  0  0  0  0  0  0  0  0  0  0  0  # atno 7974 bound_to 7965
  154.8103  140.2867  155.5858 H   0  0  0  0  0  0  0  0  0  0  0  0  # atno 8008 bound_to 7997
  156.2987  140.2569  156.2920 H   0  0  0  0  0  0  0  0  0  0  0  0  # atno 8009 bound_to 7997
  154.9455  140.0380  157.2107 H   0  0  0  0  0  0  0  0  0  0  0  0  # atno 8010 bound_to 7997
  140.3759  143.2772  151.9443 H   0  0  0  0  0  0  0  0  0  0  0  0  # atno 10167 bound_to 10162
  157.6574  131.0899  150.6344 H   0  0  0  0  0  0  0  0  0  0  0  0  # atno 10718 bound_to 10713
  154.5425  135.5685  153.6852 H   0  0  0  0  0  0  0  0  0  0  0  0  # atno 10763 bound_to 10752
  152.9967  135.6231  154.2482 H   0  0  0  0  0  0  0  0  0  0  0  0  # atno 10764 bound_to 10752
  154.2414  135.2862  155.2832 H   0  0  0  0  0  0  0  0  0  0  0  0  # atno 10765 bound_to 10752
  141.1665  133.7069  156.7993 H   0  0  0  0  0  0  0  0  0  0  0  0  # atno 11005 bound_to 11000
  145.0601  139.3112  143.5884 LP  0  0  0  0  0  0  0  0  0  0  0  0  # atno 17320 bound_to 7965
  146.3511  140.0040  142.8673 LP  0  0  0  0  0  0  0  0  0  0  0  0  # atno 17321 bound_to 7965
  139.4799  144.5864  151.7847 LP  0  0  0  0  0  0  0  0  0  0  0  0  # atno 17342 bound_to 10162
  140.4986  144.1202  150.5966 LP  0  0  0  0  0  0  0  0  0  0  0  0  # atno 17343 bound_to 10162
  156.6649  130.4523  149.5675 LP  0  0  0  0  0  0  0  0  0  0  0  0  # atno 17370 bound_to 10713
  156.2039  130.6637  151.1198 LP  0  0  0  0  0  0  0  0  0  0  0  0  # atno 17371 bound_to 10713
  140.2268  134.8716  157.3435 LP  0  0  0  0  0  0  0  0  0  0  0  0  # atno 17394 bound_to 11000
  140.1932  134.4346  155.7704 LP  0  0  0  0  0  0  0  0  0  0  0  0  # atno 17395 bound_to 11000

$$$$
