AV-unprocessed.smi:2520|AV-procd|sdf|9909|dock7
  -GOLD-   2272013543D 1   1.00000     0.00000
 Structure written by MMmdl.
 41 44  0  0  0  0  0  0  0  0  1 V2000
  149.7282  140.4981  158.1757 O   0  0  0  0  0  0  0  0  0  0  0  0
  149.5667  141.2855  157.2451 C   0  0  0  0  0  0  0  0  0  0  0  0
  150.0425  142.5474  157.3097 N   0  0  0  0  0  0  0  0  0  0  0  0
  150.7670  143.2307  158.3305 C   0  0  0  0  0  0  0  0  0  0  0  0
  151.6938  144.1851  157.8588 C   0  0  0  0  0  0  0  0  0  0  0  0
  152.4486  144.9077  158.7986 C   0  0  0  0  0  0  0  0  0  0  0  0
  152.2235  144.6275  160.1570 C   0  0  0  0  0  0  0  0  0  0  0  0
  151.3240  143.7079  160.5671 N   0  0  0  0  0  0  0  0  0  0  0  0
  150.6107  143.0251  159.6658 N   0  0  0  0  0  0  0  0  0  0  0  0
  148.9173  140.9572  156.1185 N   0  0  0  0  0  0  0  0  0  0  0  0
  148.3407  139.6502  155.8063 C   0  0  2  0  0  0  0  0  0  0  0  0
  149.3998  138.5246  155.7651 C   0  0  2  0  0  0  0  0  0  0  0  0
  150.8059  138.7063  156.2852 C   0  0  0  0  0  0  0  0  0  0  0  0
  151.5982  139.0384  155.0172 C   0  0  0  0  0  0  0  0  0  0  0  0
  150.6218  139.4941  154.0830 O   0  0  0  0  0  0  0  0  0  0  0  0
  149.4475  138.7039  154.2558 C   0  0  2  0  0  0  0  0  0  0  0  0
  148.1071  139.4675  154.2883 C   0  0  0  0  0  0  0  0  0  0  0  0
  147.9625  140.6858  153.3752 C   0  0  0  0  0  0  0  0  0  0  0  0
  147.4012  140.1804  152.0448 C   0  0  0  0  0  0  0  0  0  0  0  0
  146.6687  138.8771  152.3774 C   0  0  0  0  0  0  0  0  0  0  0  0
  146.8836  138.6502  153.8771 C   0  0  0  0  0  0  0  0  0  0  0  0
  149.8284  143.1138  156.5019 H   0  0  0  0  0  0  0  0  0  0  0  0
  151.8262  144.3611  156.8011 H   0  0  0  0  0  0  0  0  0  0  0  0
  153.1717  145.6480  158.4898 H   0  0  0  0  0  0  0  0  0  0  0  0
  152.7721  145.1488  160.9275 H   0  0  0  0  0  0  0  0  0  0  0  0
  148.8257  141.6687  155.4068 H   0  0  0  0  0  0  0  0  0  0  0  0
  147.4689  139.3838  156.4061 H   0  0  0  0  0  0  0  0  0  0  0  0
  148.9536  137.5650  156.0306 H   0  0  0  0  0  0  0  0  0  0  0  0
  150.8741  139.5118  157.0163 H   0  0  0  0  0  0  0  0  0  0  0  0
  151.1891  137.8037  156.7618 H   0  0  0  0  0  0  0  0  0  0  0  0
  152.3693  139.7902  155.1872 H   0  0  0  0  0  0  0  0  0  0  0  0
  152.0761  138.1418  154.6199 H   0  0  0  0  0  0  0  0  0  0  0  0
  149.4611  137.7688  153.6938 H   0  0  0  0  0  0  0  0  0  0  0  0
  147.2610  141.3966  153.8143 H   0  0  0  0  0  0  0  0  0  0  0  0
  148.9009  141.2221  153.2308 H   0  0  0  0  0  0  0  0  0  0  0  0
  146.7450  140.9165  151.5792 H   0  0  0  0  0  0  0  0  0  0  0  0
  148.2159  139.9776  151.3483 H   0  0  0  0  0  0  0  0  0  0  0  0
  145.6073  138.9319  152.1332 H   0  0  0  0  0  0  0  0  0  0  0  0
  147.0959  138.0541  151.8031 H   0  0  0  0  0  0  0  0  0  0  0  0
  146.9914  137.5897  154.1075 H   0  0  0  0  0  0  0  0  0  0  0  0
  146.0053  139.0003  154.4217 H   0  0  0  0  0  0  0  0  0  0  0  0
  1  2  2  0  0  0  0
  2  3  1  0  0  0  0
  2 10  1  0  0  0  0
  3  4  1  0  0  0  0
  3 22  1  0  0  0  0
  4  9  1  0  0  0  0
  4  5  2  0  0  0  0
  5  6  1  0  0  0  0
  5 23  1  0  0  0  0
  6  7  2  0  0  0  0
  6 24  1  0  0  0  0
  7  8  1  0  0  0  0
  7 25  1  0  0  0  0
  8  9  2  0  0  0  0
 10 11  1  0  0  0  0
 10 26  1  0  0  0  0
 11 17  1  0  0  0  0
 11 12  1  0  0  0  0
 11 27  1  0  0  0  0
 12 16  1  0  0  0  0
 12 13  1  0  0  0  0
 12 28  1  0  0  0  0
 13 14  1  0  0  0  0
 13 29  1  0  0  0  0
 13 30  1  0  0  0  0
 14 15  1  0  0  0  0
 14 31  1  0  0  0  0
 14 32  1  0  0  0  0
 15 16  1  0  0  0  0
 16 17  1  0  0  0  0
 16 33  1  0  0  0  0
 17 21  1  0  0  0  0
 17 18  1  0  0  0  0
 18 19  1  0  0  0  0
 18 34  1  0  0  0  0
 18 35  1  0  0  0  0
 19 20  1  0  0  0  0
 19 36  1  0  0  0  0
 19 37  1  0  0  0  0
 20 21  1  0  0  0  0
 20 38  1  0  0  0  0
 20 39  1  0  0  0  0
 21 40  1  0  0  0  0
 21 41  1  0  0  0  0
M  END
> <s_m_source_file>
AV-unprocessed.smi

> <i_m_source_file_index>
2520

> <i_lp_mmshare_version>
43012

> <i_f3d_flags>
0

> <s_epik_input>
bjFuW2NIXVtjSF1bY0hdYzFbTkhdQyg9TylbTkhdW0NAQEhdMltDQEBIXShbQ0gyXVtDSDJdTzMpW0NASF0zQzI0W0NIMl1bQ0gyXVtDSDJdW0NIMl00

> <s_epik_cmdline>
J2VwaWtfcHl0aG9uJywgJy1waCcsICc3LjAnLCAnLXRuJywgJzgnLCAnLW1hJywgJzIwMCcsICctbWV0YWxfYmluZGluZycsICctaW1hZScsICc8aW5maWxlLm1hZT4nLCAnLW9tYWUnLCAnPG91dGZpbGUubWFlPic=

> <r_lp_tautomer_probability>
1

> <r_epik_Ionization_Penalty>
0.00552561

> <r_epik_Ionization_Penalty_Charging>
0

> <r_epik_Ionization_Penalty_Neutral>
0.00552561

> <r_epik_State_Penalty>
-0

> <r_epik_Charging_Adjusted_Penalty>
0

> <i_epik_Tot_Q>
0

> <i_epik_Tot_abs_Q>
0

> <r_epik_Metal_State_Penalty>
-0

> <b_epik_Metal_Only>
0

> <s_lp_Force_Field>
OPLS_2005

> <r_lp_Energy>
62.4196

> <b_lp_Chiralities_Consistent>
1

> <s_lp_Variant>
AV-unprocessed.smi:2520-3

> <Gold.Version>
5.8.1

> <Gold.Id.Protein>
6NUR|6NUR_protein|mol2

> <Gold.PLP.Fitness>
37.8558

> <Gold.PLP.PLP>
-33.1338

> <Gold.PLP.part.hbond>
-3.2176

> <Gold.PLP.part.metal>
0.0000

> <Gold.PLP.part.buried>
2.1831

> <Gold.PLP.part.nonpolar>
-32.1238

> <Gold.PLP.part.repulsive>
0.3860

> <Gold.PLP.ligand.clash>
0.0000

> <Gold.PLP.ligand.torsion>
0.3651

> <Gold.PLP.Chemscore.Hbond>
1.7500

> <Gold.PLP.Chemscore.CHOScore>
0.0000

> <Gold.PLP.Chemscore.Metal>
0.0000

> <Gold.Chemscore.Hbonds>
donor molecule, donor type, donor heavy atom, donor atom, acceptor molecule, acceptor atom, score
      L1  H     3    22       P1  8028  0.98
      P1  H  7989  7998       L1    15  0.75

> <Gold.PLP.Chemscore.Internal.Correction>
0.2021

> <Gold.Rescore>
     Score         DG    S(hbond)    S(metal)    S(lipo)     H(rot)  DE(clash)    DE(int)     intcor
     15.65     -19.41       1.65        0.00      93.90       1.00       2.34       1.42       ----

> <Gold.Chemscore.Fitness>
15.6533

> <Gold.Chemscore.DG>
-19.4059

> <Gold.Chemscore.ZeroCoef>
-5.4800

> <Gold.Chemscore.Hbond>
1.6465

> <Gold.Chemscore.Metal>
0.0000

> <Gold.Chemscore.Lipo>
93.9013

> <Gold.Chemscore.Internal_Hbond>
0.0000

> <Gold.Chemscore.DEClash>
2.3363

> <Gold.Chemscore.DEInternal>
1.4163

> <Gold.Chemscore.Rot>
1.0000

> <Gold.Chemscore.Internal.Correction>
   9.000000E+99

> <Gold.Chemscore.Hbonds>
donor molecule, donor type, donor heavy atom, donor atom, acceptor molecule, acceptor atom, score
      L1  H     3    22       P1  8028  0.86
      P1  H  7989  7998       L1    15  0.09

> <Gold.Chemscore.Hbond.Weighted>
-5.4994

> <Gold.Chemscore.Metal.Weighted>
-0.0000

> <Gold.Chemscore.Lipo.Weighted>
-10.9865

> <Gold.Chemscore.Internal_Hbond.Weighted>
0.0000

> <Gold.Chemscore.DEClash.Weighted>
2.3363

> <Gold.Chemscore.DEInternal.Weighted>
1.4163

> <Gold.Chemscore.Rot.Weighted>
2.5600

> <Gold.Chemscore.Internal.Correction.Weighted>
   9.000000E+99

> <Gold.Protein.RotatedTorsions>
[ 6907 6896 6895 6894 ] final -159.24 input  -60.11 | X-H torsion
[ 7974 7965 7964 7962 ] final -167.74 input  175.53 | X-H torsion
[ 8008 7997 7996 7995 ] final  117.45 input   59.86 | X-H torsion
[ 10167 10162 10161 10158 ] final -138.16 input  -65.29 | X-H torsion
[ 10718 10713 10712 10709 ] final  144.32 input   66.30 | X-H torsion
[ 10763 10752 10751 10750 ] final   78.70 input  -60.55 | X-H torsion
[ 11005 11000 10999 10996 ] final  -45.29 input  -57.11 | X-H torsion

> <Gold.Protein.ActiveResidues>
 VAL166  LYS551  ARG553  GLY616  TRP617  ASP618  TYR619  PRO620  LYS621  CYS622 
 ASP623  PHE694  ASN695  SER759  ASP760  ASP761  ALA762  ILE779  LEU786  VAL792 
 PHE793  MET794  SER795  GLU796  ALA797  LYS798  CYS799  TRP800  GLU811  SER814 

> <Gold.Protein.RotatedAtoms>
  151.3305  133.4003  159.2661 H   0  0  0  0  0  0  0  0  0  0  0  0  # atno 6907 bound_to 6896
  150.9960  134.9284  159.7937 H   0  0  0  0  0  0  0  0  0  0  0  0  # atno 6908 bound_to 6896
  152.5261  134.3270  159.9221 H   0  0  0  0  0  0  0  0  0  0  0  0  # atno 6909 bound_to 6896
  144.7217  140.2473  143.6283 H   0  0  0  0  0  0  0  0  0  0  0  0  # atno 7974 bound_to 7965
  156.2495  140.2896  156.0681 H   0  0  0  0  0  0  0  0  0  0  0  0  # atno 8008 bound_to 7997
  155.1701  140.0401  157.2878 H   0  0  0  0  0  0  0  0  0  0  0  0  # atno 8009 bound_to 7997
  154.6332  140.2504  155.7416 H   0  0  0  0  0  0  0  0  0  0  0  0  # atno 8010 bound_to 7997
  139.8506  143.7203  152.2658 H   0  0  0  0  0  0  0  0  0  0  0  0  # atno 10167 bound_to 10162
  157.3585  131.0961  151.0936 H   0  0  0  0  0  0  0  0  0  0  0  0  # atno 10718 bound_to 10713
  153.0894  135.4867  154.8661 H   0  0  0  0  0  0  0  0  0  0  0  0  # atno 10763 bound_to 10752
  154.7251  135.3048  154.8986 H   0  0  0  0  0  0  0  0  0  0  0  0  # atno 10764 bound_to 10752
  153.9639  135.6809  153.4799 H   0  0  0  0  0  0  0  0  0  0  0  0  # atno 10765 bound_to 10752
  141.0506  133.6744  156.2992 H   0  0  0  0  0  0  0  0  0  0  0  0  # atno 11005 bound_to 11000
  145.8261  139.2065  143.1909 LP  0  0  0  0  0  0  0  0  0  0  0  0  # atno 17320 bound_to 7965
  146.0471  140.8107  142.9800 LP  0  0  0  0  0  0  0  0  0  0  0  0  # atno 17321 bound_to 7965
  139.7469  144.7545  151.0566 LP  0  0  0  0  0  0  0  0  0  0  0  0  # atno 17342 bound_to 10162
  140.7788  143.4906  150.9898 LP  0  0  0  0  0  0  0  0  0  0  0  0  # atno 17343 bound_to 10162
  157.2085  130.6427  149.5765 LP  0  0  0  0  0  0  0  0  0  0  0  0  # atno 17370 bound_to 10713
  155.9733  130.4667  150.6300 LP  0  0  0  0  0  0  0  0  0  0  0  0  # atno 17371 bound_to 10713
  140.6063  134.5504  157.5526 LP  0  0  0  0  0  0  0  0  0  0  0  0  # atno 17394 bound_to 11000
  139.9347  134.7897  156.0835 LP  0  0  0  0  0  0  0  0  0  0  0  0  # atno 17395 bound_to 11000

$$$$
