AV-unprocessed.smi:1207|AV-procd|sdf|5054|dock2
  -GOLD-   22720 4 83D 1   1.00000     0.00000
 Structure written by MMmdl.
 52 54  0  0  0  0  0  0  0  0  2 V2000
  152.1928  144.2268  159.5278 C   0  0  0  0  0  0  0  0  0  0  0  0
  151.9988  142.9784  158.6851 C   0  0  0  0  0  0  0  0  0  0  0  0
  151.2509  143.0660  157.4893 C   0  0  0  0  0  0  0  0  0  0  0  0
  151.0495  141.9296  156.6759 C   0  0  0  0  0  0  0  0  0  0  0  0
  150.3656  141.7892  155.4805 N   0  0  0  0  0  0  0  0  0  0  0  0
  150.5418  140.4973  155.2205 C   0  0  0  0  0  0  0  0  0  0  0  0
  151.2611  139.7824  156.1067 N   0  0  0  0  0  0  0  0  0  0  0  0
  151.5884  138.3701  156.0289 C   0  0  0  0  0  0  0  0  0  0  0  0
  151.0293  137.7054  154.7562 C   0  0  1  0  0  0  0  0  0  0  0  0
  152.0997  137.2559  153.9460 O   0  0  0  0  0  0  0  0  0  0  0  0
  150.1282  136.5020  155.0858 C   0  0  0  0  0  0  0  0  0  0  0  0
  148.8650  136.5347  154.3010 N   0  3  2  0  0  0  0  0  0  0  0  0
  148.1884  137.8505  154.3631 C   0  0  0  0  0  0  0  0  0  0  0  0
  147.9388  135.4155  154.6054 C   0  0  0  0  0  0  0  0  0  0  0  0
  148.5229  134.0897  154.1860 C   0  0  0  0  0  0  0  0  0  0  0  0
  149.5092  133.3118  154.8584 C   0  0  0  0  0  0  0  0  0  0  0  0
  150.2058  133.6044  156.1568 C   0  0  0  0  0  0  0  0  0  0  0  0
  149.8026  132.2071  154.1942 N   0  0  0  0  0  0  0  0  0  0  0  0
  148.9992  132.2216  153.0504 O   0  0  0  0  0  0  0  0  0  0  0  0
  148.2449  133.3490  153.0699 C   0  0  0  0  0  0  0  0  0  0  0  0
  147.3217  133.5520  151.9167 C   0  0  0  0  0  0  0  0  0  0  0  0
  151.6196  140.6924  157.0960 C   0  0  0  0  0  0  0  0  0  0  0  0
  152.3638  140.5920  158.2847 C   0  0  0  0  0  0  0  0  0  0  0  0
  152.5577  141.7378  159.0842 C   0  0  0  0  0  0  0  0  0  0  0  0
  153.3666  141.6200  160.3636 C   0  0  0  0  0  0  0  0  0  0  0  0
  151.6725  145.0827  159.0968 H   0  0  0  0  0  0  0  0  0  0  0  0
  153.2511  144.4792  159.5979 H   0  0  0  0  0  0  0  0  0  0  0  0
  151.8051  144.0729  160.5351 H   0  0  0  0  0  0  0  0  0  0  0  0
  150.8251  144.0109  157.1848 H   0  0  0  0  0  0  0  0  0  0  0  0
  150.1266  140.0438  154.3323 H   0  0  0  0  0  0  0  0  0  0  0  0
  152.6728  138.2611  156.0761 H   0  0  0  0  0  0  0  0  0  0  0  0
  151.1886  137.8780  156.9166 H   0  0  0  0  0  0  0  0  0  0  0  0
  150.4665  138.4485  154.1905 H   0  0  0  0  0  0  0  0  0  0  0  0
  151.7741  137.0940  153.0733 H   0  0  0  0  0  0  0  0  0  0  0  0
  150.6910  135.5899  154.8877 H   0  0  0  0  0  0  0  0  0  0  0  0
  149.8937  136.4762  156.1511 H   0  0  0  0  0  0  0  0  0  0  0  0
  147.8280  138.0572  155.3718 H   0  0  0  0  0  0  0  0  0  0  0  0
  147.3353  137.8778  153.6844 H   0  0  0  0  0  0  0  0  0  0  0  0
  148.8632  138.6550  154.0709 H   0  0  0  0  0  0  0  0  0  0  0  0
  147.6963  135.4322  155.6688 H   0  0  0  0  0  0  0  0  0  0  0  0
  146.9966  135.5807  154.0814 H   0  0  0  0  0  0  0  0  0  0  0  0
  150.7122  134.5689  156.1207 H   0  0  0  0  0  0  0  0  0  0  0  0
  150.9549  132.8480  156.3949 H   0  0  0  0  0  0  0  0  0  0  0  0
  149.4937  133.6340  156.9815 H   0  0  0  0  0  0  0  0  0  0  0  0
  146.5651  134.3019  152.1476 H   0  0  0  0  0  0  0  0  0  0  0  0
  146.8088  132.6242  151.6620 H   0  0  0  0  0  0  0  0  0  0  0  0
  147.8728  133.8868  151.0378 H   0  0  0  0  0  0  0  0  0  0  0  0
  152.7847  139.6415  158.5774 H   0  0  0  0  0  0  0  0  0  0  0  0
  153.7478  140.6077  160.5017 H   0  0  0  0  0  0  0  0  0  0  0  0
  152.7501  141.8668  161.2281 H   0  0  0  0  0  0  0  0  0  0  0  0
  154.2201  142.2978  160.3406 H   0  0  0  0  0  0  0  0  0  0  0  0
  149.1383  136.4017  153.3374 H   0  0  0  0  0  0  0  0  0  0  0  0
  1  2  1  0  0  0  0
  1 26  1  0  0  0  0
  1 27  1  0  0  0  0
  1 28  1  0  0  0  0
  2 24  1  0  0  0  0
  2  3  2  0  0  0  0
  3  4  1  0  0  0  0
  3 29  1  0  0  0  0
  4 22  2  0  0  0  0
  4  5  1  0  0  0  0
  5  6  2  0  0  0  0
  6  7  1  0  0  0  0
  6 30  1  0  0  0  0
  7  8  1  0  0  0  0
  7 22  1  0  0  0  0
  8  9  1  0  0  0  0
  8 31  1  0  0  0  0
  8 32  1  0  0  0  0
  9 10  1  0  0  0  0
  9 11  1  0  0  0  0
  9 33  1  0  0  0  0
 10 34  1  0  0  0  0
 11 12  1  0  0  0  0
 11 35  1  0  0  0  0
 11 36  1  0  0  0  0
 12 13  1  0  0  0  0
 12 14  1  0  0  0  0
 12 52  1  0  0  0  0
 13 37  1  0  0  0  0
 13 38  1  0  0  0  0
 13 39  1  0  0  0  0
 14 15  1  0  0  0  0
 14 40  1  0  0  0  0
 14 41  1  0  0  0  0
 15 20  2  0  0  0  0
 15 16  1  0  0  0  0
 16 17  1  0  0  0  0
 16 18  2  0  0  0  0
 17 42  1  0  0  0  0
 17 43  1  0  0  0  0
 17 44  1  0  0  0  0
 18 19  1  0  0  0  0
 19 20  1  0  0  0  0
 20 21  1  0  0  0  0
 21 45  1  0  0  0  0
 21 46  1  0  0  0  0
 21 47  1  0  0  0  0
 22 23  1  0  0  0  0
 23 24  2  0  0  0  0
 23 48  1  0  0  0  0
 24 25  1  0  0  0  0
 25 49  1  0  0  0  0
 25 50  1  0  0  0  0
 25 51  1  0  0  0  0
M  CHG  1  12   1
M  END
> <s_m_source_file>
AV-unprocessed.smi

> <i_m_source_file_index>
1207

> <i_lp_mmshare_version>
43012

> <i_f3d_flags>
0

> <s_epik_input>
W0NIM11jKFtjSF0xKWMoW0NIM10pW2NIXWMoYzEyKW4oW2NIXW4yKVtDSDJdW0NASF0oW09IXSlbQ0gyXU4oW0NIM10pW0NIMl1jM2MoW0NIM10pbm9jM1tDSDNd

> <s_epik_cmdline>
J2VwaWtfcHl0aG9uJywgJy1waCcsICc3LjAnLCAnLXRuJywgJzgnLCAnLW1hJywgJzIwMCcsICctbWV0YWxfYmluZGluZycsICctaW1hZScsICc8aW5maWxlLm1hZT4nLCAnLW9tYWUnLCAnPG91dGZpbGUubWFlPic=

> <r_epik_Ionization_Penalty>
0.646518

> <r_epik_Ionization_Penalty_Charging>
0.559419

> <r_epik_Ionization_Penalty_Neutral>
0.0870981

> <r_epik_State_Penalty>
0.661677

> <r_epik_Charging_Adjusted_Penalty>
1.2211

> <i_epik_Tot_Q>
1

> <i_epik_Tot_abs_Q>
1

> <r_epik_Metal_State_Penalty>
0.649158

> <b_epik_Metal_Only>
0

> <s_lp_Force_Field>
OPLS_2005

> <r_lp_Energy>
8.09598

> <b_lp_Chiralities_Consistent>
1

> <s_lp_Variant>
AV-unprocessed.smi:1207-6

> <Gold.Version>
5.8.1

> <Gold.Id.Protein>
6NUR|6NUR_protein|mol2

> <Gold.PLP.Fitness>
56.4932

> <Gold.PLP.PLP>
-47.5606

> <Gold.PLP.part.hbond>
-3.1959

> <Gold.PLP.part.metal>
0.0000

> <Gold.PLP.part.buried>
-4.8886

> <Gold.PLP.part.nonpolar>
-39.6273

> <Gold.PLP.part.repulsive>
0.2824

> <Gold.PLP.ligand.clash>
0.0000

> <Gold.PLP.ligand.torsion>
1.7437

> <Gold.PLP.Chemscore.Hbond>
4.0000

> <Gold.PLP.Chemscore.CHOScore>
0.0000

> <Gold.PLP.Chemscore.Metal>
0.0000

> <Gold.Chemscore.Hbonds>
donor molecule, donor type, donor heavy atom, donor atom, acceptor molecule, acceptor atom, score
      L1  H    10    34       P1  7949  1.00
      L1  H    12    52       P1  7948  1.72
      P1  H 10752 10764       L1    10  0.86

> <Gold.PLP.Chemscore.Internal.Correction>
0.4200

> <Gold.Rescore>
     Score         DG    S(hbond)    S(metal)    S(lipo)     H(rot)  DE(clash)    DE(int)     intcor
     19.12     -21.11       2.47        0.00     116.65       2.46       0.01       1.97       ----

> <Gold.Chemscore.Fitness>
19.1230

> <Gold.Chemscore.DG>
-21.1053

> <Gold.Chemscore.ZeroCoef>
-5.4800

> <Gold.Chemscore.Hbond>
2.4747

> <Gold.Chemscore.Metal>
0.0000

> <Gold.Chemscore.Lipo>
116.6537

> <Gold.Chemscore.Internal_Hbond>
0.0000

> <Gold.Chemscore.DEClash>
0.0116

> <Gold.Chemscore.DEInternal>
1.9708

> <Gold.Chemscore.Rot>
2.4565

> <Gold.Chemscore.Internal.Correction>
   9.000000E+99

> <Gold.Chemscore.Hbonds>
donor molecule, donor type, donor heavy atom, donor atom, acceptor molecule, acceptor atom, score
      L1  H    10    34       P1  7949  0.92
      L1  H    12    52       P1  7948  0.81
      P1  H 10752 10764       L1    10  0.16

> <Gold.Chemscore.Hbond.Weighted>
-8.2656

> <Gold.Chemscore.Metal.Weighted>
-0.0000

> <Gold.Chemscore.Lipo.Weighted>
-13.6485

> <Gold.Chemscore.Internal_Hbond.Weighted>
0.0000

> <Gold.Chemscore.DEClash.Weighted>
0.0116

> <Gold.Chemscore.DEInternal.Weighted>
1.9708

> <Gold.Chemscore.Rot.Weighted>
6.2887

> <Gold.Chemscore.Internal.Correction.Weighted>
   9.000000E+99

> <Gold.Protein.RotatedTorsions>
[ 6907 6896 6895 6894 ] final  163.79 input  -60.11 | X-H torsion
[ 7974 7965 7964 7962 ] final  167.56 input  175.53 | X-H torsion
[ 8008 7997 7996 7995 ] final    9.47 input   59.86 | X-H torsion
[ 10167 10162 10161 10158 ] final   73.57 input  -65.29 | X-H torsion
[ 10718 10713 10712 10709 ] final  -46.19 input   66.30 | X-H torsion
[ 10763 10752 10751 10750 ] final  -83.77 input  -60.55 | X-H torsion
[ 11005 11000 10999 10996 ] final  -95.98 input  -57.11 | X-H torsion

> <Gold.Protein.ActiveResidues>
 VAL166  LYS551  ARG553  GLY616  TRP617  ASP618  TYR619  PRO620  LYS621  CYS622 
 ASP623  PHE694  ASN695  SER759  ASP760  ASP761  ALA762  ILE779  LEU786  VAL792 
 PHE793  MET794  SER795  GLU796  ALA797  LYS798  CYS799  TRP800  GLU811  SER814 

> <Gold.Protein.RotatedAtoms>
  151.9197  133.3582  159.3892 H   0  0  0  0  0  0  0  0  0  0  0  0  # atno 6907 bound_to 6896
  150.7039  134.4647  159.5406 H   0  0  0  0  0  0  0  0  0  0  0  0  # atno 6908 bound_to 6896
  152.2269  134.8360  160.0529 H   0  0  0  0  0  0  0  0  0  0  0  0  # atno 6909 bound_to 6896
  144.7420  139.8778  143.6394 H   0  0  0  0  0  0  0  0  0  0  0  0  # atno 7974 bound_to 7965
  154.7805  140.2818  155.6067 H   0  0  0  0  0  0  0  0  0  0  0  0  # atno 8008 bound_to 7997
  156.2949  140.2624  156.2558 H   0  0  0  0  0  0  0  0  0  0  0  0  # atno 8009 bound_to 7997
  154.9790  140.0375  157.2258 H   0  0  0  0  0  0  0  0  0  0  0  0  # atno 8010 bound_to 7997
  140.0230  144.5525  150.7566 H   0  0  0  0  0  0  0  0  0  0  0  0  # atno 10167 bound_to 10162
  156.2208  130.4166  149.8996 H   0  0  0  0  0  0  0  0  0  0  0  0  # atno 10718 bound_to 10713
  154.5916  135.5544  153.7284 H   0  0  0  0  0  0  0  0  0  0  0  0  # atno 10763 bound_to 10752
  153.0119  135.6344  154.1841 H   0  0  0  0  0  0  0  0  0  0  0  0  # atno 10764 bound_to 10752
  154.1782  135.2888  155.3040 H   0  0  0  0  0  0  0  0  0  0  0  0  # atno 10765 bound_to 10752
  141.1425  133.8064  157.0508 H   0  0  0  0  0  0  0  0  0  0  0  0  # atno 11005 bound_to 11000
  146.1233  139.4255  143.0214 LP  0  0  0  0  0  0  0  0  0  0  0  0  # atno 17320 bound_to 7965
  145.7272  141.0055  143.1371 LP  0  0  0  0  0  0  0  0  0  0  0  0  # atno 17321 bound_to 7965
  140.7334  143.2717  151.3868 LP  0  0  0  0  0  0  0  0  0  0  0  0  # atno 17342 bound_to 10162
  139.6127  144.1066  152.2315 LP  0  0  0  0  0  0  0  0  0  0  0  0  # atno 17343 bound_to 10162
  156.6643  130.8794  151.3552 LP  0  0  0  0  0  0  0  0  0  0  0  0  # atno 17370 bound_to 10713
  157.7086  130.9414  150.1013 LP  0  0  0  0  0  0  0  0  0  0  0  0  # atno 17371 bound_to 10713
  140.0633  134.9743  157.1342 LP  0  0  0  0  0  0  0  0  0  0  0  0  # atno 17394 bound_to 11000
  140.3817  134.2280  155.7170 LP  0  0  0  0  0  0  0  0  0  0  0  0  # atno 17395 bound_to 11000

$$$$
