AV-unprocessed.smi:1817|AV-procd|sdf|7368|dock2
  -GOLD-   22720 9 33D 1   1.00000     0.00000
 Structure written by MMmdl.
 43 44  0  0  0  0  0  0  0  0  2 V2000
  145.7053  128.8428  151.5305 C   0  0  0  0  0  0  0  0  0  0  0  0
  146.5835  129.6445  152.5016 C   0  0  0  0  0  0  0  0  0  0  0  0
  146.9167  130.9975  151.9906 N   0  3  0  0  0  0  0  0  0  0  0  0
  147.4146  131.8932  153.0634 C   0  0  0  0  0  0  0  0  0  0  0  0
  147.7789  133.2771  152.4869 C   0  0  0  0  0  0  0  0  0  0  0  0
  146.6181  133.9294  151.8643 N   0  0  0  0  0  0  0  0  0  0  0  0
  145.5194  134.3024  152.7833 C   0  0  2  0  0  0  0  0  0  0  0  0
  144.4582  135.1457  152.0375 C   0  0  0  0  0  0  0  0  0  0  0  0
  146.0330  135.0722  154.0319 C   0  0  0  0  0  0  0  0  0  0  0  0
  147.1451  135.9638  153.7160 N   0  0  0  0  0  0  0  0  0  0  0  0
  147.4488  137.0735  154.4054 C   0  0  0  0  0  0  0  0  0  0  0  0
  146.8245  137.4420  155.4014 O   0  0  0  0  0  0  0  0  0  0  0  0
  148.5001  137.7136  153.8648 N   0  0  0  0  0  0  0  0  0  0  0  0
  149.0905  138.9374  154.2778 C   0  0  0  0  0  0  0  0  0  0  0  0
  150.4154  139.1250  154.3860 N   0  0  0  0  0  0  0  0  0  0  0  0
  150.7248  140.4094  154.8139 N   0  0  0  0  0  0  0  0  0  0  0  0
  149.6229  141.1383  155.0127 C   0  0  0  0  0  0  0  0  0  0  0  0
  148.0990  140.3272  154.6953 S   0  0  0  0  0  0  0  0  0  0  0  0
  146.2153  133.0509  150.7553 C   0  0  0  0  0  0  0  0  0  0  0  0
  145.8057  131.6427  151.2443 C   0  0  0  0  0  0  0  0  0  0  0  0
  145.5651  127.8248  151.8943 H   0  0  0  0  0  0  0  0  0  0  0  0
  146.1643  128.7792  150.5435 H   0  0  0  0  0  0  0  0  0  0  0  0
  144.7149  129.2825  151.4162 H   0  0  0  0  0  0  0  0  0  0  0  0
  146.1040  129.7213  153.4786 H   0  0  0  0  0  0  0  0  0  0  0  0
  147.5084  129.0869  152.6545 H   0  0  0  0  0  0  0  0  0  0  0  0
  146.6751  131.9783  153.8610 H   0  0  0  0  0  0  0  0  0  0  0  0
  148.3039  131.4508  153.5135 H   0  0  0  0  0  0  0  0  0  0  0  0
  148.2330  133.9090  153.2475 H   0  0  0  0  0  0  0  0  0  0  0  0
  148.5574  133.1570  151.7319 H   0  0  0  0  0  0  0  0  0  0  0  0
  145.0307  133.3967  153.1376 H   0  0  0  0  0  0  0  0  0  0  0  0
  143.6873  135.5165  152.7125 H   0  0  0  0  0  0  0  0  0  0  0  0
  143.9279  134.5700  151.2804 H   0  0  0  0  0  0  0  0  0  0  0  0
  144.9098  136.0117  151.5525 H   0  0  0  0  0  0  0  0  0  0  0  0
  145.2600  135.6937  154.4820 H   0  0  0  0  0  0  0  0  0  0  0  0
  146.3574  134.3712  154.8017 H   0  0  0  0  0  0  0  0  0  0  0  0
  147.7079  135.7270  152.9118 H   0  0  0  0  0  0  0  0  0  0  0  0
  148.9181  137.2846  153.0524 H   0  0  0  0  0  0  0  0  0  0  0  0
  149.7081  142.1609  155.3488 H   0  0  0  0  0  0  0  0  0  0  0  0
  145.4162  133.4971  150.1665 H   0  0  0  0  0  0  0  0  0  0  0  0
  147.0538  132.9596  150.0631 H   0  0  0  0  0  0  0  0  0  0  0  0
  145.5508  131.0377  150.3749 H   0  0  0  0  0  0  0  0  0  0  0  0
  144.9085  131.6833  151.8623 H   0  0  0  0  0  0  0  0  0  0  0  0
  147.6815  130.8870  151.3404 H   0  0  0  0  0  0  0  0  0  0  0  0
  1  2  1  0  0  0  0
  1 21  1  0  0  0  0
  1 22  1  0  0  0  0
  1 23  1  0  0  0  0
  2  3  1  0  0  0  0
  2 24  1  0  0  0  0
  2 25  1  0  0  0  0
  3 20  1  0  0  0  0
  3  4  1  0  0  0  0
  3 43  1  0  0  0  0
  4  5  1  0  0  0  0
  4 26  1  0  0  0  0
  4 27  1  0  0  0  0
  5  6  1  0  0  0  0
  5 28  1  0  0  0  0
  5 29  1  0  0  0  0
  6  7  1  0  0  0  0
  6 19  1  0  0  0  0
  7  8  1  0  0  0  0
  7  9  1  0  0  0  0
  7 30  1  0  0  0  0
  8 31  1  0  0  0  0
  8 32  1  0  0  0  0
  8 33  1  0  0  0  0
  9 10  1  0  0  0  0
  9 34  1  0  0  0  0
  9 35  1  0  0  0  0
 10 11  1  0  0  0  0
 10 36  1  0  0  0  0
 11 12  2  0  0  0  0
 11 13  1  0  0  0  0
 13 14  1  0  0  0  0
 13 37  1  0  0  0  0
 14 18  1  0  0  0  0
 14 15  2  0  0  0  0
 15 16  1  0  0  0  0
 16 17  2  0  0  0  0
 17 18  1  0  0  0  0
 17 38  1  0  0  0  0
 19 20  1  0  0  0  0
 19 39  1  0  0  0  0
 19 40  1  0  0  0  0
 20 41  1  0  0  0  0
 20 42  1  0  0  0  0
M  CHG  1   3   1
M  END
> <s_m_source_file>
AV-unprocessed.smi

> <i_m_source_file_index>
1817

> <i_lp_mmshare_version>
43012

> <i_f3d_flags>
0

> <s_epik_input>
W0NIM11bQ0gyXU4xW0NIMl1bQ0gyXU4oW0NIMl1bQ0gyXTEpW0NASF0oW0NIM10pW0NIMl1bTkhdQyg9TylbTkhdYzJubltjSF1zMg==

> <s_epik_cmdline>
J2VwaWtfcHl0aG9uJywgJy1waCcsICc3LjAnLCAnLXRuJywgJzgnLCAnLW1hJywgJzIwMCcsICctbWV0YWxfYmluZGluZycsICctaW1hZScsICc8aW5maWxlLm1hZT4nLCAnLW9tYWUnLCAnPG91dGZpbGUubWFlPic=

> <r_lp_tautomer_probability>
1

> <r_epik_Ionization_Penalty>
0.0474318

> <r_epik_Ionization_Penalty_Charging>
0.0451959

> <r_epik_Ionization_Penalty_Neutral>
0.00223598

> <r_epik_State_Penalty>
0.165541

> <r_epik_Charging_Adjusted_Penalty>
0.210737

> <i_epik_Tot_Q>
1

> <i_epik_Tot_abs_Q>
1

> <r_epik_Metal_State_Penalty>
0.500395

> <b_epik_Metal_Only>
0

> <s_lp_Force_Field>
OPLS_2005

> <r_lp_Energy>
19.2999

> <b_lp_Chiralities_Consistent>
1

> <s_lp_Variant>
AV-unprocessed.smi:1817-1

> <Gold.Version>
5.8.1

> <Gold.Id.Protein>
6NUR|6NUR_protein|mol2

> <Gold.PLP.Fitness>
42.9921

> <Gold.PLP.PLP>
-30.6793

> <Gold.PLP.part.hbond>
-3.9470

> <Gold.PLP.part.metal>
0.0000

> <Gold.PLP.part.buried>
-2.9156

> <Gold.PLP.part.nonpolar>
-23.5286

> <Gold.PLP.part.repulsive>
0.5050

> <Gold.PLP.ligand.clash>
0.0000

> <Gold.PLP.ligand.torsion>
1.0879

> <Gold.PLP.Chemscore.Hbond>
3.8048

> <Gold.PLP.Chemscore.CHOScore>
1.0000

> <Gold.PLP.Chemscore.Metal>
0.0000

> <Gold.Chemscore.Hbonds>
donor molecule, donor type, donor heavy atom, donor atom, acceptor molecule, acceptor atom, score
      L1  H     3    43       P1 10747  1.00
      L1  H    10    36       P1  7948  0.94
      L1  H    13    37       P1  7948  1.00
      P1  H  7989  7998       L1    16  0.90
      L1  C    17    38       P1  8028  0.57

> <Gold.PLP.Chemscore.Internal.Correction>
0.0742

> <Gold.Rescore>
     Score         DG    S(hbond)    S(metal)    S(lipo)     H(rot)  DE(clash)    DE(int)     intcor
     17.19     -18.18       2.94        0.00      66.77       1.92       0.10       0.89       ----

> <Gold.Chemscore.Fitness>
17.1887

> <Gold.Chemscore.DG>
-18.1838

> <Gold.Chemscore.ZeroCoef>
-5.4800

> <Gold.Chemscore.Hbond>
2.9358

> <Gold.Chemscore.Metal>
0.0000

> <Gold.Chemscore.Lipo>
66.7727

> <Gold.Chemscore.Internal_Hbond>
0.0000

> <Gold.Chemscore.DEClash>
0.1022

> <Gold.Chemscore.DEInternal>
0.8929

> <Gold.Chemscore.Rot>
1.9196

> <Gold.Chemscore.Internal.Correction>
   9.000000E+99

> <Gold.Chemscore.Hbonds>
donor molecule, donor type, donor heavy atom, donor atom, acceptor molecule, acceptor atom, score
      L1  H     3    43       P1 10747  1.00
      L1  H    10    36       P1  7948  0.91
      L1  H    13    37       P1  7948  0.95
      P1  H  7989  7998       L1    16  0.15

> <Gold.Chemscore.Hbond.Weighted>
-9.8055

> <Gold.Chemscore.Metal.Weighted>
-0.0000

> <Gold.Chemscore.Lipo.Weighted>
-7.8124

> <Gold.Chemscore.Internal_Hbond.Weighted>
0.0000

> <Gold.Chemscore.DEClash.Weighted>
0.1022

> <Gold.Chemscore.DEInternal.Weighted>
0.8929

> <Gold.Chemscore.Rot.Weighted>
4.9141

> <Gold.Chemscore.Internal.Correction.Weighted>
   9.000000E+99

> <Gold.Protein.RotatedTorsions>
[ 6907 6896 6895 6894 ] final   42.66 input  -60.11 | X-H torsion
[ 7974 7965 7964 7962 ] final   66.93 input  175.53 | X-H torsion
[ 8008 7997 7996 7995 ] final   22.44 input   59.86 | X-H torsion
[ 10167 10162 10161 10158 ] final  -19.93 input  -65.29 | X-H torsion
[ 10718 10713 10712 10709 ] final  -45.83 input   66.30 | X-H torsion
[ 10763 10752 10751 10750 ] final   97.93 input  -60.55 | X-H torsion
[ 11005 11000 10999 10996 ] final  132.65 input  -57.11 | X-H torsion

> <Gold.Protein.ActiveResidues>
 VAL166  LYS551  ARG553  GLY616  TRP617  ASP618  TYR619  PRO620  LYS621  CYS622 
 ASP623  PHE694  ASN695  SER759  ASP760  ASP761  ALA762  ILE779  LEU786  VAL792 
 PHE793  MET794  SER795  GLU796  ALA797  LYS798  CYS799  TRP800  GLU811  SER814 

> <Gold.Protein.RotatedAtoms>
  152.2106  134.8505  160.0497 H   0  0  0  0  0  0  0  0  0  0  0  0  # atno 6907 bound_to 6896
  151.9325  133.3610  159.3944 H   0  0  0  0  0  0  0  0  0  0  0  0  # atno 6908 bound_to 6896
  150.6975  134.4448  159.5353 H   0  0  0  0  0  0  0  0  0  0  0  0  # atno 6909 bound_to 6896
  145.8207  139.3083  143.1045 H   0  0  0  0  0  0  0  0  0  0  0  0  # atno 7974 bound_to 7965
  154.9658  140.3084  155.5010 H   0  0  0  0  0  0  0  0  0  0  0  0  # atno 8008 bound_to 7997
  156.2972  140.2293  156.4686 H   0  0  0  0  0  0  0  0  0  0  0  0  # atno 8009 bound_to 7997
  154.7922  140.0439  157.1198 H   0  0  0  0  0  0  0  0  0  0  0  0  # atno 8010 bound_to 7997
  140.7272  143.4771  151.0167 H   0  0  0  0  0  0  0  0  0  0  0  0  # atno 10167 bound_to 10162
  156.2244  130.4168  149.8953 H   0  0  0  0  0  0  0  0  0  0  0  0  # atno 10718 bound_to 10713
  153.2829  135.4166  155.1095 H   0  0  0  0  0  0  0  0  0  0  0  0  # atno 10763 bound_to 10752
  154.8495  135.3499  154.6087 H   0  0  0  0  0  0  0  0  0  0  0  0  # atno 10764 bound_to 10752
  153.6508  135.7053  153.5267 H   0  0  0  0  0  0  0  0  0  0  0  0  # atno 10765 bound_to 10752
  139.9803  134.9550  156.9612 H   0  0  0  0  0  0  0  0  0  0  0  0  # atno 11005 bound_to 11000
  145.9678  140.8784  143.0178 LP  0  0  0  0  0  0  0  0  0  0  0  0  # atno 17320 bound_to 7965
  144.6748  140.1903  143.7397 LP  0  0  0  0  0  0  0  0  0  0  0  0  # atno 17321 bound_to 7965
  139.8467  143.7492  152.3179 LP  0  0  0  0  0  0  0  0  0  0  0  0  # atno 17342 bound_to 10162
  139.7660  144.7492  151.0294 LP  0  0  0  0  0  0  0  0  0  0  0  0  # atno 17343 bound_to 10162
  156.6588  130.8774  151.3544 LP  0  0  0  0  0  0  0  0  0  0  0  0  # atno 17370 bound_to 10713
  157.7103  130.9432  150.1067 LP  0  0  0  0  0  0  0  0  0  0  0  0  # atno 17371 bound_to 10713
  140.5110  134.1002  155.7270 LP  0  0  0  0  0  0  0  0  0  0  0  0  # atno 17394 bound_to 11000
  141.1476  133.9028  157.2178 LP  0  0  0  0  0  0  0  0  0  0  0  0  # atno 17395 bound_to 11000

$$$$
