AV-unprocessed.smi:1809|AV-procd|sdf|7318|dock1
  -GOLD-   22720 8573D 1   1.00000     0.00000
 Structure written by MMmdl.
 39 41  0  0  0  0  0  0  0  0  1 V2000
  147.0707  129.5485  153.5002 C   0  0  0  0  0  0  0  0  0  0  0  0
  147.8068  130.7921  153.8656 C   0  0  0  0  0  0  0  0  0  0  0  0
  148.7283  130.8316  154.8359 N   0  0  0  0  0  0  0  0  0  0  0  0
  149.2792  132.0965  154.9871 N   0  0  0  0  0  0  0  0  0  0  0  0
  148.7557  132.9763  154.1224 C   0  0  0  0  0  0  0  0  0  0  0  0
  149.1384  134.3423  154.0570 N   0  0  0  0  0  0  0  0  0  0  0  0
  149.9367  135.0254  154.8963 C   0  0  0  0  0  0  0  0  0  0  0  0
  150.4839  134.5582  155.8952 O   0  0  0  0  0  0  0  0  0  0  0  0
  150.0709  136.3003  154.5042 N   0  0  0  0  0  0  0  0  0  0  0  0
  150.8995  137.3053  155.1623 C   0  0  0  0  0  0  0  0  0  0  0  0
  150.9236  138.6245  154.3621 C   0  0  1  0  0  0  0  0  0  0  0  0
  149.5748  139.3820  154.4083 C   0  0  0  0  0  0  0  0  0  0  0  0
  149.3960  140.0402  155.6886 N   0  0  0  0  0  0  0  0  0  0  0  0
  148.2193  140.8652  155.8368 C   0  0  0  0  0  0  0  0  0  0  0  0
  148.5110  141.7227  157.0800 C   0  0  0  0  0  0  0  0  0  0  0  0
  150.0485  141.6819  157.2231 C   0  0  0  0  0  0  0  0  0  0  0  0
  150.4885  140.9329  155.9635 C   0  0  1  0  0  0  0  0  0  0  0  0
  151.8130  140.1620  156.0265 C   0  0  0  0  0  0  0  0  0  0  0  0
  151.9985  139.4814  154.7807 O   0  0  0  0  0  0  0  0  0  0  0  0
  147.5319  132.3245  153.0460 S   0  0  0  0  0  0  0  0  0  0  0  0
  147.2400  128.7682  154.2431 H   0  0  0  0  0  0  0  0  0  0  0  0
  147.4107  129.1874  152.5296 H   0  0  0  0  0  0  0  0  0  0  0  0
  146.0009  129.7501  153.4445 H   0  0  0  0  0  0  0  0  0  0  0  0
  148.7673  134.8582  153.2732 H   0  0  0  0  0  0  0  0  0  0  0  0
  149.5812  136.5943  153.6719 H   0  0  0  0  0  0  0  0  0  0  0  0
  150.4656  137.4871  156.1457 H   0  0  0  0  0  0  0  0  0  0  0  0
  151.9075  136.9310  155.3464 H   0  0  0  0  0  0  0  0  0  0  0  0
  151.1181  138.3676  153.3201 H   0  0  0  0  0  0  0  0  0  0  0  0
  149.5570  140.1263  153.6108 H   0  0  0  0  0  0  0  0  0  0  0  0
  148.7456  138.7004  154.2160 H   0  0  0  0  0  0  0  0  0  0  0  0
  148.0975  141.5084  154.9634 H   0  0  0  0  0  0  0  0  0  0  0  0
  147.3161  140.2638  155.9431 H   0  0  0  0  0  0  0  0  0  0  0  0
  148.1369  142.7391  156.9540 H   0  0  0  0  0  0  0  0  0  0  0  0
  148.0375  141.2983  157.9660 H   0  0  0  0  0  0  0  0  0  0  0  0
  150.4917  142.6762  157.2855 H   0  0  0  0  0  0  0  0  0  0  0  0
  150.3275  141.1282  158.1206 H   0  0  0  0  0  0  0  0  0  0  0  0
  150.5606  141.6619  155.1532 H   0  0  0  0  0  0  0  0  0  0  0  0
  152.6481  140.8434  156.1890 H   0  0  0  0  0  0  0  0  0  0  0  0
  151.8129  139.4529  156.8542 H   0  0  0  0  0  0  0  0  0  0  0  0
  1  2  1  0  0  0  0
  1 21  1  0  0  0  0
  1 22  1  0  0  0  0
  1 23  1  0  0  0  0
  2 20  1  0  0  0  0
  2  3  2  0  0  0  0
  3  4  1  0  0  0  0
  4  5  2  0  0  0  0
  5  6  1  0  0  0  0
  5 20  1  0  0  0  0
  6  7  1  0  0  0  0
  6 24  1  0  0  0  0
  7  8  2  0  0  0  0
  7  9  1  0  0  0  0
  9 10  1  0  0  0  0
  9 25  1  0  0  0  0
 10 11  1  0  0  0  0
 10 26  1  0  0  0  0
 10 27  1  0  0  0  0
 11 19  1  0  0  0  0
 11 12  1  0  0  0  0
 11 28  1  0  0  0  0
 12 13  1  0  0  0  0
 12 29  1  0  0  0  0
 12 30  1  0  0  0  0
 13 17  1  0  0  0  0
 13 14  1  0  0  0  0
 14 15  1  0  0  0  0
 14 31  1  0  0  0  0
 14 32  1  0  0  0  0
 15 16  1  0  0  0  0
 15 33  1  0  0  0  0
 15 34  1  0  0  0  0
 16 17  1  0  0  0  0
 16 35  1  0  0  0  0
 16 36  1  0  0  0  0
 17 18  1  0  0  0  0
 17 37  1  0  0  0  0
 18 19  1  0  0  0  0
 18 38  1  0  0  0  0
 18 39  1  0  0  0  0
M  END
> <s_m_source_file>
AV-unprocessed.smi

> <i_m_source_file_index>
1809

> <i_lp_mmshare_version>
43012

> <i_f3d_flags>
0

> <s_epik_input>
W0NIM11jMW5uYyhzMSlbTkhdQyg9TylbTkhdW0NIMl1bQ0BIXShbQ0gyXTIpT1tDSDJdW0NAQEhdKE4yMylbQ0gyXVtDSDJdW0NIMl0z

> <s_epik_cmdline>
J2VwaWtfcHl0aG9uJywgJy1waCcsICc3LjAnLCAnLXRuJywgJzgnLCAnLW1hJywgJzIwMCcsICctbWV0YWxfYmluZGluZycsICctaW1hZScsICc8aW5maWxlLm1hZT4nLCAnLW9tYWUnLCAnPG91dGZpbGUubWFlPic=

> <r_lp_tautomer_probability>
1

> <r_epik_Ionization_Penalty>
1.05954

> <r_epik_Ionization_Penalty_Charging>
0

> <r_epik_Ionization_Penalty_Neutral>
1.05954

> <r_epik_State_Penalty>
1.4238

> <r_epik_Charging_Adjusted_Penalty>
1.4238

> <i_epik_Tot_Q>
0

> <i_epik_Tot_abs_Q>
0

> <r_epik_Metal_State_Penalty>
1.7901

> <b_epik_Metal_Only>
0

> <s_lp_Force_Field>
OPLS_2005

> <r_lp_Energy>
48.8115

> <b_lp_Chiralities_Consistent>
1

> <s_lp_Variant>
AV-unprocessed.smi:1809-10

> <Gold.Version>
5.8.1

> <Gold.Id.Protein>
6NUR|6NUR_protein|mol2

> <Gold.PLP.Fitness>
39.9103

> <Gold.PLP.PLP>
-31.7515

> <Gold.PLP.part.hbond>
-3.7673

> <Gold.PLP.part.metal>
0.0000

> <Gold.PLP.part.buried>
-4.3038

> <Gold.PLP.part.nonpolar>
-24.2105

> <Gold.PLP.part.repulsive>
0.2615

> <Gold.PLP.ligand.clash>
0.0000

> <Gold.PLP.ligand.torsion>
0.1198

> <Gold.PLP.Chemscore.Hbond>
2.7952

> <Gold.PLP.Chemscore.CHOScore>
0.0000

> <Gold.PLP.Chemscore.Metal>
0.0000

> <Gold.Chemscore.Hbonds>
donor molecule, donor type, donor heavy atom, donor atom, acceptor molecule, acceptor atom, score
      L1  H     6    24       P1  7948  1.00
      L1  H     9    25       P1  7948  0.99
      P1  H  7989  7998       L1    19  0.74

> <Gold.PLP.Chemscore.Internal.Correction>
0.0127

> <Gold.Rescore>
     Score         DG    S(hbond)    S(metal)    S(lipo)     H(rot)  DE(clash)    DE(int)     intcor
     13.58     -14.93       1.89        0.00      55.59       1.32       0.01       1.34       ----

> <Gold.Chemscore.Fitness>
13.5802

> <Gold.Chemscore.DG>
-14.9285

> <Gold.Chemscore.ZeroCoef>
-5.4800

> <Gold.Chemscore.Hbond>
1.8931

> <Gold.Chemscore.Metal>
0.0000

> <Gold.Chemscore.Lipo>
55.5894

> <Gold.Chemscore.Internal_Hbond>
0.0000

> <Gold.Chemscore.DEClash>
0.0119

> <Gold.Chemscore.DEInternal>
1.3365

> <Gold.Chemscore.Rot>
1.3196

> <Gold.Chemscore.Internal.Correction>
   9.000000E+99

> <Gold.Chemscore.Hbonds>
donor molecule, donor type, donor heavy atom, donor atom, acceptor molecule, acceptor atom, score
      L1  H     6    24       P1  7948  0.37
      L1  H     9    25       P1  7948  0.65
      P1  H  7989  7998       L1    19  0.04

> <Gold.Chemscore.Hbond.Weighted>
-6.3229

> <Gold.Chemscore.Metal.Weighted>
-0.0000

> <Gold.Chemscore.Lipo.Weighted>
-6.5040

> <Gold.Chemscore.Internal_Hbond.Weighted>
0.0000

> <Gold.Chemscore.DEClash.Weighted>
0.0119

> <Gold.Chemscore.DEInternal.Weighted>
1.3365

> <Gold.Chemscore.Rot.Weighted>
3.3783

> <Gold.Chemscore.Internal.Correction.Weighted>
   9.000000E+99

> <Gold.Protein.RotatedTorsions>
[ 6907 6896 6895 6894 ] final  -22.13 input  -60.11 | X-H torsion
[ 7974 7965 7964 7962 ] final -175.97 input  175.53 | X-H torsion
[ 8008 7997 7996 7995 ] final  114.99 input   59.86 | X-H torsion
[ 10167 10162 10161 10158 ] final  -52.52 input  -65.29 | X-H torsion
[ 10718 10713 10712 10709 ] final   98.25 input   66.30 | X-H torsion
[ 10763 10752 10751 10750 ] final  143.89 input  -60.55 | X-H torsion
[ 11005 11000 10999 10996 ] final   91.10 input  -57.11 | X-H torsion

> <Gold.Protein.ActiveResidues>
 VAL166  LYS551  ARG553  GLY616  TRP617  ASP618  TYR619  PRO620  LYS621  CYS622 
 ASP623  PHE694  ASN695  SER759  ASP760  ASP761  ALA762  ILE779  LEU786  VAL792 
 PHE793  MET794  SER795  GLU796  ALA797  LYS798  CYS799  TRP800  GLU811  SER814 

> <Gold.Protein.RotatedAtoms>
  151.2231  135.0526  159.8957 H   0  0  0  0  0  0  0  0  0  0  0  0  # atno 6907 bound_to 6896
  152.5413  134.0619  159.8166 H   0  0  0  0  0  0  0  0  0  0  0  0  # atno 6908 bound_to 6896
  151.0788  133.5358  159.2653 H   0  0  0  0  0  0  0  0  0  0  0  0  # atno 6909 bound_to 6896
  144.7127  140.1240  143.6403 H   0  0  0  0  0  0  0  0  0  0  0  0  # atno 7974 bound_to 7965
  156.2355  140.2947  156.0300 H   0  0  0  0  0  0  0  0  0  0  0  0  # atno 8008 bound_to 7997
  155.2104  140.0412  157.2949 H   0  0  0  0  0  0  0  0  0  0  0  0  # atno 8009 bound_to 7997
  154.6071  140.2442  155.7724 H   0  0  0  0  0  0  0  0  0  0  0  0  # atno 8010 bound_to 7997
  140.6533  143.2581  151.4660 H   0  0  0  0  0  0  0  0  0  0  0  0  # atno 10167 bound_to 10162
  157.6899  131.0634  150.4768 H   0  0  0  0  0  0  0  0  0  0  0  0  # atno 10718 bound_to 10713
  153.9797  135.2942  155.3421 H   0  0  0  0  0  0  0  0  0  0  0  0  # atno 10763 bound_to 10752
  154.7276  135.5082  153.8914 H   0  0  0  0  0  0  0  0  0  0  0  0  # atno 10764 bound_to 10752
  153.0860  135.6693  154.0062 H   0  0  0  0  0  0  0  0  0  0  0  0  # atno 10765 bound_to 10752
  139.8844  134.8654  156.3379 H   0  0  0  0  0  0  0  0  0  0  0  0  # atno 11005 bound_to 11000
  145.9345  139.2628  143.1305 LP  0  0  0  0  0  0  0  0  0  0  0  0  # atno 17320 bound_to 7965
  145.9488  140.8924  143.0270 LP  0  0  0  0  0  0  0  0  0  0  0  0  # atno 17321 bound_to 7965
  139.5751  144.1838  152.1892 LP  0  0  0  0  0  0  0  0  0  0  0  0  # atno 17342 bound_to 10162
  140.1146  144.5427  150.6902 LP  0  0  0  0  0  0  0  0  0  0  0  0  # atno 17343 bound_to 10162
  156.5102  130.4137  149.6305 LP  0  0  0  0  0  0  0  0  0  0  0  0  # atno 17370 bound_to 10713
  156.3247  130.7299  151.2218 LP  0  0  0  0  0  0  0  0  0  0  0  0  # atno 17371 bound_to 10713
  140.9678  133.7346  156.0492 LP  0  0  0  0  0  0  0  0  0  0  0  0  # atno 17394 bound_to 11000
  140.7908  134.3619  157.5465 LP  0  0  0  0  0  0  0  0  0  0  0  0  # atno 17395 bound_to 11000

$$$$
