AV-unprocessed.smi:37|AV-procd|sdf|318|dock8
  -GOLD-   2262016143D 1   1.00000     0.00000
 Structure written by MMmdl.
 44 45  0  0  0  0  0  0  0  0  1 V2000
  146.6171  144.8158  161.3014 C   0  0  0  0  0  0  0  0  0  0  0  0
  146.4711  143.4751  160.5664 C   0  0  0  0  0  0  0  0  0  0  0  0
  147.3994  143.3341  159.3584 C   0  0  0  0  0  0  0  0  0  0  0  0
  146.9864  143.0240  158.2394 O   0  0  0  0  0  0  0  0  0  0  0  0
  148.6777  143.5835  159.6789 O   0  0  0  0  0  0  0  0  0  0  0  0
  149.6751  143.5743  158.6686 C   0  0  0  0  0  0  0  0  0  0  0  0
  149.9359  142.1385  158.1948 C   0  0  1  0  0  0  0  0  0  0  0  0
  148.9894  141.7449  157.2019 O   0  0  0  0  0  0  0  0  0  0  0  0
  149.6628  141.2068  156.1042 C   0  0  2  0  0  0  0  0  0  0  0  0
  148.8706  140.0625  155.5168 N   0  0  0  0  0  0  0  0  0  0  0  0
  147.6087  139.7167  155.9859 C   0  0  0  0  0  0  0  0  0  0  0  0
  146.8903  138.6903  155.4725 C   0  0  0  0  0  0  0  0  0  0  0  0
  145.6781  138.4102  155.9801 F   0  0  0  0  0  0  0  0  0  0  0  0
  147.4217  137.8824  154.3784 C   0  0  0  0  0  0  0  0  0  0  0  0
  146.8451  136.9364  153.8456 O   0  0  0  0  0  0  0  0  0  0  0  0
  148.6955  138.2629  153.9451 N   0  0  0  0  0  0  0  0  0  0  0  0
  149.4472  139.3168  154.4669 C   0  0  0  0  0  0  0  0  0  0  0  0
  150.5644  139.5628  154.0141 O   0  0  0  0  0  0  0  0  0  0  0  0
  151.0453  140.7763  156.6060 C   0  0  2  0  0  0  0  0  0  0  0  0
  150.9788  139.0164  157.5565 Br  0  0  0  0  0  0  0  0  0  0  0  0
  151.3257  141.8996  157.5902 C   0  0  2  0  0  0  0  0  0  0  0  0
  152.2868  141.5547  158.5797 O   0  0  0  0  0  0  0  0  0  0  0  0
  152.7532  142.4921  159.4229 C   0  0  0  0  0  0  0  0  0  0  0  0
  152.5163  143.6995  159.3545 O   0  0  0  0  0  0  0  0  0  0  0  0
  153.6423  141.8895  160.5125 C   0  0  0  0  0  0  0  0  0  0  0  0
  153.2167  142.2764  161.9365 C   0  0  0  0  0  0  0  0  0  0  0  0
  149.1059  137.7291  153.1929 H   0  0  0  0  0  0  0  0  0  0  0  0
  145.9302  144.8664  162.1463 H   0  0  0  0  0  0  0  0  0  0  0  0
  146.3922  145.6564  160.6438 H   0  0  0  0  0  0  0  0  0  0  0  0
  147.6273  144.9502  161.6896 H   0  0  0  0  0  0  0  0  0  0  0  0
  146.6734  142.6548  161.2552 H   0  0  0  0  0  0  0  0  0  0  0  0
  145.4423  143.3543  160.2262 H   0  0  0  0  0  0  0  0  0  0  0  0
  149.3486  144.1759  157.8189 H   0  0  0  0  0  0  0  0  0  0  0  0
  150.5924  144.0223  159.0526 H   0  0  0  0  0  0  0  0  0  0  0  0
  149.7888  141.4589  159.0355 H   0  0  0  0  0  0  0  0  0  0  0  0
  149.7094  141.9776  155.3316 H   0  0  0  0  0  0  0  0  0  0  0  0
  147.1674  140.2699  156.8020 H   0  0  0  0  0  0  0  0  0  0  0  0
  151.7681  140.7104  155.7924 H   0  0  0  0  0  0  0  0  0  0  0  0
  151.6370  142.7869  157.0370 H   0  0  0  0  0  0  0  0  0  0  0  0
  153.6279  140.8045  160.4078 H   0  0  0  0  0  0  0  0  0  0  0  0
  154.6694  142.2100  160.3372 H   0  0  0  0  0  0  0  0  0  0  0  0
  153.8845  141.8271  162.6715 H   0  0  0  0  0  0  0  0  0  0  0  0
  152.2055  141.9330  162.1572 H   0  0  0  0  0  0  0  0  0  0  0  0
  153.2473  143.3568  162.0815 H   0  0  0  0  0  0  0  0  0  0  0  0
  1  2  1  0  0  0  0
  1 28  1  0  0  0  0
  1 29  1  0  0  0  0
  1 30  1  0  0  0  0
  2  3  1  0  0  0  0
  2 31  1  0  0  0  0
  2 32  1  0  0  0  0
  3  4  2  0  0  0  0
  3  5  1  0  0  0  0
  5  6  1  0  0  0  0
  6  7  1  0  0  0  0
  6 33  1  0  0  0  0
  6 34  1  0  0  0  0
  7 21  1  0  0  0  0
  7  8  1  0  0  0  0
  7 35  1  0  0  0  0
  8  9  1  0  0  0  0
  9 10  1  0  0  0  0
  9 19  1  0  0  0  0
  9 36  1  0  0  0  0
 10 17  1  0  0  0  0
 10 11  1  0  0  0  0
 11 12  2  0  0  0  0
 11 37  1  0  0  0  0
 12 13  1  0  0  0  0
 12 14  1  0  0  0  0
 14 15  2  0  0  0  0
 14 16  1  0  0  0  0
 16 27  1  0  0  0  0
 16 17  1  0  0  0  0
 17 18  2  0  0  0  0
 19 20  1  0  0  0  0
 19 21  1  0  0  0  0
 19 38  1  0  0  0  0
 21 22  1  0  0  0  0
 21 39  1  0  0  0  0
 22 23  1  0  0  0  0
 23 24  2  0  0  0  0
 23 25  1  0  0  0  0
 25 26  1  0  0  0  0
 25 40  1  0  0  0  0
 25 41  1  0  0  0  0
 26 42  1  0  0  0  0
 26 43  1  0  0  0  0
 26 44  1  0  0  0  0
M  END
> <s_m_source_file>
AV-unprocessed.smi

> <i_m_source_file_index>
37

> <i_lp_mmshare_version>
43012

> <i_f3d_flags>
0

> <s_epik_input>
W0NIM11bQ0gyXUMoPU8pT1tDSDJdW0NAQEhdMU9bQ0BASF0objJbY0hdYyhGKWMoPU8pW25IXWMyPU8pW0NAQEhdKEJyKVtDQEhdMU9DKD1PKVtDSDJdW0NIM10=

> <s_epik_cmdline>
J2VwaWtfcHl0aG9uJywgJy1waCcsICc3LjAnLCAnLXRuJywgJzgnLCAnLW1hJywgJzIwMCcsICctbWV0YWxfYmluZGluZycsICctaW1hZScsICc8aW5maWxlLm1hZT4nLCAnLW9tYWUnLCAnPG91dGZpbGUubWFlPic=

> <r_lp_tautomer_probability>
0.999537

> <r_epik_Ionization_Penalty>
0.104106

> <r_epik_Ionization_Penalty_Charging>
0.104106

> <r_epik_Ionization_Penalty_Neutral>
3.94675e-16

> <r_epik_State_Penalty>
0.0940182

> <r_epik_Charging_Adjusted_Penalty>
0.198124

> <i_epik_Tot_Q>
0

> <i_epik_Tot_abs_Q>
0

> <r_epik_Metal_State_Penalty>
3.05314

> <b_epik_Metal_Only>
0

> <s_epik_Chemistry_Notes>
This compound has an ester and may undergo hydrolysis at high or low pH. This compound contains an acetal/aminal-like group ( X-CH(R)-Y where X, Y are N, S, or O) that may be acid/base labile, releasing an aldehyde.

> <s_lp_Force_Field>
OPLS_2005

> <r_lp_Energy>
25.1984

> <b_lp_Chiralities_Consistent>
1

> <s_lp_Variant>
AV-unprocessed.smi:37-16

> <Gold.Version>
5.8.1

> <Gold.Id.Protein>
6NUR|6NUR_protein|mol2

> <Gold.PLP.Fitness>
40.7454

> <Gold.PLP.PLP>
-35.8801

> <Gold.PLP.part.hbond>
-3.0000

> <Gold.PLP.part.metal>
0.0000

> <Gold.PLP.part.buried>
-7.5545

> <Gold.PLP.part.nonpolar>
-27.1988

> <Gold.PLP.part.repulsive>
1.3268

> <Gold.PLP.ligand.clash>
0.0000

> <Gold.PLP.ligand.torsion>
0.5631

> <Gold.PLP.Chemscore.Hbond>
1.9588

> <Gold.PLP.Chemscore.CHOScore>
0.0000

> <Gold.PLP.Chemscore.Metal>
0.0000

> <Gold.Chemscore.Hbonds>
donor molecule, donor type, donor heavy atom, donor atom, acceptor molecule, acceptor atom, score
      L1  H    16    27       P1  7948  1.00
      P1  H  7989  7998       L1    18  1.00

> <Gold.PLP.Chemscore.Internal.Correction>
0.1152

> <Gold.Rescore>
     Score         DG    S(hbond)    S(metal)    S(lipo)     H(rot)  DE(clash)    DE(int)     intcor
      4.93     -10.20       1.94        0.00      57.82       3.33       0.60       4.68       ----

> <Gold.Chemscore.Fitness>
4.9343

> <Gold.Chemscore.DG>
-10.2049

> <Gold.Chemscore.ZeroCoef>
-5.4800

> <Gold.Chemscore.Hbond>
1.9418

> <Gold.Chemscore.Metal>
0.0000

> <Gold.Chemscore.Lipo>
57.8179

> <Gold.Chemscore.Internal_Hbond>
0.0000

> <Gold.Chemscore.DEClash>
0.5951

> <Gold.Chemscore.DEInternal>
4.6755

> <Gold.Chemscore.Rot>
3.3303

> <Gold.Chemscore.Internal.Correction>
   9.000000E+99

> <Gold.Chemscore.Hbonds>
donor molecule, donor type, donor heavy atom, donor atom, acceptor molecule, acceptor atom, score
      L1  H    16    27       P1  7948  0.92
      P1  H  7989  7998       L1    18  0.99

> <Gold.Chemscore.Hbond.Weighted>
-6.4857

> <Gold.Chemscore.Metal.Weighted>
-0.0000

> <Gold.Chemscore.Lipo.Weighted>
-6.7647

> <Gold.Chemscore.Internal_Hbond.Weighted>
0.0000

> <Gold.Chemscore.DEClash.Weighted>
0.5951

> <Gold.Chemscore.DEInternal.Weighted>
4.6755

> <Gold.Chemscore.Rot.Weighted>
8.5256

> <Gold.Chemscore.Internal.Correction.Weighted>
   9.000000E+99

> <Gold.Protein.RotatedTorsions>
[ 6907 6896 6895 6894 ] final   84.83 input  -60.11 | X-H torsion
[ 7974 7965 7964 7962 ] final  130.23 input  175.53 | X-H torsion
[ 8008 7997 7996 7995 ] final -147.17 input   59.86 | X-H torsion
[ 10167 10162 10161 10158 ] final   85.10 input  -65.29 | X-H torsion
[ 10718 10713 10712 10709 ] final -179.58 input   66.30 | X-H torsion
[ 10763 10752 10751 10750 ] final   27.94 input  -60.55 | X-H torsion
[ 11005 11000 10999 10996 ] final  106.59 input  -57.11 | X-H torsion

> <Gold.Protein.ActiveResidues>
 VAL166  LYS551  ARG553  GLY616  TRP617  ASP618  TYR619  PRO620  LYS621  CYS622 
 ASP623  PHE694  ASN695  SER759  ASP760  ASP761  ALA762  ILE779  LEU786  VAL792 
 PHE793  MET794  SER795  GLU796  ALA797  LYS798  CYS799  TRP800  GLU811  SER814 

> <Gold.Protein.RotatedAtoms>
  152.5361  134.2680  159.8960 H   0  0  0  0  0  0  0  0  0  0  0  0  # atno 6907 bound_to 6896
  151.2638  133.4282  159.2625 H   0  0  0  0  0  0  0  0  0  0  0  0  # atno 6908 bound_to 6896
  151.0429  134.9634  159.8227 H   0  0  0  0  0  0  0  0  0  0  0  0  # atno 6909 bound_to 6896
  145.0202  139.4139  143.5201 H   0  0  0  0  0  0  0  0  0  0  0  0  # atno 7974 bound_to 7965
  155.5712  140.0634  157.2806 H   0  0  0  0  0  0  0  0  0  0  0  0  # atno 8008 bound_to 7997
  154.4360  140.1868  156.0927 H   0  0  0  0  0  0  0  0  0  0  0  0  # atno 8009 bound_to 7997
  156.0375  140.3299  155.7210 H   0  0  0  0  0  0  0  0  0  0  0  0  # atno 8010 bound_to 7997
  139.9012  144.6328  150.8634 H   0  0  0  0  0  0  0  0  0  0  0  0  # atno 10167 bound_to 10162
  156.8612  130.9752  151.3083 H   0  0  0  0  0  0  0  0  0  0  0  0  # atno 10718 bound_to 10713
  153.0523  135.6525  154.0662 H   0  0  0  0  0  0  0  0  0  0  0  0  # atno 10763 bound_to 10752
  154.0347  135.2908  155.3365 H   0  0  0  0  0  0  0  0  0  0  0  0  # atno 10764 bound_to 10752
  154.6819  135.5316  153.8341 H   0  0  0  0  0  0  0  0  0  0  0  0  # atno 10765 bound_to 10752
  139.8816  134.9374  156.5690 H   0  0  0  0  0  0  0  0  0  0  0  0  # atno 11005 bound_to 11000
  146.3484  139.9695  142.8708 LP  0  0  0  0  0  0  0  0  0  0  0  0  # atno 17320 bound_to 7965
  145.1906  140.9810  143.4213 LP  0  0  0  0  0  0  0  0  0  0  0  0  # atno 17321 bound_to 7965
  140.7706  143.3435  151.2159 LP  0  0  0  0  0  0  0  0  0  0  0  0  # atno 17342 bound_to 10162
  139.7023  143.9512  152.2911 LP  0  0  0  0  0  0  0  0  0  0  0  0  # atno 17343 bound_to 10162
  157.6249  130.8683  149.9171 LP  0  0  0  0  0  0  0  0  0  0  0  0  # atno 17370 bound_to 10713
  156.0775  130.3677  150.0647 LP  0  0  0  0  0  0  0  0  0  0  0  0  # atno 17371 bound_to 10713
  140.8112  133.8427  155.8812 LP  0  0  0  0  0  0  0  0  0  0  0  0  # atno 17394 bound_to 11000
  140.9504  134.1786  157.4732 LP  0  0  0  0  0  0  0  0  0  0  0  0  # atno 17395 bound_to 11000

$$$$
