#       Name:                AV-unprocessed.smi:832
#       Creating user name   scv26
#       Creation time:       Fri Mar 27 01:33:15 2020


#       File generated by GOLD software.
#

@<TRIPOS>MOLECULE
AV-unprocessed.smi:832
    47    48     1
SMALL
NO_CHARGES


@<TRIPOS>ATOM
      1 ****        -1.7612   5.0785   4.8856 C.3            1 S1                 0.0000
      2 ****        -2.1362   4.2164   3.7292 C.2            1 S1                 0.0000
      3 ****        -1.7546   2.9630   3.3417 C.2            1 S1                 0.0000
      4 ****        -2.5034   2.7568   2.1464 C.2            1 S1                 0.0000
      5 ****        -2.4802   1.5974   1.3288 N.am           1 S1                 0.0000
      6 ****        -1.7886   0.4602   1.5128 C.2            1 S1                 0.0000
      7 ****        -1.0286   0.2307   2.4534 O.2            1 S1                 0.0000
      8 ****        -2.0265  -0.4179   0.5276 N.am           1 S1                 0.0000
      9 ****        -1.4518  -1.7569   0.4427 C.3            1 S1                 0.0000
     10 ****         0.0228  -1.7361  -0.0051 C.3            1 S1                 0.0000
     11 ****         0.6521  -3.1193  -0.1294 C.3            1 S1                 0.0000
     12 ****         1.8457  -2.8537  -1.0397 C.3            1 S1                 0.0000
     13 ****         1.3652  -1.8658  -2.0319 N.4            1 S1                 1.0000
     14 ****         2.4210  -1.0434  -2.6882 C.3            1 S1                 0.0000
     15 ****         1.8258  -0.1729  -3.8115 C.3            1 S1                 0.0000
     16 ****         3.5519  -1.9174  -3.2646 C.3            1 S1                 0.0000
     17 ****         0.2731  -1.0961  -1.3812 C.3            1 S1                 0.0000
     18 ****        -3.2635   3.7910   1.8373 N.2            1 S1                 0.0000
     19 ****        -3.0352   4.7318   2.8483 O.3            1 S1                 0.0000
     20 ****        -1.2261   4.5039   5.6418 H              1 S1                 0.0000
     21 ****        -2.6473   5.5081   5.3530 H              1 S1                 0.0000
     22 ****        -1.1170   5.8966   4.5634 H              1 S1                 0.0000
     23 ****        -1.0536   2.3147   3.8450 H              1 S1                 0.0000
     24 ****        -3.0701   1.6375   0.5106 H              1 S1                 0.0000
     25 ****        -2.6684  -0.1495  -0.2043 H              1 S1                 0.0000
     26 ****        -1.5461  -2.2583   1.4075 H              1 S1                 0.0000
     27 ****        -2.0490  -2.3351  -0.2630 H              1 S1                 0.0000
     28 ****         0.6094  -1.1832   0.7307 H              1 S1                 0.0000
     29 ****         0.9405  -3.5421   0.8335 H              1 S1                 0.0000
     30 ****        -0.0379  -3.8131  -0.6120 H              1 S1                 0.0000
     31 ****         2.6604  -2.4240  -0.4540 H              1 S1                 0.0000
     32 ****         2.2111  -3.7636  -1.5166 H              1 S1                 0.0000
     33 ****         2.8555  -0.3847  -1.9342 H              1 S1                 0.0000
     34 ****         2.6021   0.4152  -4.3018 H              1 S1                 0.0000
     35 ****         1.0833   0.5327  -3.4394 H              1 S1                 0.0000
     36 ****         1.3474  -0.7868  -4.5754 H              1 S1                 0.0000
     37 ****         4.2898  -1.3062  -3.7852 H              1 S1                 0.0000
     38 ****         3.1660  -2.6464  -3.9782 H              1 S1                 0.0000
     39 ****         4.0884  -2.4606  -2.4868 H              1 S1                 0.0000
     40 ****        -0.6109  -1.1548  -2.0171 H              1 S1                 0.0000
     41 ****         0.5216  -0.0412  -1.2574 H              1 S1                 0.0000
     42 ****         0.9226  -2.4067  -2.7612 H              1 S1                 0.0000
     43 ****        -0.8862   0.9224   3.1614 LP             1 S1                 0.0000
     44 ****        -0.5535  -0.6474   2.5096 LP             1 S1                 0.0000
     45 ****        -3.8723   3.8827   1.0492 LP             1 S1                 0.0000
     46 ****        -2.6706   5.5730   2.4490 LP             1 S1                 0.0000
     47 ****        -3.8931   4.9320   3.3215 LP             1 S1                 0.0000
@<TRIPOS>BOND
    1    1    2 1     
    2    1   20 1     
    3    1   21 1     
    4    1   22 1     
    5    2   19 1     
    6    2    3 2     
    7    3    4 1     
    8    3   23 1     
    9    4    5 1     
   10    4   18 2     
   11    5    6 am    
   12    5   24 1     
   13    6    7 2     
   14    6    8 am    
   15    8    9 1     
   16    8   25 1     
   17    9   10 1     
   18    9   26 1     
   19    9   27 1     
   20   10   17 1     
   21   10   11 1     
   22   10   28 1     
   23   11   12 1     
   24   11   29 1     
   25   11   30 1     
   26   12   13 1     
   27   12   31 1     
   28   12   32 1     
   29   13   14 1     
   30   13   17 1     
   31   13   42 1     
   32   14   15 1     
   33   14   16 1     
   34   14   33 1     
   35   15   34 1     
   36   15   35 1     
   37   15   36 1     
   38   16   37 1     
   39   16   38 1     
   40   16   39 1     
   41   17   40 1     
   42   17   41 1     
   43   18   19 1     
   44    7   43 1     
   45    7   44 1     
   46   18   45 1     
   47   19   46 1     
   48   19   47 1     
@<TRIPOS>SUBSTRUCTURE
      1 S1             1
@<TRIPOS>SET
LONE_PAIRS      STATIC     ATOMS    <user>   **** ""
5 43 44 45 46 47
DONOR_HYDROGENS      STATIC     ATOMS    <user>   **** ""
3 24 25 42
ATOM$BLUE        STATIC     ATOMS    COLORGROUP SYSTEM
5 43 44 45 46 47
ATOM$RED        STATIC     ATOMS    COLORGROUP SYSTEM
3 24 25 42
