AV-unprocessed.smi:3068|AV-procd|sdf|11706|dock2
  -GOLD-   2272017113D 1   1.00000     0.00000
 Structure written by MMmdl.
 39 41  0  0  0  0  0  0  0  0  1 V2000
  155.7991  139.0071  166.4083 N   0  0  0  0  0  0  0  0  0  0  0  0
  155.4748  138.3970  165.4799 C   0  0  0  0  0  0  0  0  0  0  0  0
  155.0661  137.6291  164.3105 C   0  0  0  0  0  0  0  0  0  0  0  0
  154.7302  136.3352  164.5209 N   0  0  0  0  0  0  0  0  0  0  0  0
  154.3468  135.6133  163.4465 C   0  0  0  0  0  0  0  0  0  0  0  0
  154.2989  136.1780  162.1573 C   0  0  0  0  0  0  0  0  0  0  0  0
  154.6341  137.4669  161.9381 N   0  0  0  0  0  0  0  0  0  0  0  0
  155.0173  138.2058  163.0098 C   0  0  0  0  0  0  0  0  0  0  0  0
  155.3692  139.5520  162.7983 N   0  0  0  0  0  0  0  0  0  0  0  0
  155.2399  140.1824  161.4896 C   0  0  0  0  0  0  0  0  0  0  0  0
  153.9630  141.0305  161.3687 C   0  0  2  0  0  0  0  0  0  0  0  0
  153.8638  141.7119  159.9919 C   0  0  0  0  0  0  0  0  0  0  0  0
  152.6942  142.5760  159.8970 N   0  0  0  0  0  0  0  0  0  0  0  0
  152.6133  143.2200  158.5872 C   0  0  0  0  0  0  0  0  0  0  0  0
  151.3690  144.1114  158.4484 C   0  0  0  0  0  0  0  0  0  0  0  0
  151.3436  145.1670  159.5630 C   0  0  0  0  0  0  0  0  0  0  0  0
  151.4819  144.4887  160.9347 C   0  0  0  0  0  0  0  0  0  0  0  0
  152.7213  143.5708  160.9736 C   0  0  1  0  0  0  0  0  0  0  0  0
  152.8503  142.8875  162.3503 C   0  0  0  0  0  0  0  0  0  0  0  0
  153.9989  142.0459  162.3687 O   0  0  0  0  0  0  0  0  0  0  0  0
  154.0771  134.5811  163.6154 H   0  0  0  0  0  0  0  0  0  0  0  0
  153.9915  135.5951  161.3015 H   0  0  0  0  0  0  0  0  0  0  0  0
  155.5117  140.1516  163.5987 H   0  0  0  0  0  0  0  0  0  0  0  0
  156.1159  140.8090  161.3214 H   0  0  0  0  0  0  0  0  0  0  0  0
  155.2626  139.4173  160.7128 H   0  0  0  0  0  0  0  0  0  0  0  0
  153.0831  140.4028  161.5199 H   0  0  0  0  0  0  0  0  0  0  0  0
  154.7687  142.2937  159.8087 H   0  0  0  0  0  0  0  0  0  0  0  0
  153.8203  140.9494  159.2133 H   0  0  0  0  0  0  0  0  0  0  0  0
  153.5089  143.8185  158.4133 H   0  0  0  0  0  0  0  0  0  0  0  0
  152.5940  142.4589  157.8063 H   0  0  0  0  0  0  0  0  0  0  0  0
  151.3593  144.5950  157.4714 H   0  0  0  0  0  0  0  0  0  0  0  0
  150.4694  143.4967  158.5023 H   0  0  0  0  0  0  0  0  0  0  0  0
  152.1640  145.8713  159.4186 H   0  0  0  0  0  0  0  0  0  0  0  0
  150.4212  145.7466  159.5170 H   0  0  0  0  0  0  0  0  0  0  0  0
  151.5486  145.2472  161.7153 H   0  0  0  0  0  0  0  0  0  0  0  0
  150.5839  143.9057  161.1443 H   0  0  0  0  0  0  0  0  0  0  0  0
  153.6031  144.2001  160.8388 H   0  0  0  0  0  0  0  0  0  0  0  0
  152.9514  143.6340  163.1384 H   0  0  0  0  0  0  0  0  0  0  0  0
  151.9603  142.2993  162.5797 H   0  0  0  0  0  0  0  0  0  0  0  0
  1  2  3  0  0  0  0
  2  3  1  0  0  0  0
  3  8  1  0  0  0  0
  3  4  2  0  0  0  0
  4  5  1  0  0  0  0
  5  6  2  0  0  0  0
  5 21  1  0  0  0  0
  6  7  1  0  0  0  0
  6 22  1  0  0  0  0
  7  8  2  0  0  0  0
  8  9  1  0  0  0  0
  9 10  1  0  0  0  0
  9 23  1  0  0  0  0
 10 11  1  0  0  0  0
 10 24  1  0  0  0  0
 10 25  1  0  0  0  0
 11 20  1  0  0  0  0
 11 12  1  0  0  0  0
 11 26  1  0  0  0  0
 12 13  1  0  0  0  0
 12 27  1  0  0  0  0
 12 28  1  0  0  0  0
 13 18  1  0  0  0  0
 13 14  1  0  0  0  0
 14 15  1  0  0  0  0
 14 29  1  0  0  0  0
 14 30  1  0  0  0  0
 15 16  1  0  0  0  0
 15 31  1  0  0  0  0
 15 32  1  0  0  0  0
 16 17  1  0  0  0  0
 16 33  1  0  0  0  0
 16 34  1  0  0  0  0
 17 18  1  0  0  0  0
 17 35  1  0  0  0  0
 17 36  1  0  0  0  0
 18 19  1  0  0  0  0
 18 37  1  0  0  0  0
 19 20  1  0  0  0  0
 19 38  1  0  0  0  0
 19 39  1  0  0  0  0
M  END
> <s_m_source_file>
AV-unprocessed.smi

> <i_m_source_file_index>
3068

> <i_lp_mmshare_version>
43012

> <i_f3d_flags>
0

> <s_epik_input>
TiNDYzFuW2NIXVtjSF1uYzFbTkhdW0NIMl1bQ0BIXShbQ0gyXTIpT1tDSDJdW0NAQEhdKE4yMylbQ0gyXVtDSDJdW0NIMl1bQ0gyXTM=

> <s_epik_cmdline>
J2VwaWtfcHl0aG9uJywgJy1waCcsICc3LjAnLCAnLXRuJywgJzgnLCAnLW1hJywgJzIwMCcsICctbWV0YWxfYmluZGluZycsICctaW1hZScsICc8aW5maWxlLm1hZT4nLCAnLW9tYWUnLCAnPG91dGZpbGUubWFlPic=

> <r_epik_Ionization_Penalty>
1.22359

> <r_epik_Ionization_Penalty_Charging>
0

> <r_epik_Ionization_Penalty_Neutral>
1.22359

> <r_epik_State_Penalty>
1.29103

> <r_epik_Charging_Adjusted_Penalty>
1.29103

> <i_epik_Tot_Q>
0

> <i_epik_Tot_abs_Q>
0

> <r_epik_Metal_State_Penalty>
1.29103

> <b_epik_Metal_Only>
0

> <s_lp_Force_Field>
OPLS_2005

> <r_lp_Energy>
45.8422

> <b_lp_Chiralities_Consistent>
1

> <s_lp_Variant>
AV-unprocessed.smi:3068-9

> <Gold.Version>
5.8.1

> <Gold.Id.Protein>
6NUR|6NUR_protein|mol2

> <Gold.PLP.Fitness>
46.0381

> <Gold.PLP.PLP>
-46.3276

> <Gold.PLP.part.hbond>
-1.3799

> <Gold.PLP.part.metal>
0.0000

> <Gold.PLP.part.buried>
-7.0614

> <Gold.PLP.part.nonpolar>
-37.6066

> <Gold.PLP.part.repulsive>
0.2177

> <Gold.PLP.ligand.clash>
0.0000

> <Gold.PLP.ligand.torsion>
0.1487

> <Gold.PLP.Chemscore.Hbond>
0.0000

> <Gold.PLP.Chemscore.CHOScore>
0.0000

> <Gold.PLP.Chemscore.Metal>
0.0000

> <Gold.PLP.Chemscore.Internal.Correction>
0.0079

> <Gold.Rescore>
     Score         DG    S(hbond)    S(metal)    S(lipo)     H(rot)  DE(clash)    DE(int)     intcor
     16.15     -16.62       0.00        0.00     123.66       1.30       0.24       0.22       ----

> <Gold.Chemscore.Fitness>
16.1480

> <Gold.Chemscore.DG>
-16.6151

> <Gold.Chemscore.ZeroCoef>
-5.4800

> <Gold.Chemscore.Hbond>
0.0000

> <Gold.Chemscore.Metal>
0.0000

> <Gold.Chemscore.Lipo>
123.6564

> <Gold.Chemscore.Internal_Hbond>
0.0000

> <Gold.Chemscore.DEClash>
0.2423

> <Gold.Chemscore.DEInternal>
0.2247

> <Gold.Chemscore.Rot>
1.3019

> <Gold.Chemscore.Internal.Correction>
   9.000000E+99

> <Gold.Chemscore.Hbond.Weighted>
-0.0000

> <Gold.Chemscore.Metal.Weighted>
-0.0000

> <Gold.Chemscore.Lipo.Weighted>
-14.4678

> <Gold.Chemscore.Internal_Hbond.Weighted>
0.0000

> <Gold.Chemscore.DEClash.Weighted>
0.2423

> <Gold.Chemscore.DEInternal.Weighted>
0.2247

> <Gold.Chemscore.Rot.Weighted>
3.3327

> <Gold.Chemscore.Internal.Correction.Weighted>
   9.000000E+99

> <Gold.Protein.RotatedTorsions>
[ 6907 6896 6895 6894 ] final  171.05 input  -60.11 | X-H torsion
[ 7974 7965 7964 7962 ] final   59.58 input  175.53 | X-H torsion
[ 8008 7997 7996 7995 ] final  141.77 input   59.86 | X-H torsion
[ 10167 10162 10161 10158 ] final   -8.80 input  -65.29 | X-H torsion
[ 10718 10713 10712 10709 ] final  155.17 input   66.30 | X-H torsion
[ 10763 10752 10751 10750 ] final  -66.56 input  -60.55 | X-H torsion
[ 11005 11000 10999 10996 ] final   57.51 input  -57.11 | X-H torsion

> <Gold.Protein.ActiveResidues>
 VAL166  LYS551  ARG553  GLY616  TRP617  ASP618  TYR619  PRO620  LYS621  CYS622 
 ASP623  PHE694  ASN695  SER759  ASP760  ASP761  ALA762  ILE779  LEU786  VAL792 
 PHE793  MET794  SER795  GLU796  ALA797  LYS798  CYS799  TRP800  GLU811  SER814 

> <Gold.Protein.RotatedAtoms>
  151.8064  133.3376  159.3541 H   0  0  0  0  0  0  0  0  0  0  0  0  # atno 6907 bound_to 6896
  150.7341  134.5705  159.5897 H   0  0  0  0  0  0  0  0  0  0  0  0  # atno 6908 bound_to 6896
  152.3106  134.7503  160.0388 H   0  0  0  0  0  0  0  0  0  0  0  0  # atno 6909 bound_to 6896
  145.9056  139.3614  143.0566 H   0  0  0  0  0  0  0  0  0  0  0  0  # atno 7974 bound_to 7965
  156.2960  140.2306  156.4619 H   0  0  0  0  0  0  0  0  0  0  0  0  # atno 8008 bound_to 7997
  154.8011  140.0448  157.1294 H   0  0  0  0  0  0  0  0  0  0  0  0  # atno 8009 bound_to 7997
  154.9533  140.3045  155.5068 H   0  0  0  0  0  0  0  0  0  0  0  0  # atno 8010 bound_to 7997
  140.7069  143.5928  150.8876 H   0  0  0  0  0  0  0  0  0  0  0  0  # atno 10167 bound_to 10162
  157.2219  131.0720  151.1906 H   0  0  0  0  0  0  0  0  0  0  0  0  # atno 10718 bound_to 10713
  154.3617  135.6114  153.5694 H   0  0  0  0  0  0  0  0  0  0  0  0  # atno 10763 bound_to 10752
  152.9793  135.5817  154.4625 H   0  0  0  0  0  0  0  0  0  0  0  0  # atno 10764 bound_to 10752
  154.4364  135.2849  155.1855 H   0  0  0  0  0  0  0  0  0  0  0  0  # atno 10765 bound_to 10752
  140.0447  134.5823  155.9338 H   0  0  0  0  0  0  0  0  0  0  0  0  # atno 11005 bound_to 11000
  145.8736  140.9405  143.0638 LP  0  0  0  0  0  0  0  0  0  0  0  0  # atno 17320 bound_to 7965
  144.6739  140.0687  143.7473 LP  0  0  0  0  0  0  0  0  0  0  0  0  # atno 17321 bound_to 7965
  139.9654  143.6117  152.2990 LP  0  0  0  0  0  0  0  0  0  0  0  0  # atno 17342 bound_to 10162
  139.6684  144.7661  151.1829 LP  0  0  0  0  0  0  0  0  0  0  0  0  # atno 17343 bound_to 10162
  157.3567  130.7110  149.6475 LP  0  0  0  0  0  0  0  0  0  0  0  0  # atno 17370 bound_to 10713
  155.9681  130.4237  150.4575 LP  0  0  0  0  0  0  0  0  0  0  0  0  # atno 17371 bound_to 10713
  141.1901  133.6567  156.5396 LP  0  0  0  0  0  0  0  0  0  0  0  0  # atno 17394 bound_to 11000
  140.4013  134.7354  157.4781 LP  0  0  0  0  0  0  0  0  0  0  0  0  # atno 17395 bound_to 11000

$$$$
