#       Name:                AV-unprocessed.smi:1302
#       Creating user name   scv26
#       Creation time:       Fri Mar 27 04:58:41 2020


#       File generated by GOLD software.
#

@<TRIPOS>MOLECULE
AV-unprocessed.smi:1302
    49    50     1
SMALL
NO_CHARGES


@<TRIPOS>ATOM
      1 ****        -5.9482  -1.2627   1.1813 C.3            1 S1                 0.0000
      2 ****        -5.5036  -0.5533  -0.1053 C.3            1 S1                 0.0000
      3 ****        -5.8794  -1.3544  -1.3589 C.3            1 S1                 0.0000
      4 ****        -4.0590  -0.3420  -0.0755 N.am           1 S1                 0.0000
      5 ****        -3.4374   0.8353   0.1061 C.2            1 S1                 0.0000
      6 ****        -4.0252   1.9091   0.2364 O.2            1 S1                 0.0000
      7 ****        -1.9379   0.7818   0.0783 C.ar           1 S1                 0.0000
      8 ****        -1.1893   1.8618  -0.4371 C.ar           1 S1                 0.0000
      9 ****         0.2168   1.7860  -0.4279 C.ar           1 S1                 0.0000
     10 ****         0.8313   0.6371   0.1110 C.ar           1 S1                 0.0000
     11 ****         2.2306   0.5554   0.1180 N.3            1 S1                 0.0000
     12 ****         2.7501  -0.4336  -0.8153 C.3            1 S1                 0.0000
     13 ****         4.2853  -0.3401  -0.8849 C.3            1 S1                 0.0000
     14 ****         4.8853  -1.4457  -1.7595 C.3            1 S1                 0.0000
     15 ****         4.8329  -0.4696   0.4280 O.3            1 S1                 0.0000
     16 ****         4.3483   0.4818   1.3797 C.3            1 S1                 0.0000
     17 ****         4.8948   1.8967   1.1168 C.3            1 S1                 0.0000
     18 ****         2.8098   0.4190   1.4486 C.3            1 S1                 0.0000
     19 ****         0.1220  -0.3989   0.6185 N.ar           1 S1                 0.0000
     20 ****        -1.2258  -0.3213   0.6024 C.ar           1 S1                 0.0000
     21 ****        -7.0265  -1.4243   1.1864 H              1 S1                 0.0000
     22 ****        -5.7002  -0.6702   2.0626 H              1 S1                 0.0000
     23 ****        -5.4654  -2.2350   1.2864 H              1 S1                 0.0000
     24 ****        -6.0233   0.4046  -0.1592 H              1 S1                 0.0000
     25 ****        -6.9561  -1.5185  -1.4098 H              1 S1                 0.0000
     26 ****        -5.3929  -2.3304  -1.3688 H              1 S1                 0.0000
     27 ****        -5.5849  -0.8247  -2.2656 H              1 S1                 0.0000
     28 ****        -3.4824  -1.1615  -0.1998 H              1 S1                 0.0000
     29 ****        -1.6791   2.7358  -0.8413 H              1 S1                 0.0000
     30 ****         0.8103   2.5966  -0.8252 H              1 S1                 0.0000
     31 ****         2.4492  -1.4319  -0.4933 H              1 S1                 0.0000
     32 ****         2.3191  -0.2694  -1.8037 H              1 S1                 0.0000
     33 ****         4.5748   0.6217  -1.3092 H              1 S1                 0.0000
     34 ****         4.5049  -1.3899  -2.7798 H              1 S1                 0.0000
     35 ****         4.6448  -2.4338  -1.3661 H              1 S1                 0.0000
     36 ****         5.9712  -1.3605  -1.8047 H              1 S1                 0.0000
     37 ****         4.7373   0.1690   2.3490 H              1 S1                 0.0000
     38 ****         4.6124   2.5749   1.9222 H              1 S1                 0.0000
     39 ****         4.5141   2.3226   0.1887 H              1 S1                 0.0000
     40 ****         5.9833   1.8884   1.0599 H              1 S1                 0.0000
     41 ****         2.4252   1.1989   2.1072 H              1 S1                 0.0000
     42 ****         2.5066  -0.5375   1.8769 H              1 S1                 0.0000
     43 ****        -1.7438  -1.1684   1.0279 H              1 S1                 0.0000
     44 ****        -5.0244   1.9386   0.2099 LP             1 S1                 0.0000
     45 ****        -3.5035   2.7519   0.3687 LP             1 S1                 0.0000
     46 ****         2.5353   1.4477  -0.2151 LP             1 S1                 0.0000
     47 ****         5.8253  -0.3652   0.3622 LP             1 S1                 0.0000
     48 ****         4.6157  -1.3853   0.7661 LP             1 S1                 0.0000
     49 ****         0.5848  -1.2011   0.9956 LP             1 S1                 0.0000
@<TRIPOS>BOND
    1    1    2 1     
    2    1   21 1     
    3    1   22 1     
    4    1   23 1     
    5    2    3 1     
    6    2    4 1     
    7    2   24 1     
    8    3   25 1     
    9    3   26 1     
   10    3   27 1     
   11    4    5 am    
   12    4   28 1     
   13    5    6 2     
   14    5    7 1     
   15    7   20 ar    
   16    7    8 ar    
   17    8    9 ar    
   18    8   29 1     
   19    9   10 ar    
   20    9   30 1     
   21   10   11 1     
   22   10   19 ar    
   23   11   18 1     
   24   11   12 1     
   25   12   13 1     
   26   12   31 1     
   27   12   32 1     
   28   13   14 1     
   29   13   15 1     
   30   13   33 1     
   31   14   34 1     
   32   14   35 1     
   33   14   36 1     
   34   15   16 1     
   35   16   17 1     
   36   16   18 1     
   37   16   37 1     
   38   17   38 1     
   39   17   39 1     
   40   17   40 1     
   41   18   41 1     
   42   18   42 1     
   43   19   20 ar    
   44   20   43 1     
   45    6   44 1     
   46    6   45 1     
   47   11   46 1     
   48   15   47 1     
   49   15   48 1     
   50   19   49 1     
@<TRIPOS>SUBSTRUCTURE
      1 S1             1
@<TRIPOS>SET
LONE_PAIRS      STATIC     ATOMS    <user>   **** ""
6 44 45 46 47 48 49
DONOR_HYDROGENS      STATIC     ATOMS    <user>   **** ""
1 28
ATOM$BLUE        STATIC     ATOMS    COLORGROUP SYSTEM
6 44 45 46 47 48 49
ATOM$RED        STATIC     ATOMS    COLORGROUP SYSTEM
1 28
