#       Name:                AV-unprocessed.smi:1827
#       Creating user name   scv26
#       Creation time:       Fri Mar 27 09:10:07 2020


#       File generated by GOLD software.
#

@<TRIPOS>MOLECULE
AV-unprocessed.smi:1827
    49    50     1
SMALL
NO_CHARGES


@<TRIPOS>ATOM
      1 ****        -4.0829  -2.4466   0.6883 C.3            1 S1                 0.0000
      2 ****        -4.6258  -1.0861   1.0284 C.2            1 S1                 0.0000
      3 ****        -5.9246  -0.9601   1.2686 N.2            1 S1                 0.0000
      4 ****        -6.0875   0.3382   1.6025 N.pl3          1 S1                 0.0000
      5 ****        -4.9163   1.0615   1.5844 C.2            1 S1                 0.0000
      6 ****        -4.8629   2.5107   1.9364 C.3            1 S1                 0.0000
      7 ****        -3.9618   0.1703   1.1878 C.2            1 S1                 0.0000
      8 ****        -2.5845   0.4775   1.0577 N.am           1 S1                 0.0000
      9 ****        -1.7376   0.0001   0.1334 C.2            1 S1                 0.0000
     10 ****        -2.0504  -0.7594  -0.7833 O.2            1 S1                 0.0000
     11 ****        -0.4965   0.4718   0.3177 N.am           1 S1                 0.0000
     12 ****         0.6591   0.1448  -0.5119 C.3            1 S1                 0.0000
     13 ****         1.2339  -1.2317  -0.1385 C.3            1 S1                 0.0000
     14 ****         2.5314  -1.5184  -0.9132 C.3            1 S1                 0.0000
     15 ****         3.5330  -0.4808  -0.6471 N.3            1 S1                 0.0000
     16 ****         4.8077  -0.8554  -1.3011 C.3            1 S1                 0.0000
     17 ****         5.9801   0.0836  -0.9923 C.2            1 S1                 0.0000
     18 ****         6.5440   0.7160  -2.0243 N.am           1 S1                 0.0000
     19 ****         6.3671   0.2387   0.1640 O.2            1 S1                 0.0000
     20 ****         3.0355   0.8306  -1.0881 C.3            1 S1                 0.0000
     21 ****         1.7522   1.2066  -0.3261 C.3            1 S1                 0.0000
     22 ****        -6.9947   0.7104   1.8451 H              1 S1                 0.0000
     23 ****        -3.0725  -2.5773   1.0755 H              1 S1                 0.0000
     24 ****        -4.0527  -2.5973  -0.3909 H              1 S1                 0.0000
     25 ****        -4.6978  -3.2398   1.1148 H              1 S1                 0.0000
     26 ****        -3.8332   2.8587   2.0181 H              1 S1                 0.0000
     27 ****        -5.3561   2.6961   2.8907 H              1 S1                 0.0000
     28 ****        -5.3610   3.1111   1.1751 H              1 S1                 0.0000
     29 ****        -2.2295   1.1929   1.6748 H              1 S1                 0.0000
     30 ****        -0.3355   1.0965   1.0941 H              1 S1                 0.0000
     31 ****         0.3584   0.1366  -1.5614 H              1 S1                 0.0000
     32 ****         1.4346  -1.2746   0.9333 H              1 S1                 0.0000
     33 ****         0.5038  -2.0145  -0.3471 H              1 S1                 0.0000
     34 ****         2.9158  -2.4914  -0.6042 H              1 S1                 0.0000
     35 ****         2.3258  -1.5845  -1.9832 H              1 S1                 0.0000
     36 ****         5.1050  -1.8511  -0.9686 H              1 S1                 0.0000
     37 ****         4.6613  -0.9218  -2.3811 H              1 S1                 0.0000
     38 ****         7.3193   1.3438  -1.8695 H              1 S1                 0.0000
     39 ****         6.1913   0.5622  -2.9579 H              1 S1                 0.0000
     40 ****         3.7752   1.6097  -0.9051 H              1 S1                 0.0000
     41 ****         2.8482   0.8192  -2.1632 H              1 S1                 0.0000
     42 ****         1.3916   2.1766  -0.6702 H              1 S1                 0.0000
     43 ****         1.9845   1.3219   0.7339 H              1 S1                 0.0000
     44 ****        -6.6273  -1.6695   1.2144 LP             1 S1                 0.0000
     45 ****        -2.9978  -1.0650  -0.8782 LP             1 S1                 0.0000
     46 ****        -1.3571  -1.0708  -1.4332 LP             1 S1                 0.0000
     47 ****         3.7040  -0.4078   0.3355 LP             1 S1                 0.0000
     48 ****         5.9168  -0.2492   0.9117 LP             1 S1                 0.0000
     49 ****         7.1324   0.8529   0.3570 LP             1 S1                 0.0000
@<TRIPOS>BOND
    1    1    2 1     
    2    1   23 1     
    3    1   24 1     
    4    1   25 1     
    5    2    7 1     
    6    2    3 2     
    7    3    4 1     
    8    4   22 1     
    9    4    5 1     
   10    5    6 1     
   11    5    7 2     
   12    6   26 1     
   13    6   27 1     
   14    6   28 1     
   15    7    8 1     
   16    8    9 am    
   17    8   29 1     
   18    9   10 2     
   19    9   11 am    
   20   11   12 1     
   21   11   30 1     
   22   12   21 1     
   23   12   13 1     
   24   12   31 1     
   25   13   14 1     
   26   13   32 1     
   27   13   33 1     
   28   14   15 1     
   29   14   34 1     
   30   14   35 1     
   31   15   16 1     
   32   15   20 1     
   33   16   17 1     
   34   16   36 1     
   35   16   37 1     
   36   17   18 am    
   37   17   19 2     
   38   18   38 1     
   39   18   39 1     
   40   20   21 1     
   41   20   40 1     
   42   20   41 1     
   43   21   42 1     
   44   21   43 1     
   45    3   44 1     
   46   10   45 1     
   47   10   46 1     
   48   15   47 1     
   49   19   48 1     
   50   19   49 1     
@<TRIPOS>SUBSTRUCTURE
      1 S1             1
@<TRIPOS>SET
LONE_PAIRS      STATIC     ATOMS    <user>   **** ""
6 44 45 46 47 48 49
DONOR_HYDROGENS      STATIC     ATOMS    <user>   **** ""
5 22 29 30 38 39
ATOM$BLUE        STATIC     ATOMS    COLORGROUP SYSTEM
6 44 45 46 47 48 49
ATOM$RED        STATIC     ATOMS    COLORGROUP SYSTEM
5 22 29 30 38 39
