#       Name:                AV-unprocessed.smi:193
#       Creating user name   scv26
#       Creation time:       Thu Mar 26 19:35:31 2020


#       File generated by GOLD software.
#

@<TRIPOS>MOLECULE
AV-unprocessed.smi:193
    70    74     1
SMALL
NO_CHARGES


@<TRIPOS>ATOM
      1 ****        -2.6122  -1.9985   3.6775 C.3            1 S1                 0.0000
      2 ****        -2.5457  -0.8501   2.6596 C.3            1 S1                 0.0000
      3 ****        -2.0477  -1.3849   1.2997 C.3            1 S1                 0.0000
      4 ****        -1.4031  -0.3652   0.4672 N.3            1 S1                 0.0000
      5 ****        -0.0461  -0.3476   0.4491 C.ar           1 S1                 0.0000
      6 ****         0.6528  -0.6769   1.5688 N.ar           1 S1                 0.0000
      7 ****         1.9879  -0.6285   1.5690 C.ar           1 S1                 0.0000
      8 ****         2.8106  -0.2829   0.5770 N.ar           1 S1                 0.0000
      9 ****         2.1165   0.0418  -0.5510 C.ar           1 S1                 0.0000
     10 ****         0.7005   0.0391  -0.6991 C.ar           1 S1                 0.0000
     11 ****         0.3589   0.4271  -1.9894 N.2            1 S1                 0.0000
     12 ****         1.5066   0.6539  -2.5678 C.2            1 S1                 0.0000
     13 ****         2.6149   0.4411  -1.7791 N.pl3          1 S1                 0.0000
     14 ****         4.0067   0.6197  -2.1655 C.3            1 S1                 0.0000
     15 ****         4.6734  -0.6538  -2.7435 C.3            1 S1                 0.0000
     16 ****         4.6852  -1.6398  -1.7259 O.3            1 S1                 0.0000
     17 ****         3.9141  -1.2221  -3.9626 C.3            1 S1                 0.0000
     18 ****         4.6967  -2.3494  -4.6599 C.3            1 S1                 0.0000
     19 ****         5.9965  -1.8961  -5.0175 O.3            1 S1                 0.0000
     20 ****         6.7829  -1.5389  -3.8876 C.3            1 S1                 0.0000
     21 ****         6.1319  -0.3569  -3.1477 C.3            1 S1                 0.0000
     22 ****        -1.9771   0.9773   0.3879 C.3            1 S1                 0.0000
     23 ****        -3.5106   1.0120   0.4825 C.3            1 S1                 0.0000
     24 ****        -3.9239   1.1164   1.8808 N.3            1 S1                 0.0000
     25 ****        -5.2781   1.6518   1.9312 C.3            1 S1                 0.0000
     26 ****        -5.4445   3.1518   1.8313 C.3            1 S1                 0.0000
     27 ****        -5.7036   2.4565   3.1468 C.3            1 S1                 0.0000
     28 ****        -4.7898   2.7034   4.3323 C.3            1 S1                 0.0000
     29 ****        -3.9389  -0.1947   2.5304 C.3            1 S1                 0.0000
     30 ****        -3.3104  -2.7727   3.3574 H              1 S1                 0.0000
     31 ****        -2.9361  -1.6405   4.6551 H              1 S1                 0.0000
     32 ****        -1.6346  -2.4634   3.8094 H              1 S1                 0.0000
     33 ****        -1.8348  -0.1220   3.0538 H              1 S1                 0.0000
     34 ****        -1.3582  -2.2164   1.4540 H              1 S1                 0.0000
     35 ****        -2.8784  -1.8168   0.7410 H              1 S1                 0.0000
     36 ****         2.4653  -0.9017   2.4984 H              1 S1                 0.0000
     37 ****         1.5773   0.9796  -3.5954 H              1 S1                 0.0000
     38 ****         4.0474   1.4260  -2.8990 H              1 S1                 0.0000
     39 ****         4.5604   0.9763  -1.2957 H              1 S1                 0.0000
     40 ****         5.1023  -2.4172  -2.0646 H              1 S1                 0.0000
     41 ****         2.9298  -1.5899  -3.6710 H              1 S1                 0.0000
     42 ****         3.7424  -0.4217  -4.6834 H              1 S1                 0.0000
     43 ****         4.7703  -3.2301  -4.0199 H              1 S1                 0.0000
     44 ****         4.1734  -2.6607  -5.5642 H              1 S1                 0.0000
     45 ****         6.9050  -2.3990  -3.2273 H              1 S1                 0.0000
     46 ****         7.7804  -1.2609  -4.2290 H              1 S1                 0.0000
     47 ****         6.1537   0.5132  -3.8052 H              1 S1                 0.0000
     48 ****         6.7253  -0.0908  -2.2718 H              1 S1                 0.0000
     49 ****        -1.5300   1.6255   1.1439 H              1 S1                 0.0000
     50 ****        -1.6998   1.4032  -0.5761 H              1 S1                 0.0000
     51 ****        -3.8356   1.9166  -0.0336 H              1 S1                 0.0000
     52 ****        -3.9872   0.1781  -0.0349 H              1 S1                 0.0000
     53 ****        -6.0733   1.0739   1.4625 H              1 S1                 0.0000
     54 ****        -4.5440   3.7577   1.7469 H              1 S1                 0.0000
     55 ****        -6.3067   3.5248   1.2825 H              1 S1                 0.0000
     56 ****        -6.7490   2.3495   3.4299 H              1 S1                 0.0000
     57 ****        -3.7599   2.8603   4.0107 H              1 S1                 0.0000
     58 ****        -4.8170   1.8506   5.0104 H              1 S1                 0.0000
     59 ****        -5.1176   3.5891   4.8766 H              1 S1                 0.0000
     60 ****        -4.6266  -0.8652   2.0121 H              1 S1                 0.0000
     61 ****        -4.3466  -0.0593   3.5328 H              1 S1                 0.0000
     62 ****        -1.6930  -0.7726  -0.3988 LP             1 S1                 0.0000
     63 ****         0.1648  -0.9566   2.3957 LP             1 S1                 0.0000
     64 ****         3.8076  -0.2644   0.6511 LP             1 S1                 0.0000
     65 ****        -0.5561   0.5127  -2.3838 LP             1 S1                 0.0000
     66 ****         3.7472  -1.8527  -1.4521 LP             1 S1                 0.0000
     67 ****         5.1947  -1.3015  -0.9348 LP             1 S1                 0.0000
     68 ****         5.9045  -1.0954  -5.6094 LP             1 S1                 0.0000
     69 ****         6.4644  -2.6265  -5.5151 LP             1 S1                 0.0000
     70 ****        -3.2735   1.7104   2.3541 LP             1 S1                 0.0000
@<TRIPOS>BOND
    1    1    2 1     
    2    1   30 1     
    3    1   31 1     
    4    1   32 1     
    5    2   29 1     
    6    2    3 1     
    7    2   33 1     
    8    3    4 1     
    9    3   34 1     
   10    3   35 1     
   11    4    5 1     
   12    4   22 1     
   13    5   10 ar    
   14    5    6 ar    
   15    6    7 ar    
   16    7    8 ar    
   17    7   36 1     
   18    8    9 ar    
   19    9   13 1     
   20    9   10 ar    
   21   10   11 1     
   22   11   12 2     
   23   12   13 1     
   24   12   37 1     
   25   13   14 1     
   26   14   15 1     
   27   14   38 1     
   28   14   39 1     
   29   15   21 1     
   30   15   16 1     
   31   15   17 1     
   32   16   40 1     
   33   17   18 1     
   34   17   41 1     
   35   17   42 1     
   36   18   19 1     
   37   18   43 1     
   38   18   44 1     
   39   19   20 1     
   40   20   21 1     
   41   20   45 1     
   42   20   46 1     
   43   21   47 1     
   44   21   48 1     
   45   22   23 1     
   46   22   49 1     
   47   22   50 1     
   48   23   24 1     
   49   23   51 1     
   50   23   52 1     
   51   24   25 1     
   52   24   29 1     
   53   25   27 1     
   54   25   26 1     
   55   25   53 1     
   56   26   27 1     
   57   26   54 1     
   58   26   55 1     
   59   27   28 1     
   60   27   56 1     
   61   28   57 1     
   62   28   58 1     
   63   28   59 1     
   64   29   60 1     
   65   29   61 1     
   66    4   62 1     
   67    6   63 1     
   68    8   64 1     
   69   11   65 1     
   70   16   66 1     
   71   16   67 1     
   72   19   68 1     
   73   19   69 1     
   74   24   70 1     
@<TRIPOS>SUBSTRUCTURE
      1 S1             1
@<TRIPOS>SET
LONE_PAIRS      STATIC     ATOMS    <user>   **** ""
9 62 63 64 65 66 67 68 69 70
DONOR_HYDROGENS      STATIC     ATOMS    <user>   **** ""
1 40
ATOM$BLUE        STATIC     ATOMS    COLORGROUP SYSTEM
9 62 63 64 65 66 67 68 69 70
ATOM$RED        STATIC     ATOMS    COLORGROUP SYSTEM
1 40
