#       Name:                AV-unprocessed.smi:1095
#       Creating user name   scv26
#       Creation time:       Fri Mar 27 03:28:32 2020


#       File generated by GOLD software.
#

@<TRIPOS>MOLECULE
AV-unprocessed.smi:1095
    53    54     1
SMALL
NO_CHARGES


@<TRIPOS>ATOM
      1 ****        -4.2495  -5.0834   0.9614 C.3            1 S1                 0.0000
      2 ****        -2.8017  -4.6380   0.7135 C.3            1 S1                 0.0000
      3 ****        -2.5794  -3.1172   0.8426 C.3            1 S1                 0.0000
      4 ****        -3.2953  -2.3184  -0.2679 C.3            1 S1                 0.0000
      5 ****        -3.0354  -0.8063  -0.1455 C.3            1 S1                 0.0000
      6 ****        -1.5333  -0.4607  -0.1317 C.3            1 S1                 0.0000
      7 ****        -0.8878  -0.6132  -1.5291 C.3            1 S1                 0.0000
      8 ****         0.5023  -0.1699  -1.5445 N.am           1 S1                 0.0000
      9 ****         0.9061   1.0969  -1.7248 C.2            1 S1                 0.0000
     10 ****         0.1325   2.0313  -1.9358 O.2            1 S1                 0.0000
     11 ****         2.4124   1.3511  -1.6444 C.3            1 S1                 0.0000
     12 ****         2.7099   2.3367  -0.5415 C.2            1 S1                 0.0000
     13 ****         2.7728   2.0832   0.8613 C.2            1 S1                 0.0000
     14 ****         2.5514   0.7900   1.5920 C.3            1 S1                 0.0000
     15 ****         3.0583   3.1699   1.5584 N.2            1 S1                 0.0000
     16 ****         3.1853   4.1466   0.6383 N.pl3          1 S1                 0.0000
     17 ****         3.5033   5.4932   1.0723 C.3            1 S1                 0.0000
     18 ****         2.9741   3.6767  -0.6436 C.2            1 S1                 0.0000
     19 ****         3.0476   4.5670  -1.8425 C.3            1 S1                 0.0000
     20 ****        -0.8216  -1.2717   0.9734 C.3            1 S1                 0.0000
     21 ****        -1.0740  -2.7838   0.8477 C.3            1 S1                 0.0000
     22 ****        -4.3276  -6.1703   0.9307 H              1 S1                 0.0000
     23 ****        -4.9290  -4.6878   0.2069 H              1 S1                 0.0000
     24 ****        -4.6016  -4.7543   1.9394 H              1 S1                 0.0000
     25 ****        -2.1643  -5.1526   1.4336 H              1 S1                 0.0000
     26 ****        -2.4782  -4.9786  -0.2708 H              1 S1                 0.0000
     27 ****        -2.9878  -2.8004   1.8036 H              1 S1                 0.0000
     28 ****        -2.9715  -2.6716  -1.2474 H              1 S1                 0.0000
     29 ****        -4.3704  -2.4905  -0.2239 H              1 S1                 0.0000
     30 ****        -3.5372  -0.2751  -0.9549 H              1 S1                 0.0000
     31 ****        -3.4912  -0.4452   0.7774 H              1 S1                 0.0000
     32 ****        -1.4536   0.5937   0.1374 H              1 S1                 0.0000
     33 ****        -0.9094  -1.6525  -1.8549 H              1 S1                 0.0000
     34 ****        -1.4610  -0.0555  -2.2717 H              1 S1                 0.0000
     35 ****         1.2070  -0.8739  -1.3802 H              1 S1                 0.0000
     36 ****         2.9417   0.4111  -1.4828 H              1 S1                 0.0000
     37 ****         2.7500   1.7182  -2.6136 H              1 S1                 0.0000
     38 ****         1.5772   0.7828   2.0808 H              1 S1                 0.0000
     39 ****         3.3102   0.6336   2.3590 H              1 S1                 0.0000
     40 ****         2.5878  -0.0630   0.9149 H              1 S1                 0.0000
     41 ****         4.3215   5.8905   0.4714 H              1 S1                 0.0000
     42 ****         3.8044   5.4987   2.1207 H              1 S1                 0.0000
     43 ****         2.6284   6.1320   0.9516 H              1 S1                 0.0000
     44 ****         2.5509   4.1149  -2.7009 H              1 S1                 0.0000
     45 ****         4.0849   4.7602  -2.1159 H              1 S1                 0.0000
     46 ****         2.5632   5.5247  -1.6511 H              1 S1                 0.0000
     47 ****         0.2498  -1.0739   0.9717 H              1 S1                 0.0000
     48 ****        -1.1820  -0.9356   1.9464 H              1 S1                 0.0000
     49 ****        -0.5842  -3.2974   1.6757 H              1 S1                 0.0000
     50 ****        -0.6060  -3.1626  -0.0615 H              1 S1                 0.0000
     51 ****        -0.8526   1.8647  -1.9800 LP             1 S1                 0.0000
     52 ****         0.4892   2.9568  -2.0631 LP             1 S1                 0.0000
     53 ****         3.1582   3.2496   2.5502 LP             1 S1                 0.0000
@<TRIPOS>BOND
    1    1    2 1     
    2    1   22 1     
    3    1   23 1     
    4    1   24 1     
    5    2    3 1     
    6    2   25 1     
    7    2   26 1     
    8    3   21 1     
    9    3    4 1     
   10    3   27 1     
   11    4    5 1     
   12    4   28 1     
   13    4   29 1     
   14    5    6 1     
   15    5   30 1     
   16    5   31 1     
   17    6    7 1     
   18    6   20 1     
   19    6   32 1     
   20    7    8 1     
   21    7   33 1     
   22    7   34 1     
   23    8    9 am    
   24    8   35 1     
   25    9   10 2     
   26    9   11 1     
   27   11   12 1     
   28   11   36 1     
   29   11   37 1     
   30   12   18 2     
   31   12   13 1     
   32   13   14 1     
   33   13   15 2     
   34   14   38 1     
   35   14   39 1     
   36   14   40 1     
   37   15   16 1     
   38   16   17 1     
   39   16   18 1     
   40   17   41 1     
   41   17   42 1     
   42   17   43 1     
   43   18   19 1     
   44   19   44 1     
   45   19   45 1     
   46   19   46 1     
   47   20   21 1     
   48   20   47 1     
   49   20   48 1     
   50   21   49 1     
   51   21   50 1     
   52   10   51 1     
   53   10   52 1     
   54   15   53 1     
@<TRIPOS>SUBSTRUCTURE
      1 S1             1
@<TRIPOS>SET
LONE_PAIRS      STATIC     ATOMS    <user>   **** ""
3 51 52 53
DONOR_HYDROGENS      STATIC     ATOMS    <user>   **** ""
1 35
ATOM$BLUE        STATIC     ATOMS    COLORGROUP SYSTEM
3 51 52 53
ATOM$RED        STATIC     ATOMS    COLORGROUP SYSTEM
1 35
