AV-unprocessed.smi:2751|AV-procd|sdf|10596|dock10
  -GOLD-   2272015 43D 1   1.00000     0.00000
 Structure written by MMmdl.
 34 35  0  0  0  0  0  0  0  0  1 V2000
  148.3375  139.7120  154.6114 O   0  0  0  0  0  0  0  0  0  0  0  0
  148.5376  138.7624  153.8534 C   0  0  0  0  0  0  0  0  0  0  0  0
  147.5710  138.1719  153.1356 N   0  0  0  0  0  0  0  0  0  0  0  0
  146.1628  138.5510  153.1581 C   0  0  0  0  0  0  0  0  0  0  0  0
  145.2902  137.4394  153.7662 C   0  0  0  0  0  0  0  0  0  0  0  0
  144.5890  136.5787  152.7035 C   0  0  1  0  0  0  0  0  0  0  0  0
  145.5650  136.1163  151.6035 C   0  0  0  0  0  0  0  0  0  0  0  0
  144.8546  135.1973  150.6036 C   0  0  0  0  0  0  0  0  0  0  0  0
  144.1677  134.0516  151.3537 C   0  0  0  0  0  0  0  0  0  0  0  0
  143.2674  134.6074  152.4682 C   0  0  0  0  0  0  0  0  0  0  0  0
  144.0308  135.4323  153.3435 O   0  0  0  0  0  0  0  0  0  0  0  0
  149.7303  138.1825  153.6376 N   0  0  0  0  0  0  0  0  0  0  0  0
  150.9745  138.5234  154.2259 C   0  0  0  0  0  0  0  0  0  0  0  0
  151.3393  139.7260  154.6738 N   0  0  0  0  0  0  0  0  0  0  0  0
  152.6286  139.5446  155.1528 C   0  0  0  0  0  0  0  0  0  0  0  0
  152.9736  138.2308  154.9653 C   0  0  0  0  0  0  0  0  0  0  0  0
  151.9301  137.5683  154.3758 O   0  0  0  0  0  0  0  0  0  0  0  0
  147.8240  137.3987  152.5378 H   0  0  0  0  0  0  0  0  0  0  0  0
  146.0352  139.4860  153.7062 H   0  0  0  0  0  0  0  0  0  0  0  0
  145.8500  138.7486  152.1325 H   0  0  0  0  0  0  0  0  0  0  0  0
  145.9179  136.7989  154.3871 H   0  0  0  0  0  0  0  0  0  0  0  0
  144.5426  137.8738  154.4314 H   0  0  0  0  0  0  0  0  0  0  0  0
  143.7865  137.1639  152.2502 H   0  0  0  0  0  0  0  0  0  0  0  0
  145.9848  136.9774  151.0824 H   0  0  0  0  0  0  0  0  0  0  0  0
  146.4042  135.5851  152.0551 H   0  0  0  0  0  0  0  0  0  0  0  0
  144.1120  135.7678  150.0445 H   0  0  0  0  0  0  0  0  0  0  0  0
  145.5645  134.8054  149.8748 H   0  0  0  0  0  0  0  0  0  0  0  0
  143.5830  133.4439  150.6624 H   0  0  0  0  0  0  0  0  0  0  0  0
  144.9213  133.3944  151.7894 H   0  0  0  0  0  0  0  0  0  0  0  0
  142.4344  135.1748  152.0499 H   0  0  0  0  0  0  0  0  0  0  0  0
  142.8362  133.7880  153.0437 H   0  0  0  0  0  0  0  0  0  0  0  0
  149.7505  137.4092  152.9897 H   0  0  0  0  0  0  0  0  0  0  0  0
  153.1941  140.3565  155.5859 H   0  0  0  0  0  0  0  0  0  0  0  0
  153.8584  137.6500  155.1805 H   0  0  0  0  0  0  0  0  0  0  0  0
  1  2  2  0  0  0  0
  2  3  1  0  0  0  0
  2 12  1  0  0  0  0
  3  4  1  0  0  0  0
  3 18  1  0  0  0  0
  4  5  1  0  0  0  0
  4 19  1  0  0  0  0
  4 20  1  0  0  0  0
  5  6  1  0  0  0  0
  5 21  1  0  0  0  0
  5 22  1  0  0  0  0
  6 11  1  0  0  0  0
  6  7  1  0  0  0  0
  6 23  1  0  0  0  0
  7  8  1  0  0  0  0
  7 24  1  0  0  0  0
  7 25  1  0  0  0  0
  8  9  1  0  0  0  0
  8 26  1  0  0  0  0
  8 27  1  0  0  0  0
  9 10  1  0  0  0  0
  9 28  1  0  0  0  0
  9 29  1  0  0  0  0
 10 11  1  0  0  0  0
 10 30  1  0  0  0  0
 10 31  1  0  0  0  0
 12 13  1  0  0  0  0
 12 32  1  0  0  0  0
 13 17  1  0  0  0  0
 13 14  2  0  0  0  0
 14 15  1  0  0  0  0
 15 16  2  0  0  0  0
 15 33  1  0  0  0  0
 16 17  1  0  0  0  0
 16 34  1  0  0  0  0
M  END
> <s_m_source_file>
AV-unprocessed.smi

> <i_m_source_file_index>
2751

> <i_lp_mmshare_version>
43012

> <i_f3d_flags>
0

> <s_epik_input>
bzFbY0hdW2NIXW5jMVtOSF1DKD1PKVtOSF1bQ0gyXVtDSDJdW0NAQEhdMltDSDJdW0NIMl1bQ0gyXVtDSDJdTzI=

> <s_epik_cmdline>
J2VwaWtfcHl0aG9uJywgJy1waCcsICc3LjAnLCAnLXRuJywgJzgnLCAnLW1hJywgJzIwMCcsICctbWV0YWxfYmluZGluZycsICctaW1hZScsICc8aW5maWxlLm1hZT4nLCAnLW9tYWUnLCAnPG91dGZpbGUubWFlPic=

> <r_lp_tautomer_probability>
0.785861

> <r_epik_Ionization_Penalty>
4.88827e-05

> <r_epik_Ionization_Penalty_Charging>
0

> <r_epik_Ionization_Penalty_Neutral>
4.88827e-05

> <r_epik_State_Penalty>
0.0434822

> <r_epik_Charging_Adjusted_Penalty>
0.0434822

> <i_epik_Tot_Q>
0

> <i_epik_Tot_abs_Q>
0

> <r_epik_Metal_State_Penalty>
0.0598982

> <b_epik_Metal_Only>
0

> <s_lp_Force_Field>
OPLS_2005

> <r_lp_Energy>
7.8545

> <b_lp_Chiralities_Consistent>
1

> <s_lp_Variant>
AV-unprocessed.smi:2751-2

> <Gold.Version>
5.8.1

> <Gold.Id.Protein>
6NUR|6NUR_protein|mol2

> <Gold.PLP.Fitness>
36.5521

> <Gold.PLP.PLP>
-27.2134

> <Gold.PLP.part.hbond>
-4.6249

> <Gold.PLP.part.metal>
0.0000

> <Gold.PLP.part.buried>
-1.2605

> <Gold.PLP.part.nonpolar>
-22.0467

> <Gold.PLP.part.repulsive>
0.4493

> <Gold.PLP.ligand.clash>
0.0000

> <Gold.PLP.ligand.torsion>
0.5317

> <Gold.PLP.Chemscore.Hbond>
3.4668

> <Gold.PLP.Chemscore.CHOScore>
0.0000

> <Gold.PLP.Chemscore.Metal>
0.0000

> <Gold.Chemscore.Hbonds>
donor molecule, donor type, donor heavy atom, donor atom, acceptor molecule, acceptor atom, score
      L1  H     3    18       P1  7948  1.00
      L1  H    12    32       P1  7948  1.00
      P1  H  7989  7998       L1    14  0.95
      P1  H 10752 10764       L1    17  0.42

> <Gold.PLP.Chemscore.Internal.Correction>
0.0017

> <Gold.Rescore>
     Score         DG    S(hbond)    S(metal)    S(lipo)     H(rot)  DE(clash)    DE(int)     intcor
     14.68     -15.54       2.50        0.00      50.46       1.63       0.20       0.65       ----

> <Gold.Chemscore.Fitness>
14.6841

> <Gold.Chemscore.DG>
-15.5378

> <Gold.Chemscore.ZeroCoef>
-5.4800

> <Gold.Chemscore.Hbond>
2.4953

> <Gold.Chemscore.Metal>
0.0000

> <Gold.Chemscore.Lipo>
50.4576

> <Gold.Chemscore.Internal_Hbond>
0.0000

> <Gold.Chemscore.DEClash>
0.2008

> <Gold.Chemscore.DEInternal>
0.6529

> <Gold.Chemscore.Rot>
1.6328

> <Gold.Chemscore.Internal.Correction>
   9.000000E+99

> <Gold.Chemscore.Hbonds>
donor molecule, donor type, donor heavy atom, donor atom, acceptor molecule, acceptor atom, score
      L1  H     3    18       P1  7948  0.98
      L1  H    12    32       P1  7948  0.49
      P1  H  7989  7998       L1    14  0.19
      P1  H 10752 10764       L1    17  0.04

> <Gold.Chemscore.Hbond.Weighted>
-8.3342

> <Gold.Chemscore.Metal.Weighted>
-0.0000

> <Gold.Chemscore.Lipo.Weighted>
-5.9035

> <Gold.Chemscore.Internal_Hbond.Weighted>
0.0000

> <Gold.Chemscore.DEClash.Weighted>
0.2008

> <Gold.Chemscore.DEInternal.Weighted>
0.6529

> <Gold.Chemscore.Rot.Weighted>
4.1799

> <Gold.Chemscore.Internal.Correction.Weighted>
   9.000000E+99

> <Gold.Protein.RotatedTorsions>
[ 6907 6896 6895 6894 ] final -168.64 input  -60.11 | X-H torsion
[ 7974 7965 7964 7962 ] final   -9.17 input  175.53 | X-H torsion
[ 8008 7997 7996 7995 ] final -140.26 input   59.86 | X-H torsion
[ 10167 10162 10161 10158 ] final   82.72 input  -65.29 | X-H torsion
[ 10718 10713 10712 10709 ] final -114.75 input   66.30 | X-H torsion
[ 10763 10752 10751 10750 ] final  -75.31 input  -60.55 | X-H torsion
[ 11005 11000 10999 10996 ] final  -41.05 input  -57.11 | X-H torsion

> <Gold.Protein.ActiveResidues>
 VAL166  LYS551  ARG553  GLY616  TRP617  ASP618  TYR619  PRO620  LYS621  CYS622 
 ASP623  PHE694  ASN695  SER759  ASP760  ASP761  ALA762  ILE779  LEU786  VAL792 
 PHE793  MET794  SER795  GLU796  ALA797  LYS798  CYS799  TRP800  GLU811  SER814 

> <Gold.Protein.RotatedAtoms>
  151.4788  133.3551  159.2834 H   0  0  0  0  0  0  0  0  0  0  0  0  # atno 6907 bound_to 6896
  150.8911  134.8317  159.7305 H   0  0  0  0  0  0  0  0  0  0  0  0  # atno 6908 bound_to 6896
  152.4824  134.4697  159.9683 H   0  0  0  0  0  0  0  0  0  0  0  0  # atno 6909 bound_to 6896
  146.2259  140.2577  142.8350 H   0  0  0  0  0  0  0  0  0  0  0  0  # atno 7974 bound_to 7965
  155.4584  140.0544  157.2993 H   0  0  0  0  0  0  0  0  0  0  0  0  # atno 8008 bound_to 7997
  154.4748  140.2056  155.9861 H   0  0  0  0  0  0  0  0  0  0  0  0  # atno 8009 bound_to 7997
  156.1114  140.3203  155.8082 H   0  0  0  0  0  0  0  0  0  0  0  0  # atno 8010 bound_to 7997
  139.9259  144.6183  150.8393 H   0  0  0  0  0  0  0  0  0  0  0  0  # atno 10167 bound_to 10162
  156.0850  130.6044  150.8816 H   0  0  0  0  0  0  0  0  0  0  0  0  # atno 10718 bound_to 10713
  154.4849  135.5835  153.6416 H   0  0  0  0  0  0  0  0  0  0  0  0  # atno 10763 bound_to 10752
  152.9853  135.6098  154.3199 H   0  0  0  0  0  0  0  0  0  0  0  0  # atno 10764 bound_to 10752
  154.3094  135.2845  155.2552 H   0  0  0  0  0  0  0  0  0  0  0  0  # atno 10765 bound_to 10752
  141.0219  133.6859  156.2405 H   0  0  0  0  0  0  0  0  0  0  0  0  # atno 11005 bound_to 11000
  144.9363  140.8030  143.5658 LP  0  0  0  0  0  0  0  0  0  0  0  0  # atno 17320 bound_to 7965
  145.2525  139.2026  143.4935 LP  0  0  0  0  0  0  0  0  0  0  0  0  # atno 17321 bound_to 7965
  140.7650  143.3264  151.2506 LP  0  0  0  0  0  0  0  0  0  0  0  0  # atno 17342 bound_to 10162
  139.6823  143.9834  152.2815 LP  0  0  0  0  0  0  0  0  0  0  0  0  # atno 17343 bound_to 10162
  157.5982  131.0942  150.9006 LP  0  0  0  0  0  0  0  0  0  0  0  0  # atno 17370 bound_to 10713
  156.9168  130.5300  149.5279 LP  0  0  0  0  0  0  0  0  0  0  0  0  # atno 17371 bound_to 10713
  140.6559  134.5019  157.5580 LP  0  0  0  0  0  0  0  0  0  0  0  0  # atno 17394 bound_to 11000
  139.9151  134.8263  156.1393 LP  0  0  0  0  0  0  0  0  0  0  0  0  # atno 17395 bound_to 11000

$$$$
