AV-unprocessed.smi:1627|AV-procd|sdf|6517|dock3
  -GOLD-   22720 7193D 1   1.00000     0.00000
 Structure written by MMmdl.
 43 44  0  0  0  0  0  0  0  0  1 V2000
  156.6104  134.9043  161.7804 C   0  0  0  0  0  0  0  0  0  0  0  0
  155.0837  134.7844  161.6637 C   0  0  1  0  0  0  0  0  0  0  0  0
  154.5782  134.4789  162.9612 O   0  0  0  0  0  0  0  0  0  0  0  0
  155.2396  133.4189  163.6449 C   0  0  0  0  0  0  0  0  0  0  0  0
  154.2149  132.6300  164.4687 C   0  0  0  0  0  0  0  0  0  0  0  0
  154.8360  131.6433  165.1139 F   0  0  0  0  0  0  0  0  0  0  0  0
  153.6322  133.4260  165.3647 F   0  0  0  0  0  0  0  0  0  0  0  0
  153.2888  132.1021  163.6688 F   0  0  0  0  0  0  0  0  0  0  0  0
  154.4601  136.0876  161.1372 C   0  0  0  0  0  0  0  0  0  0  0  0
  153.6692  136.0460  160.1950 O   0  0  0  0  0  0  0  0  0  0  0  0
  154.8694  137.2173  161.7436 N   0  0  0  0  0  0  0  0  0  0  0  0
  154.4782  138.5585  161.4831 C   0  0  0  0  0  0  0  0  0  0  0  0
  154.9931  139.6877  162.1600 C   0  0  0  0  0  0  0  0  0  0  0  0
  154.5374  140.9695  161.7964 C   0  0  0  0  0  0  0  0  0  0  0  0
  153.5805  141.0990  160.7581 C   0  0  0  0  0  0  0  0  0  0  0  0
  153.0884  142.3565  160.3395 N   0  0  0  0  0  0  0  0  0  0  0  0
  152.6186  142.4402  158.9528 C   0  0  0  0  0  0  0  0  0  0  0  0
  152.5420  143.8997  158.4732 C   0  0  0  0  0  0  0  0  0  0  0  0
  151.7068  144.7551  159.4358 C   0  0  0  0  0  0  0  0  0  0  0  0
  152.2739  144.6428  160.8575 C   0  0  0  0  0  0  0  0  0  0  0  0
  152.3569  143.1747  161.3090 C   0  0  0  0  0  0  0  0  0  0  0  0
  153.1019  140.0126  160.1052 N   0  0  0  0  0  0  0  0  0  0  0  0
  153.5419  138.7867  160.4562 C   0  0  0  0  0  0  0  0  0  0  0  0
  157.0637  135.1511  160.8197 H   0  0  0  0  0  0  0  0  0  0  0  0
  157.0467  133.9639  162.1176 H   0  0  0  0  0  0  0  0  0  0  0  0
  156.8996  135.6750  162.4961 H   0  0  0  0  0  0  0  0  0  0  0  0
  154.8566  133.9610  160.9835 H   0  0  0  0  0  0  0  0  0  0  0  0
  155.7337  132.7478  162.9412 H   0  0  0  0  0  0  0  0  0  0  0  0
  156.0086  133.8243  164.3042 H   0  0  0  0  0  0  0  0  0  0  0  0
  155.5888  137.1058  162.4434 H   0  0  0  0  0  0  0  0  0  0  0  0
  155.7342  139.6015  162.9392 H   0  0  0  0  0  0  0  0  0  0  0  0
  154.9285  141.8243  162.3268 H   0  0  0  0  0  0  0  0  0  0  0  0
  153.2644  141.8864  158.2716 H   0  0  0  0  0  0  0  0  0  0  0  0
  151.6327  141.9776  158.8930 H   0  0  0  0  0  0  0  0  0  0  0  0
  153.5494  144.3114  158.3984 H   0  0  0  0  0  0  0  0  0  0  0  0
  152.1156  143.9401  157.4706 H   0  0  0  0  0  0  0  0  0  0  0  0
  151.7043  145.7959  159.1113 H   0  0  0  0  0  0  0  0  0  0  0  0
  150.6691  144.4193  159.4240 H   0  0  0  0  0  0  0  0  0  0  0  0
  153.2685  145.0898  160.8888 H   0  0  0  0  0  0  0  0  0  0  0  0
  151.6569  145.2118  161.5532 H   0  0  0  0  0  0  0  0  0  0  0  0
  151.3539  142.7650  161.4368 H   0  0  0  0  0  0  0  0  0  0  0  0
  152.8506  143.1403  162.2807 H   0  0  0  0  0  0  0  0  0  0  0  0
  153.1262  137.9597  159.8990 H   0  0  0  0  0  0  0  0  0  0  0  0
  1  2  1  0  0  0  0
  1 24  1  0  0  0  0
  1 25  1  0  0  0  0
  1 26  1  0  0  0  0
  2  3  1  0  0  0  0
  2  9  1  0  0  0  0
  2 27  1  0  0  0  0
  3  4  1  0  0  0  0
  4  5  1  0  0  0  0
  4 28  1  0  0  0  0
  4 29  1  0  0  0  0
  5  6  1  0  0  0  0
  5  7  1  0  0  0  0
  5  8  1  0  0  0  0
  9 10  2  0  0  0  0
  9 11  1  0  0  0  0
 11 12  1  0  0  0  0
 11 30  1  0  0  0  0
 12 23  1  0  0  0  0
 12 13  2  0  0  0  0
 13 14  1  0  0  0  0
 13 31  1  0  0  0  0
 14 15  2  0  0  0  0
 14 32  1  0  0  0  0
 15 16  1  0  0  0  0
 15 22  1  0  0  0  0
 16 21  1  0  0  0  0
 16 17  1  0  0  0  0
 17 18  1  0  0  0  0
 17 33  1  0  0  0  0
 17 34  1  0  0  0  0
 18 19  1  0  0  0  0
 18 35  1  0  0  0  0
 18 36  1  0  0  0  0
 19 20  1  0  0  0  0
 19 37  1  0  0  0  0
 19 38  1  0  0  0  0
 20 21  1  0  0  0  0
 20 39  1  0  0  0  0
 20 40  1  0  0  0  0
 21 41  1  0  0  0  0
 21 42  1  0  0  0  0
 22 23  2  0  0  0  0
 23 43  1  0  0  0  0
M  END
> <s_m_source_file>
AV-unprocessed.smi

> <i_m_source_file_index>
1627

> <i_lp_mmshare_version>
43012

> <i_f3d_flags>
0

> <s_epik_input>
RkMoRikoRilbQ0gyXU9bQ0BASF0oW0NIM10pQyg9TylbTkhdYzFbY0hdW2NIXWMobltjSF0xKU4yW0NIMl1bQ0gyXVtDSDJdW0NIMl1bQ0gyXTI=

> <s_epik_cmdline>
J2VwaWtfcHl0aG9uJywgJy1waCcsICc3LjAnLCAnLXRuJywgJzgnLCAnLW1hJywgJzIwMCcsICctbWV0YWxfYmluZGluZycsICctaW1hZScsICc8aW5maWxlLm1hZT4nLCAnLW9tYWUnLCAnPG91dGZpbGUubWFlPic=

> <r_lp_tautomer_probability>
1

> <r_epik_Ionization_Penalty>
0.0254771

> <r_epik_Ionization_Penalty_Charging>
0

> <r_epik_Ionization_Penalty_Neutral>
0.0254771

> <r_epik_State_Penalty>
0.0187406

> <r_epik_Charging_Adjusted_Penalty>
0.0187406

> <i_epik_Tot_Q>
0

> <i_epik_Tot_abs_Q>
0

> <r_epik_Metal_State_Penalty>
0.017939

> <b_epik_Metal_Only>
0

> <s_lp_Force_Field>
OPLS_2005

> <r_lp_Energy>
25.1621

> <b_lp_Chiralities_Consistent>
1

> <s_lp_Variant>
AV-unprocessed.smi:1627-2

> <Gold.Version>
5.8.1

> <Gold.Id.Protein>
6NUR|6NUR_protein|mol2

> <Gold.PLP.Fitness>
48.4787

> <Gold.PLP.PLP>
-47.6321

> <Gold.PLP.part.hbond>
-1.0000

> <Gold.PLP.part.metal>
0.0000

> <Gold.PLP.part.buried>
-3.8534

> <Gold.PLP.part.nonpolar>
-42.4935

> <Gold.PLP.part.repulsive>
0.0068

> <Gold.PLP.ligand.clash>
0.0035

> <Gold.PLP.ligand.torsion>
1.2344

> <Gold.PLP.Chemscore.Hbond>
1.0000

> <Gold.PLP.Chemscore.CHOScore>
0.0000

> <Gold.PLP.Chemscore.Metal>
0.0000

> <Gold.Chemscore.Hbonds>
donor molecule, donor type, donor heavy atom, donor atom, acceptor molecule, acceptor atom, score
      P1  H  6896  6907       L1    10  1.00

> <Gold.PLP.Chemscore.Internal.Correction>
0.3189

> <Gold.Rescore>
     Score         DG    S(hbond)    S(metal)    S(lipo)     H(rot)  DE(clash)    DE(int)     intcor
     14.34     -16.63       1.00        0.00     102.39       1.63       0.06       2.24       ----

> <Gold.Chemscore.Fitness>
14.3381

> <Gold.Chemscore.DG>
-16.6322

> <Gold.Chemscore.ZeroCoef>
-5.4800

> <Gold.Chemscore.Hbond>
0.9984

> <Gold.Chemscore.Metal>
0.0000

> <Gold.Chemscore.Lipo>
102.3926

> <Gold.Chemscore.Internal_Hbond>
0.0000

> <Gold.Chemscore.DEClash>
0.0580

> <Gold.Chemscore.DEInternal>
2.2361

> <Gold.Chemscore.Rot>
1.6260

> <Gold.Chemscore.Internal.Correction>
   9.000000E+99

> <Gold.Chemscore.Hbonds>
donor molecule, donor type, donor heavy atom, donor atom, acceptor molecule, acceptor atom, score
      P1  H  6896  6907       L1    10  1.00

> <Gold.Chemscore.Hbond.Weighted>
-3.3347

> <Gold.Chemscore.Metal.Weighted>
-0.0000

> <Gold.Chemscore.Lipo.Weighted>
-11.9799

> <Gold.Chemscore.Internal_Hbond.Weighted>
0.0000

> <Gold.Chemscore.DEClash.Weighted>
0.0580

> <Gold.Chemscore.DEInternal.Weighted>
2.2361

> <Gold.Chemscore.Rot.Weighted>
4.1625

> <Gold.Chemscore.Internal.Correction.Weighted>
   9.000000E+99

> <Gold.Protein.RotatedTorsions>
[ 6907 6896 6895 6894 ] final   46.69 input  -60.11 | X-H torsion
[ 7974 7965 7964 7962 ] final   50.56 input  175.53 | X-H torsion
[ 8008 7997 7996 7995 ] final -158.44 input   59.86 | X-H torsion
[ 10167 10162 10161 10158 ] final   24.34 input  -65.29 | X-H torsion
[ 10718 10713 10712 10709 ] final   55.03 input   66.30 | X-H torsion
[ 10763 10752 10751 10750 ] final   38.11 input  -60.55 | X-H torsion
[ 11005 11000 10999 10996 ] final   49.86 input  -57.11 | X-H torsion

> <Gold.Protein.ActiveResidues>
 VAL166  LYS551  ARG553  GLY616  TRP617  ASP618  TYR619  PRO620  LYS621  CYS622 
 ASP623  PHE694  ASN695  SER759  ASP760  ASP761  ALA762  ILE779  LEU786  VAL792 
 PHE793  MET794  SER795  GLU796  ALA797  LYS798  CYS799  TRP800  GLU811  SER814 

> <Gold.Protein.RotatedAtoms>
  152.2594  134.8050  160.0432 H   0  0  0  0  0  0  0  0  0  0  0  0  # atno 6907 bound_to 6896
  151.8702  133.3469  159.3740 H   0  0  0  0  0  0  0  0  0  0  0  0  # atno 6908 bound_to 6896
  150.7111  134.5048  159.5623 H   0  0  0  0  0  0  0  0  0  0  0  0  # atno 6909 bound_to 6896
  146.0000  139.4428  143.0021 H   0  0  0  0  0  0  0  0  0  0  0  0  # atno 7974 bound_to 7965
  155.7476  140.0822  157.2216 H   0  0  0  0  0  0  0  0  0  0  0  0  # atno 8008 bound_to 7997
  154.4015  140.1566  156.2743 H   0  0  0  0  0  0  0  0  0  0  0  0  # atno 8009 bound_to 7997
  155.8961  140.3412  155.5994 H   0  0  0  0  0  0  0  0  0  0  0  0  # atno 8010 bound_to 7997
  140.5196  144.0024  150.6410 H   0  0  0  0  0  0  0  0  0  0  0  0  # atno 10167 bound_to 10162
  157.5309  130.8630  149.8686 H   0  0  0  0  0  0  0  0  0  0  0  0  # atno 10718 bound_to 10713
  153.0013  135.6259  154.2251 H   0  0  0  0  0  0  0  0  0  0  0  0  # atno 10763 bound_to 10752
  154.1994  135.2805  155.2997 H   0  0  0  0  0  0  0  0  0  0  0  0  # atno 10764 bound_to 10752
  154.5696  135.5680  153.7141 H   0  0  0  0  0  0  0  0  0  0  0  0  # atno 10765 bound_to 10752
  140.1067  134.5009  155.8714 H   0  0  0  0  0  0  0  0  0  0  0  0  # atno 11005 bound_to 11000
  145.7502  140.9975  143.1254 LP  0  0  0  0  0  0  0  0  0  0  0  0  # atno 17320 bound_to 7965
  144.6916  139.9205  143.7467 LP  0  0  0  0  0  0  0  0  0  0  0  0  # atno 17321 bound_to 7965
  140.3369  143.3043  152.0628 LP  0  0  0  0  0  0  0  0  0  0  0  0  # atno 17342 bound_to 10162
  139.4919  144.6470  151.6758 LP  0  0  0  0  0  0  0  0  0  0  0  0  # atno 17343 bound_to 10162
  156.0422  130.3736  150.1407 LP  0  0  0  0  0  0  0  0  0  0  0  0  # atno 17370 bound_to 10713
  156.9592  130.9799  151.3482 LP  0  0  0  0  0  0  0  0  0  0  0  0  # atno 17371 bound_to 10713
  141.2120  133.6713  156.6624 LP  0  0  0  0  0  0  0  0  0  0  0  0  # atno 17394 bound_to 11000
  140.3147  134.8057  157.4204 LP  0  0  0  0  0  0  0  0  0  0  0  0  # atno 17395 bound_to 11000

$$$$
