AV-unprocessed.smi:528|AV-procd|sdf|2833|dock4
  -GOLD-   2262023323D 1   1.00000     0.00000
 Structure written by MMmdl.
 45 47  0  0  0  0  0  0  0  0  1 V2000
  149.0078  138.0576  155.3362 C   0  0  0  0  0  0  0  0  0  0  0  0
  149.6251  138.0060  156.7449 C   0  0  2  0  0  0  0  0  0  0  0  0
  148.5465  137.8370  157.7178 N   0  0  0  0  0  0  0  0  0  0  0  0
  148.5900  137.0580  158.8093 C   0  0  0  0  0  0  0  0  0  0  0  0
  149.5795  136.3984  159.1307 O   0  0  0  0  0  0  0  0  0  0  0  0
  147.3140  137.0387  159.6640 C   0  0  0  0  0  0  0  0  0  0  0  0
  147.2777  135.9437  160.6486 N   0  0  0  0  0  0  0  0  0  0  0  0
  147.0467  134.6447  160.1545 C   0  0  0  0  0  0  0  0  0  0  0  0
  147.0042  133.5556  160.9460 C   0  0  0  0  0  0  0  0  0  0  0  0
  146.6981  132.1734  160.3902 C   0  0  0  0  0  0  0  0  0  0  0  0
  147.5953  131.8161  159.4712 F   0  0  0  0  0  0  0  0  0  0  0  0
  146.6984  131.2538  161.3560 F   0  0  0  0  0  0  0  0  0  0  0  0
  145.4950  132.1724  159.8178 F   0  0  0  0  0  0  0  0  0  0  0  0
  147.1755  133.7844  162.3673 C   0  0  0  0  0  0  0  0  0  0  0  0
  147.3849  135.0217  162.8579 C   0  0  0  0  0  0  0  0  0  0  0  0
  147.4504  136.1933  161.9814 C   0  0  0  0  0  0  0  0  0  0  0  0
  147.6467  137.3280  162.4174 O   0  0  0  0  0  0  0  0  0  0  0  0
  150.4437  139.2734  157.0950 C   0  0  1  0  0  0  0  0  0  0  0  0
  151.1013  139.9446  155.8623 C   0  0  0  0  0  0  0  0  0  0  0  0
  150.6195  141.4035  155.9511 C   0  0  2  0  0  0  0  0  0  0  0  0
  151.2882  142.0946  157.1531 C   0  0  0  0  0  0  0  0  0  0  0  0
  150.5723  141.4491  158.3538 C   0  0  0  0  0  0  0  0  0  0  0  0
  149.6155  140.4458  157.6810 C   0  0  1  0  0  0  0  0  0  0  0  0
  149.1892  141.2238  156.4401 C   0  0  0  0  0  0  0  0  0  0  0  0
  149.7700  138.0881  154.5591 H   0  0  0  0  0  0  0  0  0  0  0  0
  148.3702  138.9338  155.2141 H   0  0  0  0  0  0  0  0  0  0  0  0
  148.3966  137.1749  155.1447 H   0  0  0  0  0  0  0  0  0  0  0  0
  150.2929  137.1443  156.7912 H   0  0  0  0  0  0  0  0  0  0  0  0
  147.6939  138.3473  157.5379 H   0  0  0  0  0  0  0  0  0  0  0  0
  147.2249  138.0048  160.1627 H   0  0  0  0  0  0  0  0  0  0  0  0
  146.4449  136.9777  159.0060 H   0  0  0  0  0  0  0  0  0  0  0  0
  146.8981  134.5903  159.0857 H   0  0  0  0  0  0  0  0  0  0  0  0
  147.1377  132.9488  163.0507 H   0  0  0  0  0  0  0  0  0  0  0  0
  147.5089  135.1545  163.9225 H   0  0  0  0  0  0  0  0  0  0  0  0
  151.2186  138.9854  157.8077 H   0  0  0  0  0  0  0  0  0  0  0  0
  152.1886  139.8650  155.8783 H   0  0  0  0  0  0  0  0  0  0  0  0
  150.7531  139.4997  154.9289 H   0  0  0  0  0  0  0  0  0  0  0  0
  150.7208  141.9552  155.0160 H   0  0  0  0  0  0  0  0  0  0  0  0
  152.3664  141.9325  157.1741 H   0  0  0  0  0  0  0  0  0  0  0  0
  151.1102  143.1705  157.1337 H   0  0  0  0  0  0  0  0  0  0  0  0
  151.2652  140.9688  159.0455 H   0  0  0  0  0  0  0  0  0  0  0  0
  150.0126  142.2001  158.9129 H   0  0  0  0  0  0  0  0  0  0  0  0
  148.7960  140.1475  158.3333 H   0  0  0  0  0  0  0  0  0  0  0  0
  148.6903  142.1669  156.6712 H   0  0  0  0  0  0  0  0  0  0  0  0
  148.5643  140.6487  155.7551 H   0  0  0  0  0  0  0  0  0  0  0  0
  1  2  1  0  0  0  0
  1 25  1  0  0  0  0
  1 26  1  0  0  0  0
  1 27  1  0  0  0  0
  2  3  1  0  0  0  0
  2 18  1  0  0  0  0
  2 28  1  0  0  0  0
  3  4  1  0  0  0  0
  3 29  1  0  0  0  0
  4  5  2  0  0  0  0
  4  6  1  0  0  0  0
  6  7  1  0  0  0  0
  6 30  1  0  0  0  0
  6 31  1  0  0  0  0
  7 16  1  0  0  0  0
  7  8  1  0  0  0  0
  8  9  2  0  0  0  0
  8 32  1  0  0  0  0
  9 10  1  0  0  0  0
  9 14  1  0  0  0  0
 10 11  1  0  0  0  0
 10 12  1  0  0  0  0
 10 13  1  0  0  0  0
 14 15  2  0  0  0  0
 14 33  1  0  0  0  0
 15 16  1  0  0  0  0
 15 34  1  0  0  0  0
 16 17  2  0  0  0  0
 18 23  1  0  0  0  0
 18 19  1  0  0  0  0
 18 35  1  0  0  0  0
 19 20  1  0  0  0  0
 19 36  1  0  0  0  0
 19 37  1  0  0  0  0
 20 24  1  0  0  0  0
 20 21  1  0  0  0  0
 20 38  1  0  0  0  0
 21 22  1  0  0  0  0
 21 39  1  0  0  0  0
 21 40  1  0  0  0  0
 22 23  1  0  0  0  0
 22 41  1  0  0  0  0
 22 42  1  0  0  0  0
 23 24  1  0  0  0  0
 23 43  1  0  0  0  0
 24 44  1  0  0  0  0
 24 45  1  0  0  0  0
M  END
> <s_m_source_file>
AV-unprocessed.smi

> <i_m_source_file_index>
528

> <i_lp_mmshare_version>
43012

> <i_f3d_flags>
0

> <s_epik_input>
W0NIMl0xW0NIMl1bQ0BASF0oW0NIMl0yKVtDQEBIXShbQ0gyXVtDQEhdMTIpW0NASF0oW0NIM10pW05IXUMoPU8pW0NIMl1uM1tjSF1jKEMoRikoRilGKVtjSF1bY0hdYzM9Tw==

> <s_epik_cmdline>
J2VwaWtfcHl0aG9uJywgJy1waCcsICc3LjAnLCAnLXRuJywgJzgnLCAnLW1hJywgJzIwMCcsICctbWV0YWxfYmluZGluZycsICctaW1hZScsICc8aW5maWxlLm1hZT4nLCAnLW9tYWUnLCAnPG91dGZpbGUubWFlPic=

> <r_lp_tautomer_probability>
1

> <r_epik_Ionization_Penalty>
4.09479e-08

> <r_epik_Ionization_Penalty_Charging>
1.9321e-08

> <r_epik_Ionization_Penalty_Neutral>
2.16269e-08

> <r_epik_State_Penalty>
-0

> <r_epik_Charging_Adjusted_Penalty>
1.9321e-08

> <i_epik_Tot_Q>
0

> <i_epik_Tot_abs_Q>
0

> <r_epik_Metal_State_Penalty>
-0

> <b_epik_Metal_Only>
0

> <s_lp_Force_Field>
OPLS_2005

> <r_lp_Energy>
62.8308

> <b_lp_Chiralities_Consistent>
1

> <s_lp_Variant>
AV-unprocessed.smi:528-3

> <Gold.Version>
5.8.1

> <Gold.Id.Protein>
6NUR|6NUR_protein|mol2

> <Gold.PLP.Fitness>
45.1979

> <Gold.PLP.PLP>
-40.4669

> <Gold.PLP.part.hbond>
-3.0000

> <Gold.PLP.part.metal>
0.0000

> <Gold.PLP.part.buried>
-5.6068

> <Gold.PLP.part.nonpolar>
-31.7435

> <Gold.PLP.part.repulsive>
0.0527

> <Gold.PLP.ligand.clash>
0.0000

> <Gold.PLP.ligand.torsion>
1.3129

> <Gold.PLP.Chemscore.Hbond>
2.4240

> <Gold.PLP.Chemscore.CHOScore>
0.0000

> <Gold.PLP.Chemscore.Metal>
0.0000

> <Gold.Chemscore.Hbonds>
donor molecule, donor type, donor heavy atom, donor atom, acceptor molecule, acceptor atom, score
      P1  H  6896  6909       L1     5  0.91
      P1  H  6931  6943       L1    17  0.82
      P1  H  6934  6947       L1    17  0.18

> <Gold.PLP.Chemscore.Internal.Correction>
0.0849

> <Gold.Rescore>
     Score         DG    S(hbond)    S(metal)    S(lipo)     H(rot)  DE(clash)    DE(int)     intcor
     17.80     -19.49       2.66        0.00      81.30       1.71       0.00       1.69       ----

> <Gold.Chemscore.Fitness>
17.8050

> <Gold.Chemscore.DG>
-19.4906

> <Gold.Chemscore.ZeroCoef>
-5.4800

> <Gold.Chemscore.Hbond>
2.6593

> <Gold.Chemscore.Metal>
0.0000

> <Gold.Chemscore.Lipo>
81.3022

> <Gold.Chemscore.Internal_Hbond>
0.0000

> <Gold.Chemscore.DEClash>
0.0000

> <Gold.Chemscore.DEInternal>
1.6856

> <Gold.Chemscore.Rot>
1.7125

> <Gold.Chemscore.Internal.Correction>
   9.000000E+99

> <Gold.Chemscore.Hbonds>
donor molecule, donor type, donor heavy atom, donor atom, acceptor molecule, acceptor atom, score
      P1  H  6896  6909       L1     5  0.89
      P1  H  6931  6943       L1    17  0.80
      P1  H  6934  6947       L1    17  0.17

> <Gold.Chemscore.Hbond.Weighted>
-8.8822

> <Gold.Chemscore.Metal.Weighted>
-0.0000

> <Gold.Chemscore.Lipo.Weighted>
-9.5124

> <Gold.Chemscore.Internal_Hbond.Weighted>
0.0000

> <Gold.Chemscore.DEClash.Weighted>
0.0000

> <Gold.Chemscore.DEInternal.Weighted>
1.6856

> <Gold.Chemscore.Rot.Weighted>
4.3840

> <Gold.Chemscore.Internal.Correction.Weighted>
   9.000000E+99

> <Gold.Protein.RotatedTorsions>
[ 6907 6896 6895 6894 ] final   67.02 input  -60.11 | X-H torsion
[ 7974 7965 7964 7962 ] final  -71.66 input  175.53 | X-H torsion
[ 8008 7997 7996 7995 ] final  168.64 input   59.86 | X-H torsion
[ 10167 10162 10161 10158 ] final  155.60 input  -65.29 | X-H torsion
[ 10718 10713 10712 10709 ] final -139.68 input   66.30 | X-H torsion
[ 10763 10752 10751 10750 ] final  152.55 input  -60.55 | X-H torsion
[ 11005 11000 10999 10996 ] final  -68.56 input  -57.11 | X-H torsion

> <Gold.Protein.ActiveResidues>
 VAL166  LYS551  ARG553  GLY616  TRP617  ASP618  TYR619  PRO620  LYS621  CYS622 
 ASP623  PHE694  ASN695  SER759  ASP760  ASP761  ALA762  ILE779  LEU786  VAL792 
 PHE793  MET794  SER795  GLU796  ALA797  LYS798  CYS799  TRP800  GLU811  SER814 

> <Gold.Protein.RotatedAtoms>
  152.4523  134.5368  159.9826 H   0  0  0  0  0  0  0  0  0  0  0  0  # atno 6907 bound_to 6896
  151.5437  133.3422  159.2948 H   0  0  0  0  0  0  0  0  0  0  0  0  # atno 6908 bound_to 6896
  150.8455  134.7794  159.7030 H   0  0  0  0  0  0  0  0  0  0  0  0  # atno 6909 bound_to 6896
  145.6752  140.9207  143.0861 H   0  0  0  0  0  0  0  0  0  0  0  0  # atno 7974 bound_to 7965
  156.1528  140.1585  156.8741 H   0  0  0  0  0  0  0  0  0  0  0  0  # atno 8008 bound_to 7997
  154.5087  140.0806  156.7983 H   0  0  0  0  0  0  0  0  0  0  0  0  # atno 8009 bound_to 7997
  155.3861  140.3407  155.4251 H   0  0  0  0  0  0  0  0  0  0  0  0  # atno 8010 bound_to 7997
  139.4821  144.5084  151.8062 H   0  0  0  0  0  0  0  0  0  0  0  0  # atno 10167 bound_to 10162
  156.3136  130.7495  151.1577 H   0  0  0  0  0  0  0  0  0  0  0  0  # atno 10718 bound_to 10713
  154.1219  135.2832  155.3206 H   0  0  0  0  0  0  0  0  0  0  0  0  # atno 10763 bound_to 10752
  154.6417  135.5400  153.7800 H   0  0  0  0  0  0  0  0  0  0  0  0  # atno 10764 bound_to 10752
  153.0310  135.6488  154.1373 H   0  0  0  0  0  0  0  0  0  0  0  0  # atno 10765 bound_to 10752
  141.1535  133.6744  156.6465 H   0  0  0  0  0  0  0  0  0  0  0  0  # atno 11005 bound_to 11000
  144.7044  139.8624  143.7434 LP  0  0  0  0  0  0  0  0  0  0  0  0  # atno 17320 bound_to 7965
  146.1011  139.4007  143.0346 LP  0  0  0  0  0  0  0  0  0  0  0  0  # atno 17321 bound_to 7965
  140.4584  144.1756  150.5904 LP  0  0  0  0  0  0  0  0  0  0  0  0  # atno 17342 bound_to 10162
  140.4510  143.2486  151.9347 LP  0  0  0  0  0  0  0  0  0  0  0  0  # atno 17343 bound_to 10162
  157.7396  131.0527  150.5218 LP  0  0  0  0  0  0  0  0  0  0  0  0  # atno 17370 bound_to 10713
  156.5361  130.4196  149.6177 LP  0  0  0  0  0  0  0  0  0  0  0  0  # atno 17371 bound_to 10713
  140.3353  134.7895  157.4357 LP  0  0  0  0  0  0  0  0  0  0  0  0  # atno 17394 bound_to 11000
  140.0983  134.5507  155.8377 LP  0  0  0  0  0  0  0  0  0  0  0  0  # atno 17395 bound_to 11000

$$$$
