#       Name:                AV-unprocessed.smi:775
#       Creating user name   scv26
#       Creation time:       Fri Mar 27 01:11:58 2020


#       File generated by GOLD software.
#

@<TRIPOS>MOLECULE
AV-unprocessed.smi:775
    44    45     1
SMALL
NO_CHARGES


@<TRIPOS>ATOM
      1 ****        -1.6330  -2.6424  -2.4713 C.3            1 S1                 0.0000
      2 ****        -1.6308  -1.3754  -1.6037 C.3            1 S1                 0.0000
      3 ****        -2.2237  -1.6740  -0.2059 C.3            1 S1                 0.0000
      4 ****        -2.5661  -0.4834   0.5535 N.pl3          1 S1                 0.0000
      5 ****        -3.4729   0.5065   0.2355 C.2            1 S1                 0.0000
      6 ****        -3.4646   1.4107   1.2587 C.2            1 S1                 0.0000
      7 ****        -2.5213   0.8719   2.1774 C.2            1 S1                 0.0000
      8 ****        -1.9941  -0.2663   1.7575 N.2            1 S1                 0.0000
      9 ****        -0.2423  -0.9295  -1.5164 N.3            1 S1                 0.0000
     10 ****        -0.1169   0.5317  -1.4317 C.3            1 S1                 0.0000
     11 ****         1.3506   0.9736  -1.3569 C.2            1 S1                 0.0000
     12 ****         1.8852   1.3428  -2.4037 O.2            1 S1                 0.0000
     13 ****         2.0104   0.9669  -0.1704 N.am           1 S1                 0.0000
     14 ****         1.3968   0.5140   1.0898 C.3            1 S1                 0.0000
     15 ****         2.4232  -0.1352   2.0280 C.3            1 S1                 0.0000
     16 ****         3.5969   0.7014   2.2020 N.am           1 S1                 0.0000
     17 ****         4.1117   1.4611   1.2279 C.2            1 S1                 0.0000
     18 ****         5.1388   2.1151   1.3939 O.2            1 S1                 0.0000
     19 ****         3.3793   1.5241  -0.1225 C.3            1 S1                 0.0000
     20 ****        -2.6467  -3.0195  -2.6100 H              1 S1                 0.0000
     21 ****        -1.0431  -3.4399  -2.0176 H              1 S1                 0.0000
     22 ****        -1.2225  -2.4451  -3.4624 H              1 S1                 0.0000
     23 ****        -2.2383  -0.6322  -2.1229 H              1 S1                 0.0000
     24 ****        -3.1415  -2.2533  -0.3132 H              1 S1                 0.0000
     25 ****        -1.5389  -2.2945   0.3755 H              1 S1                 0.0000
     26 ****        -4.0381   0.4879  -0.6847 H              1 S1                 0.0000
     27 ****        -4.0474   2.3160   1.3407 H              1 S1                 0.0000
     28 ****        -2.2088   1.2688   3.1320 H              1 S1                 0.0000
     29 ****         0.2536  -1.2768  -2.3250 H              1 S1                 0.0000
     30 ****        -0.5651   0.9807  -2.3194 H              1 S1                 0.0000
     31 ****        -0.6672   0.9307  -0.5820 H              1 S1                 0.0000
     32 ****         0.9311   1.3719   1.5768 H              1 S1                 0.0000
     33 ****         0.6119  -0.2219   0.9285 H              1 S1                 0.0000
     34 ****         1.9745  -0.3317   3.0018 H              1 S1                 0.0000
     35 ****         2.7417  -1.0975   1.6251 H              1 S1                 0.0000
     36 ****         4.0668   0.6726   3.0953 H              1 S1                 0.0000
     37 ****         4.0044   1.0011  -0.8483 H              1 S1                 0.0000
     38 ****         3.3454   2.5699  -0.4332 H              1 S1                 0.0000
     39 ****        -1.3217  -0.8386   2.2270 LP             1 S1                 0.0000
     40 ****         0.1513  -1.2931  -0.6720 LP             1 S1                 0.0000
     41 ****         1.3641   1.3461  -3.2571 LP             1 S1                 0.0000
     42 ****         2.8403   1.6391  -2.3999 LP             1 S1                 0.0000
     43 ****         5.6120   2.0879   2.2745 LP             1 S1                 0.0000
     44 ****         5.5014   2.6744   0.6485 LP             1 S1                 0.0000
@<TRIPOS>BOND
    1    1    2 1     
    2    1   20 1     
    3    1   21 1     
    4    1   22 1     
    5    2    3 1     
    6    2    9 1     
    7    2   23 1     
    8    3    4 1     
    9    3   24 1     
   10    3   25 1     
   11    4    8 1     
   12    4    5 1     
   13    5    6 2     
   14    5   26 1     
   15    6    7 1     
   16    6   27 1     
   17    7    8 2     
   18    7   28 1     
   19    9   10 1     
   20    9   29 1     
   21   10   11 1     
   22   10   30 1     
   23   10   31 1     
   24   11   12 2     
   25   11   13 am    
   26   13   19 1     
   27   13   14 1     
   28   14   15 1     
   29   14   32 1     
   30   14   33 1     
   31   15   16 1     
   32   15   34 1     
   33   15   35 1     
   34   16   17 am    
   35   16   36 1     
   36   17   18 2     
   37   17   19 1     
   38   19   37 1     
   39   19   38 1     
   40    8   39 1     
   41    9   40 1     
   42   12   41 1     
   43   12   42 1     
   44   18   43 1     
   45   18   44 1     
@<TRIPOS>SUBSTRUCTURE
      1 S1             1
@<TRIPOS>SET
LONE_PAIRS      STATIC     ATOMS    <user>   **** ""
6 39 40 41 42 43 44
DONOR_HYDROGENS      STATIC     ATOMS    <user>   **** ""
2 29 36
ATOM$BLUE        STATIC     ATOMS    COLORGROUP SYSTEM
6 39 40 41 42 43 44
ATOM$RED        STATIC     ATOMS    COLORGROUP SYSTEM
2 29 36
