AV-unprocessed.smi:2076|AV-procd|sdf|8460|dock5
  -GOLD-   2272011163D 1   1.00000     0.00000
 Structure written by MMmdl.
 45 46  0  0  0  0  0  0  0  0  2 V2000
  151.4420  146.3152  160.1728 C   0  0  0  0  0  0  0  0  0  0  0  0
  151.5526  144.9549  159.5501 C   0  0  0  0  0  0  0  0  0  0  0  0
  151.9470  143.7343  160.1653 C   0  0  0  0  0  0  0  0  0  0  0  0
  151.8745  142.8107  159.1610 C   0  0  0  0  0  0  0  0  0  0  0  0
  152.1648  141.3457  159.1772 C   0  0  0  0  0  0  0  0  0  0  0  0
  151.4565  143.4837  158.0266 N   0  0  0  0  0  0  0  0  0  0  0  0
  151.2099  142.9648  156.6903 C   0  0  0  0  0  0  0  0  0  0  0  0
  150.3191  141.7226  156.7379 C   0  0  0  0  0  0  0  0  0  0  0  0
  149.6960  141.4505  157.7635 O   0  0  0  0  0  0  0  0  0  0  0  0
  150.2721  140.9771  155.6223 N   0  0  0  0  0  0  0  0  0  0  0  0
  149.4451  139.7884  155.4283 C   0  0  0  0  0  0  0  0  0  0  0  0
  149.7748  139.0090  154.1237 C   0  0  1  0  0  0  0  0  0  0  0  0
  151.0416  138.1374  154.3106 C   0  0  0  0  0  0  0  0  0  0  0  0
  148.6073  138.1919  153.6462 N   0  3  0  0  0  0  0  0  0  0  0  0
  147.9350  137.4117  154.7241 C   0  0  0  0  0  0  0  0  0  0  0  0
  146.7498  136.5954  154.1816 C   0  0  0  0  0  0  0  0  0  0  0  0
  145.8264  137.4582  153.5385 O   0  0  0  0  0  0  0  0  0  0  0  0
  146.4207  138.1015  152.4232 C   0  0  0  0  0  0  0  0  0  0  0  0
  147.5909  138.9814  152.8937 C   0  0  0  0  0  0  0  0  0  0  0  0
  151.2591  144.7982  158.2696 N   0  0  0  0  0  0  0  0  0  0  0  0
  151.8189  146.3116  161.1957 H   0  0  0  0  0  0  0  0  0  0  0  0
  150.4045  146.6488  160.2028 H   0  0  0  0  0  0  0  0  0  0  0  0
  152.0151  147.0535  159.6116 H   0  0  0  0  0  0  0  0  0  0  0  0
  152.2390  143.5626  161.1908 H   0  0  0  0  0  0  0  0  0  0  0  0
  152.4423  141.0150  160.1781 H   0  0  0  0  0  0  0  0  0  0  0  0
  152.9882  141.1056  158.5045 H   0  0  0  0  0  0  0  0  0  0  0  0
  151.2922  140.7714  158.8662 H   0  0  0  0  0  0  0  0  0  0  0  0
  150.7411  143.7384  156.0797 H   0  0  0  0  0  0  0  0  0  0  0  0
  152.1631  142.7253  156.2182 H   0  0  0  0  0  0  0  0  0  0  0  0
  150.8220  141.2835  154.8320 H   0  0  0  0  0  0  0  0  0  0  0  0
  149.5022  139.1235  156.2918 H   0  0  0  0  0  0  0  0  0  0  0  0
  148.4276  140.1743  155.4039 H   0  0  0  0  0  0  0  0  0  0  0  0
  149.9959  139.7450  153.3487 H   0  0  0  0  0  0  0  0  0  0  0  0
  151.8812  138.7100  154.7014 H   0  0  0  0  0  0  0  0  0  0  0  0
  151.4039  137.7220  153.3717 H   0  0  0  0  0  0  0  0  0  0  0  0
  150.8572  137.3134  155.0006 H   0  0  0  0  0  0  0  0  0  0  0  0
  148.6208  136.7020  155.1823 H   0  0  0  0  0  0  0  0  0  0  0  0
  147.5934  138.0895  155.5080 H   0  0  0  0  0  0  0  0  0  0  0  0
  147.0913  135.8226  153.4908 H   0  0  0  0  0  0  0  0  0  0  0  0
  146.2417  136.0853  155.0004 H   0  0  0  0  0  0  0  0  0  0  0  0
  146.7555  137.3628  151.6928 H   0  0  0  0  0  0  0  0  0  0  0  0
  145.6667  138.7149  151.9295 H   0  0  0  0  0  0  0  0  0  0  0  0
  147.2184  139.7912  153.5231 H   0  0  0  0  0  0  0  0  0  0  0  0
  148.0242  139.4343  152.0040 H   0  0  0  0  0  0  0  0  0  0  0  0
  148.9797  137.5146  152.9957 H   0  0  0  0  0  0  0  0  0  0  0  0
  1  2  1  0  0  0  0
  1 21  1  0  0  0  0
  1 22  1  0  0  0  0
  1 23  1  0  0  0  0
  2 20  2  0  0  0  0
  2  3  1  0  0  0  0
  3  4  2  0  0  0  0
  3 24  1  0  0  0  0
  4  5  1  0  0  0  0
  4  6  1  0  0  0  0
  5 25  1  0  0  0  0
  5 26  1  0  0  0  0
  5 27  1  0  0  0  0
  6  7  1  0  0  0  0
  6 20  1  0  0  0  0
  7  8  1  0  0  0  0
  7 28  1  0  0  0  0
  7 29  1  0  0  0  0
  8  9  2  0  0  0  0
  8 10  1  0  0  0  0
 10 11  1  0  0  0  0
 10 30  1  0  0  0  0
 11 12  1  0  0  0  0
 11 31  1  0  0  0  0
 11 32  1  0  0  0  0
 12 13  1  0  0  0  0
 12 14  1  0  0  0  0
 12 33  1  0  0  0  0
 13 34  1  0  0  0  0
 13 35  1  0  0  0  0
 13 36  1  0  0  0  0
 14 19  1  0  0  0  0
 14 15  1  0  0  0  0
 14 45  1  0  0  0  0
 15 16  1  0  0  0  0
 15 37  1  0  0  0  0
 15 38  1  0  0  0  0
 16 17  1  0  0  0  0
 16 39  1  0  0  0  0
 16 40  1  0  0  0  0
 17 18  1  0  0  0  0
 18 19  1  0  0  0  0
 18 41  1  0  0  0  0
 18 42  1  0  0  0  0
 19 43  1  0  0  0  0
 19 44  1  0  0  0  0
M  CHG  1  14   1
M  END
> <s_m_source_file>
AV-unprocessed.smi

> <i_m_source_file_index>
2076

> <i_lp_mmshare_version>
43012

> <i_f3d_flags>
0

> <s_epik_input>
W0NIM11jMVtjSF1jKFtDSDNdKW4objEpW0NIMl1DKD1PKVtOSF1bQ0gyXVtDQEhdKFtDSDNdKU4yW0NIMl1bQ0gyXU9bQ0gyXVtDSDJdMg==

> <s_epik_cmdline>
J2VwaWtfcHl0aG9uJywgJy1waCcsICc3LjAnLCAnLXRuJywgJzgnLCAnLW1hJywgJzIwMCcsICctbWV0YWxfYmluZGluZycsICctaW1hZScsICc8aW5maWxlLm1hZT4nLCAnLW9tYWUnLCAnPG91dGZpbGUubWFlPic=

> <r_lp_tautomer_probability>
1

> <r_epik_Ionization_Penalty>
0.748594

> <r_epik_Ionization_Penalty_Charging>
0.748396

> <r_epik_Ionization_Penalty_Neutral>
0.000197403

> <r_epik_State_Penalty>
0.775162

> <r_epik_Charging_Adjusted_Penalty>
1.52356

> <i_epik_Tot_Q>
1

> <i_epik_Tot_abs_Q>
1

> <r_epik_Metal_State_Penalty>
0.77529

> <b_epik_Metal_Only>
0

> <s_lp_Force_Field>
OPLS_2005

> <r_lp_Energy>
19.0856

> <b_lp_Chiralities_Consistent>
1

> <s_lp_Variant>
AV-unprocessed.smi:2076-4

> <Gold.Version>
5.8.1

> <Gold.Id.Protein>
6NUR|6NUR_protein|mol2

> <Gold.PLP.Fitness>
39.8841

> <Gold.PLP.PLP>
-35.6448

> <Gold.PLP.part.hbond>
-1.0000

> <Gold.PLP.part.metal>
0.0000

> <Gold.PLP.part.buried>
-3.7660

> <Gold.PLP.part.nonpolar>
-31.4574

> <Gold.PLP.part.repulsive>
0.4110

> <Gold.PLP.ligand.clash>
0.0000

> <Gold.PLP.ligand.torsion>
0.9192

> <Gold.PLP.Chemscore.Hbond>
2.0000

> <Gold.PLP.Chemscore.CHOScore>
0.0000

> <Gold.PLP.Chemscore.Metal>
0.0000

> <Gold.Chemscore.Hbonds>
donor molecule, donor type, donor heavy atom, donor atom, acceptor molecule, acceptor atom, score
      L1  H    14    45       P1  7948  2.00

> <Gold.PLP.Chemscore.Internal.Correction>
0.0778

> <Gold.Rescore>
     Score         DG    S(hbond)    S(metal)    S(lipo)     H(rot)  DE(clash)    DE(int)     intcor
     11.72     -15.68       1.00        0.00      97.46       1.78       0.78       3.18       ----

> <Gold.Chemscore.Fitness>
11.7163

> <Gold.Chemscore.DG>
-15.6764

> <Gold.Chemscore.ZeroCoef>
-5.4800

> <Gold.Chemscore.Hbond>
1.0000

> <Gold.Chemscore.Metal>
0.0000

> <Gold.Chemscore.Lipo>
97.4599

> <Gold.Chemscore.Internal_Hbond>
0.0000

> <Gold.Chemscore.DEClash>
0.7811

> <Gold.Chemscore.DEInternal>
3.1790

> <Gold.Chemscore.Rot>
1.7760

> <Gold.Chemscore.Internal.Correction>
   9.000000E+99

> <Gold.Chemscore.Hbonds>
donor molecule, donor type, donor heavy atom, donor atom, acceptor molecule, acceptor atom, score
      L1  H    14    45       P1  7948  0.99

> <Gold.Chemscore.Hbond.Weighted>
-3.3400

> <Gold.Chemscore.Metal.Weighted>
-0.0000

> <Gold.Chemscore.Lipo.Weighted>
-11.4028

> <Gold.Chemscore.Internal_Hbond.Weighted>
0.0000

> <Gold.Chemscore.DEClash.Weighted>
0.7811

> <Gold.Chemscore.DEInternal.Weighted>
3.1790

> <Gold.Chemscore.Rot.Weighted>
4.5464

> <Gold.Chemscore.Internal.Correction.Weighted>
   9.000000E+99

> <Gold.Protein.RotatedTorsions>
[ 6907 6896 6895 6894 ] final  -40.30 input  -60.11 | X-H torsion
[ 7974 7965 7964 7962 ] final -135.84 input  175.53 | X-H torsion
[ 8008 7997 7996 7995 ] final  -95.39 input   59.86 | X-H torsion
[ 10167 10162 10161 10158 ] final   63.64 input  -65.29 | X-H torsion
[ 10718 10713 10712 10709 ] final  -99.18 input   66.30 | X-H torsion
[ 10763 10752 10751 10750 ] final  167.73 input  -60.55 | X-H torsion
[ 11005 11000 10999 10996 ] final  -29.14 input  -57.11 | X-H torsion

> <Gold.Protein.ActiveResidues>
 VAL166  LYS551  ARG553  GLY616  TRP617  ASP618  TYR619  PRO620  LYS621  CYS622 
 ASP623  PHE694  ASN695  SER759  ASP760  ASP761  ALA762  ILE779  LEU786  VAL792 
 PHE793  MET794  SER795  GLU796  ALA797  LYS798  CYS799  TRP800  GLU811  SER814 

> <Gold.Protein.RotatedAtoms>
  150.9801  134.9158  159.7838 H   0  0  0  0  0  0  0  0  0  0  0  0  # atno 6907 bound_to 6896
  152.5219  134.3422  159.9231 H   0  0  0  0  0  0  0  0  0  0  0  0  # atno 6908 bound_to 6896
  151.3429  133.3914  159.2707 H   0  0  0  0  0  0  0  0  0  0  0  0  # atno 6909 bound_to 6896
  144.8979  140.6731  143.5104 H   0  0  0  0  0  0  0  0  0  0  0  0  # atno 7974 bound_to 7965
  154.7608  140.0480  157.0971 H   0  0  0  0  0  0  0  0  0  0  0  0  # atno 8008 bound_to 7997
  154.9940  140.3116  155.4875 H   0  0  0  0  0  0  0  0  0  0  0  0  # atno 8009 bound_to 7997
  156.2903  140.2213  156.5047 H   0  0  0  0  0  0  0  0  0  0  0  0  # atno 8010 bound_to 7997
  140.1309  144.4644  150.6865 H   0  0  0  0  0  0  0  0  0  0  0  0  # atno 10167 bound_to 10162
  156.0127  130.5271  150.6632 H   0  0  0  0  0  0  0  0  0  0  0  0  # atno 10718 bound_to 10713
  154.3582  135.2753  155.2334 H   0  0  0  0  0  0  0  0  0  0  0  0  # atno 10763 bound_to 10752
  154.4534  135.5925  153.6210 H   0  0  0  0  0  0  0  0  0  0  0  0  # atno 10764 bound_to 10752
  152.9845  135.6047  154.3800 H   0  0  0  0  0  0  0  0  0  0  0  0  # atno 10765 bound_to 10752
  140.9270  133.7362  156.0882 H   0  0  0  0  0  0  0  0  0  0  0  0  # atno 11005 bound_to 11000
  145.3668  139.1668  143.4354 LP  0  0  0  0  0  0  0  0  0  0  0  0  # atno 17320 bound_to 7965
  146.3092  140.3736  142.8676 LP  0  0  0  0  0  0  0  0  0  0  0  0  # atno 17321 bound_to 7965
  140.6817  143.2330  151.5365 LP  0  0  0  0  0  0  0  0  0  0  0  0  # atno 17342 bound_to 10162
  139.5520  144.2371  152.1547 LP  0  0  0  0  0  0  0  0  0  0  0  0  # atno 17343 bound_to 10162
  157.4370  131.0856  151.0982 LP  0  0  0  0  0  0  0  0  0  0  0  0  # atno 17370 bound_to 10713
  157.1538  130.6195  149.5590 LP  0  0  0  0  0  0  0  0  0  0  0  0  # atno 17371 bound_to 10713
  140.7912  134.3615  157.5464 LP  0  0  0  0  0  0  0  0  0  0  0  0  # atno 17394 bound_to 11000
  139.8788  134.9141  156.3100 LP  0  0  0  0  0  0  0  0  0  0  0  0  # atno 17395 bound_to 11000

$$$$
