AV-unprocessed.smi:1751|AV-procd|sdf|7056|dock6
  -GOLD-   22720 8273D 1   1.00000     0.00000
 Structure written by MMmdl.
 35 36  0  0  0  0  0  0  0  0  1 V2000
  153.0683  139.5012  158.7627 C   0  0  0  0  0  0  0  0  0  0  0  0
  153.0386  139.6179  157.3443 O   0  0  0  0  0  0  0  0  0  0  0  0
  152.2744  138.7186  156.6291 C   0  0  0  0  0  0  0  0  0  0  0  0
  152.1407  138.9037  155.2388 C   0  0  0  0  0  0  0  0  0  0  0  0
  151.3598  137.9908  154.5055 C   0  0  0  0  0  0  0  0  0  0  0  0
  150.7279  136.9278  155.1814 C   0  0  0  0  0  0  0  0  0  0  0  0
  149.9574  136.0129  154.4148 N   0  0  0  0  0  0  0  0  0  0  0  0
  149.5191  134.7925  154.7679 C   0  0  0  0  0  0  0  0  0  0  0  0
  149.7124  134.2536  155.8576 O   0  0  0  0  0  0  0  0  0  0  0  0
  148.8092  134.2287  153.7811 N   0  0  0  0  0  0  0  0  0  0  0  0
  148.1528  132.9287  153.8605 C   0  0  0  0  0  0  0  0  0  0  0  0
  147.6783  132.4515  152.4778 C   0  0  2  0  0  0  0  0  0  0  0  0
  146.7780  133.4526  151.7565 C   0  0  0  0  0  0  0  0  0  0  0  0
  146.0092  132.5481  150.8213 C   0  0  0  0  0  0  0  0  0  0  0  0
  145.7864  131.3167  151.6943 C   0  0  0  0  0  0  0  0  0  0  0  0
  146.8888  131.2697  152.5971 O   0  0  0  0  0  0  0  0  0  0  0  0
  150.9348  136.8190  156.5781 C   0  0  0  0  0  0  0  0  0  0  0  0
  151.6846  137.6899  157.2868 N   0  0  0  0  0  0  0  0  0  0  0  0
  153.7102  140.2793  159.1753 H   0  0  0  0  0  0  0  0  0  0  0  0
  153.4741  138.5380  159.0754 H   0  0  0  0  0  0  0  0  0  0  0  0
  152.0746  139.6290  159.1946 H   0  0  0  0  0  0  0  0  0  0  0  0
  152.6280  139.7309  154.7445 H   0  0  0  0  0  0  0  0  0  0  0  0
  151.2446  138.1115  153.4382 H   0  0  0  0  0  0  0  0  0  0  0  0
  149.6458  136.3540  153.5171 H   0  0  0  0  0  0  0  0  0  0  0  0
  148.6927  134.7445  152.9212 H   0  0  0  0  0  0  0  0  0  0  0  0
  148.8575  132.2118  154.2828 H   0  0  0  0  0  0  0  0  0  0  0  0
  147.3107  132.9801  154.5526 H   0  0  0  0  0  0  0  0  0  0  0  0
  148.5311  132.2222  151.8368 H   0  0  0  0  0  0  0  0  0  0  0  0
  146.0932  133.9328  152.4571 H   0  0  0  0  0  0  0  0  0  0  0  0
  147.3381  134.2301  151.2363 H   0  0  0  0  0  0  0  0  0  0  0  0
  145.0803  132.9899  150.4604 H   0  0  0  0  0  0  0  0  0  0  0  0
  146.6255  132.2919  149.9585 H   0  0  0  0  0  0  0  0  0  0  0  0
  144.8698  131.4227  152.2759 H   0  0  0  0  0  0  0  0  0  0  0  0
  145.7116  130.4008  151.1078 H   0  0  0  0  0  0  0  0  0  0  0  0
  150.5155  136.0107  157.1567 H   0  0  0  0  0  0  0  0  0  0  0  0
  1  2  1  0  0  0  0
  1 19  1  0  0  0  0
  1 20  1  0  0  0  0
  1 21  1  0  0  0  0
  2  3  1  0  0  0  0
  3 18  1  0  0  0  0
  3  4  2  0  0  0  0
  4  5  1  0  0  0  0
  4 22  1  0  0  0  0
  5  6  2  0  0  0  0
  5 23  1  0  0  0  0
  6  7  1  0  0  0  0
  6 17  1  0  0  0  0
  7  8  1  0  0  0  0
  7 24  1  0  0  0  0
  8  9  2  0  0  0  0
  8 10  1  0  0  0  0
 10 11  1  0  0  0  0
 10 25  1  0  0  0  0
 11 12  1  0  0  0  0
 11 26  1  0  0  0  0
 11 27  1  0  0  0  0
 12 16  1  0  0  0  0
 12 13  1  0  0  0  0
 12 28  1  0  0  0  0
 13 14  1  0  0  0  0
 13 29  1  0  0  0  0
 13 30  1  0  0  0  0
 14 15  1  0  0  0  0
 14 31  1  0  0  0  0
 14 32  1  0  0  0  0
 15 16  1  0  0  0  0
 15 33  1  0  0  0  0
 15 34  1  0  0  0  0
 17 18  2  0  0  0  0
 17 35  1  0  0  0  0
M  END
> <s_m_source_file>
AV-unprocessed.smi

> <i_m_source_file_index>
1751

> <i_lp_mmshare_version>
43012

> <i_f3d_flags>
0

> <s_epik_input>
W0NIM11PYzFbY0hdW2NIXWMoW2NIXW4xKVtOSF1DKD1PKVtOSF1bQ0gyXVtDQEBIXTJbQ0gyXVtDSDJdW0NIMl1PMg==

> <s_epik_cmdline>
J2VwaWtfcHl0aG9uJywgJy1waCcsICc3LjAnLCAnLXRuJywgJzgnLCAnLW1hJywgJzIwMCcsICctbWV0YWxfYmluZGluZycsICctaW1hZScsICc8aW5maWxlLm1hZT4nLCAnLW9tYWUnLCAnPG91dGZpbGUubWFlPic=

> <r_lp_tautomer_probability>
1

> <r_epik_Ionization_Penalty>
9.01694e-05

> <r_epik_Ionization_Penalty_Charging>
0

> <r_epik_Ionization_Penalty_Neutral>
9.01694e-05

> <r_epik_State_Penalty>
-0

> <r_epik_Charging_Adjusted_Penalty>
0

> <i_epik_Tot_Q>
0

> <i_epik_Tot_abs_Q>
0

> <r_epik_Metal_State_Penalty>
-0

> <b_epik_Metal_Only>
0

> <s_lp_Force_Field>
OPLS_2005

> <r_lp_Energy>
19.4373

> <b_lp_Chiralities_Consistent>
1

> <s_lp_Variant>
AV-unprocessed.smi:1751-1

> <Gold.Version>
5.8.1

> <Gold.Id.Protein>
6NUR|6NUR_protein|mol2

> <Gold.PLP.Fitness>
36.7419

> <Gold.PLP.PLP>
-28.0709

> <Gold.PLP.part.hbond>
-3.5392

> <Gold.PLP.part.metal>
0.0000

> <Gold.PLP.part.buried>
-1.5204

> <Gold.PLP.part.nonpolar>
-22.8238

> <Gold.PLP.part.repulsive>
0.2129

> <Gold.PLP.ligand.clash>
0.0000

> <Gold.PLP.ligand.torsion>
0.1698

> <Gold.PLP.Chemscore.Hbond>
3.0000

> <Gold.PLP.Chemscore.CHOScore>
0.0000

> <Gold.PLP.Chemscore.Metal>
0.0000

> <Gold.Chemscore.Hbonds>
donor molecule, donor type, donor heavy atom, donor atom, acceptor molecule, acceptor atom, score
      L1  H     7    24       P1  7948  1.00
      L1  H    10    25       P1  7948  0.90
      P1  H  7997  8010       L1     2  1.00

> <Gold.PLP.Chemscore.Internal.Correction>
0.0105

> <Gold.Rescore>
     Score         DG    S(hbond)    S(metal)    S(lipo)     H(rot)  DE(clash)    DE(int)     intcor
     15.49     -16.93       2.46        0.00      60.28       1.50       0.03       1.41       ----

> <Gold.Chemscore.Fitness>
15.4931

> <Gold.Chemscore.DG>
-16.9312

> <Gold.Chemscore.ZeroCoef>
-5.4800

> <Gold.Chemscore.Hbond>
2.4642

> <Gold.Chemscore.Metal>
0.0000

> <Gold.Chemscore.Lipo>
60.2844

> <Gold.Chemscore.Internal_Hbond>
0.0000

> <Gold.Chemscore.DEClash>
0.0263

> <Gold.Chemscore.DEInternal>
1.4117

> <Gold.Chemscore.Rot>
1.4971

> <Gold.Chemscore.Internal.Correction>
   9.000000E+99

> <Gold.Chemscore.Hbonds>
donor molecule, donor type, donor heavy atom, donor atom, acceptor molecule, acceptor atom, score
      L1  H     7    24       P1  7948  0.44
      L1  H    10    25       P1  7948  0.17
      P1  H  7997  8010       L1     2  0.54

> <Gold.Chemscore.Hbond.Weighted>
-8.2305

> <Gold.Chemscore.Metal.Weighted>
-0.0000

> <Gold.Chemscore.Lipo.Weighted>
-7.0533

> <Gold.Chemscore.Internal_Hbond.Weighted>
0.0000

> <Gold.Chemscore.DEClash.Weighted>
0.0263

> <Gold.Chemscore.DEInternal.Weighted>
1.4117

> <Gold.Chemscore.Rot.Weighted>
3.8326

> <Gold.Chemscore.Internal.Correction.Weighted>
   9.000000E+99

> <Gold.Protein.RotatedTorsions>
[ 6907 6896 6895 6894 ] final -138.33 input  -60.11 | X-H torsion
[ 7974 7965 7964 7962 ] final  173.99 input  175.53 | X-H torsion
[ 8008 7997 7996 7995 ] final   42.26 input   59.86 | X-H torsion
[ 10167 10162 10161 10158 ] final  -72.88 input  -65.29 | X-H torsion
[ 10718 10713 10712 10709 ] final   56.94 input   66.30 | X-H torsion
[ 10763 10752 10751 10750 ] final  -49.90 input  -60.55 | X-H torsion
[ 11005 11000 10999 10996 ] final  -68.57 input  -57.11 | X-H torsion

> <Gold.Protein.ActiveResidues>
 VAL166  LYS551  ARG553  GLY616  TRP617  ASP618  TYR619  PRO620  LYS621  CYS622 
 ASP623  PHE694  ASN695  SER759  ASP760  ASP761  ALA762  ILE779  LEU786  VAL792 
 PHE793  MET794  SER795  GLU796  ALA797  LYS798  CYS799  TRP800  GLU811  SER814 

> <Gold.Protein.RotatedAtoms>
  151.0337  133.5767  159.2657 H   0  0  0  0  0  0  0  0  0  0  0  0  # atno 6907 bound_to 6896
  151.2840  135.0721  159.9189 H   0  0  0  0  0  0  0  0  0  0  0  0  # atno 6908 bound_to 6896
  152.5350  134.0047  159.7965 H   0  0  0  0  0  0  0  0  0  0  0  0  # atno 6909 bound_to 6896
  144.7231  139.9730  143.6437 H   0  0  0  0  0  0  0  0  0  0  0  0  # atno 7974 bound_to 7965
  155.2832  140.3374  155.4257 H   0  0  0  0  0  0  0  0  0  0  0  0  # atno 8008 bound_to 7997
  156.2080  140.1759  156.7797 H   0  0  0  0  0  0  0  0  0  0  0  0  # atno 8009 bound_to 7997
  154.5647  140.0681  156.8858 H   0  0  0  0  0  0  0  0  0  0  0  0  # atno 8010 bound_to 7997
  140.5156  143.2338  151.7518 H   0  0  0  0  0  0  0  0  0  0  0  0  # atno 10167 bound_to 10162
  157.5473  130.8740  149.8910 H   0  0  0  0  0  0  0  0  0  0  0  0  # atno 10718 bound_to 10713
  154.1015  135.6562  153.4869 H   0  0  0  0  0  0  0  0  0  0  0  0  # atno 10763 bound_to 10752
  153.0287  135.5226  154.7281 H   0  0  0  0  0  0  0  0  0  0  0  0  # atno 10764 bound_to 10752
  154.6435  135.2991  155.0044 H   0  0  0  0  0  0  0  0  0  0  0  0  # atno 10765 bound_to 10752
  141.1535  133.6744  156.6466 H   0  0  0  0  0  0  0  0  0  0  0  0  # atno 11005 bound_to 11000
  146.0548  139.3545  143.0617 LP  0  0  0  0  0  0  0  0  0  0  0  0  # atno 17320 bound_to 7965
  145.8169  140.9698  143.0919 LP  0  0  0  0  0  0  0  0  0  0  0  0  # atno 17321 bound_to 7965
  139.4908  144.4328  151.9853 LP  0  0  0  0  0  0  0  0  0  0  0  0  # atno 17342 bound_to 10162
  140.3422  144.3189  150.5965 LP  0  0  0  0  0  0  0  0  0  0  0  0  # atno 17343 bound_to 10162
  156.0546  130.3711  150.1120 LP  0  0  0  0  0  0  0  0  0  0  0  0  # atno 17370 bound_to 10713
  156.9296  130.9709  151.3535 LP  0  0  0  0  0  0  0  0  0  0  0  0  # atno 17371 bound_to 10713
  140.3352  134.7895  157.4357 LP  0  0  0  0  0  0  0  0  0  0  0  0  # atno 17394 bound_to 11000
  140.0983  134.5507  155.8377 LP  0  0  0  0  0  0  0  0  0  0  0  0  # atno 17395 bound_to 11000

$$$$
