#       Name:                AV-unprocessed.smi:650
#       Creating user name   scv26
#       Creation time:       Fri Mar 27 00:10:48 2020


#       File generated by GOLD software.
#

@<TRIPOS>MOLECULE
AV-unprocessed.smi:650
    50    51     1
SMALL
NO_CHARGES


@<TRIPOS>ATOM
      1 ****        -3.5178   6.5744   2.7050 C.3            1 S1                 0.0000
      2 ****        -3.1834   5.2141   2.1957 C.2            1 S1                 0.0000
      3 ****        -2.9170   4.7294   0.9461 C.2            1 S1                 0.0000
      4 ****        -2.6853   3.3480   1.1813 C.2            1 S1                 0.0000
      5 ****        -2.3720   2.4700   0.1125 N.am           1 S1                 0.0000
      6 ****        -2.1529   1.1458   0.1783 C.2            1 S1                 0.0000
      7 ****        -2.1875   0.4714   1.2080 O.2            1 S1                 0.0000
      8 ****        -1.8821   0.6354  -1.0322 N.am           1 S1                 0.0000
      9 ****        -1.6323  -0.7745  -1.3194 C.3            1 S1                 0.0000
     10 ****        -0.1285  -1.0992  -1.4435 C.3            1 S1                 0.0000
     11 ****         0.0792  -2.5567  -1.8923 C.3            1 S1                 0.0000
     12 ****         1.5712  -2.9099  -2.0034 C.3            1 S1                 0.0000
     13 ****         2.2741  -2.6719  -0.7175 N.4            1 S1                 1.0000
     14 ****         3.6826  -3.1428  -0.7494 C.3            1 S1                 0.0000
     15 ****         4.2384  -3.4419   0.6534 C.3            1 S1                 0.0000
     16 ****         3.5435  -4.5294   1.2264 O.3            1 S1                 0.0000
     17 ****         2.1333  -1.2587  -0.2792 C.3            1 S1                 0.0000
     18 ****         0.6537  -0.8662  -0.1349 C.3            1 S1                 0.0000
     19 ****        -2.7954   3.0197   2.4596 N.2            1 S1                 0.0000
     20 ****        -3.1153   4.2140   3.1161 O.3            1 S1                 0.0000
     21 ****        -4.0316   7.1587   1.9416 H              1 S1                 0.0000
     22 ****        -2.6139   7.1117   2.9918 H              1 S1                 0.0000
     23 ****        -4.1687   6.5156   3.5777 H              1 S1                 0.0000
     24 ****        -2.8949   5.2769   0.0157 H              1 S1                 0.0000
     25 ****        -2.3163   2.8957  -0.8007 H              1 S1                 0.0000
     26 ****        -1.8698   1.2666  -1.8200 H              1 S1                 0.0000
     27 ****        -2.0997  -1.4143  -0.5686 H              1 S1                 0.0000
     28 ****        -2.1332  -1.0029  -2.2606 H              1 S1                 0.0000
     29 ****         0.2929  -0.4483  -2.2113 H              1 S1                 0.0000
     30 ****        -0.4011  -3.2336  -1.1840 H              1 S1                 0.0000
     31 ****        -0.4065  -2.7236  -2.8543 H              1 S1                 0.0000
     32 ****         1.6673  -3.9585  -2.2879 H              1 S1                 0.0000
     33 ****         2.0417  -2.3217  -2.7931 H              1 S1                 0.0000
     34 ****         3.7558  -4.0538  -1.3455 H              1 S1                 0.0000
     35 ****         4.3026  -2.3999  -1.2533 H              1 S1                 0.0000
     36 ****         5.2922  -3.7121   0.5812 H              1 S1                 0.0000
     37 ****         4.1813  -2.5783   1.3147 H              1 S1                 0.0000
     38 ****         3.9384  -4.7351   2.0607 H              1 S1                 0.0000
     39 ****         2.6309  -1.1051   0.6775 H              1 S1                 0.0000
     40 ****         2.6255  -0.6021  -0.9983 H              1 S1                 0.0000
     41 ****         0.5966   0.1810   0.1620 H              1 S1                 0.0000
     42 ****         0.2002  -1.4412   0.6739 H              1 S1                 0.0000
     43 ****         1.8040  -3.2447  -0.0304 H              1 S1                 0.0000
     44 ****        -2.3914   0.9073   2.0846 LP             1 S1                 0.0000
     45 ****        -2.0117  -0.5122   1.1677 LP             1 S1                 0.0000
     46 ****         3.6026  -5.3233   0.6211 LP             1 S1                 0.0000
     47 ****         2.5836  -4.2829   1.3600 LP             1 S1                 0.0000
     48 ****        -2.6759   2.1145   2.8676 LP             1 S1                 0.0000
     49 ****        -3.9984   4.1191   3.5757 LP             1 S1                 0.0000
     50 ****        -2.4091   4.4260   3.7916 LP             1 S1                 0.0000
@<TRIPOS>BOND
    1    1    2 1     
    2    1   21 1     
    3    1   22 1     
    4    1   23 1     
    5    2   20 1     
    6    2    3 2     
    7    3    4 1     
    8    3   24 1     
    9    4    5 1     
   10    4   19 2     
   11    5    6 am    
   12    5   25 1     
   13    6    7 2     
   14    6    8 am    
   15    8    9 1     
   16    8   26 1     
   17    9   10 1     
   18    9   27 1     
   19    9   28 1     
   20   10   18 1     
   21   10   11 1     
   22   10   29 1     
   23   11   12 1     
   24   11   30 1     
   25   11   31 1     
   26   12   13 1     
   27   12   32 1     
   28   12   33 1     
   29   13   14 1     
   30   13   17 1     
   31   13   43 1     
   32   14   15 1     
   33   14   34 1     
   34   14   35 1     
   35   15   16 1     
   36   15   36 1     
   37   15   37 1     
   38   16   38 1     
   39   17   18 1     
   40   17   39 1     
   41   17   40 1     
   42   18   41 1     
   43   18   42 1     
   44   19   20 1     
   45    7   44 1     
   46    7   45 1     
   47   16   46 1     
   48   16   47 1     
   49   19   48 1     
   50   20   49 1     
   51   20   50 1     
@<TRIPOS>SUBSTRUCTURE
      1 S1             1
@<TRIPOS>SET
LONE_PAIRS      STATIC     ATOMS    <user>   **** ""
7 44 45 46 47 48 49 50
DONOR_HYDROGENS      STATIC     ATOMS    <user>   **** ""
4 25 26 43 38
ATOM$BLUE        STATIC     ATOMS    COLORGROUP SYSTEM
7 44 45 46 47 48 49 50
ATOM$RED        STATIC     ATOMS    COLORGROUP SYSTEM
4 25 26 43 38
