#       Name:                AV-unprocessed.smi:2739
#       Creating user name   scv26
#       Creation time:       Fri Mar 27 15:00:15 2020


#       File generated by GOLD software.
#

@<TRIPOS>MOLECULE
AV-unprocessed.smi:2739
    40    40     1
SMALL
NO_CHARGES


@<TRIPOS>ATOM
      1 ****        -1.9763  -3.4885   2.2480 C.3            1 S1                 0.0000
      2 ****        -2.8527  -2.3179   1.7793 C.3            1 S1                 0.0000
      3 ****        -2.2903  -1.5675   0.5517 C.3            1 S1                 0.0000
      4 ****        -3.2386  -0.4623   0.0540 C.3            1 S1                 0.0000
      5 ****        -0.9345  -1.0549   0.7655 N.am           1 S1                 0.0000
      6 ****        -0.5395  -0.1349   1.6630 C.2            1 S1                 0.0000
      7 ****        -1.2935   0.4047   2.4719 O.2            1 S1                 0.0000
      8 ****         0.9428   0.2381   1.6402 C.3            1 S1                 0.0000
      9 ****         1.2374   1.1267   0.5307 N.pl3          1 S1                 0.0000
     10 ****         1.0516   2.4902   0.4529 C.2            1 S1                 0.0000
     11 ****         1.4644   2.8849  -0.7870 C.2            1 S1                 0.0000
     12 ****         1.8915   1.6767  -1.4114 C.2            1 S1                 0.0000
     13 ****         2.4554   1.4817  -2.7949 C.3            1 S1                 0.0000
     14 ****         3.9858   1.3690  -2.7672 C.3            1 S1                 0.0000
     15 ****         2.1046   2.5363  -3.6669 O.3            1 S1                 0.0000
     16 ****         1.7536   0.6276  -0.6132 N.2            1 S1                 0.0000
     17 ****        -2.4469  -4.0121   3.0805 H              1 S1                 0.0000
     18 ****        -0.9979  -3.1470   2.5865 H              1 S1                 0.0000
     19 ****        -1.8218  -4.2105   1.4458 H              1 S1                 0.0000
     20 ****        -3.8417  -2.7053   1.5321 H              1 S1                 0.0000
     21 ****        -3.0058  -1.6273   2.6090 H              1 S1                 0.0000
     22 ****        -2.1988  -2.2933  -0.2572 H              1 S1                 0.0000
     23 ****        -4.2060  -0.8781  -0.2285 H              1 S1                 0.0000
     24 ****        -2.8297   0.0406  -0.8229 H              1 S1                 0.0000
     25 ****        -3.4188   0.2937   0.8185 H              1 S1                 0.0000
     26 ****        -0.2227  -1.4260   0.1526 H              1 S1                 0.0000
     27 ****         1.2170   0.7372   2.5706 H              1 S1                 0.0000
     28 ****         1.5568  -0.6610   1.5647 H              1 S1                 0.0000
     29 ****         0.6441   3.0582   1.2764 H              1 S1                 0.0000
     30 ****         1.4617   3.8873  -1.1889 H              1 S1                 0.0000
     31 ****         2.0478   0.5666  -3.2266 H              1 S1                 0.0000
     32 ****         4.3061   0.5298  -2.1489 H              1 S1                 0.0000
     33 ****         4.4428   2.2731  -2.3628 H              1 S1                 0.0000
     34 ****         4.3876   1.2109  -3.7685 H              1 S1                 0.0000
     35 ****         1.1633   2.5533  -3.7501 H              1 S1                 0.0000
     36 ****        -2.2643   0.1654   2.4872 LP             1 S1                 0.0000
     37 ****        -0.9354   1.0826   3.1140 LP             1 S1                 0.0000
     38 ****         2.5204   2.3856  -4.5638 LP             1 S1                 0.0000
     39 ****         2.4265   3.4058  -3.2921 LP             1 S1                 0.0000
     40 ****         1.9819  -0.3251  -0.8140 LP             1 S1                 0.0000
@<TRIPOS>BOND
    1    1    2 1     
    2    1   17 1     
    3    1   18 1     
    4    1   19 1     
    5    2    3 1     
    6    2   20 1     
    7    2   21 1     
    8    3    4 1     
    9    3    5 1     
   10    3   22 1     
   11    4   23 1     
   12    4   24 1     
   13    4   25 1     
   14    5    6 am    
   15    5   26 1     
   16    6    7 2     
   17    6    8 1     
   18    8    9 1     
   19    8   27 1     
   20    8   28 1     
   21    9   16 1     
   22    9   10 1     
   23   10   11 2     
   24   10   29 1     
   25   11   12 1     
   26   11   30 1     
   27   12   13 1     
   28   12   16 2     
   29   13   14 1     
   30   13   15 1     
   31   13   31 1     
   32   14   32 1     
   33   14   33 1     
   34   14   34 1     
   35   15   35 1     
   36    7   36 1     
   37    7   37 1     
   38   15   38 1     
   39   15   39 1     
   40   16   40 1     
@<TRIPOS>SUBSTRUCTURE
      1 S1             1
@<TRIPOS>SET
LONE_PAIRS      STATIC     ATOMS    <user>   **** ""
5 36 37 38 39 40
DONOR_HYDROGENS      STATIC     ATOMS    <user>   **** ""
2 26 35
ATOM$BLUE        STATIC     ATOMS    COLORGROUP SYSTEM
5 36 37 38 39 40
ATOM$RED        STATIC     ATOMS    COLORGROUP SYSTEM
2 26 35
