#       Name:                AV-unprocessed.smi:3300
#       Creating user name   scv26
#       Creation time:       Fri Mar 27 18:58:37 2020


#       File generated by GOLD software.
#

@<TRIPOS>MOLECULE
AV-unprocessed.smi:3300
    43    44     1
SMALL
NO_CHARGES


@<TRIPOS>ATOM
      1 ****        -3.9082   2.8941   0.1000 C.3            1 S1                 0.0000
      2 ****        -3.4495   2.0972   1.3267 C.3            1 S1                 0.0000
      3 ****        -2.6081   0.8924   0.9486 C.ar           1 S1                 0.0000
      4 ****        -3.2760  -0.2158   0.5570 N.ar           1 S1                 0.0000
      5 ****        -2.5375  -1.2749   0.2179 C.ar           1 S1                 0.0000
      6 ****        -1.2047  -1.3537   0.2222 N.ar           1 S1                 0.0000
      7 ****        -0.5177  -0.2470   0.5990 C.ar           1 S1                 0.0000
      8 ****         0.8888  -0.2920   0.6355 N.3            1 S1                 0.0000
      9 ****         1.3257  -0.6292   1.9865 C.3            1 S1                 0.0000
     10 ****         2.8522  -0.5387   2.1017 C.3            1 S1                 0.0000
     11 ****         3.4355  -1.3938   1.1295 O.3            1 S1                 0.0000
     12 ****         3.1008  -0.9898  -0.1925 C.3            1 S1                 0.0000
     13 ****         1.5705  -1.0556  -0.4209 C.3            1 S1                 0.0000
     14 ****         1.2068  -0.5408  -1.8386 C.3            1 S1                 0.0000
     15 ****         1.7489  -1.4165  -2.9799 C.3            1 S1                 0.0000
     16 ****         1.2917  -0.9219  -4.2202 O.3            1 S1                 0.0000
     17 ****        -1.1973   0.9295   0.9889 C.ar           1 S1                 0.0000
     18 ****        -0.5260   2.0422   1.3750 F              1 S1                 0.0000
     19 ****        -4.5093   3.7534   0.3977 H              1 S1                 0.0000
     20 ****        -4.5138   2.2793  -0.5664 H              1 S1                 0.0000
     21 ****        -3.0547   3.2645  -0.4686 H              1 S1                 0.0000
     22 ****        -2.8827   2.7437   1.9972 H              1 S1                 0.0000
     23 ****        -4.3187   1.7598   1.8926 H              1 S1                 0.0000
     24 ****        -3.0735  -2.1605  -0.0900 H              1 S1                 0.0000
     25 ****         0.8657   0.0438   2.7116 H              1 S1                 0.0000
     26 ****         0.9950  -1.6398   2.2318 H              1 S1                 0.0000
     27 ****         3.1978   0.4874   1.9645 H              1 S1                 0.0000
     28 ****         3.1742  -0.8556   3.0937 H              1 S1                 0.0000
     29 ****         3.4816   0.0161  -0.3778 H              1 S1                 0.0000
     30 ****         3.6225  -1.6561  -0.8785 H              1 S1                 0.0000
     31 ****         1.2607  -2.0981  -0.3341 H              1 S1                 0.0000
     32 ****         0.1246  -0.4903  -1.9573 H              1 S1                 0.0000
     33 ****         1.5658   0.4825  -1.9578 H              1 S1                 0.0000
     34 ****         2.8383  -1.4250  -2.9954 H              1 S1                 0.0000
     35 ****         1.4126  -2.4475  -2.8653 H              1 S1                 0.0000
     36 ****         1.6178  -0.0420  -4.3326 H              1 S1                 0.0000
     37 ****        -4.2751  -0.2410   0.5229 LP             1 S1                 0.0000
     38 ****        -0.7323  -2.1947  -0.0418 LP             1 S1                 0.0000
     39 ****         1.1927   0.6316   0.4019 LP             1 S1                 0.0000
     40 ****         3.1050  -2.3260   1.2772 LP             1 S1                 0.0000
     41 ****         4.4299  -1.3723   1.2333 LP             1 S1                 0.0000
     42 ****         0.2918  -0.9147  -4.2322 LP             1 S1                 0.0000
     43 ****         1.6297  -1.5036  -4.9602 LP             1 S1                 0.0000
@<TRIPOS>BOND
    1    1    2 1     
    2    1   19 1     
    3    1   20 1     
    4    1   21 1     
    5    2    3 1     
    6    2   22 1     
    7    2   23 1     
    8    3   17 ar    
    9    3    4 ar    
   10    4    5 ar    
   11    5    6 ar    
   12    5   24 1     
   13    6    7 ar    
   14    7    8 1     
   15    7   17 ar    
   16    8   13 1     
   17    8    9 1     
   18    9   10 1     
   19    9   25 1     
   20    9   26 1     
   21   10   11 1     
   22   10   27 1     
   23   10   28 1     
   24   11   12 1     
   25   12   13 1     
   26   12   29 1     
   27   12   30 1     
   28   13   14 1     
   29   13   31 1     
   30   14   15 1     
   31   14   32 1     
   32   14   33 1     
   33   15   16 1     
   34   15   34 1     
   35   15   35 1     
   36   16   36 1     
   37   17   18 1     
   38    4   37 1     
   39    6   38 1     
   40    8   39 1     
   41   11   40 1     
   42   11   41 1     
   43   16   42 1     
   44   16   43 1     
@<TRIPOS>SUBSTRUCTURE
      1 S1             1
@<TRIPOS>SET
LONE_PAIRS      STATIC     ATOMS    <user>   **** ""
7 37 38 39 40 41 42 43
DONOR_HYDROGENS      STATIC     ATOMS    <user>   **** ""
1 36
ATOM$BLUE        STATIC     ATOMS    COLORGROUP SYSTEM
7 37 38 39 40 41 42 43
ATOM$RED        STATIC     ATOMS    COLORGROUP SYSTEM
1 36
