AV-unprocessed.smi:2191|AV-procd|sdf|8895|dock10
  -GOLD-   2272012103D 1   1.00000     0.00000
 Structure written by MMmdl.
 37 39  0  0  0  0  0  0  0  0  2 V2000
  152.9366  138.2261  155.2041 O   0  0  0  0  0  0  0  0  0  0  0  0
  152.1542  139.3883  155.3951 C   0  0  1  0  0  0  0  0  0  0  0  0
  150.7235  139.1012  154.9174 C   0  0  0  0  0  0  0  0  0  0  0  0
  150.2169  140.2566  154.2618 O   0  0  0  0  0  0  0  0  0  0  0  0
  148.9036  140.6105  154.4850 C   0  0  0  0  0  0  0  0  0  0  0  0
  148.4419  141.7864  153.8579 C   0  0  0  0  0  0  0  0  0  0  0  0
  147.1147  142.2237  154.0324 C   0  0  0  0  0  0  0  0  0  0  0  0
  146.2307  141.4837  154.8391 C   0  0  0  0  0  0  0  0  0  0  0  0
  146.6768  140.3071  155.4688 C   0  0  0  0  0  0  0  0  0  0  0  0
  148.0048  139.8704  155.2950 C   0  0  0  0  0  0  0  0  0  0  0  0
  152.2081  139.8125  156.8769 C   0  0  0  0  0  0  0  0  0  0  0  0
  151.7088  141.1758  157.0974 N   0  0  0  0  0  0  0  0  0  0  0  0
  150.8949  141.9469  156.3265 C   0  0  0  0  0  0  0  0  0  0  0  0
  150.7239  143.1352  156.9702 N   0  3  0  0  0  0  0  0  0  0  0  0
  151.4398  143.1231  158.1695 C   0  0  0  0  0  0  0  0  0  0  0  0
  151.5761  144.0901  159.1606 C   0  0  0  0  0  0  0  0  0  0  0  0
  152.3850  143.7534  160.2662 C   0  0  0  0  0  0  0  0  0  0  0  0
  153.0223  142.4985  160.3560 C   0  0  0  0  0  0  0  0  0  0  0  0
  152.8785  141.5260  159.3444 C   0  0  0  0  0  0  0  0  0  0  0  0
  152.0760  141.8667  158.2565 C   0  0  0  0  0  0  0  0  0  0  0  0
  152.9860  137.7593  156.0242 H   0  0  0  0  0  0  0  0  0  0  0  0
  152.5822  140.1737  154.7713 H   0  0  0  0  0  0  0  0  0  0  0  0
  150.7317  138.2624  154.2189 H   0  0  0  0  0  0  0  0  0  0  0  0
  150.0927  138.8304  155.7660 H   0  0  0  0  0  0  0  0  0  0  0  0
  149.1137  142.3611  153.2370 H   0  0  0  0  0  0  0  0  0  0  0  0
  146.7752  143.1269  153.5474 H   0  0  0  0  0  0  0  0  0  0  0  0
  145.2123  141.8173  154.9742 H   0  0  0  0  0  0  0  0  0  0  0  0
  145.9993  139.7369  156.0870 H   0  0  0  0  0  0  0  0  0  0  0  0
  148.3084  138.9624  155.7935 H   0  0  0  0  0  0  0  0  0  0  0  0
  151.6284  139.1319  157.5017 H   0  0  0  0  0  0  0  0  0  0  0  0
  153.2337  139.7740  157.2471 H   0  0  0  0  0  0  0  0  0  0  0  0
  150.4608  141.6661  155.3777 H   0  0  0  0  0  0  0  0  0  0  0  0
  151.0894  145.0523  159.0952 H   0  0  0  0  0  0  0  0  0  0  0  0
  152.5194  144.4722  161.0615 H   0  0  0  0  0  0  0  0  0  0  0  0
  153.6335  142.2767  161.2189 H   0  0  0  0  0  0  0  0  0  0  0  0
  153.3686  140.5664  159.4219 H   0  0  0  0  0  0  0  0  0  0  0  0
  150.1591  143.8960  156.6148 H   0  0  0  0  0  0  0  0  0  0  0  0
  1  2  1  0  0  0  0
  1 21  1  0  0  0  0
  2  3  1  0  0  0  0
  2 11  1  0  0  0  0
  2 22  1  0  0  0  0
  3  4  1  0  0  0  0
  3 23  1  0  0  0  0
  3 24  1  0  0  0  0
  4  5  1  0  0  0  0
  5 10  1  0  0  0  0
  5  6  2  0  0  0  0
  6  7  1  0  0  0  0
  6 25  1  0  0  0  0
  7  8  2  0  0  0  0
  7 26  1  0  0  0  0
  8  9  1  0  0  0  0
  8 27  1  0  0  0  0
  9 10  2  0  0  0  0
  9 28  1  0  0  0  0
 10 29  1  0  0  0  0
 11 12  1  0  0  0  0
 11 30  1  0  0  0  0
 11 31  1  0  0  0  0
 12 20  1  0  0  0  0
 12 13  1  0  0  0  0
 13 14  2  0  0  0  0
 13 32  1  0  0  0  0
 14 15  1  0  0  0  0
 14 37  1  0  0  0  0
 15 20  2  0  0  0  0
 15 16  1  0  0  0  0
 16 17  2  0  0  0  0
 16 33  1  0  0  0  0
 17 18  1  0  0  0  0
 17 34  1  0  0  0  0
 18 19  2  0  0  0  0
 18 35  1  0  0  0  0
 19 20  1  0  0  0  0
 19 36  1  0  0  0  0
M  CHG  1  14   1
M  END
> <s_m_source_file>
AV-unprocessed.smi

> <i_m_source_file_index>
2191

> <i_lp_mmshare_version>
43012

> <i_f3d_flags>
0

> <s_epik_input>
W2NIXTFbY0hdW2NIXVtjSF1jKGMxMiluKFtjSF1uMilbQ0gyXVtDQEhdKFtPSF0pW0NIMl1PYzNbY0hdW2NIXVtjSF1bY0hdW2NIXTM=

> <s_epik_cmdline>
J2VwaWtfcHl0aG9uJywgJy1waCcsICc3LjAnLCAnLXRuJywgJzgnLCAnLW1hJywgJzIwMCcsICctbWV0YWxfYmluZGluZycsICctaW1hZScsICc8aW5maWxlLm1hZT4nLCAnLW9tYWUnLCAnPG91dGZpbGUubWFlPic=

> <r_lp_tautomer_probability>
1

> <r_epik_Ionization_Penalty>
1.35015

> <r_epik_Ionization_Penalty_Charging>
1.35015

> <r_epik_Ionization_Penalty_Neutral>
2.3993e-06

> <r_epik_State_Penalty>
1.42814

> <r_epik_Charging_Adjusted_Penalty>
2.77829

> <i_epik_Tot_Q>
1

> <i_epik_Tot_abs_Q>
1

> <r_epik_Metal_State_Penalty>
5.46522

> <b_epik_Metal_Only>
0

> <s_lp_Force_Field>
OPLS_2005

> <r_lp_Energy>
19.3108

> <b_lp_Chiralities_Consistent>
1

> <s_lp_Variant>
AV-unprocessed.smi:2191-4

> <Gold.Version>
5.8.1

> <Gold.Id.Protein>
6NUR|6NUR_protein|mol2

> <Gold.PLP.Fitness>
51.2130

> <Gold.PLP.PLP>
-44.5804

> <Gold.PLP.part.hbond>
-2.4090

> <Gold.PLP.part.metal>
0.0000

> <Gold.PLP.part.buried>
-5.2338

> <Gold.PLP.part.nonpolar>
-36.5248

> <Gold.PLP.part.repulsive>
0.1363

> <Gold.PLP.ligand.clash>
0.0000

> <Gold.PLP.ligand.torsion>
1.1984

> <Gold.PLP.Chemscore.Hbond>
3.0000

> <Gold.PLP.Chemscore.CHOScore>
0.0000

> <Gold.PLP.Chemscore.Metal>
0.0000

> <Gold.Chemscore.Hbonds>
donor molecule, donor type, donor heavy atom, donor atom, acceptor molecule, acceptor atom, score
      L1  H    14    37       P1  8028  2.00
      P1  H  7989  7998       L1     4  0.99

> <Gold.PLP.Chemscore.Internal.Correction>
0.0294

> <Gold.Rescore>
     Score         DG    S(hbond)    S(metal)    S(lipo)     H(rot)  DE(clash)    DE(int)     intcor
     16.64     -19.63       1.93        0.00     116.42       2.31       0.34       2.65       ----

> <Gold.Chemscore.Fitness>
16.6407

> <Gold.Chemscore.DG>
-19.6339

> <Gold.Chemscore.ZeroCoef>
-5.4800

> <Gold.Chemscore.Hbond>
1.9265

> <Gold.Chemscore.Metal>
0.0000

> <Gold.Chemscore.Lipo>
116.4181

> <Gold.Chemscore.Internal_Hbond>
0.0000

> <Gold.Chemscore.DEClash>
0.3385

> <Gold.Chemscore.DEInternal>
2.6548

> <Gold.Chemscore.Rot>
2.3053

> <Gold.Chemscore.Internal.Correction>
   9.000000E+99

> <Gold.Chemscore.Hbonds>
donor molecule, donor type, donor heavy atom, donor atom, acceptor molecule, acceptor atom, score
      L1  H    14    37       P1  8028  1.00
      P1  H  7989  7998       L1     4  0.37

> <Gold.Chemscore.Hbond.Weighted>
-6.4346

> <Gold.Chemscore.Metal.Weighted>
-0.0000

> <Gold.Chemscore.Lipo.Weighted>
-13.6209

> <Gold.Chemscore.Internal_Hbond.Weighted>
0.0000

> <Gold.Chemscore.DEClash.Weighted>
0.3385

> <Gold.Chemscore.DEInternal.Weighted>
2.6548

> <Gold.Chemscore.Rot.Weighted>
5.9015

> <Gold.Chemscore.Internal.Correction.Weighted>
   9.000000E+99

> <Gold.Protein.RotatedTorsions>
[ 6907 6896 6895 6894 ] final   60.24 input  -60.11 | X-H torsion
[ 7974 7965 7964 7962 ] final -117.28 input  175.53 | X-H torsion
[ 8008 7997 7996 7995 ] final -130.83 input   59.86 | X-H torsion
[ 10167 10162 10161 10158 ] final  -72.12 input  -65.29 | X-H torsion
[ 10718 10713 10712 10709 ] final -135.17 input   66.30 | X-H torsion
[ 10763 10752 10751 10750 ] final -124.78 input  -60.55 | X-H torsion
[ 11005 11000 10999 10996 ] final  -41.69 input  -57.11 | X-H torsion

> <Gold.Protein.ActiveResidues>
 VAL166  LYS551  ARG553  GLY616  TRP617  ASP618  TYR619  PRO620  LYS621  CYS622 
 ASP623  PHE694  ASN695  SER759  ASP760  ASP761  ALA762  ILE779  LEU786  VAL792 
 PHE793  MET794  SER795  GLU796  ALA797  LYS798  CYS799  TRP800  GLU811  SER814 

> <Gold.Protein.RotatedAtoms>
  152.3985  134.6325  160.0078 H   0  0  0  0  0  0  0  0  0  0  0  0  # atno 6907 bound_to 6896
  151.6537  133.3314  159.3166 H   0  0  0  0  0  0  0  0  0  0  0  0  # atno 6908 bound_to 6896
  150.7889  134.6940  159.6557 H   0  0  0  0  0  0  0  0  0  0  0  0  # atno 6909 bound_to 6896
  145.0871  140.8465  143.4005 H   0  0  0  0  0  0  0  0  0  0  0  0  # atno 7974 bound_to 7965
  155.3023  140.0453  157.3030 H   0  0  0  0  0  0  0  0  0  0  0  0  # atno 8008 bound_to 7997
  154.5479  140.2308  155.8499 H   0  0  0  0  0  0  0  0  0  0  0  0  # atno 8009 bound_to 7997
  156.1941  140.3043  155.9398 H   0  0  0  0  0  0  0  0  0  0  0  0  # atno 8010 bound_to 7997
  140.5218  143.2331  151.7417 H   0  0  0  0  0  0  0  0  0  0  0  0  # atno 10167 bound_to 10162
  156.2632  130.7222  151.1164 H   0  0  0  0  0  0  0  0  0  0  0  0  # atno 10718 bound_to 10713
  154.8728  135.4052  154.3161 H   0  0  0  0  0  0  0  0  0  0  0  0  # atno 10763 bound_to 10752
  153.3997  135.7017  153.6440 H   0  0  0  0  0  0  0  0  0  0  0  0  # atno 10764 bound_to 10752
  153.5188  135.3691  155.2593 H   0  0  0  0  0  0  0  0  0  0  0  0  # atno 10765 bound_to 10752
  141.0264  133.6839  156.2493 H   0  0  0  0  0  0  0  0  0  0  0  0  # atno 11005 bound_to 11000
  145.1110  139.2757  143.5637 LP  0  0  0  0  0  0  0  0  0  0  0  0  # atno 17320 bound_to 7965
  146.3531  140.0705  142.8623 LP  0  0  0  0  0  0  0  0  0  0  0  0  # atno 17321 bound_to 7965
  139.4926  144.4244  151.9942 LP  0  0  0  0  0  0  0  0  0  0  0  0  # atno 17342 bound_to 10162
  140.3341  144.3282  150.5981 LP  0  0  0  0  0  0  0  0  0  0  0  0  # atno 17343 bound_to 10162
  157.7258  131.0650  150.5937 LP  0  0  0  0  0  0  0  0  0  0  0  0  # atno 17370 bound_to 10713
  156.6026  130.4358  149.5891 LP  0  0  0  0  0  0  0  0  0  0  0  0  # atno 17371 bound_to 10713
  140.6484  134.5093  157.5575 LP  0  0  0  0  0  0  0  0  0  0  0  0  # atno 17394 bound_to 11000
  139.9179  134.8209  156.1307 LP  0  0  0  0  0  0  0  0  0  0  0  0  # atno 17395 bound_to 11000

$$$$
