#       Name:                AV-unprocessed.smi:1778
#       Creating user name   scv26
#       Creation time:       Fri Mar 27 08:41:57 2020


#       File generated by GOLD software.
#

@<TRIPOS>MOLECULE
AV-unprocessed.smi:1778
    39    40     1
SMALL
NO_CHARGES


@<TRIPOS>ATOM
      1 ****        -1.4426   2.3454  -1.5646 C.3            1 S1                 0.0000
      2 ****        -2.4000   1.2020  -1.3859 C.2            1 S1                 0.0000
      3 ****        -3.6556   1.4575  -1.0595 N.2            1 S1                 0.0000
      4 ****        -4.2857   0.2139  -0.9537 O.3            1 S1                 0.0000
      5 ****        -3.3728  -0.7538  -1.2227 C.2            1 S1                 0.0000
      6 ****        -3.8487  -2.1654  -1.1537 C.3            1 S1                 0.0000
      7 ****        -2.1559  -0.1975  -1.5057 C.2            1 S1                 0.0000
      8 ****        -0.8667  -0.8979  -1.8520 C.3            1 S1                 0.0000
      9 ****        -0.0647  -1.1588  -0.5775 C.2            1 S1                 0.0000
     10 ****        -0.0789  -2.2741  -0.0576 O.2            1 S1                 0.0000
     11 ****         0.6279  -0.1204  -0.0851 N.am           1 S1                 0.0000
     12 ****         1.4371  -0.1495   1.1278 C.3            1 S1                 0.0000
     13 ****         2.8161  -0.7977   0.8902 C.3            1 S1                 0.0000
     14 ****         3.7302  -0.4538   2.0725 C.3            1 S1                 0.0000
     15 ****         3.1877   1.1908   2.6732 S.o2           1 S1                 0.0000
     16 ****         2.8231   1.0836   4.0940 O.2            1 S1                 0.0000
     17 ****         4.1293   2.2207   2.2089 O.2            1 S1                 0.0000
     18 ****         1.6654   1.2732   1.6568 C.3            1 S1                 0.0000
     19 ****        -1.0941   2.7145  -0.6000 H              1 S1                 0.0000
     20 ****        -1.9120   3.1773  -2.0904 H              1 S1                 0.0000
     21 ****        -0.5668   2.0472  -2.1403 H              1 S1                 0.0000
     22 ****        -3.3267  -2.7085  -0.3657 H              1 S1                 0.0000
     23 ****        -3.6664  -2.6804  -2.0967 H              1 S1                 0.0000
     24 ****        -4.9179  -2.2116  -0.9455 H              1 S1                 0.0000
     25 ****        -1.0553  -1.8487  -2.3521 H              1 S1                 0.0000
     26 ****        -0.2622  -0.3113  -2.5444 H              1 S1                 0.0000
     27 ****         0.5811   0.7571  -0.5825 H              1 S1                 0.0000
     28 ****         0.9169  -0.7165   1.9025 H              1 S1                 0.0000
     29 ****         2.7405  -1.8760   0.7459 H              1 S1                 0.0000
     30 ****         3.2541  -0.3854  -0.0200 H              1 S1                 0.0000
     31 ****         3.5955  -1.1690   2.8843 H              1 S1                 0.0000
     32 ****         4.7859  -0.4286   1.8020 H              1 S1                 0.0000
     33 ****         1.8501   1.9756   0.8432 H              1 S1                 0.0000
     34 ****         0.8330   1.6448   2.2548 H              1 S1                 0.0000
     35 ****        -4.0699   2.3565  -0.9174 LP             1 S1                 0.0000
     36 ****        -5.0384   0.1599  -1.6099 LP             1 S1                 0.0000
     37 ****        -4.6421   0.0937  -0.0271 LP             1 S1                 0.0000
     38 ****        -0.6156  -3.0107  -0.4691 LP             1 S1                 0.0000
     39 ****         0.4462  -2.4437   0.7763 LP             1 S1                 0.0000
@<TRIPOS>BOND
    1    1    2 1     
    2    1   19 1     
    3    1   20 1     
    4    1   21 1     
    5    2    7 1     
    6    2    3 2     
    7    3    4 1     
    8    4    5 1     
    9    5    6 1     
   10    5    7 2     
   11    6   22 1     
   12    6   23 1     
   13    6   24 1     
   14    7    8 1     
   15    8    9 1     
   16    8   25 1     
   17    8   26 1     
   18    9   10 2     
   19    9   11 am    
   20   11   12 1     
   21   11   27 1     
   22   12   18 1     
   23   12   13 1     
   24   12   28 1     
   25   13   14 1     
   26   13   29 1     
   27   13   30 1     
   28   14   15 1     
   29   14   31 1     
   30   14   32 1     
   31   15   16 2     
   32   15   17 2     
   33   15   18 1     
   34   18   33 1     
   35   18   34 1     
   36    3   35 1     
   37    4   36 1     
   38    4   37 1     
   39   10   38 1     
   40   10   39 1     
@<TRIPOS>SUBSTRUCTURE
      1 S1             1
@<TRIPOS>SET
LONE_PAIRS      STATIC     ATOMS    <user>   **** ""
7 35 36 37 38 39 16 17
DONOR_HYDROGENS      STATIC     ATOMS    <user>   **** ""
1 27
ATOM$BLUE        STATIC     ATOMS    COLORGROUP SYSTEM
7 35 36 37 38 39 16 17
ATOM$RED        STATIC     ATOMS    COLORGROUP SYSTEM
1 27
