AV-unprocessed.smi:229|AV-procd|sdf|1747|dock6
  -GOLD-   2262020263D 1   1.00000     0.00000
 Structure written by MMmdl.
 58 62  0  0  0  0  0  0  0  0  1 V2000
  152.2412  130.3904  156.5781 C   0  0  0  0  0  0  0  0  0  0  0  0
  152.6449  131.8628  156.7314 C   0  0  0  0  0  0  0  0  0  0  0  0
  151.4822  132.8481  156.5274 C   0  0  2  0  0  0  0  0  0  0  0  0
  151.9497  134.3097  156.3990 C   0  0  0  0  0  0  0  0  0  0  0  0
  150.7960  135.1972  156.3301 N   0  0  0  0  0  0  0  0  0  0  0  0
  151.0617  136.4523  155.8875 C   0  0  0  0  0  0  0  0  0  0  0  0
  151.3279  136.6675  154.5710 N   0  0  0  0  0  0  0  0  0  0  0  0
  151.5812  137.9017  154.1255 C   0  0  0  0  0  0  0  0  0  0  0  0
  151.6226  139.0445  154.8126 N   0  0  0  0  0  0  0  0  0  0  0  0
  151.3647  138.8355  156.1351 C   0  0  0  0  0  0  0  0  0  0  0  0
  151.0782  137.5842  156.7511 C   0  0  0  0  0  0  0  0  0  0  0  0
  150.8838  137.7638  158.1163 N   0  0  0  0  0  0  0  0  0  0  0  0
  151.0337  139.0479  158.2943 C   0  0  0  0  0  0  0  0  0  0  0  0
  151.3222  139.7672  157.1573 N   0  0  0  0  0  0  0  0  0  0  0  0
  151.5343  141.2013  157.0700 C   0  0  0  0  0  0  0  0  0  0  0  0
  150.2991  142.0057  157.5203 C   0  0  2  0  0  0  0  0  0  0  0  0
  149.4662  142.3046  156.4158 O   0  0  0  0  0  0  0  0  0  0  0  0
  150.6709  143.2913  158.2874 C   0  0  2  0  0  0  0  0  0  0  0  0
  151.6631  144.2343  157.6005 C   0  0  0  0  0  0  0  0  0  0  0  0
  152.2208  144.9892  158.7866 C   0  0  0  0  0  0  0  0  0  0  0  0
  152.3020  143.8908  159.8437 C   0  0  0  0  0  0  0  0  0  0  0  0
  151.2146  143.0099  159.5751 O   0  0  0  0  0  0  0  0  0  0  0  0
  149.8954  135.0434  157.4681 C   0  0  0  0  0  0  0  0  0  0  0  0
  149.4603  133.5685  157.6273 C   0  0  1  0  0  0  0  0  0  0  0  0
  148.6990  133.3606  158.9326 C   0  0  0  0  0  0  0  0  0  0  0  0
  147.2430  133.4826  158.5100 C   0  0  0  0  0  0  0  0  0  0  0  0
  147.2298  132.7966  157.2723 O   0  0  0  0  0  0  0  0  0  0  0  0
  148.4234  133.1230  156.5690 C   0  0  0  0  0  0  0  0  0  0  0  0
  150.6196  132.7305  157.6607 O   0  0  0  0  0  0  0  0  0  0  0  0
  153.0850  129.7352  156.7944 H   0  0  0  0  0  0  0  0  0  0  0  0
  151.9066  130.1685  155.5648 H   0  0  0  0  0  0  0  0  0  0  0  0
  151.4347  130.1297  157.2639 H   0  0  0  0  0  0  0  0  0  0  0  0
  153.0533  132.0040  157.7328 H   0  0  0  0  0  0  0  0  0  0  0  0
  153.4545  132.0960  156.0388 H   0  0  0  0  0  0  0  0  0  0  0  0
  150.9418  132.5616  155.6249 H   0  0  0  0  0  0  0  0  0  0  0  0
  152.5575  134.5880  157.2610 H   0  0  0  0  0  0  0  0  0  0  0  0
  152.5821  134.4192  155.5196 H   0  0  0  0  0  0  0  0  0  0  0  0
  151.7788  137.9856  153.0672 H   0  0  0  0  0  0  0  0  0  0  0  0
  150.9362  139.5095  159.2661 H   0  0  0  0  0  0  0  0  0  0  0  0
  152.3952  141.4557  157.6891 H   0  0  0  0  0  0  0  0  0  0  0  0
  151.8044  141.4531  156.0437 H   0  0  0  0  0  0  0  0  0  0  0  0
  149.7074  141.3804  158.1898 H   0  0  0  0  0  0  0  0  0  0  0  0
  149.3423  143.2405  156.3778 H   0  0  0  0  0  0  0  0  0  0  0  0
  149.7543  143.8541  158.4716 H   0  0  0  0  0  0  0  0  0  0  0  0
  152.4673  143.6869  157.1078 H   0  0  0  0  0  0  0  0  0  0  0  0
  151.1908  144.8836  156.8629 H   0  0  0  0  0  0  0  0  0  0  0  0
  153.1839  145.4587  158.5845 H   0  0  0  0  0  0  0  0  0  0  0  0
  151.5205  145.7641  159.1017 H   0  0  0  0  0  0  0  0  0  0  0  0
  153.2328  143.3318  159.7382 H   0  0  0  0  0  0  0  0  0  0  0  0
  152.2563  144.2838  160.8595 H   0  0  0  0  0  0  0  0  0  0  0  0
  150.4152  135.3760  158.3680 H   0  0  0  0  0  0  0  0  0  0  0  0
  149.0190  135.6824  157.3492 H   0  0  0  0  0  0  0  0  0  0  0  0
  148.8735  132.3530  159.3133 H   0  0  0  0  0  0  0  0  0  0  0  0
  148.9750  134.0628  159.7199 H   0  0  0  0  0  0  0  0  0  0  0  0
  146.5547  133.0344  159.2268 H   0  0  0  0  0  0  0  0  0  0  0  0
  146.9608  134.5258  158.3597 H   0  0  0  0  0  0  0  0  0  0  0  0
  148.2140  133.9199  155.8543 H   0  0  0  0  0  0  0  0  0  0  0  0
  148.7422  132.2479  156.0037 H   0  0  0  0  0  0  0  0  0  0  0  0
  1  2  1  0  0  0  0
  1 30  1  0  0  0  0
  1 31  1  0  0  0  0
  1 32  1  0  0  0  0
  2  3  1  0  0  0  0
  2 33  1  0  0  0  0
  2 34  1  0  0  0  0
  3 29  1  0  0  0  0
  3  4  1  0  0  0  0
  3 35  1  0  0  0  0
  4  5  1  0  0  0  0
  4 36  1  0  0  0  0
  4 37  1  0  0  0  0
  5  6  1  0  0  0  0
  5 23  1  0  0  0  0
  6 11  1  0  0  0  0
  6  7  2  0  0  0  0
  7  8  1  0  0  0  0
  8  9  2  0  0  0  0
  8 38  1  0  0  0  0
  9 10  1  0  0  0  0
 10 14  1  0  0  0  0
 10 11  2  0  0  0  0
 11 12  1  0  0  0  0
 12 13  2  0  0  0  0
 13 14  1  0  0  0  0
 13 39  1  0  0  0  0
 14 15  1  0  0  0  0
 15 16  1  0  0  0  0
 15 40  1  0  0  0  0
 15 41  1  0  0  0  0
 16 17  1  0  0  0  0
 16 18  1  0  0  0  0
 16 42  1  0  0  0  0
 17 43  1  0  0  0  0
 18 22  1  0  0  0  0
 18 19  1  0  0  0  0
 18 44  1  0  0  0  0
 19 20  1  0  0  0  0
 19 45  1  0  0  0  0
 19 46  1  0  0  0  0
 20 21  1  0  0  0  0
 20 47  1  0  0  0  0
 20 48  1  0  0  0  0
 21 22  1  0  0  0  0
 21 49  1  0  0  0  0
 21 50  1  0  0  0  0
 23 24  1  0  0  0  0
 23 51  1  0  0  0  0
 23 52  1  0  0  0  0
 24 28  1  0  0  0  0
 24 25  1  0  0  0  0
 24 29  1  0  0  0  0
 25 26  1  0  0  0  0
 25 53  1  0  0  0  0
 25 54  1  0  0  0  0
 26 27  1  0  0  0  0
 26 55  1  0  0  0  0
 26 56  1  0  0  0  0
 27 28  1  0  0  0  0
 28 57  1  0  0  0  0
 28 58  1  0  0  0  0
M  END
> <s_m_source_file>
AV-unprocessed.smi

> <i_m_source_file_index>
229

> <i_lp_mmshare_version>
43012

> <i_f3d_flags>
0

> <s_epik_input>
W0NIMl0xT1tDSDJdW0NIMl1bQ0BdMTJbQ0gyXU4oW0NIMl1bQ0BIXShPMilbQ0gyXVtDSDNdKWMobltjSF1uMyljKGMzNCluW2NIXW40W0NIMl1bQ0BIXShbT0hdKVtDQEBIXTVbQ0gyXVtDSDJdW0NIMl1PNQ==

> <s_epik_cmdline>
J2VwaWtfcHl0aG9uJywgJy1waCcsICc3LjAnLCAnLXRuJywgJzgnLCAnLW1hJywgJzIwMCcsICctbWV0YWxfYmluZGluZycsICctaW1hZScsICc8aW5maWxlLm1hZT4nLCAnLW9tYWUnLCAnPG91dGZpbGUubWFlPic=

> <r_lp_tautomer_probability>
1

> <r_epik_Ionization_Penalty>
0.00318402

> <r_epik_Ionization_Penalty_Charging>
0

> <r_epik_Ionization_Penalty_Neutral>
0.00318402

> <r_epik_State_Penalty>
0.00215642

> <r_epik_Charging_Adjusted_Penalty>
0.00215642

> <i_epik_Tot_Q>
0

> <i_epik_Tot_abs_Q>
0

> <r_epik_Metal_State_Penalty>
-0

> <b_epik_Metal_Only>
0

> <s_lp_Force_Field>
OPLS_2005

> <r_lp_Energy>
57.781

> <b_lp_Chiralities_Consistent>
1

> <s_lp_Variant>
AV-unprocessed.smi:229-1

> <Gold.Version>
5.8.1

> <Gold.Id.Protein>
6NUR|6NUR_protein|mol2

> <Gold.PLP.Fitness>
48.8954

> <Gold.PLP.PLP>
-38.8974

> <Gold.PLP.part.hbond>
-3.2547

> <Gold.PLP.part.metal>
0.0000

> <Gold.PLP.part.buried>
-6.5920

> <Gold.PLP.part.nonpolar>
-29.6558

> <Gold.PLP.part.repulsive>
0.2643

> <Gold.PLP.ligand.clash>
0.0000

> <Gold.PLP.ligand.torsion>
1.1939

> <Gold.PLP.Chemscore.Hbond>
3.4550

> <Gold.PLP.Chemscore.CHOScore>
0.5557

> <Gold.PLP.Chemscore.Metal>
0.0000

> <Gold.Chemscore.Hbonds>
donor molecule, donor type, donor heavy atom, donor atom, acceptor molecule, acceptor atom, score
      L1  H    17    43       P1  8028  1.00
      P1  H  6896  6908       L1    29  0.70
      P1  H  7989  7998       L1     9  0.49
      P1  H 10752 10764       L1     7  1.00
      L1  C     8    38       P1  7949  0.64

> <Gold.PLP.Chemscore.Internal.Correction>
0.3538

> <Gold.Rescore>
     Score         DG    S(hbond)    S(metal)    S(lipo)     H(rot)  DE(clash)    DE(int)     intcor
     15.66     -18.16       2.30        0.00      96.38       2.46       0.20       2.30       ----

> <Gold.Chemscore.Fitness>
15.6598

> <Gold.Chemscore.DG>
-18.1569

> <Gold.Chemscore.ZeroCoef>
-5.4800

> <Gold.Chemscore.Hbond>
2.3041

> <Gold.Chemscore.Metal>
0.0000

> <Gold.Chemscore.Lipo>
96.3817

> <Gold.Chemscore.Internal_Hbond>
0.0000

> <Gold.Chemscore.DEClash>
0.1986

> <Gold.Chemscore.DEInternal>
2.2985

> <Gold.Chemscore.Rot>
2.4591

> <Gold.Chemscore.Internal.Correction>
   9.000000E+99

> <Gold.Chemscore.Hbonds>
donor molecule, donor type, donor heavy atom, donor atom, acceptor molecule, acceptor atom, score
      L1  H    17    43       P1  8028  0.98
      P1  H  6896  6908       L1    29  0.07
      P1  H  7989  7998       L1     9  0.40
      P1  H 10752 10764       L1     7  0.25

> <Gold.Chemscore.Hbond.Weighted>
-7.6956

> <Gold.Chemscore.Metal.Weighted>
-0.0000

> <Gold.Chemscore.Lipo.Weighted>
-11.2767

> <Gold.Chemscore.Internal_Hbond.Weighted>
0.0000

> <Gold.Chemscore.DEClash.Weighted>
0.1986

> <Gold.Chemscore.DEInternal.Weighted>
2.2985

> <Gold.Chemscore.Rot.Weighted>
6.2953

> <Gold.Chemscore.Internal.Correction.Weighted>
   9.000000E+99

> <Gold.Protein.RotatedTorsions>
[ 6907 6896 6895 6894 ] final   86.90 input  -60.11 | X-H torsion
[ 7974 7965 7964 7962 ] final   25.28 input  175.53 | X-H torsion
[ 8008 7997 7996 7995 ] final -120.13 input   59.86 | X-H torsion
[ 10167 10162 10161 10158 ] final   78.18 input  -65.29 | X-H torsion
[ 10718 10713 10712 10709 ] final  -84.29 input   66.30 | X-H torsion
[ 10763 10752 10751 10750 ] final  -80.34 input  -60.55 | X-H torsion
[ 11005 11000 10999 10996 ] final -178.43 input  -57.11 | X-H torsion

> <Gold.Protein.ActiveResidues>
 VAL166  LYS551  ARG553  GLY616  TRP617  ASP618  TYR619  PRO620  LYS621  CYS622 
 ASP623  PHE694  ASN695  SER759  ASP760  ASP761  ALA762  ILE779  LEU786  VAL792 
 PHE793  MET794  SER795  GLU796  ALA797  LYS798  CYS799  TRP800  GLU811  SER814 

> <Gold.Protein.RotatedAtoms>
  152.5402  134.2360  159.8843 H   0  0  0  0  0  0  0  0  0  0  0  0  # atno 6907 bound_to 6896
  151.2330  133.4433  159.2612 H   0  0  0  0  0  0  0  0  0  0  0  0  # atno 6908 bound_to 6896
  151.0698  134.9804  159.8359 H   0  0  0  0  0  0  0  0  0  0  0  0  # atno 6909 bound_to 6896
  146.1896  139.7488  142.8841 H   0  0  0  0  0  0  0  0  0  0  0  0  # atno 7974 bound_to 7965
  155.1269  140.0399  157.2765 H   0  0  0  0  0  0  0  0  0  0  0  0  # atno 8008 bound_to 7997
  154.6571  140.2582  155.7123 H   0  0  0  0  0  0  0  0  0  0  0  0  # atno 8009 bound_to 7997
  156.2603  140.2824  156.1029 H   0  0  0  0  0  0  0  0  0  0  0  0  # atno 8010 bound_to 7997
  139.9736  144.5876  150.7963 H   0  0  0  0  0  0  0  0  0  0  0  0  # atno 10167 bound_to 10162
  156.0008  130.4693  150.4388 H   0  0  0  0  0  0  0  0  0  0  0  0  # atno 10718 bound_to 10713
  154.5500  135.5664  153.6914 H   0  0  0  0  0  0  0  0  0  0  0  0  # atno 10763 bound_to 10752
  152.9987  135.6248  154.2386 H   0  0  0  0  0  0  0  0  0  0  0  0  # atno 10764 bound_to 10752
  154.2321  135.2865  155.2866 H   0  0  0  0  0  0  0  0  0  0  0  0  # atno 10765 bound_to 10752
  140.4298  134.6529  157.4706 H   0  0  0  0  0  0  0  0  0  0  0  0  # atno 11005 bound_to 11000
  145.3832  141.0361  143.3166 LP  0  0  0  0  0  0  0  0  0  0  0  0  # atno 17320 bound_to 7965
  144.8462  139.5393  143.6877 LP  0  0  0  0  0  0  0  0  0  0  0  0  # atno 17321 bound_to 7965
  140.7513  143.2971  151.3177 LP  0  0  0  0  0  0  0  0  0  0  0  0  # atno 17342 bound_to 10162
  139.6462  144.0447  152.2592 LP  0  0  0  0  0  0  0  0  0  0  0  0  # atno 17343 bound_to 10162
  157.2431  131.0530  151.2425 LP  0  0  0  0  0  0  0  0  0  0  0  0  # atno 17370 bound_to 10713
  157.3601  130.7127  149.6496 LP  0  0  0  0  0  0  0  0  0  0  0  0  # atno 17371 bound_to 10713
  140.0142  134.6644  155.9335 LP  0  0  0  0  0  0  0  0  0  0  0  0  # atno 17394 bound_to 11000
  141.1750  133.6539  156.4795 LP  0  0  0  0  0  0  0  0  0  0  0  0  # atno 17395 bound_to 11000

$$$$
