AV-unprocessed.smi:3104|AV-procd|sdf|11817|dock9
  -GOLD-   2272017193D 1   1.00000     0.00000
 Structure written by MMmdl.
 37 38  0  0  0  0  0  0  0  0  2 V2000
  144.2975  142.4376  155.2672 C   0  0  0  0  0  0  0  0  0  0  0  0
  145.7461  142.3772  154.8775 C   0  0  0  0  0  0  0  0  0  0  0  0
  146.4210  143.1598  153.8990 C   0  0  0  0  0  0  0  0  0  0  0  0
  147.7077  142.8683  153.8070 N   0  0  0  0  0  0  0  0  0  0  0  0
  147.8996  141.8784  154.7059 N   0  0  0  0  0  0  0  0  0  0  0  0
  149.2385  141.3314  154.8979 C   0  0  2  0  0  0  0  0  0  0  0  0
  149.2943  139.8845  154.3720 C   0  0  0  0  0  0  0  0  0  0  0  0
  149.6948  141.4675  156.3759 C   0  0  1  0  0  0  0  0  0  0  0  0
  150.5887  140.3013  156.8296 C   0  0  0  0  0  0  0  0  0  0  0  0
  150.4351  142.7354  156.5792 N   0  3  0  0  0  0  0  0  0  0  0  0
  150.7838  143.0335  157.9830 C   0  0  0  0  0  0  0  0  0  0  0  0
  151.3082  144.4463  158.1265 C   0  0  0  0  0  0  0  0  0  0  0  0
  152.7927  144.7161  158.0358 C   0  0  0  0  0  0  0  0  0  0  0  0
  152.0804  144.8654  159.3568 C   0  0  0  0  0  0  0  0  0  0  0  0
  146.7304  141.5701  155.3732 C   0  0  0  0  0  0  0  0  0  0  0  0
  143.7047  142.9940  154.5408 H   0  0  0  0  0  0  0  0  0  0  0  0
  144.1619  142.9247  156.2329 H   0  0  0  0  0  0  0  0  0  0  0  0
  143.8591  141.4423  155.3431 H   0  0  0  0  0  0  0  0  0  0  0  0
  146.0172  143.9337  153.2625 H   0  0  0  0  0  0  0  0  0  0  0  0
  149.9201  141.9194  154.2798 H   0  0  0  0  0  0  0  0  0  0  0  0
  150.3169  139.5103  154.3315 H   0  0  0  0  0  0  0  0  0  0  0  0
  148.8949  139.8219  153.3590 H   0  0  0  0  0  0  0  0  0  0  0  0
  148.7163  139.2055  154.9995 H   0  0  0  0  0  0  0  0  0  0  0  0
  148.8110  141.4666  157.0163 H   0  0  0  0  0  0  0  0  0  0  0  0
  150.0523  139.3527  156.8187 H   0  0  0  0  0  0  0  0  0  0  0  0
  150.9401  140.4533  157.8509 H   0  0  0  0  0  0  0  0  0  0  0  0
  151.4654  140.1982  156.1893 H   0  0  0  0  0  0  0  0  0  0  0  0
  151.2914  142.6961  156.0452 H   0  0  0  0  0  0  0  0  0  0  0  0
  149.9140  142.9027  158.6273 H   0  0  0  0  0  0  0  0  0  0  0  0
  151.5492  142.3341  158.3212 H   0  0  0  0  0  0  0  0  0  0  0  0
  150.6728  145.2029  157.6697 H   0  0  0  0  0  0  0  0  0  0  0  0
  153.4591  143.8635  157.9205 H   0  0  0  0  0  0  0  0  0  0  0  0
  153.1090  145.6262  157.5300 H   0  0  0  0  0  0  0  0  0  0  0  0
  151.9204  145.8746  159.7307 H   0  0  0  0  0  0  0  0  0  0  0  0
  152.2742  144.1121  160.1179 H   0  0  0  0  0  0  0  0  0  0  0  0
  146.6949  140.8132  156.1430 H   0  0  0  0  0  0  0  0  0  0  0  0
  149.8678  143.4909  156.2203 H   0  0  0  0  0  0  0  0  0  0  0  0
  1  2  1  0  0  0  0
  1 16  1  0  0  0  0
  1 17  1  0  0  0  0
  1 18  1  0  0  0  0
  2 15  2  0  0  0  0
  2  3  1  0  0  0  0
  3  4  2  0  0  0  0
  3 19  1  0  0  0  0
  4  5  1  0  0  0  0
  5  6  1  0  0  0  0
  5 15  1  0  0  0  0
  6  7  1  0  0  0  0
  6  8  1  0  0  0  0
  6 20  1  0  0  0  0
  7 21  1  0  0  0  0
  7 22  1  0  0  0  0
  7 23  1  0  0  0  0
  8  9  1  0  0  0  0
  8 10  1  0  0  0  0
  8 24  1  0  0  0  0
  9 25  1  0  0  0  0
  9 26  1  0  0  0  0
  9 27  1  0  0  0  0
 10 11  1  0  0  0  0
 10 28  1  0  0  0  0
 10 37  1  0  0  0  0
 11 12  1  0  0  0  0
 11 29  1  0  0  0  0
 11 30  1  0  0  0  0
 12 14  1  0  0  0  0
 12 13  1  0  0  0  0
 12 31  1  0  0  0  0
 13 14  1  0  0  0  0
 13 32  1  0  0  0  0
 13 33  1  0  0  0  0
 14 34  1  0  0  0  0
 14 35  1  0  0  0  0
 15 36  1  0  0  0  0
M  CHG  1  10   1
M  END
> <s_m_source_file>
AV-unprocessed.smi

> <i_m_source_file_index>
3104

> <i_lp_mmshare_version>
43012

> <i_f3d_flags>
0

> <s_epik_input>
W0NIM11jMVtjSF1ubihbY0hdMSlbQ0BIXShbQ0gzXSlbQ0BIXShbQ0gzXSlbTkhdW0NIMl1bQ0hdMltDSDJdW0NIMl0y

> <s_epik_cmdline>
J2VwaWtfcHl0aG9uJywgJy1waCcsICc3LjAnLCAnLXRuJywgJzgnLCAnLW1hJywgJzIwMCcsICctbWV0YWxfYmluZGluZycsICctaW1hZScsICc8aW5maWxlLm1hZT4nLCAnLW9tYWUnLCAnPG91dGZpbGUubWFlPic=

> <r_lp_tautomer_probability>
1

> <r_epik_Ionization_Penalty>
0.00120445

> <r_epik_Ionization_Penalty_Charging>
0.00118273

> <r_epik_Ionization_Penalty_Neutral>
2.17265e-05

> <r_epik_State_Penalty>
-0

> <r_epik_Charging_Adjusted_Penalty>
0.00118273

> <i_epik_Tot_Q>
1

> <i_epik_Tot_abs_Q>
1

> <r_epik_Metal_State_Penalty>
-0

> <b_epik_Metal_Only>
0

> <s_lp_Force_Field>
OPLS_2005

> <r_lp_Energy>
20.7188

> <b_lp_Chiralities_Consistent>
1

> <s_lp_Variant>
AV-unprocessed.smi:3104-3

> <Gold.Version>
5.8.1

> <Gold.Id.Protein>
6NUR|6NUR_protein|mol2

> <Gold.PLP.Fitness>
40.1264

> <Gold.PLP.PLP>
-34.4726

> <Gold.PLP.part.hbond>
-3.0000

> <Gold.PLP.part.metal>
0.0000

> <Gold.PLP.part.buried>
-0.3475

> <Gold.PLP.part.nonpolar>
-32.2345

> <Gold.PLP.part.repulsive>
2.2003

> <Gold.PLP.ligand.clash>
0.0000

> <Gold.PLP.ligand.torsion>
1.3720

> <Gold.PLP.Chemscore.Hbond>
2.5925

> <Gold.PLP.Chemscore.CHOScore>
0.0000

> <Gold.PLP.Chemscore.Metal>
0.0000

> <Gold.Chemscore.Hbonds>
donor molecule, donor type, donor heavy atom, donor atom, acceptor molecule, acceptor atom, score
      L1  H    10    37       P1  8028  2.00
      P1  H  8022  8030       L1     4  0.59

> <Gold.PLP.Chemscore.Internal.Correction>
0.6202

> <Gold.Rescore>
     Score         DG    S(hbond)    S(metal)    S(lipo)     H(rot)  DE(clash)    DE(int)     intcor
     14.76     -17.83       1.54        0.00      94.18       1.49       1.70       1.37       ----

> <Gold.Chemscore.Fitness>
14.7572

> <Gold.Chemscore.DG>
-17.8300

> <Gold.Chemscore.ZeroCoef>
-5.4800

> <Gold.Chemscore.Hbond>
1.5424

> <Gold.Chemscore.Metal>
0.0000

> <Gold.Chemscore.Lipo>
94.1778

> <Gold.Chemscore.Internal_Hbond>
0.0000

> <Gold.Chemscore.DEClash>
1.6987

> <Gold.Chemscore.DEInternal>
1.3742

> <Gold.Chemscore.Rot>
1.4923

> <Gold.Chemscore.Internal.Correction>
   9.000000E+99

> <Gold.Chemscore.Hbonds>
donor molecule, donor type, donor heavy atom, donor atom, acceptor molecule, acceptor atom, score
      L1  H    10    37       P1  8028  1.00
      P1  H  8022  8030       L1     4  0.20

> <Gold.Chemscore.Hbond.Weighted>
-5.1515

> <Gold.Chemscore.Metal.Weighted>
-0.0000

> <Gold.Chemscore.Lipo.Weighted>
-11.0188

> <Gold.Chemscore.Internal_Hbond.Weighted>
0.0000

> <Gold.Chemscore.DEClash.Weighted>
1.6987

> <Gold.Chemscore.DEInternal.Weighted>
1.3742

> <Gold.Chemscore.Rot.Weighted>
3.8204

> <Gold.Chemscore.Internal.Correction.Weighted>
   9.000000E+99

> <Gold.Protein.RotatedTorsions>
[ 6907 6896 6895 6894 ] final   53.21 input  -60.11 | X-H torsion
[ 7974 7965 7964 7962 ] final -162.11 input  175.53 | X-H torsion
[ 8008 7997 7996 7995 ] final   94.69 input   59.86 | X-H torsion
[ 10167 10162 10161 10158 ] final   71.55 input  -65.29 | X-H torsion
[ 10718 10713 10712 10709 ] final  -53.49 input   66.30 | X-H torsion
[ 10763 10752 10751 10750 ] final   72.75 input  -60.55 | X-H torsion
[ 11005 11000 10999 10996 ] final   88.69 input  -57.11 | X-H torsion

> <Gold.Protein.ActiveResidues>
 VAL166  LYS551  ARG553  GLY616  TRP617  ASP618  TYR619  PRO620  LYS621  CYS622 
 ASP623  PHE694  ASN695  SER759  ASP760  ASP761  ALA762  ILE779  LEU786  VAL792 
 PHE793  MET794  SER795  GLU796  ALA797  LYS798  CYS799  TRP800  GLU811  SER814 

> <Gold.Protein.RotatedAtoms>
  152.3313  134.7255  160.0288 H   0  0  0  0  0  0  0  0  0  0  0  0  # atno 6907 bound_to 6896
  151.7671  133.3333  159.3442 H   0  0  0  0  0  0  0  0  0  0  0  0  # atno 6908 bound_to 6896
  150.7425  134.5985  159.6068 H   0  0  0  0  0  0  0  0  0  0  0  0  # atno 6909 bound_to 6896
  144.7368  140.3300  143.6155 H   0  0  0  0  0  0  0  0  0  0  0  0  # atno 7974 bound_to 7965
  156.0607  140.3296  155.7458 H   0  0  0  0  0  0  0  0  0  0  0  0  # atno 8008 bound_to 7997
  155.5459  140.0606  157.2877 H   0  0  0  0  0  0  0  0  0  0  0  0  # atno 8009 bound_to 7997
  154.4480  140.1902  156.0626 H   0  0  0  0  0  0  0  0  0  0  0  0  # atno 8010 bound_to 7997
  140.0449  144.5359  150.7407 H   0  0  0  0  0  0  0  0  0  0  0  0  # atno 10167 bound_to 10162
  156.1531  130.4151  149.9913 H   0  0  0  0  0  0  0  0  0  0  0  0  # atno 10718 bound_to 10713
  153.0478  135.5088  154.7790 H   0  0  0  0  0  0  0  0  0  0  0  0  # atno 10763 bound_to 10752
  154.6676  135.2948  154.9787 H   0  0  0  0  0  0  0  0  0  0  0  0  # atno 10764 bound_to 10752
  154.0616  135.6690  153.4865 H   0  0  0  0  0  0  0  0  0  0  0  0  # atno 10765 bound_to 10752
  139.8891  134.8504  156.3036 H   0  0  0  0  0  0  0  0  0  0  0  0  # atno 11005 bound_to 11000
  145.7481  139.1785  143.2337 LP  0  0  0  0  0  0  0  0  0  0  0  0  # atno 17320 bound_to 7965
  146.1082  140.7461  142.9516 LP  0  0  0  0  0  0  0  0  0  0  0  0  # atno 17321 bound_to 7965
  140.7243  143.2620  151.4172 LP  0  0  0  0  0  0  0  0  0  0  0  0  # atno 17342 bound_to 10162
  139.5990  144.1335  152.2177 LP  0  0  0  0  0  0  0  0  0  0  0  0  # atno 17343 bound_to 10162
  156.7764  130.9205  151.3645 LP  0  0  0  0  0  0  0  0  0  0  0  0  # atno 17370 bound_to 10713
  157.6673  130.9019  149.9961 LP  0  0  0  0  0  0  0  0  0  0  0  0  # atno 17371 bound_to 10713
  140.9897  133.7216  156.0795 LP  0  0  0  0  0  0  0  0  0  0  0  0  # atno 17394 bound_to 11000
  140.7641  134.3906  157.5520 LP  0  0  0  0  0  0  0  0  0  0  0  0  # atno 17395 bound_to 11000

$$$$
