AV-unprocessed.smi:2078|AV-procd|sdf|8473|dock5
  -GOLD-   2272011173D 1   1.00000     0.00000
 Structure written by MMmdl.
 41 42  0  0  0  0  0  0  0  0  3 V2000
  154.7264  134.7533  158.7726 C   0  0  0  0  0  0  0  0  0  0  0  0
  154.2751  135.8238  157.8391 C   0  0  0  0  0  0  0  0  0  0  0  0
  153.1538  136.6034  157.7927 C   0  0  0  0  0  0  0  0  0  0  0  0
  153.3710  137.4100  156.6442 C   0  0  0  0  0  0  0  0  0  0  0  0
  152.4184  138.3875  156.2538 N   0  0  0  0  0  0  0  0  0  0  0  0
  152.5191  139.3147  155.2850 C   0  0  0  0  0  0  0  0  0  0  0  0
  153.4894  139.3126  154.5178 O   0  0  0  0  0  0  0  0  0  0  0  0
  151.4742  140.1883  155.2901 N   0  5  0  0  0  0  0  0  0  0  0  0
  150.9916  140.9144  156.4694 C   0  0  0  0  0  0  0  0  0  0  0  0
  152.1322  141.1042  157.4940 C   0  0  0  0  0  0  0  0  0  0  0  0
  151.8944  142.2642  158.3955 N   0  3  1  0  0  0  0  0  0  0  0  0
  152.9718  142.4841  159.3966 C   0  0  0  0  0  0  0  0  0  0  0  0
  152.5552  143.5522  160.4191 C   0  0  0  0  0  0  0  0  0  0  0  0
  152.1717  144.8644  159.7190 C   0  0  0  0  0  0  0  0  0  0  0  0
  151.1051  144.6312  158.6320 C   0  0  2  0  0  0  0  0  0  0  0  0
  149.7050  144.3728  159.2170 C   0  0  0  0  0  0  0  0  0  0  0  0
  151.5505  143.5128  157.6666 C   0  0  0  0  0  0  0  0  0  0  0  0
  154.5258  137.1512  156.0483 N   0  0  0  0  0  0  0  0  0  0  0  0
  155.1100  136.1322  156.8100 O   0  0  0  0  0  0  0  0  0  0  0  0
  155.3254  135.1743  159.5800 H   0  0  0  0  0  0  0  0  0  0  0  0
  155.3323  134.0110  158.2522 H   0  0  0  0  0  0  0  0  0  0  0  0
  153.8728  134.2406  159.2161 H   0  0  0  0  0  0  0  0  0  0  0  0
  152.3139  136.5959  158.4712 H   0  0  0  0  0  0  0  0  0  0  0  0
  151.5717  138.4146  156.8025 H   0  0  0  0  0  0  0  0  0  0  0  0
  150.5704  141.8883  156.2167 H   0  0  0  0  0  0  0  0  0  0  0  0
  150.1816  140.3695  156.9537 H   0  0  0  0  0  0  0  0  0  0  0  0
  152.2660  140.1964  158.0839 H   0  0  0  0  0  0  0  0  0  0  0  0
  153.0654  141.2360  156.9442 H   0  0  0  0  0  0  0  0  0  0  0  0
  153.1909  141.5536  159.9214 H   0  0  0  0  0  0  0  0  0  0  0  0
  153.8887  142.7846  158.8877 H   0  0  0  0  0  0  0  0  0  0  0  0
  151.7163  143.1846  161.0115 H   0  0  0  0  0  0  0  0  0  0  0  0
  153.3694  143.7309  161.1218 H   0  0  0  0  0  0  0  0  0  0  0  0
  151.8229  145.5955  160.4490 H   0  0  0  0  0  0  0  0  0  0  0  0
  153.0628  145.2940  159.2593 H   0  0  0  0  0  0  0  0  0  0  0  0
  151.0274  145.5505  158.0504 H   0  0  0  0  0  0  0  0  0  0  0  0
  149.6764  143.4695  159.8249 H   0  0  0  0  0  0  0  0  0  0  0  0
  148.9643  144.2573  158.4253 H   0  0  0  0  0  0  0  0  0  0  0  0
  149.3845  145.2032  159.8465 H   0  0  0  0  0  0  0  0  0  0  0  0
  152.4177  143.8379  157.0901 H   0  0  0  0  0  0  0  0  0  0  0  0
  150.7525  143.3156  156.9492 H   0  0  0  0  0  0  0  0  0  0  0  0
  151.0637  142.0166  158.9162 H   0  0  0  0  0  0  0  0  0  0  0  0
  1  2  1  0  0  0  0
  1 20  1  0  0  0  0
  1 21  1  0  0  0  0
  1 22  1  0  0  0  0
  2 19  1  0  0  0  0
  2  3  2  0  0  0  0
  3  4  1  0  0  0  0
  3 23  1  0  0  0  0
  4  5  1  0  0  0  0
  4 18  2  0  0  0  0
  5  6  1  0  0  0  0
  5 24  1  0  0  0  0
  6  7  2  0  0  0  0
  6  8  1  0  0  0  0
  8  9  1  0  0  0  0
  9 10  1  0  0  0  0
  9 25  1  0  0  0  0
  9 26  1  0  0  0  0
 10 11  1  0  0  0  0
 10 27  1  0  0  0  0
 10 28  1  0  0  0  0
 11 17  1  0  0  0  0
 11 12  1  0  0  0  0
 11 41  1  0  0  0  0
 12 13  1  0  0  0  0
 12 29  1  0  0  0  0
 12 30  1  0  0  0  0
 13 14  1  0  0  0  0
 13 31  1  0  0  0  0
 13 32  1  0  0  0  0
 14 15  1  0  0  0  0
 14 33  1  0  0  0  0
 14 34  1  0  0  0  0
 15 16  1  0  0  0  0
 15 17  1  0  0  0  0
 15 35  1  0  0  0  0
 16 36  1  0  0  0  0
 16 37  1  0  0  0  0
 16 38  1  0  0  0  0
 17 39  1  0  0  0  0
 17 40  1  0  0  0  0
 18 19  1  0  0  0  0
M  CHG  1   8  -1
M  CHG  1  11   1
M  END
> <s_m_source_file>
AV-unprocessed.smi

> <i_m_source_file_index>
2078

> <i_lp_mmshare_version>
43012

> <i_f3d_flags>
0

> <s_epik_input>
W0NIM11jMVtjSF1jKG5vMSlbTkhdQyg9TylbTkhdW0NIMl1bQ0gyXU4yW0NIMl1bQ0gyXVtDSDJdW0NAQEhdKFtDSDNdKVtDSDJdMg==

> <s_epik_cmdline>
J2VwaWtfcHl0aG9uJywgJy1waCcsICc3LjAnLCAnLXRuJywgJzgnLCAnLW1hJywgJzIwMCcsICctbWV0YWxfYmluZGluZycsICctaW1hZScsICc8aW5maWxlLm1hZT4nLCAnLW9tYWUnLCAnPG91dGZpbGUubWFlPic=

> <r_epik_Ionization_Penalty>
6.76934

> <r_epik_Ionization_Penalty_Charging>
6.76934

> <r_epik_Ionization_Penalty_Neutral>
5.77849e-06

> <r_epik_State_Penalty>
6.79457

> <r_epik_Charging_Adjusted_Penalty>
13.5639

> <i_epik_Tot_Q>
0

> <i_epik_Tot_abs_Q>
2

> <r_epik_Metal_State_Penalty>
2.72837

> <b_epik_Metal_Only>
1

> <s_lp_Force_Field>
OPLS_2005

> <r_lp_Energy>
11.5184

> <b_lp_Chiralities_Consistent>
1

> <s_lp_Variant>
AV-unprocessed.smi:2078-11

> <Gold.Version>
5.8.1

> <Gold.Id.Protein>
6NUR|6NUR_protein|mol2

> <Gold.PLP.Fitness>
38.0551

> <Gold.PLP.PLP>
-33.8359

> <Gold.PLP.part.hbond>
-4.7562

> <Gold.PLP.part.metal>
0.0000

> <Gold.PLP.part.buried>
-3.7486

> <Gold.PLP.part.nonpolar>
-24.8205

> <Gold.PLP.part.repulsive>
0.2568

> <Gold.PLP.ligand.clash>
0.0000

> <Gold.PLP.ligand.torsion>
0.7932

> <Gold.PLP.Chemscore.Hbond>
1.9000

> <Gold.PLP.Chemscore.CHOScore>
0.0000

> <Gold.PLP.Chemscore.Metal>
0.0000

> <Gold.Chemscore.Hbonds>
donor molecule, donor type, donor heavy atom, donor atom, acceptor molecule, acceptor atom, score
      P1  H  7989  7998       L1     8  0.94
      P1  H  7997  8008       L1     7  1.00

> <Gold.PLP.Chemscore.Internal.Correction>
0.1057

> <Gold.Rescore>
     Score         DG    S(hbond)    S(metal)    S(lipo)     H(rot)  DE(clash)    DE(int)     intcor
     12.67     -15.11       1.16        0.00      82.83       1.54       0.20       2.24       ----

> <Gold.Chemscore.Fitness>
12.6690

> <Gold.Chemscore.DG>
-15.1141

> <Gold.Chemscore.ZeroCoef>
-5.4800

> <Gold.Chemscore.Hbond>
1.1640

> <Gold.Chemscore.Metal>
0.0000

> <Gold.Chemscore.Lipo>
82.8304

> <Gold.Chemscore.Internal_Hbond>
0.0000

> <Gold.Chemscore.DEClash>
0.2035

> <Gold.Chemscore.DEInternal>
2.2417

> <Gold.Chemscore.Rot>
1.5409

> <Gold.Chemscore.Internal.Correction>
   9.000000E+99

> <Gold.Chemscore.Hbonds>
donor molecule, donor type, donor heavy atom, donor atom, acceptor molecule, acceptor atom, score
      P1  H  7989  7998       L1     8  0.20
      P1  H  7997  8008       L1     7  0.25

> <Gold.Chemscore.Hbond.Weighted>
-3.8876

> <Gold.Chemscore.Metal.Weighted>
-0.0000

> <Gold.Chemscore.Lipo.Weighted>
-9.6912

> <Gold.Chemscore.Internal_Hbond.Weighted>
0.0000

> <Gold.Chemscore.DEClash.Weighted>
0.2035

> <Gold.Chemscore.DEInternal.Weighted>
2.2417

> <Gold.Chemscore.Rot.Weighted>
3.9446

> <Gold.Chemscore.Internal.Correction.Weighted>
   9.000000E+99

> <Gold.Protein.RotatedTorsions>
[ 6907 6896 6895 6894 ] final -145.35 input  -60.11 | X-H torsion
[ 7974 7965 7964 7962 ] final  164.65 input  175.53 | X-H torsion
[ 8008 7997 7996 7995 ] final    9.41 input   59.86 | X-H torsion
[ 10167 10162 10161 10158 ] final   44.59 input  -65.29 | X-H torsion
[ 10718 10713 10712 10709 ] final  165.86 input   66.30 | X-H torsion
[ 10763 10752 10751 10750 ] final  -70.95 input  -60.55 | X-H torsion
[ 11005 11000 10999 10996 ] final  168.16 input  -57.11 | X-H torsion

> <Gold.Protein.ActiveResidues>
 VAL166  LYS551  ARG553  GLY616  TRP617  ASP618  TYR619  PRO620  LYS621  CYS622 
 ASP623  PHE694  ASN695  SER759  ASP760  ASP761  ALA762  ILE779  LEU786  VAL792 
 PHE793  MET794  SER795  GLU796  ALA797  LYS798  CYS799  TRP800  GLU811  SER814 

> <Gold.Protein.RotatedAtoms>
  151.1266  133.5066  159.2600 H   0  0  0  0  0  0  0  0  0  0  0  0  # atno 6907 bound_to 6896
  151.1803  135.0357  159.8799 H   0  0  0  0  0  0  0  0  0  0  0  0  # atno 6908 bound_to 6896
  152.5458  134.1119  159.8415 H   0  0  0  0  0  0  0  0  0  0  0  0  # atno 6909 bound_to 6896
  144.7536  139.8356  143.6357 H   0  0  0  0  0  0  0  0  0  0  0  0  # atno 7974 bound_to 7965
  154.7797  140.2816  155.6073 H   0  0  0  0  0  0  0  0  0  0  0  0  # atno 8008 bound_to 7997
  156.2948  140.2625  156.2547 H   0  0  0  0  0  0  0  0  0  0  0  0  # atno 8009 bound_to 7997
  154.9800  140.0375  157.2263 H   0  0  0  0  0  0  0  0  0  0  0  0  # atno 8010 bound_to 7997
  140.3327  144.2568  150.6166 H   0  0  0  0  0  0  0  0  0  0  0  0  # atno 10167 bound_to 10162
  157.0740  131.0374  151.2600 H   0  0  0  0  0  0  0  0  0  0  0  0  # atno 10718 bound_to 10713
  154.4248  135.5978  153.6032 H   0  0  0  0  0  0  0  0  0  0  0  0  # atno 10763 bound_to 10752
  152.9795  135.5961  154.3911 H   0  0  0  0  0  0  0  0  0  0  0  0  # atno 10764 bound_to 10752
  154.3741  135.2841  155.2228 H   0  0  0  0  0  0  0  0  0  0  0  0  # atno 10765 bound_to 10752
  140.2843  134.7725  157.3785 H   0  0  0  0  0  0  0  0  0  0  0  0  # atno 11005 bound_to 11000
  146.1518  139.4604  143.0044 LP  0  0  0  0  0  0  0  0  0  0  0  0  # atno 17320 bound_to 7965
  145.6857  141.0178  143.1582 LP  0  0  0  0  0  0  0  0  0  0  0  0  # atno 17321 bound_to 7965
  140.5382  143.2229  151.8128 LP  0  0  0  0  0  0  0  0  0  0  0  0  # atno 17342 bound_to 10162
  139.4853  144.4634  151.9513 LP  0  0  0  0  0  0  0  0  0  0  0  0  # atno 17343 bound_to 10162
  157.4854  130.7790  149.7455 LP  0  0  0  0  0  0  0  0  0  0  0  0  # atno 17370 bound_to 10713
  155.9942  130.3919  150.2868 LP  0  0  0  0  0  0  0  0  0  0  0  0  # atno 17371 bound_to 10713
  140.1254  134.5165  155.8149 LP  0  0  0  0  0  0  0  0  0  0  0  0  # atno 17394 bound_to 11000
  141.2157  133.6771  156.6942 LP  0  0  0  0  0  0  0  0  0  0  0  0  # atno 17395 bound_to 11000

$$$$
