AV-unprocessed.smi:2812|AV-procd|sdf|10836|dock10
  -GOLD-   2272015273D 1   1.00000     0.00000
 Structure written by MMmdl.
 55 56  0  0  0  0  0  0  0  0  2 V2000
  144.4214  135.4289  150.1436 C   0  0  0  0  0  0  0  0  0  0  0  0
  144.8915  134.1040  150.7226 C   0  0  0  0  0  0  0  0  0  0  0  0
  144.2427  132.8802  150.2996 C   0  0  0  0  0  0  0  0  0  0  0  0
  144.6434  131.7096  150.8136 C   0  0  0  0  0  0  0  0  0  0  0  0
  145.6903  131.6335  151.7432 N   0  0  0  0  0  0  0  0  0  0  0  0
  146.0656  130.3051  152.2349 C   0  0  0  0  0  0  0  0  0  0  0  0
  146.3716  132.7368  152.1662 C   0  0  0  0  0  0  0  0  0  0  0  0
  147.3373  132.6296  152.9260 O   0  0  0  0  0  0  0  0  0  0  0  0
  145.8904  134.0386  151.6417 C   0  0  0  0  0  0  0  0  0  0  0  0
  146.5294  135.2240  152.0390 N   0  0  0  0  0  0  0  0  0  0  0  0
  145.9339  136.2983  152.5867 C   0  0  0  0  0  0  0  0  0  0  0  0
  144.7260  136.3983  152.8066 O   0  0  0  0  0  0  0  0  0  0  0  0
  146.8184  137.2663  152.8634 N   0  0  0  0  0  0  0  0  0  0  0  0
  146.4803  138.5402  153.4895 C   0  0  0  0  0  0  0  0  0  0  0  0
  147.6176  139.5902  153.3473 C   0  0  1  0  0  0  0  0  0  0  0  0
  147.1037  141.0426  153.2122 C   0  0  0  0  0  0  0  0  0  0  0  0
  146.5376  141.5773  154.5362 C   0  0  0  0  0  0  0  0  0  0  0  0
  147.5816  141.4340  155.6509 C   0  0  0  0  0  0  0  0  0  0  0  0
  148.0936  139.9880  155.7560 C   0  0  0  0  0  0  0  0  0  0  0  0
  148.6228  139.5153  154.4480 N   0  3  1  0  0  0  0  0  0  0  0  0
  149.3371  138.2140  154.5244 C   0  0  0  0  0  0  0  0  0  0  0  0
  150.5283  138.2494  155.5046 C   0  0  0  0  0  0  0  0  0  0  0  0
  151.6049  139.2533  155.0580 C   0  0  0  0  0  0  0  0  0  0  0  0
  151.1360  136.8484  155.6677 C   0  0  0  0  0  0  0  0  0  0  0  0
  143.5668  135.2891  149.4813 H   0  0  0  0  0  0  0  0  0  0  0  0
  145.2199  135.8981  149.5683 H   0  0  0  0  0  0  0  0  0  0  0  0
  144.1192  136.1111  150.9388 H   0  0  0  0  0  0  0  0  0  0  0  0
  143.4364  132.9049  149.5812 H   0  0  0  0  0  0  0  0  0  0  0  0
  144.1958  130.7656  150.5387 H   0  0  0  0  0  0  0  0  0  0  0  0
  146.0576  130.2798  153.3258 H   0  0  0  0  0  0  0  0  0  0  0  0
  147.0685  130.0429  151.8957 H   0  0  0  0  0  0  0  0  0  0  0  0
  145.3881  129.5227  151.8914 H   0  0  0  0  0  0  0  0  0  0  0  0
  147.5044  135.3036  151.7909 H   0  0  0  0  0  0  0  0  0  0  0  0
  147.7904  137.1060  152.6417 H   0  0  0  0  0  0  0  0  0  0  0  0
  145.5595  138.8950  153.0284 H   0  0  0  0  0  0  0  0  0  0  0  0
  146.2405  138.3590  154.5381 H   0  0  0  0  0  0  0  0  0  0  0  0
  148.1588  139.3687  152.4262 H   0  0  0  0  0  0  0  0  0  0  0  0
  147.9299  141.6824  152.8993 H   0  0  0  0  0  0  0  0  0  0  0  0
  146.3549  141.1220  152.4238 H   0  0  0  0  0  0  0  0  0  0  0  0
  146.2509  142.6236  154.4257 H   0  0  0  0  0  0  0  0  0  0  0  0
  145.6297  141.0361  154.8037 H   0  0  0  0  0  0  0  0  0  0  0  0
  148.4206  142.1021  155.4511 H   0  0  0  0  0  0  0  0  0  0  0  0
  147.1560  141.7501  156.6037 H   0  0  0  0  0  0  0  0  0  0  0  0
  148.8765  139.9493  156.5125 H   0  0  0  0  0  0  0  0  0  0  0  0
  147.3000  139.3263  156.1041 H   0  0  0  0  0  0  0  0  0  0  0  0
  148.6301  137.4315  154.8046 H   0  0  0  0  0  0  0  0  0  0  0  0
  149.7167  137.9410  153.5383 H   0  0  0  0  0  0  0  0  0  0  0  0
  150.1729  138.5564  156.4879 H   0  0  0  0  0  0  0  0  0  0  0  0
  152.0073  138.9944  154.0780 H   0  0  0  0  0  0  0  0  0  0  0  0
  152.4369  139.2742  155.7623 H   0  0  0  0  0  0  0  0  0  0  0  0
  151.2076  140.2667  154.9974 H   0  0  0  0  0  0  0  0  0  0  0  0
  151.5161  136.4673  154.7193 H   0  0  0  0  0  0  0  0  0  0  0  0
  150.3959  136.1387  156.0387 H   0  0  0  0  0  0  0  0  0  0  0  0
  151.9638  136.8586  156.3774 H   0  0  0  0  0  0  0  0  0  0  0  0
  149.3329  140.1839  154.1854 H   0  0  0  0  0  0  0  0  0  0  0  0
  1  2  1  0  0  0  0
  1 25  1  0  0  0  0
  1 26  1  0  0  0  0
  1 27  1  0  0  0  0
  2  9  2  0  0  0  0
  2  3  1  0  0  0  0
  3  4  2  0  0  0  0
  3 28  1  0  0  0  0
  4  5  1  0  0  0  0
  4 29  1  0  0  0  0
  5  6  1  0  0  0  0
  5  7  1  0  0  0  0
  6 30  1  0  0  0  0
  6 31  1  0  0  0  0
  6 32  1  0  0  0  0
  7  8  2  0  0  0  0
  7  9  1  0  0  0  0
  9 10  1  0  0  0  0
 10 11  1  0  0  0  0
 10 33  1  0  0  0  0
 11 12  2  0  0  0  0
 11 13  1  0  0  0  0
 13 14  1  0  0  0  0
 13 34  1  0  0  0  0
 14 15  1  0  0  0  0
 14 35  1  0  0  0  0
 14 36  1  0  0  0  0
 15 20  1  0  0  0  0
 15 16  1  0  0  0  0
 15 37  1  0  0  0  0
 16 17  1  0  0  0  0
 16 38  1  0  0  0  0
 16 39  1  0  0  0  0
 17 18  1  0  0  0  0
 17 40  1  0  0  0  0
 17 41  1  0  0  0  0
 18 19  1  0  0  0  0
 18 42  1  0  0  0  0
 18 43  1  0  0  0  0
 19 20  1  0  0  0  0
 19 44  1  0  0  0  0
 19 45  1  0  0  0  0
 20 21  1  0  0  0  0
 20 55  1  0  0  0  0
 21 22  1  0  0  0  0
 21 46  1  0  0  0  0
 21 47  1  0  0  0  0
 22 23  1  0  0  0  0
 22 24  1  0  0  0  0
 22 48  1  0  0  0  0
 23 49  1  0  0  0  0
 23 50  1  0  0  0  0
 23 51  1  0  0  0  0
 24 52  1  0  0  0  0
 24 53  1  0  0  0  0
 24 54  1  0  0  0  0
M  CHG  1  20   1
M  END
> <s_m_source_file>
AV-unprocessed.smi

> <i_m_source_file_index>
2812

> <i_lp_mmshare_version>
43012

> <i_f3d_flags>
0

> <s_epik_input>
W0NIM11jMVtjSF1bY0hdbihbQ0gzXSljKD1PKWMxW05IXUMoPU8pW05IXVtDSDJdW0NAQEhdMltDSDJdW0NIMl1bQ0gyXVtDSDJdTjJbQ0gyXVtDSF0oW0NIM10pW0NIM10=

> <s_epik_cmdline>
J2VwaWtfcHl0aG9uJywgJy1waCcsICc3LjAnLCAnLXRuJywgJzgnLCAnLW1hJywgJzIwMCcsICctbWV0YWxfYmluZGluZycsICctaW1hZScsICc8aW5maWxlLm1hZT4nLCAnLW9tYWUnLCAnPG91dGZpbGUubWFlPic=

> <r_lp_tautomer_probability>
1

> <r_epik_Ionization_Penalty>
0.0010902

> <r_epik_Ionization_Penalty_Charging>
0.00107091

> <r_epik_Ionization_Penalty_Neutral>
1.92854e-05

> <r_epik_State_Penalty>
0.000697184

> <r_epik_Charging_Adjusted_Penalty>
0.0017681

> <i_epik_Tot_Q>
1

> <i_epik_Tot_abs_Q>
1

> <r_epik_Metal_State_Penalty>
-0

> <b_epik_Metal_Only>
0

> <s_lp_Force_Field>
OPLS_2005

> <r_lp_Energy>
38.3811

> <b_lp_Chiralities_Consistent>
1

> <s_lp_Variant>
AV-unprocessed.smi:2812-4

> <Gold.Version>
5.8.1

> <Gold.Id.Protein>
6NUR|6NUR_protein|mol2

> <Gold.PLP.Fitness>
43.0336

> <Gold.PLP.PLP>
-38.4552

> <Gold.PLP.part.hbond>
-2.0000

> <Gold.PLP.part.metal>
0.0000

> <Gold.PLP.part.buried>
-3.1664

> <Gold.PLP.part.nonpolar>
-32.6491

> <Gold.PLP.part.repulsive>
0.3847

> <Gold.PLP.ligand.clash>
0.0000

> <Gold.PLP.ligand.torsion>
1.0381

> <Gold.PLP.Chemscore.Hbond>
1.9920

> <Gold.PLP.Chemscore.CHOScore>
0.0000

> <Gold.PLP.Chemscore.Metal>
0.0000

> <Gold.Chemscore.Hbonds>
donor molecule, donor type, donor heavy atom, donor atom, acceptor molecule, acceptor atom, score
      L1  H    10    33       P1  7948  0.99
      L1  H    13    34       P1  7948  0.99

> <Gold.PLP.Chemscore.Internal.Correction>
0.6786

> <Gold.Rescore>
     Score         DG    S(hbond)    S(metal)    S(lipo)     H(rot)  DE(clash)    DE(int)     intcor
     17.34     -18.56       1.88        0.00      91.30       1.52       0.07       1.16       ----

> <Gold.Chemscore.Fitness>
17.3403

> <Gold.Chemscore.DG>
-18.5641

> <Gold.Chemscore.ZeroCoef>
-5.4800

> <Gold.Chemscore.Hbond>
1.8809

> <Gold.Chemscore.Metal>
0.0000

> <Gold.Chemscore.Lipo>
91.3012

> <Gold.Chemscore.Internal_Hbond>
0.0000

> <Gold.Chemscore.DEClash>
0.0682

> <Gold.Chemscore.DEInternal>
1.1555

> <Gold.Chemscore.Rot>
1.5157

> <Gold.Chemscore.Internal.Correction>
   9.000000E+99

> <Gold.Chemscore.Hbonds>
donor molecule, donor type, donor heavy atom, donor atom, acceptor molecule, acceptor atom, score
      L1  H    10    33       P1  7948  0.90
      L1  H    13    34       P1  7948  0.94

> <Gold.Chemscore.Hbond.Weighted>
-6.2821

> <Gold.Chemscore.Metal.Weighted>
-0.0000

> <Gold.Chemscore.Lipo.Weighted>
-10.6822

> <Gold.Chemscore.Internal_Hbond.Weighted>
0.0000

> <Gold.Chemscore.DEClash.Weighted>
0.0682

> <Gold.Chemscore.DEInternal.Weighted>
1.1555

> <Gold.Chemscore.Rot.Weighted>
3.8803

> <Gold.Chemscore.Internal.Correction.Weighted>
   9.000000E+99

> <Gold.Protein.RotatedTorsions>
[ 6907 6896 6895 6894 ] final  -41.90 input  -60.11 | X-H torsion
[ 7974 7965 7964 7962 ] final   10.83 input  175.53 | X-H torsion
[ 8008 7997 7996 7995 ] final   16.05 input   59.86 | X-H torsion
[ 10167 10162 10161 10158 ] final  105.71 input  -65.29 | X-H torsion
[ 10718 10713 10712 10709 ] final -101.16 input   66.30 | X-H torsion
[ 10763 10752 10751 10750 ] final  -31.91 input  -60.55 | X-H torsion
[ 11005 11000 10999 10996 ] final   44.24 input  -57.11 | X-H torsion

> <Gold.Protein.ActiveResidues>
 VAL166  LYS551  ARG553  GLY616  TRP617  ASP618  TYR619  PRO620  LYS621  CYS622 
 ASP623  PHE694  ASN695  SER759  ASP760  ASP761  ALA762  ILE779  LEU786  VAL792 
 PHE793  MET794  SER795  GLU796  ALA797  LYS798  CYS799  TRP800  GLU811  SER814 

> <Gold.Protein.RotatedAtoms>
  150.9614  134.9001  159.7732 H   0  0  0  0  0  0  0  0  0  0  0  0  # atno 6907 bound_to 6896
  152.5157  134.3668  159.9314 H   0  0  0  0  0  0  0  0  0  0  0  0  # atno 6908 bound_to 6896
  151.3680  133.3825  159.2731 H   0  0  0  0  0  0  0  0  0  0  0  0  # atno 6909 bound_to 6896
  146.2382  139.9576  142.8462 H   0  0  0  0  0  0  0  0  0  0  0  0  # atno 7974 bound_to 7965
  154.8714  140.2959  155.5479 H   0  0  0  0  0  0  0  0  0  0  0  0  # atno 8008 bound_to 7997
  156.3021  140.2459  156.3637 H   0  0  0  0  0  0  0  0  0  0  0  0  # atno 8009 bound_to 7997
  154.8813  140.0398  157.1773 H   0  0  0  0  0  0  0  0  0  0  0  0  # atno 8010 bound_to 7997
  139.7070  144.7084  151.1090 H   0  0  0  0  0  0  0  0  0  0  0  0  # atno 10167 bound_to 10162
  156.0186  130.5361  150.6922 H   0  0  0  0  0  0  0  0  0  0  0  0  # atno 10718 bound_to 10713
  153.8051  135.6887  153.4849 H   0  0  0  0  0  0  0  0  0  0  0  0  # atno 10763 bound_to 10752
  153.1664  135.4560  154.9841 H   0  0  0  0  0  0  0  0  0  0  0  0  # atno 10764 bound_to 10752
  154.7990  135.3330  154.7536 H   0  0  0  0  0  0  0  0  0  0  0  0  # atno 10765 bound_to 10752
  140.1570  134.4389  155.8343 H   0  0  0  0  0  0  0  0  0  0  0  0  # atno 11005 bound_to 11000
  145.1801  140.9763  143.4271 LP  0  0  0  0  0  0  0  0  0  0  0  0  # atno 17320 bound_to 7965
  144.9949  139.3653  143.6196 LP  0  0  0  0  0  0  0  0  0  0  0  0  # atno 17321 bound_to 7965
  140.7724  143.5345  150.9384 LP  0  0  0  0  0  0  0  0  0  0  0  0  # atno 17342 bound_to 10162
  139.9029  143.6814  152.3128 LP  0  0  0  0  0  0  0  0  0  0  0  0  # atno 17343 bound_to 10162
  157.4601  131.0882  151.0754 LP  0  0  0  0  0  0  0  0  0  0  0  0  # atno 17370 bound_to 10713
  157.1245  130.6076  149.5513 LP  0  0  0  0  0  0  0  0  0  0  0  0  # atno 17371 bound_to 10713
  141.2205  133.6897  156.7525 LP  0  0  0  0  0  0  0  0  0  0  0  0  # atno 17394 bound_to 11000
  140.2536  134.8522  157.3691 LP  0  0  0  0  0  0  0  0  0  0  0  0  # atno 17395 bound_to 11000

$$$$
