AV-unprocessed.smi:1641|AV-procd|sdf|6564|dock5
  -GOLD-   22720 7253D 1   1.00000     0.00000
 Structure written by MMmdl.
 40 41  0  0  0  0  0  0  0  0  2 V2000
  146.4895  133.6431  162.0800 C   0  0  0  0  0  0  0  0  0  0  0  0
  147.3598  134.6681  161.4375 C   0  0  0  0  0  0  0  0  0  0  0  0
  147.3618  135.9514  161.8070 N   0  0  0  0  0  0  0  0  0  0  0  0
  148.2544  136.7084  161.0617 N   0  0  0  0  0  0  0  0  0  0  0  0
  148.9039  135.9920  160.1330 C   0  0  0  0  0  0  0  0  0  0  0  0
  149.8143  136.5354  159.3081 N   0  5  0  0  0  0  0  0  0  0  0  0
  149.5503  137.7086  158.6888 C   0  0  0  0  0  0  0  0  0  0  0  0
  148.4703  138.0475  158.1996 O   0  0  0  0  0  0  0  0  0  0  0  0
  150.6044  138.5347  158.6327 N   0  0  0  0  0  0  0  0  0  0  0  0
  150.6369  139.8555  158.0143 C   0  0  0  0  0  0  0  0  0  0  0  0
  152.0661  140.4200  158.0560 C   0  0  0  0  0  0  0  0  0  0  0  0
  152.1884  141.7489  158.6537 N   0  0  0  0  0  0  0  0  0  0  0  0
  152.3225  141.6585  160.1016 C   0  0  0  0  0  0  0  0  0  0  0  0
  152.5000  143.0428  160.7504 C   0  0  2  0  0  0  0  0  0  0  0  0
  152.5619  142.9596  162.2790 C   0  0  0  0  0  0  0  0  0  0  0  0
  151.3981  143.8762  160.3950 O   0  0  0  0  0  0  0  0  0  0  0  0
  151.1600  144.0041  158.9921 C   0  0  1  0  0  0  0  0  0  0  0  0
  152.1989  144.9171  158.3187 C   0  0  0  0  0  0  0  0  0  0  0  0
  151.0535  142.6127  158.3351 C   0  0  0  0  0  0  0  0  0  0  0  0
  148.4630  134.2847  160.1270 S   0  0  0  0  0  0  0  0  0  0  0  0
  145.5283  133.5980  161.5677 H   0  0  0  0  0  0  0  0  0  0  0  0
  146.3185  133.8913  163.1278 H   0  0  0  0  0  0  0  0  0  0  0  0
  146.9619  132.6622  162.0276 H   0  0  0  0  0  0  0  0  0  0  0  0
  151.4633  138.2104  159.0523 H   0  0  0  0  0  0  0  0  0  0  0  0
  150.2926  139.8204  156.9796 H   0  0  0  0  0  0  0  0  0  0  0  0
  149.9437  140.4943  158.5606 H   0  0  0  0  0  0  0  0  0  0  0  0
  152.7223  139.7201  158.5755 H   0  0  0  0  0  0  0  0  0  0  0  0
  152.4302  140.4646  157.0283 H   0  0  0  0  0  0  0  0  0  0  0  0
  151.4449  141.1659  160.5234 H   0  0  0  0  0  0  0  0  0  0  0  0
  153.1806  141.0340  160.3531 H   0  0  0  0  0  0  0  0  0  0  0  0
  153.4262  143.4954  160.3951 H   0  0  0  0  0  0  0  0  0  0  0  0
  153.3981  142.3402  162.6044 H   0  0  0  0  0  0  0  0  0  0  0  0
  151.6472  142.5302  162.6889 H   0  0  0  0  0  0  0  0  0  0  0  0
  152.6912  143.9493  162.7178 H   0  0  0  0  0  0  0  0  0  0  0  0
  150.1926  144.4967  158.8903 H   0  0  0  0  0  0  0  0  0  0  0  0
  151.9395  145.0942  157.2749 H   0  0  0  0  0  0  0  0  0  0  0  0
  153.1986  144.4832  158.3352 H   0  0  0  0  0  0  0  0  0  0  0  0
  152.2460  145.8860  158.8161 H   0  0  0  0  0  0  0  0  0  0  0  0
  150.9583  142.7387  157.2571 H   0  0  0  0  0  0  0  0  0  0  0  0
  150.1316  142.1353  158.6710 H   0  0  0  0  0  0  0  0  0  0  0  0
  1  2  1  0  0  0  0
  1 21  1  0  0  0  0
  1 22  1  0  0  0  0
  1 23  1  0  0  0  0
  2 20  1  0  0  0  0
  2  3  2  0  0  0  0
  3  4  1  0  0  0  0
  4  5  2  0  0  0  0
  5  6  1  0  0  0  0
  5 20  1  0  0  0  0
  6  7  1  0  0  0  0
  7  8  2  0  0  0  0
  7  9  1  0  0  0  0
  9 10  1  0  0  0  0
  9 24  1  0  0  0  0
 10 11  1  0  0  0  0
 10 25  1  0  0  0  0
 10 26  1  0  0  0  0
 11 12  1  0  0  0  0
 11 27  1  0  0  0  0
 11 28  1  0  0  0  0
 12 19  1  0  0  0  0
 12 13  1  0  0  0  0
 13 14  1  0  0  0  0
 13 29  1  0  0  0  0
 13 30  1  0  0  0  0
 14 15  1  0  0  0  0
 14 16  1  0  0  0  0
 14 31  1  0  0  0  0
 15 32  1  0  0  0  0
 15 33  1  0  0  0  0
 15 34  1  0  0  0  0
 16 17  1  0  0  0  0
 17 18  1  0  0  0  0
 17 19  1  0  0  0  0
 17 35  1  0  0  0  0
 18 36  1  0  0  0  0
 18 37  1  0  0  0  0
 18 38  1  0  0  0  0
 19 39  1  0  0  0  0
 19 40  1  0  0  0  0
M  CHG  1   6  -1
M  END
> <s_m_source_file>
AV-unprocessed.smi

> <i_m_source_file_index>
1641

> <i_lp_mmshare_version>
43012

> <i_f3d_flags>
0

> <s_epik_input>
W0NIM11jMW5uYyhzMSlbTkhdQyg9TylbTkhdW0NIMl1bQ0gyXU4yW0NIMl1bQ0BASF0oW0NIM10pT1tDQEBIXShbQ0gzXSlbQ0gyXTI=

> <s_epik_cmdline>
J2VwaWtfcHl0aG9uJywgJy1waCcsICc3LjAnLCAnLXRuJywgJzgnLCAnLW1hJywgJzIwMCcsICctbWV0YWxfYmluZGluZycsICctaW1hZScsICc8aW5maWxlLm1hZT4nLCAnLW9tYWUnLCAnPG91dGZpbGUubWFlPic=

> <r_lp_tautomer_probability>
1

> <r_epik_Ionization_Penalty>
3.81681

> <r_epik_Ionization_Penalty_Charging>
3.36369

> <r_epik_Ionization_Penalty_Neutral>
0.45313

> <r_epik_State_Penalty>
3.571

> <r_epik_Charging_Adjusted_Penalty>
6.93469

> <i_epik_Tot_Q>
-1

> <i_epik_Tot_abs_Q>
1

> <r_epik_Metal_State_Penalty>
0.710322

> <b_epik_Metal_Only>
1

> <s_lp_Force_Field>
OPLS_2005

> <r_lp_Energy>
21.0176

> <b_lp_Chiralities_Consistent>
1

> <s_lp_Variant>
AV-unprocessed.smi:1641-9

> <Gold.Version>
5.8.1

> <Gold.Id.Protein>
6NUR|6NUR_protein|mol2

> <Gold.PLP.Fitness>
47.9102

> <Gold.PLP.PLP>
-41.4502

> <Gold.PLP.part.hbond>
-2.5702

> <Gold.PLP.part.metal>
0.0000

> <Gold.PLP.part.buried>
-6.3414

> <Gold.PLP.part.nonpolar>
-32.0193

> <Gold.PLP.part.repulsive>
0.2366

> <Gold.PLP.ligand.clash>
0.0000

> <Gold.PLP.ligand.torsion>
1.3363

> <Gold.PLP.Chemscore.Hbond>
3.0293

> <Gold.PLP.Chemscore.CHOScore>
0.0000

> <Gold.PLP.Chemscore.Metal>
0.0000

> <Gold.Chemscore.Hbonds>
donor molecule, donor type, donor heavy atom, donor atom, acceptor molecule, acceptor atom, score
      P1  H  6896  6909       L1     6  0.50
      P1  H  6931  6943       L1     4  1.00

> <Gold.PLP.Chemscore.Internal.Correction>
0.0447

> <Gold.Rescore>
     Score         DG    S(hbond)    S(metal)    S(lipo)     H(rot)  DE(clash)    DE(int)     intcor
     15.80     -16.94       1.07        0.00     101.64       1.57       0.06       1.09       ----

> <Gold.Chemscore.Fitness>
15.7989

> <Gold.Chemscore.DG>
-16.9447

> <Gold.Chemscore.ZeroCoef>
-5.4800

> <Gold.Chemscore.Hbond>
1.0745

> <Gold.Chemscore.Metal>
0.0000

> <Gold.Chemscore.Lipo>
101.6375

> <Gold.Chemscore.Internal_Hbond>
0.0000

> <Gold.Chemscore.DEClash>
0.0575

> <Gold.Chemscore.DEInternal>
1.0883

> <Gold.Chemscore.Rot>
1.5686

> <Gold.Chemscore.Internal.Correction>
   9.000000E+99

> <Gold.Chemscore.Hbonds>
donor molecule, donor type, donor heavy atom, donor atom, acceptor molecule, acceptor atom, score
      P1  H  6931  6943       L1     4  0.94

> <Gold.Chemscore.Hbond.Weighted>
-3.5888

> <Gold.Chemscore.Metal.Weighted>
-0.0000

> <Gold.Chemscore.Lipo.Weighted>
-11.8916

> <Gold.Chemscore.Internal_Hbond.Weighted>
0.0000

> <Gold.Chemscore.DEClash.Weighted>
0.0575

> <Gold.Chemscore.DEInternal.Weighted>
1.0883

> <Gold.Chemscore.Rot.Weighted>
4.0157

> <Gold.Chemscore.Internal.Correction.Weighted>
   9.000000E+99

> <Gold.Protein.RotatedTorsions>
[ 6907 6896 6895 6894 ] final   78.06 input  -60.11 | X-H torsion
[ 7974 7965 7964 7962 ] final   76.36 input  175.53 | X-H torsion
[ 8008 7997 7996 7995 ] final  175.11 input   59.86 | X-H torsion
[ 10167 10162 10161 10158 ] final -110.27 input  -65.29 | X-H torsion
[ 10718 10713 10712 10709 ] final -165.46 input   66.30 | X-H torsion
[ 10763 10752 10751 10750 ] final  -85.00 input  -60.55 | X-H torsion
[ 11005 11000 10999 10996 ] final  130.82 input  -57.11 | X-H torsion

> <Gold.Protein.ActiveResidues>
 VAL166  LYS551  ARG553  GLY616  TRP617  ASP618  TYR619  PRO620  LYS621  CYS622 
 ASP623  PHE694  ASN695  SER759  ASP760  ASP761  ALA762  ILE779  LEU786  VAL792 
 PHE793  MET794  SER795  GLU796  ALA797  LYS798  CYS799  TRP800  GLU811  SER814 

> <Gold.Protein.RotatedAtoms>
  152.5144  134.3722  159.9321 H   0  0  0  0  0  0  0  0  0  0  0  0  # atno 6907 bound_to 6896
  151.3677  133.3860  159.2704 H   0  0  0  0  0  0  0  0  0  0  0  0  # atno 6908 bound_to 6896
  150.9602  134.9011  159.7784 H   0  0  0  0  0  0  0  0  0  0  0  0  # atno 6909 bound_to 6896
  145.7039  139.2592  143.1690 H   0  0  0  0  0  0  0  0  0  0  0  0  # atno 7974 bound_to 7965
  156.0904  140.1417  156.9599 H   0  0  0  0  0  0  0  0  0  0  0  0  # atno 8008 bound_to 7997
  154.4638  140.0933  156.7014 H   0  0  0  0  0  0  0  0  0  0  0  0  # atno 8009 bound_to 7997
  155.4928  140.3448  155.4360 H   0  0  0  0  0  0  0  0  0  0  0  0  # atno 8010 bound_to 7997
  140.1463  143.4236  152.1526 H   0  0  0  0  0  0  0  0  0  0  0  0  # atno 10167 bound_to 10162
  156.6538  130.9018  151.3017 H   0  0  0  0  0  0  0  0  0  0  0  0  # atno 10718 bound_to 10713
  154.6060  135.5500  153.7423 H   0  0  0  0  0  0  0  0  0  0  0  0  # atno 10763 bound_to 10752
  153.0174  135.6378  154.1646 H   0  0  0  0  0  0  0  0  0  0  0  0  # atno 10764 bound_to 10752
  154.1585  135.2898  155.3095 H   0  0  0  0  0  0  0  0  0  0  0  0  # atno 10765 bound_to 10752
  139.9694  134.9582  156.9348 H   0  0  0  0  0  0  0  0  0  0  0  0  # atno 11005 bound_to 11000
  146.0773  140.7803  142.9658 LP  0  0  0  0  0  0  0  0  0  0  0  0  # atno 17320 bound_to 7965
  144.6961  140.3435  143.7195 LP  0  0  0  0  0  0  0  0  0  0  0  0  # atno 17321 bound_to 7965
  139.5447  144.7288  151.4620 LP  0  0  0  0  0  0  0  0  0  0  0  0  # atno 17342 bound_to 10162
  140.6730  143.8253  150.7022 LP  0  0  0  0  0  0  0  0  0  0  0  0  # atno 17343 bound_to 10162
  157.7132  130.9465  150.1163 LP  0  0  0  0  0  0  0  0  0  0  0  0  # atno 17370 bound_to 10713
  156.2064  130.3663  149.8724 LP  0  0  0  0  0  0  0  0  0  0  0  0  # atno 17371 bound_to 10713
  140.5326  134.0798  155.7320 LP  0  0  0  0  0  0  0  0  0  0  0  0  # atno 17394 bound_to 11000
  141.1374  133.9198  157.2404 LP  0  0  0  0  0  0  0  0  0  0  0  0  # atno 17395 bound_to 11000

$$$$
