AV-unprocessed.smi:3089|AV-procd|sdf|11771|dock9
  -GOLD-   2272017153D 1   1.00000     0.00000
 Structure written by MMmdl.
 25 25  0  0  0  0  0  0  0  0  2 V2000
  152.5033  138.3795  154.4252 C   0  0  0  0  0  0  0  0  0  0  0  0
  151.1284  138.8316  154.4364 N   0  0  0  0  0  0  0  0  0  0  0  0
  149.9826  138.1108  154.1802 C   0  0  0  0  0  0  0  0  0  0  0  0
  148.9184  138.9611  154.3102 C   0  0  0  0  0  0  0  0  0  0  0  0
  147.4439  138.6607  154.1393 C   0  0  2  0  0  0  0  0  0  0  0  0
  146.6823  139.0151  155.4281 C   0  0  0  0  0  0  0  0  0  0  0  0
  147.2078  137.2826  153.9172 O   0  0  0  0  0  0  0  0  0  0  0  0
  146.8540  139.4277  152.9351 C   0  0  0  0  0  0  0  0  0  0  0  0
  147.3016  138.8710  151.6445 N   0  3  0  0  0  0  0  0  0  0  0  0
  149.5371  140.2013  154.6484 C   0  0  0  0  0  0  0  0  0  0  0  0
  150.8547  140.1186  154.7280 N   0  0  0  0  0  0  0  0  0  0  0  0
  152.5473  137.3195  154.1736 H   0  0  0  0  0  0  0  0  0  0  0  0
  152.9498  138.5286  155.4089 H   0  0  0  0  0  0  0  0  0  0  0  0
  153.0715  138.9428  153.6846 H   0  0  0  0  0  0  0  0  0  0  0  0
  150.0173  137.0607  153.9295 H   0  0  0  0  0  0  0  0  0  0  0  0
  146.7748  140.0753  155.6667 H   0  0  0  0  0  0  0  0  0  0  0  0
  147.0637  138.4529  156.2817 H   0  0  0  0  0  0  0  0  0  0  0  0
  145.6179  138.7939  155.3382 H   0  0  0  0  0  0  0  0  0  0  0  0
  147.8003  136.9766  153.2472 H   0  0  0  0  0  0  0  0  0  0  0  0
  145.7636  139.4141  152.9635 H   0  0  0  0  0  0  0  0  0  0  0  0
  147.1548  140.4755  152.9709 H   0  0  0  0  0  0  0  0  0  0  0  0
  148.0160  139.4633  151.2464 H   0  0  0  0  0  0  0  0  0  0  0  0
  146.5141  138.8179  151.0140 H   0  0  0  0  0  0  0  0  0  0  0  0
  149.0685  141.1550  154.8421 H   0  0  0  0  0  0  0  0  0  0  0  0
  147.6734  137.9435  151.7920 H   0  0  0  0  0  0  0  0  0  0  0  0
  1  2  1  0  0  0  0
  1 12  1  0  0  0  0
  1 13  1  0  0  0  0
  1 14  1  0  0  0  0
  2 11  1  0  0  0  0
  2  3  1  0  0  0  0
  3  4  2  0  0  0  0
  3 15  1  0  0  0  0
  4  5  1  0  0  0  0
  4 10  1  0  0  0  0
  5  6  1  0  0  0  0
  5  7  1  0  0  0  0
  5  8  1  0  0  0  0
  6 16  1  0  0  0  0
  6 17  1  0  0  0  0
  6 18  1  0  0  0  0
  7 19  1  0  0  0  0
  8  9  1  0  0  0  0
  8 20  1  0  0  0  0
  8 21  1  0  0  0  0
  9 22  1  0  0  0  0
  9 23  1  0  0  0  0
  9 25  1  0  0  0  0
 10 11  2  0  0  0  0
 10 24  1  0  0  0  0
M  CHG  1   9   1
M  END
> <s_m_source_file>
AV-unprocessed.smi

> <i_m_source_file_index>
3089

> <i_lp_mmshare_version>
43012

> <i_f3d_flags>
0

> <s_epik_input>
W0NIM11uMVtjSF1jKFtjSF1uMSlbQ0BAXShbQ0gzXSkoW09IXSlbQ0gyXVtOSDJd

> <s_epik_cmdline>
J2VwaWtfcHl0aG9uJywgJy1waCcsICc3LjAnLCAnLXRuJywgJzgnLCAnLW1hJywgJzIwMCcsICctbWV0YWxfYmluZGluZycsICctaW1hZScsICc8aW5maWxlLm1hZT4nLCAnLW9tYWUnLCAnPG91dGZpbGUubWFlPic=

> <r_lp_tautomer_probability>
1

> <r_epik_Ionization_Penalty>
0.0140512

> <r_epik_Ionization_Penalty_Charging>
0.0140431

> <r_epik_Ionization_Penalty_Neutral>
8.10489e-06

> <r_epik_State_Penalty>
0.0109628

> <r_epik_Charging_Adjusted_Penalty>
0.0250059

> <i_epik_Tot_Q>
1

> <i_epik_Tot_abs_Q>
1

> <r_epik_Metal_State_Penalty>
0.0109638

> <b_epik_Metal_Only>
0

> <s_lp_Force_Field>
OPLS_2005

> <r_lp_Energy>
3.27267

> <b_lp_Chiralities_Consistent>
1

> <s_lp_Variant>
AV-unprocessed.smi:3089-2

> <Gold.Version>
5.8.1

> <Gold.Id.Protein>
6NUR|6NUR_protein|mol2

> <Gold.PLP.Fitness>
37.9793

> <Gold.PLP.PLP>
-21.0099

> <Gold.PLP.part.hbond>
-4.0000

> <Gold.PLP.part.metal>
0.0000

> <Gold.PLP.part.buried>
-3.0368

> <Gold.PLP.part.nonpolar>
-15.1571

> <Gold.PLP.part.repulsive>
0.8443

> <Gold.PLP.ligand.clash>
0.0000

> <Gold.PLP.ligand.torsion>
0.1785

> <Gold.PLP.Chemscore.Hbond>
5.0000

> <Gold.PLP.Chemscore.CHOScore>
0.7700

> <Gold.PLP.Chemscore.Metal>
0.0000

> <Gold.Chemscore.Hbonds>
donor molecule, donor type, donor heavy atom, donor atom, acceptor molecule, acceptor atom, score
      L1  H     7    19       P1  7948  1.00
      L1  H     9    22       P1  7957  1.00
      L1  H     9    25       P1  7948  1.62
      P1  H  7989  7998       L1    11  1.00
      L1  C     3    15       P1  7948  0.82
      L1  C     3    15       P1  7949  0.01

> <Gold.PLP.Chemscore.Internal.Correction>
0.0165

> <Gold.Rescore>
     Score         DG    S(hbond)    S(metal)    S(lipo)     H(rot)  DE(clash)    DE(int)     intcor
     16.87     -17.05       3.53        0.00      39.32       1.89       0.06       0.12       ----

> <Gold.Chemscore.Fitness>
16.8696

> <Gold.Chemscore.DG>
-17.0515

> <Gold.Chemscore.ZeroCoef>
-5.4800

> <Gold.Chemscore.Hbond>
3.5346

> <Gold.Chemscore.Metal>
0.0000

> <Gold.Chemscore.Lipo>
39.3159

> <Gold.Chemscore.Internal_Hbond>
0.0000

> <Gold.Chemscore.DEClash>
0.0605

> <Gold.Chemscore.DEInternal>
0.1214

> <Gold.Chemscore.Rot>
1.8883

> <Gold.Chemscore.Internal.Correction>
   9.000000E+99

> <Gold.Chemscore.Hbonds>
donor molecule, donor type, donor heavy atom, donor atom, acceptor molecule, acceptor atom, score
      L1  H     7    19       P1  7948  0.99
      L1  H     9    22       P1  7957  0.86
      L1  H     9    25       P1  7948  0.80
      P1  H  7989  7998       L1    11  0.22

> <Gold.Chemscore.Hbond.Weighted>
-11.8055

> <Gold.Chemscore.Metal.Weighted>
-0.0000

> <Gold.Chemscore.Lipo.Weighted>
-4.6000

> <Gold.Chemscore.Internal_Hbond.Weighted>
0.0000

> <Gold.Chemscore.DEClash.Weighted>
0.0605

> <Gold.Chemscore.DEInternal.Weighted>
0.1214

> <Gold.Chemscore.Rot.Weighted>
4.8341

> <Gold.Chemscore.Internal.Correction.Weighted>
   9.000000E+99

> <Gold.Protein.RotatedTorsions>
[ 6907 6896 6895 6894 ] final -108.70 input  -60.11 | X-H torsion
[ 7974 7965 7964 7962 ] final -173.25 input  175.53 | X-H torsion
[ 8008 7997 7996 7995 ] final  177.74 input   59.86 | X-H torsion
[ 10167 10162 10161 10158 ] final -102.57 input  -65.29 | X-H torsion
[ 10718 10713 10712 10709 ] final  140.87 input   66.30 | X-H torsion
[ 10763 10752 10751 10750 ] final  -12.29 input  -60.55 | X-H torsion
[ 11005 11000 10999 10996 ] final -114.35 input  -57.11 | X-H torsion

> <Gold.Protein.ActiveResidues>
 VAL166  LYS551  ARG553  GLY616  TRP617  ASP618  TYR619  PRO620  LYS621  CYS622 
 ASP623  PHE694  ASN695  SER759  ASP760  ASP761  ALA762  ILE779  LEU786  VAL792 
 PHE793  MET794  SER795  GLU796  ALA797  LYS798  CYS799  TRP800  GLU811  SER814 

> <Gold.Protein.RotatedAtoms>
  150.7517  133.9639  159.3523 H   0  0  0  0  0  0  0  0  0  0  0  0  # atno 6907 bound_to 6896
  151.7567  135.0818  160.0348 H   0  0  0  0  0  0  0  0  0  0  0  0  # atno 6908 bound_to 6896
  152.3430  133.6053  159.5926 H   0  0  0  0  0  0  0  0  0  0  0  0  # atno 6909 bound_to 6896
  144.7139  140.1651  143.6372 H   0  0  0  0  0  0  0  0  0  0  0  0  # atno 7974 bound_to 7965
  156.0623  140.1351  156.9926 H   0  0  0  0  0  0  0  0  0  0  0  0  # atno 8008 bound_to 7997
  154.4488  140.0989  156.6607 H   0  0  0  0  0  0  0  0  0  0  0  0  # atno 8009 bound_to 7997
  155.5358  140.3459  155.4438 H   0  0  0  0  0  0  0  0  0  0  0  0  # atno 8010 bound_to 7997
  140.2292  143.3619  152.0902 H   0  0  0  0  0  0  0  0  0  0  0  0  # atno 10167 bound_to 10162
  157.3984  131.1013  151.0577 H   0  0  0  0  0  0  0  0  0  0  0  0  # atno 10718 bound_to 10713
  153.4962  135.7017  153.5857 H   0  0  0  0  0  0  0  0  0  0  0  0  # atno 10763 bound_to 10752
  153.4008  135.3872  155.1986 H   0  0  0  0  0  0  0  0  0  0  0  0  # atno 10764 bound_to 10752
  154.8713  135.3881  154.4428 H   0  0  0  0  0  0  0  0  0  0  0  0  # atno 10765 bound_to 10752
  141.0557  133.9616  157.2757 H   0  0  0  0  0  0  0  0  0  0  0  0  # atno 11005 bound_to 11000
  145.8995  139.2422  143.1502 LP  0  0  0  0  0  0  0  0  0  0  0  0  # atno 17320 bound_to 7965
  145.9824  140.8671  143.0107 LP  0  0  0  0  0  0  0  0  0  0  0  0  # atno 17321 bound_to 7965
  139.5116  144.6903  151.5777 LP  0  0  0  0  0  0  0  0  0  0  0  0  # atno 17342 bound_to 10162
  140.6198  143.9280  150.6517 LP  0  0  0  0  0  0  0  0  0  0  0  0  # atno 17343 bound_to 10162
  157.1585  130.6215  149.5603 LP  0  0  0  0  0  0  0  0  0  0  0  0  # atno 17370 bound_to 10713
  155.9816  130.4825  150.6839 LP  0  0  0  0  0  0  0  0  0  0  0  0  # atno 17371 bound_to 10713
  139.9388  135.0193  156.8643 LP  0  0  0  0  0  0  0  0  0  0  0  0  # atno 17394 bound_to 11000
  140.5968  134.0209  155.7521 LP  0  0  0  0  0  0  0  0  0  0  0  0  # atno 17395 bound_to 11000

$$$$
