AV-unprocessed.smi:1005|AV-procd|sdf|4371|dock9
  -GOLD-   22720 2283D 1   1.00000     0.00000
 Structure written by MMmdl.
 57 59  0  0  0  0  0  0  0  0  3 V2000
  152.8736  142.9393  161.0210 C   0  0  0  0  0  0  0  0  0  0  0  0
  152.2232  142.5468  159.7056 C   0  0  0  0  0  0  0  0  0  0  0  0
  152.6368  141.3576  159.0656 C   0  0  0  0  0  0  0  0  0  0  0  0
  152.0797  140.9687  157.8281 C   0  0  0  0  0  0  0  0  0  0  0  0
  152.3373  139.8619  157.0397 N   0  0  0  0  0  0  0  0  0  0  0  0
  151.5194  140.0676  156.0125 C   0  0  0  0  0  0  0  0  0  0  0  0
  150.7429  141.1682  156.0514 N   0  0  0  0  0  0  0  0  0  0  0  0
  149.7778  141.5814  155.0444 C   0  0  0  0  0  0  0  0  0  0  0  0
  148.3124  141.3807  155.4843 C   0  0  1  0  0  0  0  0  0  0  0  0
  147.5340  142.3865  154.8687 O   0  0  0  0  0  0  0  0  0  0  0  0
  147.7316  139.9941  155.1151 C   0  0  0  0  0  0  0  0  0  0  0  0
  148.4902  138.8646  155.7180 N   0  3  1  0  0  0  0  0  0  0  0  0
  148.2668  138.7226  157.1774 C   0  0  0  0  0  0  0  0  0  0  0  0
  146.9099  138.0560  157.4700 C   0  0  0  0  0  0  0  0  0  0  0  0
  146.8476  136.7959  156.8117 O   0  0  0  0  0  0  0  0  0  0  0  0
  146.9422  136.9100  155.3951 C   0  0  2  0  0  0  0  0  0  0  0  0
  146.8141  135.4990  154.7925 C   0  0  0  0  0  0  0  0  0  0  0  0
  146.7593  135.5129  153.3084 N   0  3  0  0  0  0  0  0  0  0  0  0
  146.5105  134.1787  152.7169 C   0  0  0  0  0  0  0  0  0  0  0  0
  145.8007  136.5171  152.7965 C   0  0  0  0  0  0  0  0  0  0  0  0
  148.3031  137.5516  155.0434 C   0  0  0  0  0  0  0  0  0  0  0  0
  151.0878  141.8080  157.2402 C   0  0  0  0  0  0  0  0  0  0  0  0
  150.6639  142.9914  157.8722 C   0  0  0  0  0  0  0  0  0  0  0  0
  151.2270  143.3621  159.1114 C   0  0  0  0  0  0  0  0  0  0  0  0
  150.7569  144.6386  159.7856 C   0  0  0  0  0  0  0  0  0  0  0  0
  153.4883  142.1304  161.4171 H   0  0  0  0  0  0  0  0  0  0  0  0
  152.1253  143.1861  161.7737 H   0  0  0  0  0  0  0  0  0  0  0  0
  153.5154  143.8090  160.8771 H   0  0  0  0  0  0  0  0  0  0  0  0
  153.3972  140.7366  159.5165 H   0  0  0  0  0  0  0  0  0  0  0  0
  151.4753  139.3715  155.1875 H   0  0  0  0  0  0  0  0  0  0  0  0
  149.9622  142.6293  154.8040 H   0  0  0  0  0  0  0  0  0  0  0  0
  149.9729  141.0139  154.1328 H   0  0  0  0  0  0  0  0  0  0  0  0
  148.2614  141.5517  156.5563 H   0  0  0  0  0  0  0  0  0  0  0  0
  147.8708  143.2338  155.1162 H   0  0  0  0  0  0  0  0  0  0  0  0
  146.6903  139.9591  155.4394 H   0  0  0  0  0  0  0  0  0  0  0  0
  147.7005  139.8524  154.0368 H   0  0  0  0  0  0  0  0  0  0  0  0
  149.0663  138.1053  157.5891 H   0  0  0  0  0  0  0  0  0  0  0  0
  148.3407  139.6899  157.6756 H   0  0  0  0  0  0  0  0  0  0  0  0
  146.7962  137.8968  158.5424 H   0  0  0  0  0  0  0  0  0  0  0  0
  146.0784  138.6887  157.1558 H   0  0  0  0  0  0  0  0  0  0  0  0
  146.1336  137.5379  155.0227 H   0  0  0  0  0  0  0  0  0  0  0  0
  147.6412  134.8656  155.1178 H   0  0  0  0  0  0  0  0  0  0  0  0
  145.9052  135.0411  155.1864 H   0  0  0  0  0  0  0  0  0  0  0  0
  145.5318  133.8046  153.0158 H   0  0  0  0  0  0  0  0  0  0  0  0
  147.2627  133.4519  153.0207 H   0  0  0  0  0  0  0  0  0  0  0  0
  146.5328  134.2321  151.6281 H   0  0  0  0  0  0  0  0  0  0  0  0
  144.7843  136.2876  153.1196 H   0  0  0  0  0  0  0  0  0  0  0  0
  145.8148  136.5451  151.7064 H   0  0  0  0  0  0  0  0  0  0  0  0
  146.0569  137.5151  153.1537 H   0  0  0  0  0  0  0  0  0  0  0  0
  148.4129  137.6348  153.9638 H   0  0  0  0  0  0  0  0  0  0  0  0
  149.1073  136.8921  155.3727 H   0  0  0  0  0  0  0  0  0  0  0  0
  149.9187  143.6180  157.4064 H   0  0  0  0  0  0  0  0  0  0  0  0
  150.0621  145.1911  159.1524 H   0  0  0  0  0  0  0  0  0  0  0  0
  151.6015  145.2929  160.0032 H   0  0  0  0  0  0  0  0  0  0  0  0
  150.2470  144.4073  160.7210 H   0  0  0  0  0  0  0  0  0  0  0  0
  147.6702  135.8119  152.9894 H   0  0  0  0  0  0  0  0  0  0  0  0
  149.4637  139.1126  155.6105 H   0  0  0  0  0  0  0  0  0  0  0  0
  1  2  1  0  0  0  0
  1 26  1  0  0  0  0
  1 27  1  0  0  0  0
  1 28  1  0  0  0  0
  2 24  1  0  0  0  0
  2  3  2  0  0  0  0
  3  4  1  0  0  0  0
  3 29  1  0  0  0  0
  4 22  2  0  0  0  0
  4  5  1  0  0  0  0
  5  6  2  0  0  0  0
  6  7  1  0  0  0  0
  6 30  1  0  0  0  0
  7  8  1  0  0  0  0
  7 22  1  0  0  0  0
  8  9  1  0  0  0  0
  8 31  1  0  0  0  0
  8 32  1  0  0  0  0
  9 10  1  0  0  0  0
  9 11  1  0  0  0  0
  9 33  1  0  0  0  0
 10 34  1  0  0  0  0
 11 12  1  0  0  0  0
 11 35  1  0  0  0  0
 11 36  1  0  0  0  0
 12 21  1  0  0  0  0
 12 13  1  0  0  0  0
 12 57  1  0  0  0  0
 13 14  1  0  0  0  0
 13 37  1  0  0  0  0
 13 38  1  0  0  0  0
 14 15  1  0  0  0  0
 14 39  1  0  0  0  0
 14 40  1  0  0  0  0
 15 16  1  0  0  0  0
 16 17  1  0  0  0  0
 16 21  1  0  0  0  0
 16 41  1  0  0  0  0
 17 18  1  0  0  0  0
 17 42  1  0  0  0  0
 17 43  1  0  0  0  0
 18 19  1  0  0  0  0
 18 20  1  0  0  0  0
 18 56  1  0  0  0  0
 19 44  1  0  0  0  0
 19 45  1  0  0  0  0
 19 46  1  0  0  0  0
 20 47  1  0  0  0  0
 20 48  1  0  0  0  0
 20 49  1  0  0  0  0
 21 50  1  0  0  0  0
 21 51  1  0  0  0  0
 22 23  1  0  0  0  0
 23 24  2  0  0  0  0
 23 52  1  0  0  0  0
 24 25  1  0  0  0  0
 25 53  1  0  0  0  0
 25 54  1  0  0  0  0
 25 55  1  0  0  0  0
M  CHG  1  12   1
M  CHG  1  18   1
M  END
> <s_m_source_file>
AV-unprocessed.smi

> <i_m_source_file_index>
1005

> <i_lp_mmshare_version>
43012

> <i_f3d_flags>
0

> <s_epik_input>
W0NIM11jKFtjSF0xKWMoW0NIM10pW2NIXWMoYzEyKW4oW2NIXW4yKVtDSDJdW0NASF0oW09IXSlbQ0gyXU4zW0NIMl1bQ0gyXU9bQ0BIXShbQ0gyXTMpW0NIMl1OKFtDSDNdKVtDSDNd

> <s_epik_cmdline>
J2VwaWtfcHl0aG9uJywgJy1waCcsICc3LjAnLCAnLXRuJywgJzgnLCAnLW1hJywgJzIwMCcsICctbWV0YWxfYmluZGluZycsICctaW1hZScsICc8aW5maWxlLm1hZT4nLCAnLW9tYWUnLCAnPG91dGZpbGUubWFlPic=

> <r_epik_Ionization_Penalty>
1.0968

> <r_epik_Ionization_Penalty_Charging>
1.0096

> <r_epik_Ionization_Penalty_Neutral>
0.0871956

> <r_epik_State_Penalty>
1.31185

> <r_epik_Charging_Adjusted_Penalty>
2.32145

> <i_epik_Tot_Q>
2

> <i_epik_Tot_abs_Q>
2

> <r_epik_Metal_State_Penalty>
1.22442

> <b_epik_Metal_Only>
0

> <s_lp_Force_Field>
OPLS_2005

> <r_lp_Energy>
34.2577

> <b_lp_Chiralities_Consistent>
1

> <s_lp_Variant>
AV-unprocessed.smi:1005-10

> <Gold.Version>
5.8.1

> <Gold.Id.Protein>
6NUR|6NUR_protein|mol2

> <Gold.PLP.Fitness>
48.7967

> <Gold.PLP.PLP>
-38.2286

> <Gold.PLP.part.hbond>
-3.0000

> <Gold.PLP.part.metal>
0.0000

> <Gold.PLP.part.buried>
-4.6692

> <Gold.PLP.part.nonpolar>
-29.6297

> <Gold.PLP.part.repulsive>
0.0000

> <Gold.PLP.ligand.clash>
0.0000

> <Gold.PLP.ligand.torsion>
0.7509

> <Gold.PLP.Chemscore.Hbond>
4.0000

> <Gold.PLP.Chemscore.CHOScore>
0.0000

> <Gold.PLP.Chemscore.Metal>
0.0000

> <Gold.Chemscore.Hbonds>
donor molecule, donor type, donor heavy atom, donor atom, acceptor molecule, acceptor atom, score
      L1  H    10    34       P1  8028  1.00
      L1  H    18    56       P1  7948  2.00
      P1  H  7997  8008       L1     5  0.86

> <Gold.PLP.Chemscore.Internal.Correction>
0.0699

> <Gold.Rescore>
     Score         DG    S(hbond)    S(metal)    S(lipo)     H(rot)  DE(clash)    DE(int)     intcor
     18.83     -19.91       2.63        0.00     102.62       2.48       0.40       0.68       ----

> <Gold.Chemscore.Fitness>
18.8258

> <Gold.Chemscore.DG>
-19.9114

> <Gold.Chemscore.ZeroCoef>
-5.4800

> <Gold.Chemscore.Hbond>
2.6280

> <Gold.Chemscore.Metal>
0.0000

> <Gold.Chemscore.Lipo>
102.6168

> <Gold.Chemscore.Internal_Hbond>
0.0000

> <Gold.Chemscore.DEClash>
0.4015

> <Gold.Chemscore.DEInternal>
0.6841

> <Gold.Chemscore.Rot>
2.4814

> <Gold.Chemscore.Internal.Correction>
   9.000000E+99

> <Gold.Chemscore.Hbonds>
donor molecule, donor type, donor heavy atom, donor atom, acceptor molecule, acceptor atom, score
      L1  H    10    34       P1  8028  0.70
      L1  H    18    56       P1  7948  0.99
      P1  H  7997  8008       L1     5  0.28

> <Gold.Chemscore.Hbond.Weighted>
-8.7776

> <Gold.Chemscore.Metal.Weighted>
-0.0000

> <Gold.Chemscore.Lipo.Weighted>
-12.0062

> <Gold.Chemscore.Internal_Hbond.Weighted>
0.0000

> <Gold.Chemscore.DEClash.Weighted>
0.4015

> <Gold.Chemscore.DEInternal.Weighted>
0.6841

> <Gold.Chemscore.Rot.Weighted>
6.3524

> <Gold.Chemscore.Internal.Correction.Weighted>
   9.000000E+99

> <Gold.Protein.RotatedTorsions>
[ 6907 6896 6895 6894 ] final -111.13 input  -60.11 | X-H torsion
[ 7974 7965 7964 7962 ] final   76.30 input  175.53 | X-H torsion
[ 8008 7997 7996 7995 ] final  -54.01 input   59.86 | X-H torsion
[ 10167 10162 10161 10158 ] final   56.63 input  -65.29 | X-H torsion
[ 10718 10713 10712 10709 ] final  157.90 input   66.30 | X-H torsion
[ 10763 10752 10751 10750 ] final -155.89 input  -60.55 | X-H torsion
[ 11005 11000 10999 10996 ] final   68.43 input  -57.11 | X-H torsion

> <Gold.Protein.ActiveResidues>
 VAL166  LYS551  ARG553  GLY616  TRP617  ASP618  TYR619  PRO620  LYS621  CYS622 
 ASP623  PHE694  ASN695  SER759  ASP760  ASP761  ALA762  ILE779  LEU786  VAL792 
 PHE793  MET794  SER795  GLU796  ALA797  LYS798  CYS799  TRP800  GLU811  SER814 

> <Gold.Protein.RotatedAtoms>
  150.7670  133.9280  159.3418 H   0  0  0  0  0  0  0  0  0  0  0  0  # atno 6907 bound_to 6896
  151.7176  135.0899  160.0288 H   0  0  0  0  0  0  0  0  0  0  0  0  # atno 6908 bound_to 6896
  152.3670  133.6332  159.6094 H   0  0  0  0  0  0  0  0  0  0  0  0  # atno 6909 bound_to 6896
  145.7046  139.2594  143.1685 H   0  0  0  0  0  0  0  0  0  0  0  0  # atno 7974 bound_to 7965
  154.4150  140.1186  156.5247 H   0  0  0  0  0  0  0  0  0  0  0  0  # atno 8008 bound_to 7997
  155.6667  140.3496  155.4783 H   0  0  0  0  0  0  0  0  0  0  0  0  # atno 8009 bound_to 7997
  155.9668  140.1133  157.0837 H   0  0  0  0  0  0  0  0  0  0  0  0  # atno 8010 bound_to 7997
  140.2067  144.3932  150.6506 H   0  0  0  0  0  0  0  0  0  0  0  0  # atno 10167 bound_to 10162
  157.1852  131.0641  151.2110 H   0  0  0  0  0  0  0  0  0  0  0  0  # atno 10718 bound_to 10713
  154.7754  135.3158  154.8103 H   0  0  0  0  0  0  0  0  0  0  0  0  # atno 10763 bound_to 10752
  153.8828  135.6833  153.4770 H   0  0  0  0  0  0  0  0  0  0  0  0  # atno 10764 bound_to 10752
  153.1376  135.4753  154.9383 H   0  0  0  0  0  0  0  0  0  0  0  0  # atno 10765 bound_to 10752
  139.9712  134.6897  156.0443 H   0  0  0  0  0  0  0  0  0  0  0  0  # atno 11005 bound_to 11000
  146.0767  140.7809  142.9661 LP  0  0  0  0  0  0  0  0  0  0  0  0  # atno 17320 bound_to 7965
  144.6959  140.3426  143.7196 LP  0  0  0  0  0  0  0  0  0  0  0  0  # atno 17321 bound_to 7965
  140.6352  143.2194  151.6409 LP  0  0  0  0  0  0  0  0  0  0  0  0  # atno 17342 bound_to 10162
  139.5196  144.3249  152.0878 LP  0  0  0  0  0  0  0  0  0  0  0  0  # atno 17343 bound_to 10162
  157.3914  130.7284  149.6700 LP  0  0  0  0  0  0  0  0  0  0  0  0  # atno 17370 bound_to 10713
  155.9719  130.4145  150.4137 LP  0  0  0  0  0  0  0  0  0  0  0  0  # atno 17371 bound_to 10713
  141.1391  133.6568  156.3679 LP  0  0  0  0  0  0  0  0  0  0  0  0  # atno 17394 bound_to 11000
  140.5290  134.6231  157.5343 LP  0  0  0  0  0  0  0  0  0  0  0  0  # atno 17395 bound_to 11000

$$$$
