AV-unprocessed.smi:2358|AV-procd|sdf|9406|dock5
  -GOLD-   2272013 43D 1   1.00000     0.00000
 Structure written by MMmdl.
 46 48  0  0  0  0  0  0  0  0  2 V2000
  145.3294  137.7289  158.3626 C   0  0  0  0  0  0  0  0  0  0  0  0
  146.5071  137.2001  159.1554 C   0  0  0  0  0  0  0  0  0  0  0  0
  146.3197  136.7083  160.4625 C   0  0  0  0  0  0  0  0  0  0  0  0
  147.4178  136.2224  161.1982 C   0  0  0  0  0  0  0  0  0  0  0  0
  147.2105  135.6946  162.6028 C   0  0  0  0  0  0  0  0  0  0  0  0
  148.7039  136.2284  160.6210 C   0  0  0  0  0  0  0  0  0  0  0  0
  148.9092  136.7175  159.3149 C   0  0  0  0  0  0  0  0  0  0  0  0
  150.2006  136.6883  158.8333 O   0  0  0  0  0  0  0  0  0  0  0  0
  150.4902  137.3965  157.6351 C   0  0  0  0  0  0  0  0  0  0  0  0
  151.9788  137.2093  157.2945 C   0  0  1  0  0  0  0  0  0  0  0  0
  152.0972  135.9617  156.6394 O   0  0  0  0  0  0  0  0  0  0  0  0
  152.4960  138.3056  156.3357 C   0  0  0  0  0  0  0  0  0  0  0  0
  152.1031  139.6488  156.7793 N   0  0  0  0  0  0  0  0  0  0  0  0
  152.6007  140.0009  158.0220 N   0  0  0  0  0  0  0  0  0  0  0  0
  152.3477  141.1589  158.5391 C   0  0  0  0  0  0  0  0  0  0  0  0
  152.8782  141.5219  159.8442 N   0  0  0  0  0  0  0  0  0  0  0  0
  152.4231  142.5138  160.6776 C   0  0  0  0  0  0  0  0  0  0  0  0
  153.2258  142.4840  161.7888 C   0  0  0  0  0  0  0  0  0  0  0  0
  154.1336  141.4782  161.5870 N   0  3  0  0  0  0  0  0  0  0  0  0
  153.9242  140.8899  160.4037 C   0  0  0  0  0  0  0  0  0  0  0  0
  151.5208  142.1106  157.8046 C   0  0  0  0  0  0  0  0  0  0  0  0
  151.0450  141.7583  156.5908 C   0  0  0  0  0  0  0  0  0  0  0  0
  151.3326  140.4560  155.9936 C   0  0  0  0  0  0  0  0  0  0  0  0
  150.9235  140.1195  154.8833 O   0  0  0  0  0  0  0  0  0  0  0  0
  147.7963  137.2056  158.5847 C   0  0  0  0  0  0  0  0  0  0  0  0
  144.3825  137.4214  158.8074 H   0  0  0  0  0  0  0  0  0  0  0  0
  145.3589  137.3551  157.3388 H   0  0  0  0  0  0  0  0  0  0  0  0
  145.3561  138.8182  158.3318 H   0  0  0  0  0  0  0  0  0  0  0  0
  145.3334  136.7036  160.9036 H   0  0  0  0  0  0  0  0  0  0  0  0
  148.1614  135.5443  163.1150 H   0  0  0  0  0  0  0  0  0  0  0  0
  146.6833  134.7408  162.5729 H   0  0  0  0  0  0  0  0  0  0  0  0
  146.6175  136.3969  163.1894 H   0  0  0  0  0  0  0  0  0  0  0  0
  149.5470  135.8546  161.1837 H   0  0  0  0  0  0  0  0  0  0  0  0
  149.8560  137.0702  156.8085 H   0  0  0  0  0  0  0  0  0  0  0  0
  150.2882  138.4538  157.8131 H   0  0  0  0  0  0  0  0  0  0  0  0
  152.5641  137.2068  158.2153 H   0  0  0  0  0  0  0  0  0  0  0  0
  151.2426  135.5598  156.5981 H   0  0  0  0  0  0  0  0  0  0  0  0
  153.5741  138.2226  156.1828 H   0  0  0  0  0  0  0  0  0  0  0  0
  152.0683  138.1530  155.3430 H   0  0  0  0  0  0  0  0  0  0  0  0
  151.5862  143.1514  160.4300 H   0  0  0  0  0  0  0  0  0  0  0  0
  153.2190  143.0875  162.6849 H   0  0  0  0  0  0  0  0  0  0  0  0
  154.5035  140.0730  160.0159 H   0  0  0  0  0  0  0  0  0  0  0  0
  151.2732  143.0845  158.1931 H   0  0  0  0  0  0  0  0  0  0  0  0
  150.4320  142.4585  156.0425 H   0  0  0  0  0  0  0  0  0  0  0  0
  147.9076  137.5909  157.5825 H   0  0  0  0  0  0  0  0  0  0  0  0
  154.8611  141.2151  162.2400 H   0  0  0  0  0  0  0  0  0  0  0  0
  1  2  1  0  0  0  0
  1 26  1  0  0  0  0
  1 27  1  0  0  0  0
  1 28  1  0  0  0  0
  2 25  1  0  0  0  0
  2  3  2  0  0  0  0
  3  4  1  0  0  0  0
  3 29  1  0  0  0  0
  4  5  1  0  0  0  0
  4  6  2  0  0  0  0
  5 30  1  0  0  0  0
  5 31  1  0  0  0  0
  5 32  1  0  0  0  0
  6  7  1  0  0  0  0
  6 33  1  0  0  0  0
  7  8  1  0  0  0  0
  7 25  2  0  0  0  0
  8  9  1  0  0  0  0
  9 10  1  0  0  0  0
  9 34  1  0  0  0  0
  9 35  1  0  0  0  0
 10 11  1  0  0  0  0
 10 12  1  0  0  0  0
 10 36  1  0  0  0  0
 11 37  1  0  0  0  0
 12 13  1  0  0  0  0
 12 38  1  0  0  0  0
 12 39  1  0  0  0  0
 13 23  1  0  0  0  0
 13 14  1  0  0  0  0
 14 15  2  0  0  0  0
 15 16  1  0  0  0  0
 15 21  1  0  0  0  0
 16 20  1  0  0  0  0
 16 17  1  0  0  0  0
 17 18  2  0  0  0  0
 17 40  1  0  0  0  0
 18 19  1  0  0  0  0
 18 41  1  0  0  0  0
 19 20  2  0  0  0  0
 19 46  1  0  0  0  0
 20 42  1  0  0  0  0
 21 22  2  0  0  0  0
 21 43  1  0  0  0  0
 22 23  1  0  0  0  0
 22 44  1  0  0  0  0
 23 24  2  0  0  0  0
 25 45  1  0  0  0  0
M  CHG  1  19   1
M  END
> <s_m_source_file>
AV-unprocessed.smi

> <i_m_source_file_index>
2358

> <i_lp_mmshare_version>
43012

> <i_f3d_flags>
0

> <s_epik_input>
W0NIM11jMVtjSF1jKFtDSDNdKVtjSF1jKFtjSF0xKU9bQ0gyXVtDQEhdKFtPSF0pW0NIMl1uMm5jKFtjSF1bY0hdYzI9TyktbjNbY0hdW2NIXW5bY0hdMw==

> <s_epik_cmdline>
J2VwaWtfcHl0aG9uJywgJy1waCcsICc3LjAnLCAnLXRuJywgJzgnLCAnLW1hJywgJzIwMCcsICctbWV0YWxfYmluZGluZycsICctaW1hZScsICc8aW5maWxlLm1hZT4nLCAnLW9tYWUnLCAnPG91dGZpbGUubWFlPic=

> <r_lp_tautomer_probability>
1

> <r_epik_Ionization_Penalty>
1.66053

> <r_epik_Ionization_Penalty_Charging>
2.42216e-09

> <r_epik_Ionization_Penalty_Neutral>
1.66053

> <r_epik_State_Penalty>
1.76336

> <r_epik_Charging_Adjusted_Penalty>
1.76336

> <i_epik_Tot_Q>
1

> <i_epik_Tot_abs_Q>
1

> <r_epik_Metal_State_Penalty>
1.79856

> <b_epik_Metal_Only>
0

> <s_lp_Force_Field>
OPLS_2005

> <r_lp_Energy>
39.182

> <b_lp_Chiralities_Consistent>
1

> <s_lp_Variant>
AV-unprocessed.smi:2358-4

> <Gold.Version>
5.8.1

> <Gold.Id.Protein>
6NUR|6NUR_protein|mol2

> <Gold.PLP.Fitness>
53.8391

> <Gold.PLP.PLP>
-45.1385

> <Gold.PLP.part.hbond>
-4.8023

> <Gold.PLP.part.metal>
0.0000

> <Gold.PLP.part.buried>
-6.7173

> <Gold.PLP.part.nonpolar>
-33.7669

> <Gold.PLP.part.repulsive>
0.0547

> <Gold.PLP.ligand.clash>
0.0000

> <Gold.PLP.ligand.torsion>
0.5853

> <Gold.PLP.Chemscore.Hbond>
3.2515

> <Gold.PLP.Chemscore.CHOScore>
0.0000

> <Gold.PLP.Chemscore.Metal>
0.0000

> <Gold.Chemscore.Hbonds>
donor molecule, donor type, donor heavy atom, donor atom, acceptor molecule, acceptor atom, score
      P1  H  6896  6907       L1     8  0.86
      P1  H  7989  7998       L1    24  1.00
      P1  H  7997  8010       L1    14  0.14
      P1  H 10752 10764       L1    11  1.00

> <Gold.PLP.Chemscore.Internal.Correction>
0.1167

> <Gold.Rescore>
     Score         DG    S(hbond)    S(metal)    S(lipo)     H(rot)  DE(clash)    DE(int)     intcor
     16.49     -17.10       2.46        0.00      87.20       2.65       0.08       0.54       ----

> <Gold.Chemscore.Fitness>
16.4861

> <Gold.Chemscore.DG>
-17.1026

> <Gold.Chemscore.ZeroCoef>
-5.4800

> <Gold.Chemscore.Hbond>
2.4593

> <Gold.Chemscore.Metal>
0.0000

> <Gold.Chemscore.Lipo>
87.1956

> <Gold.Chemscore.Internal_Hbond>
0.0000

> <Gold.Chemscore.DEClash>
0.0751

> <Gold.Chemscore.DEInternal>
0.5414

> <Gold.Chemscore.Rot>
2.6537

> <Gold.Chemscore.Internal.Correction>
   9.000000E+99

> <Gold.Chemscore.Hbonds>
donor molecule, donor type, donor heavy atom, donor atom, acceptor molecule, acceptor atom, score
      P1  H  6896  6907       L1     8  0.29
      P1  H  7989  7998       L1    24  0.96
      P1  H 10752 10764       L1    11  0.81

> <Gold.Chemscore.Hbond.Weighted>
-8.2142

> <Gold.Chemscore.Metal.Weighted>
-0.0000

> <Gold.Chemscore.Lipo.Weighted>
-10.2019

> <Gold.Chemscore.Internal_Hbond.Weighted>
0.0000

> <Gold.Chemscore.DEClash.Weighted>
0.0751

> <Gold.Chemscore.DEInternal.Weighted>
0.5414

> <Gold.Chemscore.Rot.Weighted>
6.7935

> <Gold.Chemscore.Internal.Correction.Weighted>
   9.000000E+99

> <Gold.Protein.RotatedTorsions>
[ 6907 6896 6895 6894 ] final  -40.07 input  -60.11 | X-H torsion
[ 7974 7965 7964 7962 ] final  -97.49 input  175.53 | X-H torsion
[ 8008 7997 7996 7995 ] final   31.92 input   59.86 | X-H torsion
[ 10167 10162 10161 10158 ] final  -51.08 input  -65.29 | X-H torsion
[ 10718 10713 10712 10709 ] final  -96.01 input   66.30 | X-H torsion
[ 10763 10752 10751 10750 ] final  -23.27 input  -60.55 | X-H torsion
[ 11005 11000 10999 10996 ] final  154.32 input  -57.11 | X-H torsion

> <Gold.Protein.ActiveResidues>
 VAL166  LYS551  ARG553  GLY616  TRP617  ASP618  TYR619  PRO620  LYS621  CYS622 
 ASP623  PHE694  ASN695  SER759  ASP760  ASP761  ALA762  ILE779  LEU786  VAL792 
 PHE793  MET794  SER795  GLU796  ALA797  LYS798  CYS799  TRP800  GLU811  SER814 

> <Gold.Protein.RotatedAtoms>
  150.9828  134.9179  159.7853 H   0  0  0  0  0  0  0  0  0  0  0  0  # atno 6907 bound_to 6896
  152.5227  134.3387  159.9219 H   0  0  0  0  0  0  0  0  0  0  0  0  # atno 6908 bound_to 6896
  151.3394  133.3927  159.2704 H   0  0  0  0  0  0  0  0  0  0  0  0  # atno 6909 bound_to 6896
  145.3331  140.9445  143.2651 H   0  0  0  0  0  0  0  0  0  0  0  0  # atno 7974 bound_to 7965
  155.1141  140.3242  155.4514 H   0  0  0  0  0  0  0  0  0  0  0  0  # atno 8008 bound_to 7997
  156.2682  140.2039  156.6213 H   0  0  0  0  0  0  0  0  0  0  0  0  # atno 8009 bound_to 7997
  154.6733  140.0534  157.0176 H   0  0  0  0  0  0  0  0  0  0  0  0  # atno 8010 bound_to 7997
  140.6606  143.2633  151.4451 H   0  0  0  0  0  0  0  0  0  0  0  0  # atno 10167 bound_to 10162
  156.0054  130.5133  150.6162 H   0  0  0  0  0  0  0  0  0  0  0  0  # atno 10718 bound_to 10713
  153.6651  135.6974  153.5165 H   0  0  0  0  0  0  0  0  0  0  0  0  # atno 10763 bound_to 10752
  153.2601  135.4247  155.0884 H   0  0  0  0  0  0  0  0  0  0  0  0  # atno 10764 bound_to 10752
  154.8441  135.3553  154.6196 H   0  0  0  0  0  0  0  0  0  0  0  0  # atno 10765 bound_to 10752
  140.1478  134.8695  157.2416 H   0  0  0  0  0  0  0  0  0  0  0  0  # atno 11005 bound_to 11000
  144.8849  139.4853  143.6705 LP  0  0  0  0  0  0  0  0  0  0  0  0  # atno 17320 bound_to 7965
  146.3038  139.7511  142.9072 LP  0  0  0  0  0  0  0  0  0  0  0  0  # atno 17321 bound_to 7965
  139.5839  144.1648  152.2004 LP  0  0  0  0  0  0  0  0  0  0  0  0  # atno 17342 bound_to 10162
  140.0981  144.5563  150.7008 LP  0  0  0  0  0  0  0  0  0  0  0  0  # atno 17343 bound_to 10162
  157.3986  131.0806  151.1329 LP  0  0  0  0  0  0  0  0  0  0  0  0  # atno 17370 bound_to 10713
  157.1998  130.6389  149.5734 LP  0  0  0  0  0  0  0  0  0  0  0  0  # atno 17371 bound_to 10713
  140.2642  134.3536  155.7396 LP  0  0  0  0  0  0  0  0  0  0  0  0  # atno 17394 bound_to 11000
  141.2195  133.7386  156.9125 LP  0  0  0  0  0  0  0  0  0  0  0  0  # atno 17395 bound_to 11000

$$$$
