AV-unprocessed.smi:290|AV-procd|sdf|2215|dock8
  -GOLD-   2262022 53D 1   1.00000     0.00000
 Structure written by MMmdl.
 59 62  0  0  0  0  0  0  0  0  2 V2000
  151.9614  144.4031  157.5349 C   0  0  0  0  0  0  0  0  0  0  0  0
  152.0335  143.5674  158.8217 C   0  0  2  0  0  0  0  0  0  0  0  0
  153.3850  143.4005  159.2420 O   0  0  0  0  0  0  0  0  0  0  0  0
  153.5552  142.1265  159.8577 C   0  0  0  0  0  0  0  0  0  0  0  0
  152.1572  141.5220  159.9524 C   0  0  0  0  0  0  0  0  0  0  0  0
  151.4442  142.1457  158.7584 C   0  0  1  0  0  0  0  0  0  0  0  0
  150.0527  142.1779  159.0175 O   0  0  0  0  0  0  0  0  0  0  0  0
  151.7046  141.4108  157.4154 C   0  0  0  0  0  0  0  0  0  0  0  0
  151.1852  140.0528  157.3795 N   0  0  0  0  0  0  0  0  0  0  0  0
  150.8743  139.2579  158.4598 C   0  0  0  0  0  0  0  0  0  0  0  0
  150.4203  138.0702  158.1649 N   0  0  0  0  0  0  0  0  0  0  0  0
  150.4152  138.0458  156.7754 C   0  0  0  0  0  0  0  0  0  0  0  0
  150.0504  137.0781  155.7973 C   0  0  0  0  0  0  0  0  0  0  0  0
  149.5816  135.8422  156.0712 N   0  0  0  0  0  0  0  0  0  0  0  0
  150.3602  134.7524  155.4867 C   0  0  0  0  0  0  0  0  0  0  0  0
  149.3636  133.6341  155.1732 C   0  0  0  0  0  0  0  0  0  0  0  0
  148.1035  134.4425  154.8548 C   0  0  1  0  0  0  0  0  0  0  0  0
  146.8042  133.7078  154.7511 N   0  3  1  0  0  0  0  0  0  0  0  0
  145.6670  134.6395  154.5467 C   0  0  0  0  0  0  0  0  0  0  0  0
  146.7852  132.5677  153.7916 C   0  0  0  0  0  0  0  0  0  0  0  0
  146.6368  133.0154  152.3262 C   0  0  0  0  0  0  0  0  0  0  0  0
  146.4839  131.8916  151.4857 O   0  0  0  0  0  0  0  0  0  0  0  0
  148.1525  135.6121  155.8586 C   0  0  1  0  0  0  0  0  0  0  0  0
  147.4675  135.3792  157.2152 C   0  0  0  0  0  0  0  0  0  0  0  0
  150.1636  137.4179  154.4906 N   0  0  0  0  0  0  0  0  0  0  0  0
  150.6201  138.6280  154.1530 C   0  0  0  0  0  0  0  0  0  0  0  0
  151.0063  139.6269  154.9500 N   0  0  0  0  0  0  0  0  0  0  0  0
  150.8838  139.2887  156.2659 C   0  0  0  0  0  0  0  0  0  0  0  0
  148.2860  134.9056  153.8833 H   0  0  0  0  0  0  0  0  0  0  0  0
  147.6778  136.4827  155.4034 H   0  0  0  0  0  0  0  0  0  0  0  0
  150.9318  144.5059  157.1914 H   0  0  0  0  0  0  0  0  0  0  0  0
  152.5448  143.9575  156.7293 H   0  0  0  0  0  0  0  0  0  0  0  0
  152.3551  145.4053  157.7052 H   0  0  0  0  0  0  0  0  0  0  0  0
  151.5347  144.1191  159.6209 H   0  0  0  0  0  0  0  0  0  0  0  0
  154.1971  141.5145  159.2232 H   0  0  0  0  0  0  0  0  0  0  0  0
  154.0325  142.2170  160.8337 H   0  0  0  0  0  0  0  0  0  0  0  0
  152.1602  140.4328  159.9679 H   0  0  0  0  0  0  0  0  0  0  0  0
  151.6937  141.8545  160.8830 H   0  0  0  0  0  0  0  0  0  0  0  0
  149.5966  142.2543  158.1935 H   0  0  0  0  0  0  0  0  0  0  0  0
  151.2567  141.9610  156.5869 H   0  0  0  0  0  0  0  0  0  0  0  0
  152.7744  141.3697  157.2073 H   0  0  0  0  0  0  0  0  0  0  0  0
  150.9999  139.5884  159.4806 H   0  0  0  0  0  0  0  0  0  0  0  0
  150.8523  135.0831  154.5704 H   0  0  0  0  0  0  0  0  0  0  0  0
  151.1344  134.4152  156.1765 H   0  0  0  0  0  0  0  0  0  0  0  0
  149.6872  132.9999  154.3474 H   0  0  0  0  0  0  0  0  0  0  0  0
  149.2446  133.0096  156.0579 H   0  0  0  0  0  0  0  0  0  0  0  0
  145.7468  135.1432  153.5824 H   0  0  0  0  0  0  0  0  0  0  0  0
  145.6433  135.4009  155.3273 H   0  0  0  0  0  0  0  0  0  0  0  0
  144.7072  134.1273  154.5849 H   0  0  0  0  0  0  0  0  0  0  0  0
  147.6963  131.9798  153.9111 H   0  0  0  0  0  0  0  0  0  0  0  0
  145.9594  131.8935  154.0097 H   0  0  0  0  0  0  0  0  0  0  0  0
  145.8034  133.7013  152.1805 H   0  0  0  0  0  0  0  0  0  0  0  0
  147.5350  133.5499  152.0156 H   0  0  0  0  0  0  0  0  0  0  0  0
  147.3274  131.6713  151.1195 H   0  0  0  0  0  0  0  0  0  0  0  0
  146.4012  135.1900  157.0987 H   0  0  0  0  0  0  0  0  0  0  0  0
  147.5681  136.2604  157.8496 H   0  0  0  0  0  0  0  0  0  0  0  0
  147.9106  134.5425  157.7550 H   0  0  0  0  0  0  0  0  0  0  0  0
  150.6864  138.8236  153.0928 H   0  0  0  0  0  0  0  0  0  0  0  0
  146.6590  133.3003  155.6644 H   0  0  0  0  0  0  0  0  0  0  0  0
  1  2  1  0  0  0  0
  1 31  1  0  0  0  0
  1 32  1  0  0  0  0
  1 33  1  0  0  0  0
  2  6  1  0  0  0  0
  2  3  1  0  0  0  0
  2 34  1  0  0  0  0
  3  4  1  0  0  0  0
  4  5  1  0  0  0  0
  4 35  1  0  0  0  0
  4 36  1  0  0  0  0
  5  6  1  0  0  0  0
  5 37  1  0  0  0  0
  5 38  1  0  0  0  0
  6  7  1  0  0  0  0
  6  8  1  0  0  0  0
  7 39  1  0  0  0  0
  8  9  1  0  0  0  0
  8 40  1  0  0  0  0
  8 41  1  0  0  0  0
  9 28  1  0  0  0  0
  9 10  1  0  0  0  0
 10 11  2  0  0  0  0
 10 42  1  0  0  0  0
 11 12  1  0  0  0  0
 12 28  2  0  0  0  0
 12 13  1  0  0  0  0
 13 14  1  0  0  0  0
 13 25  2  0  0  0  0
 14 23  1  0  0  0  0
 14 15  1  0  0  0  0
 15 16  1  0  0  0  0
 15 43  1  0  0  0  0
 15 44  1  0  0  0  0
 16 17  1  0  0  0  0
 16 45  1  0  0  0  0
 16 46  1  0  0  0  0
 17 29  1  0  0  0  0
 17 18  1  0  0  0  0
 17 23  1  0  0  0  0
 18 19  1  0  0  0  0
 18 20  1  0  0  0  0
 18 59  1  0  0  0  0
 19 47  1  0  0  0  0
 19 48  1  0  0  0  0
 19 49  1  0  0  0  0
 20 21  1  0  0  0  0
 20 50  1  0  0  0  0
 20 51  1  0  0  0  0
 21 22  1  0  0  0  0
 21 52  1  0  0  0  0
 21 53  1  0  0  0  0
 22 54  1  0  0  0  0
 23 30  1  0  0  0  0
 23 24  1  0  0  0  0
 24 55  1  0  0  0  0
 24 56  1  0  0  0  0
 24 57  1  0  0  0  0
 25 26  1  0  0  0  0
 26 27  2  0  0  0  0
 26 58  1  0  0  0  0
 27 28  1  0  0  0  0
M  CHG  1  18   1
M  END
> <s_m_source_file>
AV-unprocessed.smi

> <i_m_source_file_index>
290

> <i_lp_mmshare_version>
43012

> <i_f3d_flags>
0

> <s_epik_input>
W0NIMl0xW0NIMl1PW0NAQEhdKFtDSDNdKVtDQEBdMShbT0hdKVtDSDJdbihbY0hdbjIpYyhjMjMpbltjSF1uYzNONFtDSDJdW0NIMl1bQ0BIXShbQ0BIXTRbQ0gzXSlOKFtDSDNdKVtDSDJdW0NIMl1bT0hd

> <s_epik_cmdline>
J2VwaWtfcHl0aG9uJywgJy1waCcsICc3LjAnLCAnLXRuJywgJzgnLCAnLW1hJywgJzIwMCcsICctbWV0YWxfYmluZGluZycsICctaW1hZScsICc8aW5maWxlLm1hZT4nLCAnLW9tYWUnLCAnPG91dGZpbGUubWFlPic=

> <r_lp_tautomer_probability>
1

> <r_epik_Ionization_Penalty>
0.0036983

> <r_epik_Ionization_Penalty_Charging>
0.0032725

> <r_epik_Ionization_Penalty_Neutral>
0.000425798

> <r_epik_State_Penalty>
-0

> <r_epik_Charging_Adjusted_Penalty>
0.0032725

> <i_epik_Tot_Q>
1

> <i_epik_Tot_abs_Q>
1

> <r_epik_Metal_State_Penalty>
-0

> <b_epik_Metal_Only>
0

> <s_lp_Force_Field>
OPLS_2005

> <r_lp_Energy>
65.3188

> <b_lp_Chiralities_Consistent>
1

> <s_lp_Variant>
AV-unprocessed.smi:290-1

> <Gold.Version>
5.8.1

> <Gold.Id.Protein>
6NUR|6NUR_protein|mol2

> <Gold.PLP.Fitness>
47.0216

> <Gold.PLP.PLP>
-39.5222

> <Gold.PLP.part.hbond>
-2.8895

> <Gold.PLP.part.metal>
0.0000

> <Gold.PLP.part.buried>
-8.8098

> <Gold.PLP.part.nonpolar>
-28.9904

> <Gold.PLP.part.repulsive>
0.5051

> <Gold.PLP.ligand.clash>
0.0000

> <Gold.PLP.ligand.torsion>
0.6266

> <Gold.PLP.Chemscore.Hbond>
1.8000

> <Gold.PLP.Chemscore.CHOScore>
0.9988

> <Gold.PLP.Chemscore.Metal>
0.0000

> <Gold.Chemscore.Hbonds>
donor molecule, donor type, donor heavy atom, donor atom, acceptor molecule, acceptor atom, score
      L1  H    22    54       P1 10747  1.00
      P1  H  7989  7998       L1    27  0.85
      L1  C    26    58       P1  7957  1.00

> <Gold.PLP.Chemscore.Internal.Correction>
0.3562

> <Gold.Rescore>
     Score         DG    S(hbond)    S(metal)    S(lipo)     H(rot)  DE(clash)    DE(int)     intcor
      9.45     -11.38       1.33        0.00      92.77       3.67       0.19       1.73       ----

> <Gold.Chemscore.Fitness>
9.4539

> <Gold.Chemscore.DG>
-11.3775

> <Gold.Chemscore.ZeroCoef>
-5.4800

> <Gold.Chemscore.Hbond>
1.3255

> <Gold.Chemscore.Metal>
0.0000

> <Gold.Chemscore.Lipo>
92.7741

> <Gold.Chemscore.Internal_Hbond>
0.0000

> <Gold.Chemscore.DEClash>
0.1923

> <Gold.Chemscore.DEInternal>
1.7313

> <Gold.Chemscore.Rot>
3.6658

> <Gold.Chemscore.Internal.Correction>
   9.000000E+99

> <Gold.Chemscore.Hbonds>
donor molecule, donor type, donor heavy atom, donor atom, acceptor molecule, acceptor atom, score
      L1  H    22    54       P1 10747  0.93
      P1  H  7989  7998       L1    27  0.14

> <Gold.Chemscore.Hbond.Weighted>
-4.4273

> <Gold.Chemscore.Metal.Weighted>
-0.0000

> <Gold.Chemscore.Lipo.Weighted>
-10.8546

> <Gold.Chemscore.Internal_Hbond.Weighted>
0.0000

> <Gold.Chemscore.DEClash.Weighted>
0.1923

> <Gold.Chemscore.DEInternal.Weighted>
1.7313

> <Gold.Chemscore.Rot.Weighted>
9.3844

> <Gold.Chemscore.Internal.Correction.Weighted>
   9.000000E+99

> <Gold.Protein.RotatedTorsions>
[ 6907 6896 6895 6894 ] final  134.05 input  -60.11 | X-H torsion
[ 7974 7965 7964 7962 ] final -111.48 input  175.53 | X-H torsion
[ 8008 7997 7996 7995 ] final   51.38 input   59.86 | X-H torsion
[ 10167 10162 10161 10158 ] final  145.70 input  -65.29 | X-H torsion
[ 10718 10713 10712 10709 ] final   53.44 input   66.30 | X-H torsion
[ 10763 10752 10751 10750 ] final  138.14 input  -60.55 | X-H torsion
[ 11005 11000 10999 10996 ] final -164.69 input  -57.11 | X-H torsion

> <Gold.Protein.ActiveResidues>
 VAL166  LYS551  ARG553  GLY616  TRP617  ASP618  TYR619  PRO620  LYS621  CYS622 
 ASP623  PHE694  ASN695  SER759  ASP760  ASP761  ALA762  ILE779  LEU786  VAL792 
 PHE793  MET794  SER795  GLU796  ALA797  LYS798  CYS799  TRP800  GLU811  SER814 

> <Gold.Protein.RotatedAtoms>
  152.3155  133.5797  159.5708 H   0  0  0  0  0  0  0  0  0  0  0  0  # atno 6907 bound_to 6896
  150.7344  134.0089  159.3672 H   0  0  0  0  0  0  0  0  0  0  0  0  # atno 6908 bound_to 6896
  151.7978  135.0718  160.0447 H   0  0  0  0  0  0  0  0  0  0  0  0  # atno 6909 bound_to 6896
  145.1555  140.8851  143.3621 H   0  0  0  0  0  0  0  0  0  0  0  0  # atno 7974 bound_to 7965
  155.4343  140.3452  155.4283 H   0  0  0  0  0  0  0  0  0  0  0  0  # atno 8008 bound_to 7997
  156.1317  140.1516  156.9085 H   0  0  0  0  0  0  0  0  0  0  0  0  # atno 8009 bound_to 7997
  154.4900  140.0844  156.7553 H   0  0  0  0  0  0  0  0  0  0  0  0  # atno 8010 bound_to 7997
  139.4921  144.5883  151.6733 H   0  0  0  0  0  0  0  0  0  0  0  0  # atno 10167 bound_to 10162
  157.5167  130.8537  149.8504 H   0  0  0  0  0  0  0  0  0  0  0  0  # atno 10718 bound_to 10713
  153.8846  135.3040  155.3446 H   0  0  0  0  0  0  0  0  0  0  0  0  # atno 10763 bound_to 10752
  154.7745  135.4868  153.9719 H   0  0  0  0  0  0  0  0  0  0  0  0  # atno 10764 bound_to 10752
  153.1332  135.6808  153.9242 H   0  0  0  0  0  0  0  0  0  0  0  0  # atno 10765 bound_to 10752
  140.5840  134.5112  157.5183 H   0  0  0  0  0  0  0  0  0  0  0  0  # atno 11005 bound_to 11000
  145.0386  139.3280  143.5988 LP  0  0  0  0  0  0  0  0  0  0  0  0  # atno 17320 bound_to 7965
  146.3489  139.9750  142.8702 LP  0  0  0  0  0  0  0  0  0  0  0  0  # atno 17321 bound_to 7965
  140.5504  144.0435  150.6124 LP  0  0  0  0  0  0  0  0  0  0  0  0  # atno 17342 bound_to 10162
  140.3487  143.2976  152.0510 LP  0  0  0  0  0  0  0  0  0  0  0  0  # atno 17343 bound_to 10162
  156.0325  130.3760  150.1649 LP  0  0  0  0  0  0  0  0  0  0  0  0  # atno 17370 bound_to 10713
  156.9838  130.9872  151.3431 LP  0  0  0  0  0  0  0  0  0  0  0  0  # atno 17371 bound_to 10713
  139.9304  134.7975  156.0947 LP  0  0  0  0  0  0  0  0  0  0  0  0  # atno 17394 bound_to 11000
  141.0978  133.6689  156.2684 LP  0  0  0  0  0  0  0  0  0  0  0  0  # atno 17395 bound_to 11000

$$$$
