AV-unprocessed.smi:221|AV-procd|sdf|1687|dock4
  -GOLD-   2262020123D 1   1.00000     0.00000
 Structure written by MMmdl.
 50 53  0  0  0  0  0  0  0  0  1 V2000
  144.6269  138.5899  160.3214 N   0  0  0  0  0  0  0  0  0  0  0  0
  144.5976  137.3366  160.7854 C   0  0  0  0  0  0  0  0  0  0  0  0
  143.7050  136.5529  160.4689 O   0  0  0  0  0  0  0  0  0  0  0  0
  145.7185  136.8977  161.7506 C   0  0  1  0  0  0  0  0  0  0  0  0
  145.6225  135.4553  162.2694 C   0  0  0  0  0  0  0  0  0  0  0  0
  147.0314  135.1706  162.8030 C   0  0  1  0  0  0  0  0  0  0  0  0
  147.4701  133.9939  162.3543 F   0  0  0  0  0  0  0  0  0  0  0  0
  147.9063  136.3247  162.2840 C   0  0  0  0  0  0  0  0  0  0  0  0
  147.1084  137.0484  161.2988 N   0  0  0  0  0  0  0  0  0  0  0  0
  147.4645  136.7203  160.0292 C   0  0  0  0  0  0  0  0  0  0  0  0
  148.0001  135.5048  159.7383 N   0  0  0  0  0  0  0  0  0  0  0  0
  148.3623  135.2138  158.4854 C   0  0  0  0  0  0  0  0  0  0  0  0
  148.2817  135.9791  157.3945 N   0  0  0  0  0  0  0  0  0  0  0  0
  147.7492  137.2005  157.6850 C   0  0  0  0  0  0  0  0  0  0  0  0
  147.3198  137.6481  158.9653 C   0  0  0  0  0  0  0  0  0  0  0  0
  146.8313  138.9456  158.8802 N   0  0  0  0  0  0  0  0  0  0  0  0
  146.9621  139.2488  157.6174 C   0  0  0  0  0  0  0  0  0  0  0  0
  147.5005  138.2581  156.8277 N   0  0  0  0  0  0  0  0  0  0  0  0
  147.7502  138.3344  155.3992 C   0  0  0  0  0  0  0  0  0  0  0  0
  148.8914  139.3164  155.0362 C   0  0  2  0  0  0  0  0  0  0  0  0
  148.7824  139.8422  153.5840 C   0  0  0  0  0  0  0  0  0  0  0  0
  149.1714  141.1975  153.4942 O   0  0  0  0  0  0  0  0  0  0  0  0
  150.2860  138.7127  155.3399 C   0  0  2  0  0  0  0  0  0  0  0  0
  151.4522  139.6605  155.1186 C   0  0  0  0  0  0  0  0  0  0  0  0
  152.6344  138.7022  155.0264 C   0  0  0  0  0  0  0  0  0  0  0  0
  152.1195  137.5107  154.4435 O   0  0  0  0  0  0  0  0  0  0  0  0
  150.6961  137.5538  154.4247 C   0  0  0  0  0  0  0  0  0  0  0  0
  145.6205  137.5620  162.6112 H   0  0  0  0  0  0  0  0  0  0  0  0
  147.0512  135.1258  163.8922 H   0  0  0  0  0  0  0  0  0  0  0  0
  143.9071  138.9066  159.6883 H   0  0  0  0  0  0  0  0  0  0  0  0
  145.3676  139.2145  160.6055 H   0  0  0  0  0  0  0  0  0  0  0  0
  144.8612  135.3461  163.0423 H   0  0  0  0  0  0  0  0  0  0  0  0
  145.3717  134.7641  161.4632 H   0  0  0  0  0  0  0  0  0  0  0  0
  148.1420  137.0129  163.0966 H   0  0  0  0  0  0  0  0  0  0  0  0
  148.8600  135.9651  161.8914 H   0  0  0  0  0  0  0  0  0  0  0  0
  148.7782  134.2284  158.3366 H   0  0  0  0  0  0  0  0  0  0  0  0
  146.6644  140.2094  157.2223 H   0  0  0  0  0  0  0  0  0  0  0  0
  147.9863  137.3267  155.0577 H   0  0  0  0  0  0  0  0  0  0  0  0
  146.8258  138.6191  154.8953 H   0  0  0  0  0  0  0  0  0  0  0  0
  148.7740  140.1862  155.6845 H   0  0  0  0  0  0  0  0  0  0  0  0
  149.4023  139.2551  152.9066 H   0  0  0  0  0  0  0  0  0  0  0  0
  147.7625  139.7483  153.2121 H   0  0  0  0  0  0  0  0  0  0  0  0
  148.5855  141.7154  154.0248 H   0  0  0  0  0  0  0  0  0  0  0  0
  150.3188  138.3670  156.3746 H   0  0  0  0  0  0  0  0  0  0  0  0
  151.3337  140.1993  154.1773 H   0  0  0  0  0  0  0  0  0  0  0  0
  151.5737  140.3914  155.9184 H   0  0  0  0  0  0  0  0  0  0  0  0
  153.4574  139.1112  154.4401 H   0  0  0  0  0  0  0  0  0  0  0  0
  153.0112  138.4662  156.0224 H   0  0  0  0  0  0  0  0  0  0  0  0
  150.2722  136.6010  154.7430 H   0  0  0  0  0  0  0  0  0  0  0  0
  150.3760  137.7389  153.3984 H   0  0  0  0  0  0  0  0  0  0  0  0
  1  2  1  0  0  0  0
  1 30  1  0  0  0  0
  1 31  1  0  0  0  0
  2  3  2  0  0  0  0
  2  4  1  0  0  0  0
  4 28  1  0  0  0  0
  4  9  1  0  0  0  0
  4  5  1  0  0  0  0
  5  6  1  0  0  0  0
  5 32  1  0  0  0  0
  5 33  1  0  0  0  0
  6 29  1  0  0  0  0
  6  7  1  0  0  0  0
  6  8  1  0  0  0  0
  8  9  1  0  0  0  0
  8 34  1  0  0  0  0
  8 35  1  0  0  0  0
  9 10  1  0  0  0  0
 10 15  1  0  0  0  0
 10 11  2  0  0  0  0
 11 12  1  0  0  0  0
 12 13  2  0  0  0  0
 12 36  1  0  0  0  0
 13 14  1  0  0  0  0
 14 18  1  0  0  0  0
 14 15  2  0  0  0  0
 15 16  1  0  0  0  0
 16 17  2  0  0  0  0
 17 18  1  0  0  0  0
 17 37  1  0  0  0  0
 18 19  1  0  0  0  0
 19 20  1  0  0  0  0
 19 38  1  0  0  0  0
 19 39  1  0  0  0  0
 20 21  1  0  0  0  0
 20 23  1  0  0  0  0
 20 40  1  0  0  0  0
 21 22  1  0  0  0  0
 21 41  1  0  0  0  0
 21 42  1  0  0  0  0
 22 43  1  0  0  0  0
 23 27  1  0  0  0  0
 23 24  1  0  0  0  0
 23 44  1  0  0  0  0
 24 25  1  0  0  0  0
 24 45  1  0  0  0  0
 24 46  1  0  0  0  0
 25 26  1  0  0  0  0
 25 47  1  0  0  0  0
 25 48  1  0  0  0  0
 26 27  1  0  0  0  0
 27 49  1  0  0  0  0
 27 50  1  0  0  0  0
M  END
> <s_m_source_file>
AV-unprocessed.smi

> <i_m_source_file_index>
221

> <i_lp_mmshare_version>
43012

> <i_f3d_flags>
0

> <s_epik_input>
W05IMl1DKD1PKVtDQEBIXTFbQ0gyXVtDQEBIXShGKVtDSDJdTjFjKG5bY0hdbjIpYyhjMjMpbltjSF1uM1tDSDJdW0NASF0oW0NIMl1bT0hdKVtDQEBIXTRbQ0gyXVtDSDJdT1tDSDJdNA==

> <s_epik_cmdline>
J2VwaWtfcHl0aG9uJywgJy1waCcsICc3LjAnLCAnLXRuJywgJzgnLCAnLW1hJywgJzIwMCcsICctbWV0YWxfYmluZGluZycsICctaW1hZScsICc8aW5maWxlLm1hZT4nLCAnLW9tYWUnLCAnPG91dGZpbGUubWFlPic=

> <r_lp_tautomer_probability>
1

> <r_epik_Ionization_Penalty>
0.000818822

> <r_epik_Ionization_Penalty_Charging>
0

> <r_epik_Ionization_Penalty_Neutral>
0.000818822

> <r_epik_State_Penalty>
0.000440551

> <r_epik_Charging_Adjusted_Penalty>
0.000440551

> <i_epik_Tot_Q>
0

> <i_epik_Tot_abs_Q>
0

> <r_epik_Metal_State_Penalty>
-0

> <b_epik_Metal_Only>
0

> <s_lp_Force_Field>
OPLS_2005

> <r_lp_Energy>
55.6777

> <b_lp_Chiralities_Consistent>
1

> <s_lp_Variant>
AV-unprocessed.smi:221-2

> <Gold.Version>
5.8.1

> <Gold.Id.Protein>
6NUR|6NUR_protein|mol2

> <Gold.PLP.Fitness>
42.7050

> <Gold.PLP.PLP>
-37.8435

> <Gold.PLP.part.hbond>
-6.1442

> <Gold.PLP.part.metal>
0.0000

> <Gold.PLP.part.buried>
0.2129

> <Gold.PLP.part.nonpolar>
-32.4504

> <Gold.PLP.part.repulsive>
0.3109

> <Gold.PLP.ligand.clash>
0.0000

> <Gold.PLP.ligand.torsion>
1.4800

> <Gold.PLP.Chemscore.Hbond>
2.5489

> <Gold.PLP.Chemscore.CHOScore>
0.0000

> <Gold.PLP.Chemscore.Metal>
0.0000

> <Gold.Chemscore.Hbonds>
donor molecule, donor type, donor heavy atom, donor atom, acceptor molecule, acceptor atom, score
      P1  H  6934  6947       L1     9  0.70
      P1  H  8011  8017       L1    22  1.00
      P1  H 10752 10764       L1    26  0.80

> <Gold.PLP.Chemscore.Internal.Correction>
0.1750

> <Gold.Rescore>
     Score         DG    S(hbond)    S(metal)    S(lipo)     H(rot)  DE(clash)    DE(int)     intcor
      4.83     -10.08       1.64        0.00      74.03       3.72       1.55       3.71       ----

> <Gold.Chemscore.Fitness>
4.8329

> <Gold.Chemscore.DG>
-10.0837

> <Gold.Chemscore.ZeroCoef>
-5.4800

> <Gold.Chemscore.Hbond>
1.6363

> <Gold.Chemscore.Metal>
0.0000

> <Gold.Chemscore.Lipo>
74.0350

> <Gold.Chemscore.Internal_Hbond>
0.0000

> <Gold.Chemscore.DEClash>
1.5453

> <Gold.Chemscore.DEInternal>
3.7055

> <Gold.Chemscore.Rot>
3.7202

> <Gold.Chemscore.Internal.Correction>
   9.000000E+99

> <Gold.Chemscore.Hbonds>
donor molecule, donor type, donor heavy atom, donor atom, acceptor molecule, acceptor atom, score
      P1  H  6934  6947       L1     9  0.02
      P1  H  8011  8017       L1    22  0.33
      P1  H 10752 10764       L1    26  0.70

> <Gold.Chemscore.Hbond.Weighted>
-5.4654

> <Gold.Chemscore.Metal.Weighted>
-0.0000

> <Gold.Chemscore.Lipo.Weighted>
-8.6621

> <Gold.Chemscore.Internal_Hbond.Weighted>
0.0000

> <Gold.Chemscore.DEClash.Weighted>
1.5453

> <Gold.Chemscore.DEInternal.Weighted>
3.7055

> <Gold.Chemscore.Rot.Weighted>
9.5237

> <Gold.Chemscore.Internal.Correction.Weighted>
   9.000000E+99

> <Gold.Protein.RotatedTorsions>
[ 6907 6896 6895 6894 ] final   92.82 input  -60.11 | X-H torsion
[ 7974 7965 7964 7962 ] final   82.00 input  175.53 | X-H torsion
[ 8008 7997 7996 7995 ] final -146.94 input   59.86 | X-H torsion
[ 10167 10162 10161 10158 ] final  -88.60 input  -65.29 | X-H torsion
[ 10718 10713 10712 10709 ] final -164.88 input   66.30 | X-H torsion
[ 10763 10752 10751 10750 ] final  -84.45 input  -60.55 | X-H torsion
[ 11005 11000 10999 10996 ] final  154.34 input  -57.11 | X-H torsion

> <Gold.Protein.ActiveResidues>
 VAL166  LYS551  ARG553  GLY616  TRP617  ASP618  TYR619  PRO620  LYS621  CYS622 
 ASP623  PHE694  ASN695  SER759  ASP760  ASP761  ALA762  ILE779  LEU786  VAL792 
 PHE793  MET794  SER795  GLU796  ALA797  LYS798  CYS799  TRP800  GLU811  SER814 

> <Gold.Protein.RotatedAtoms>
  152.5453  134.1443  159.8491 H   0  0  0  0  0  0  0  0  0  0  0  0  # atno 6907 bound_to 6896
  151.1476  133.4922  159.2603 H   0  0  0  0  0  0  0  0  0  0  0  0  # atno 6908 bound_to 6896
  151.1507  135.0236  159.8722 H   0  0  0  0  0  0  0  0  0  0  0  0  # atno 6909 bound_to 6896
  145.6308  139.2404  143.2085 H   0  0  0  0  0  0  0  0  0  0  0  0  # atno 7974 bound_to 7965
  155.5675  140.0631  157.2814 H   0  0  0  0  0  0  0  0  0  0  0  0  # atno 8008 bound_to 7997
  154.4371  140.1875  156.0891 H   0  0  0  0  0  0  0  0  0  0  0  0  # atno 8009 bound_to 7997
  156.0401  140.3296  155.7238 H   0  0  0  0  0  0  0  0  0  0  0  0  # atno 8010 bound_to 7997
  140.3731  143.2785  151.9476 H   0  0  0  0  0  0  0  0  0  0  0  0  # atno 10167 bound_to 10162
  156.6453  130.8985  151.3003 H   0  0  0  0  0  0  0  0  0  0  0  0  # atno 10718 bound_to 10713
  154.5997  135.5520  153.7361 H   0  0  0  0  0  0  0  0  0  0  0  0  # atno 10763 bound_to 10752
  153.0149  135.6363  154.1733 H   0  0  0  0  0  0  0  0  0  0  0  0  # atno 10764 bound_to 10752
  154.1672  135.2894  155.3071 H   0  0  0  0  0  0  0  0  0  0  0  0  # atno 10765 bound_to 10752
  140.1480  134.8694  157.2418 H   0  0  0  0  0  0  0  0  0  0  0  0  # atno 11005 bound_to 11000
  146.1358  140.7125  142.9390 LP  0  0  0  0  0  0  0  0  0  0  0  0  # atno 17320 bound_to 7965
  144.7194  140.4322  143.7019 LP  0  0  0  0  0  0  0  0  0  0  0  0  # atno 17321 bound_to 7965
  139.4802  144.5888  151.7807 LP  0  0  0  0  0  0  0  0  0  0  0  0  # atno 17342 bound_to 10162
  140.5013  144.1164  150.5972 LP  0  0  0  0  0  0  0  0  0  0  0  0  # atno 17343 bound_to 10162
  157.7158  130.9495  150.1250 LP  0  0  0  0  0  0  0  0  0  0  0  0  # atno 17370 bound_to 10713
  156.2126  130.3668  149.8651 LP  0  0  0  0  0  0  0  0  0  0  0  0  # atno 17371 bound_to 10713
  140.2640  134.3538  155.7396 LP  0  0  0  0  0  0  0  0  0  0  0  0  # atno 17394 bound_to 11000
  141.2195  133.7385  156.9122 LP  0  0  0  0  0  0  0  0  0  0  0  0  # atno 17395 bound_to 11000

$$$$
