AV-unprocessed.smi:950|AV-procd|sdf|4250|dock8
  -GOLD-   22720 2153D 1   1.00000     0.00000
 Structure written by MMmdl.
 34 35  0  0  0  0  0  0  0  0  1 V2000
  152.8451  143.1819  162.0589 C   0  0  0  0  0  0  0  0  0  0  0  0
  153.2614  142.4369  160.7862 C   0  0  0  0  0  0  0  0  0  0  0  0
  152.5019  142.8906  159.5853 C   0  0  0  0  0  0  0  0  0  0  0  0
  151.7225  142.0843  158.8611 N   0  0  0  0  0  0  0  0  0  0  0  0
  151.1576  142.7275  157.7545 C   0  0  0  0  0  0  0  0  0  0  0  0
  150.2592  141.9696  156.8185 C   0  0  0  0  0  0  0  0  0  0  0  0
  150.9657  140.8186  156.0725 C   0  0  0  0  0  0  0  0  0  0  0  0
  150.0361  139.9203  155.3946 N   0  0  0  0  0  0  0  0  0  0  0  0
  149.2653  140.2539  154.3494 C   0  0  0  0  0  0  0  0  0  0  0  0
  149.3034  141.3603  153.8095 O   0  0  0  0  0  0  0  0  0  0  0  0
  148.3059  139.1654  153.8521 C   0  0  0  0  0  0  0  0  0  0  0  0
  147.1489  139.6626  152.9658 C   0  0  0  0  0  0  0  0  0  0  0  0
  146.2031  138.7678  153.7724 C   0  0  0  0  0  0  0  0  0  0  0  0
  147.2507  138.7450  154.8890 C   0  0  0  0  0  0  0  0  0  0  0  0
  151.5272  144.0456  157.6514 C   0  0  0  0  0  0  0  0  0  0  0  0
  152.6040  144.5224  158.9356 S   0  0  0  0  0  0  0  0  0  0  0  0
  153.4215  142.8368  162.9172 H   0  0  0  0  0  0  0  0  0  0  0  0
  151.7893  143.0222  162.2798 H   0  0  0  0  0  0  0  0  0  0  0  0
  153.0072  144.2553  161.9577 H   0  0  0  0  0  0  0  0  0  0  0  0
  154.3273  142.5781  160.6038 H   0  0  0  0  0  0  0  0  0  0  0  0
  153.1058  141.3654  160.9140 H   0  0  0  0  0  0  0  0  0  0  0  0
  149.4079  141.5702  157.3711 H   0  0  0  0  0  0  0  0  0  0  0  0
  149.8307  142.6528  156.0845 H   0  0  0  0  0  0  0  0  0  0  0  0
  151.6879  141.2168  155.3582 H   0  0  0  0  0  0  0  0  0  0  0  0
  151.5353  140.2220  156.7855 H   0  0  0  0  0  0  0  0  0  0  0  0
  149.9416  138.9898  155.7750 H   0  0  0  0  0  0  0  0  0  0  0  0
  148.8148  138.3047  153.4139 H   0  0  0  0  0  0  0  0  0  0  0  0
  146.9159  140.7233  153.0740 H   0  0  0  0  0  0  0  0  0  0  0  0
  147.2346  139.3817  151.9158 H   0  0  0  0  0  0  0  0  0  0  0  0
  145.2565  139.2348  154.0461 H   0  0  0  0  0  0  0  0  0  0  0  0
  146.0553  137.7890  153.3136 H   0  0  0  0  0  0  0  0  0  0  0  0
  147.4142  137.7586  155.3234 H   0  0  0  0  0  0  0  0  0  0  0  0
  147.0619  139.4932  155.6613 H   0  0  0  0  0  0  0  0  0  0  0  0
  151.2383  144.7613  156.8963 H   0  0  0  0  0  0  0  0  0  0  0  0
  1  2  1  0  0  0  0
  1 17  1  0  0  0  0
  1 18  1  0  0  0  0
  1 19  1  0  0  0  0
  2  3  1  0  0  0  0
  2 20  1  0  0  0  0
  2 21  1  0  0  0  0
  3 16  1  0  0  0  0
  3  4  2  0  0  0  0
  4  5  1  0  0  0  0
  5  6  1  0  0  0  0
  5 15  2  0  0  0  0
  6  7  1  0  0  0  0
  6 22  1  0  0  0  0
  6 23  1  0  0  0  0
  7  8  1  0  0  0  0
  7 24  1  0  0  0  0
  7 25  1  0  0  0  0
  8  9  1  0  0  0  0
  8 26  1  0  0  0  0
  9 10  2  0  0  0  0
  9 11  1  0  0  0  0
 11 14  1  0  0  0  0
 11 12  1  0  0  0  0
 11 27  1  0  0  0  0
 12 13  1  0  0  0  0
 12 28  1  0  0  0  0
 12 29  1  0  0  0  0
 13 14  1  0  0  0  0
 13 30  1  0  0  0  0
 13 31  1  0  0  0  0
 14 32  1  0  0  0  0
 14 33  1  0  0  0  0
 15 16  1  0  0  0  0
 15 34  1  0  0  0  0
M  END
> <s_m_source_file>
AV-unprocessed.smi

> <i_m_source_file_index>
950

> <i_lp_mmshare_version>
43012

> <i_f3d_flags>
0

> <s_epik_input>
W0NIM11bQ0gyXWMxbmMoW2NIXXMxKVtDSDJdW0NIMl1bTkhdQyg9TylbQ0hdMltDSDJdW0NIMl1bQ0gyXTI=

> <s_epik_cmdline>
J2VwaWtfcHl0aG9uJywgJy1waCcsICc3LjAnLCAnLXRuJywgJzgnLCAnLW1hJywgJzIwMCcsICctbWV0YWxfYmluZGluZycsICctaW1hZScsICc8aW5maWxlLm1hZT4nLCAnLW9tYWUnLCAnPG91dGZpbGUubWFlPic=

> <r_epik_Ionization_Penalty>
0.00109666

> <r_epik_Ionization_Penalty_Charging>
0

> <r_epik_Ionization_Penalty_Neutral>
0.00109666

> <r_epik_State_Penalty>
0.000719322

> <r_epik_Charging_Adjusted_Penalty>
0.000719322

> <i_epik_Tot_Q>
0

> <i_epik_Tot_abs_Q>
0

> <r_epik_Metal_State_Penalty>
-0

> <b_epik_Metal_Only>
0

> <s_lp_Force_Field>
OPLS_2005

> <r_lp_Energy>
2.32113

> <b_lp_Chiralities_Consistent>
1

> <s_lp_Variant>
AV-unprocessed.smi:950-1

> <Gold.Version>
5.8.1

> <Gold.Id.Protein>
6NUR|6NUR_protein|mol2

> <Gold.PLP.Fitness>
42.7856

> <Gold.PLP.PLP>
-37.8281

> <Gold.PLP.part.hbond>
-2.0000

> <Gold.PLP.part.metal>
0.0000

> <Gold.PLP.part.buried>
-2.6782

> <Gold.PLP.part.nonpolar>
-34.3548

> <Gold.PLP.part.repulsive>
0.6556

> <Gold.PLP.ligand.clash>
0.0000

> <Gold.PLP.ligand.torsion>
0.3351

> <Gold.PLP.Chemscore.Hbond>
0.7680

> <Gold.PLP.Chemscore.CHOScore>
0.9710

> <Gold.PLP.Chemscore.Metal>
0.0000

> <Gold.Chemscore.Hbonds>
donor molecule, donor type, donor heavy atom, donor atom, acceptor molecule, acceptor atom, score
      P1  H  7989  7998       L1    10  0.01
      P1  H  8011  8017       L1    10  0.82
      L1  C    15    34       P1  8028  0.70

> <Gold.PLP.Chemscore.Internal.Correction>
0.4109

> <Gold.Rescore>
     Score         DG    S(hbond)    S(metal)    S(lipo)     H(rot)  DE(clash)    DE(int)     intcor
     15.56     -15.91       0.75        0.00     100.80       1.51       0.08       0.27       ----

> <Gold.Chemscore.Fitness>
15.5577

> <Gold.Chemscore.DG>
-15.9051

> <Gold.Chemscore.ZeroCoef>
-5.4800

> <Gold.Chemscore.Hbond>
0.7475

> <Gold.Chemscore.Metal>
0.0000

> <Gold.Chemscore.Lipo>
100.7956

> <Gold.Chemscore.Internal_Hbond>
0.0000

> <Gold.Chemscore.DEClash>
0.0772

> <Gold.Chemscore.DEInternal>
0.2702

> <Gold.Chemscore.Rot>
1.5096

> <Gold.Chemscore.Internal.Correction>
   9.000000E+99

> <Gold.Chemscore.Hbonds>
donor molecule, donor type, donor heavy atom, donor atom, acceptor molecule, acceptor atom, score
      P1  H  8011  8017       L1    10  0.81

> <Gold.Chemscore.Hbond.Weighted>
-2.4966

> <Gold.Chemscore.Metal.Weighted>
-0.0000

> <Gold.Chemscore.Lipo.Weighted>
-11.7931

> <Gold.Chemscore.Internal_Hbond.Weighted>
0.0000

> <Gold.Chemscore.DEClash.Weighted>
0.0772

> <Gold.Chemscore.DEInternal.Weighted>
0.2702

> <Gold.Chemscore.Rot.Weighted>
3.8646

> <Gold.Chemscore.Internal.Correction.Weighted>
   9.000000E+99

> <Gold.Protein.RotatedTorsions>
[ 6907 6896 6895 6894 ] final -114.69 input  -60.11 | X-H torsion
[ 7974 7965 7964 7962 ] final  173.38 input  175.53 | X-H torsion
[ 8008 7997 7996 7995 ] final   80.87 input   59.86 | X-H torsion
[ 10167 10162 10161 10158 ] final   21.90 input  -65.29 | X-H torsion
[ 10718 10713 10712 10709 ] final  -74.86 input   66.30 | X-H torsion
[ 10763 10752 10751 10750 ] final   35.94 input  -60.55 | X-H torsion
[ 11005 11000 10999 10996 ] final -177.60 input  -57.11 | X-H torsion

> <Gold.Protein.ActiveResidues>
 VAL166  LYS551  ARG553  GLY616  TRP617  ASP618  TYR619  PRO620  LYS621  CYS622 
 ASP623  PHE694  ASN695  SER759  ASP760  ASP761  ALA762  ILE779  LEU786  VAL792 
 PHE793  MET794  SER795  GLU796  ALA797  LYS798  CYS799  TRP800  GLU811  SER814 

> <Gold.Protein.RotatedAtoms>
  150.7921  133.8765  159.3273 H   0  0  0  0  0  0  0  0  0  0  0  0  # atno 6907 bound_to 6896
  151.6600  135.0989  160.0187 H   0  0  0  0  0  0  0  0  0  0  0  0  # atno 6908 bound_to 6896
  152.3997  133.6760  159.6341 H   0  0  0  0  0  0  0  0  0  0  0  0  # atno 6909 bound_to 6896
  144.7245  139.9639  143.6435 H   0  0  0  0  0  0  0  0  0  0  0  0  # atno 7974 bound_to 7965
  155.8894  140.3439  155.5945 H   0  0  0  0  0  0  0  0  0  0  0  0  # atno 8008 bound_to 7997
  155.7628  140.0835  157.2166 H   0  0  0  0  0  0  0  0  0  0  0  0  # atno 8009 bound_to 7997
  154.4032  140.1532  156.2840 H   0  0  0  0  0  0  0  0  0  0  0  0  # atno 8010 bound_to 7997
  140.5391  143.9709  150.6508 H   0  0  0  0  0  0  0  0  0  0  0  0  # atno 10167 bound_to 10162
  156.0227  130.4427  150.2956 H   0  0  0  0  0  0  0  0  0  0  0  0  # atno 10718 bound_to 10713
  153.0098  135.6319  154.1906 H   0  0  0  0  0  0  0  0  0  0  0  0  # atno 10763 bound_to 10752
  154.1649  135.2821  155.3100 H   0  0  0  0  0  0  0  0  0  0  0  0  # atno 10764 bound_to 10752
  154.5953  135.5604  153.7380 H   0  0  0  0  0  0  0  0  0  0  0  0  # atno 10765 bound_to 10752
  140.4391  134.6448  157.4749 H   0  0  0  0  0  0  0  0  0  0  0  0  # atno 11005 bound_to 11000
  146.0616  139.3609  143.0578 LP  0  0  0  0  0  0  0  0  0  0  0  0  # atno 17320 bound_to 7965
  145.8085  140.9737  143.0961 LP  0  0  0  0  0  0  0  0  0  0  0  0  # atno 17321 bound_to 7965
  140.3105  143.3201  152.0884 LP  0  0  0  0  0  0  0  0  0  0  0  0  # atno 17342 bound_to 10162
  139.4982  144.6639  151.6400 LP  0  0  0  0  0  0  0  0  0  0  0  0  # atno 17343 bound_to 10162
  157.1059  131.0208  151.3067 LP  0  0  0  0  0  0  0  0  0  0  0  0  # atno 17370 bound_to 10713
  157.4743  130.7727  149.7353 LP  0  0  0  0  0  0  0  0  0  0  0  0  # atno 17371 bound_to 10713
  140.0082  134.6731  155.9422 LP  0  0  0  0  0  0  0  0  0  0  0  0  # atno 17394 bound_to 11000
  141.1713  133.6537  156.4663 LP  0  0  0  0  0  0  0  0  0  0  0  0  # atno 17395 bound_to 11000

$$$$
