AV-unprocessed.smi:1433|AV-procd|sdf|5847|dock10
  -GOLD-   22720 5513D 1   1.00000     0.00000
 Structure written by MMmdl.
 45 46  0  0  0  0  0  0  0  0  2 V2000
  145.9032  132.0820  149.8380 C   0  0  0  0  0  0  0  0  0  0  0  0
  146.2136  133.3471  150.6458 C   0  0  2  0  0  0  0  0  0  0  0  0
  146.8703  133.0251  152.0003 C   0  0  0  0  0  0  0  0  0  0  0  0
  147.1073  134.2625  152.7929 N   0  3  2  0  0  0  0  0  0  0  0  0
  147.8324  133.9917  154.0779 C   0  0  1  0  0  0  0  0  0  0  0  0
  149.2417  133.4242  153.7872 C   0  0  0  0  0  0  0  0  0  0  0  0
  147.9318  135.2297  155.0149 C   0  0  0  0  0  0  0  0  0  0  0  0
  148.7686  136.2899  154.4631 N   0  0  0  0  0  0  0  0  0  0  0  0
  149.2413  137.3386  155.1542 C   0  0  0  0  0  0  0  0  0  0  0  0
  148.9676  137.5519  156.3351 O   0  0  0  0  0  0  0  0  0  0  0  0
  150.1841  138.2780  154.4026 C   0  0  0  0  0  0  0  0  0  0  0  0
  150.4188  139.4916  155.1650 N   0  0  0  0  0  0  0  0  0  0  0  0
  150.9429  139.6171  156.4347 C   0  0  0  0  0  0  0  0  0  0  0  0
  150.9883  140.9504  156.7258 C   0  0  0  0  0  0  0  0  0  0  0  0
  150.4640  141.5699  155.5572 C   0  0  0  0  0  0  0  0  0  0  0  0
  150.1265  140.6950  154.6235 N   0  0  0  0  0  0  0  0  0  0  0  0
  145.8311  135.0186  152.9211 C   0  0  0  0  0  0  0  0  0  0  0  0
  145.1898  135.2726  151.5433 C   0  0  2  0  0  0  0  0  0  0  0  0
  143.8313  135.9731  151.6604 C   0  0  0  0  0  0  0  0  0  0  0  0
  144.9911  134.0320  150.8798 O   0  0  0  0  0  0  0  0  0  0  0  0
  146.8122  131.5196  149.6232 H   0  0  0  0  0  0  0  0  0  0  0  0
  145.4360  132.3332  148.8853 H   0  0  0  0  0  0  0  0  0  0  0  0
  145.2223  131.4242  150.3790 H   0  0  0  0  0  0  0  0  0  0  0  0
  146.8774  133.9804  150.0545 H   0  0  0  0  0  0  0  0  0  0  0  0
  146.2329  132.3471  152.5705 H   0  0  0  0  0  0  0  0  0  0  0  0
  147.8032  132.4969  151.8131 H   0  0  0  0  0  0  0  0  0  0  0  0
  147.2638  133.2306  154.6147 H   0  0  0  0  0  0  0  0  0  0  0  0
  149.7826  133.1869  154.7034 H   0  0  0  0  0  0  0  0  0  0  0  0
  149.8448  134.1392  153.2268 H   0  0  0  0  0  0  0  0  0  0  0  0
  149.2119  132.4982  153.2159 H   0  0  0  0  0  0  0  0  0  0  0  0
  146.9401  135.6456  155.1961 H   0  0  0  0  0  0  0  0  0  0  0  0
  148.3465  134.9643  155.9883 H   0  0  0  0  0  0  0  0  0  0  0  0
  149.0491  136.1970  153.4970 H   0  0  0  0  0  0  0  0  0  0  0  0
  151.1349  137.7805  154.2041 H   0  0  0  0  0  0  0  0  0  0  0  0
  149.7529  138.5460  153.4371 H   0  0  0  0  0  0  0  0  0  0  0  0
  151.2381  138.7568  157.0176 H   0  0  0  0  0  0  0  0  0  0  0  0
  151.3419  141.4131  157.6353 H   0  0  0  0  0  0  0  0  0  0  0  0
  150.3212  142.6224  155.3605 H   0  0  0  0  0  0  0  0  0  0  0  0
  145.1442  134.4664  153.5649 H   0  0  0  0  0  0  0  0  0  0  0  0
  146.0046  135.9912  153.3803 H   0  0  0  0  0  0  0  0  0  0  0  0
  145.8501  135.8996  150.9414 H   0  0  0  0  0  0  0  0  0  0  0  0
  143.9286  136.9395  152.1556 H   0  0  0  0  0  0  0  0  0  0  0  0
  143.1249  135.3725  152.2342 H   0  0  0  0  0  0  0  0  0  0  0  0
  143.3967  136.1480  150.6760 H   0  0  0  0  0  0  0  0  0  0  0  0
  147.7186  134.8497  152.2437 H   0  0  0  0  0  0  0  0  0  0  0  0
  1  2  1  0  0  0  0
  1 21  1  0  0  0  0
  1 22  1  0  0  0  0
  1 23  1  0  0  0  0
  2 20  1  0  0  0  0
  2  3  1  0  0  0  0
  2 24  1  0  0  0  0
  3  4  1  0  0  0  0
  3 25  1  0  0  0  0
  3 26  1  0  0  0  0
  4  5  1  0  0  0  0
  4 17  1  0  0  0  0
  4 45  1  0  0  0  0
  5  6  1  0  0  0  0
  5  7  1  0  0  0  0
  5 27  1  0  0  0  0
  6 28  1  0  0  0  0
  6 29  1  0  0  0  0
  6 30  1  0  0  0  0
  7  8  1  0  0  0  0
  7 31  1  0  0  0  0
  7 32  1  0  0  0  0
  8  9  1  0  0  0  0
  8 33  1  0  0  0  0
  9 10  2  0  0  0  0
  9 11  1  0  0  0  0
 11 12  1  0  0  0  0
 11 34  1  0  0  0  0
 11 35  1  0  0  0  0
 12 16  1  0  0  0  0
 12 13  1  0  0  0  0
 13 14  2  0  0  0  0
 13 36  1  0  0  0  0
 14 15  1  0  0  0  0
 14 37  1  0  0  0  0
 15 16  2  0  0  0  0
 15 38  1  0  0  0  0
 17 18  1  0  0  0  0
 17 39  1  0  0  0  0
 17 40  1  0  0  0  0
 18 19  1  0  0  0  0
 18 20  1  0  0  0  0
 18 41  1  0  0  0  0
 19 42  1  0  0  0  0
 19 43  1  0  0  0  0
 19 44  1  0  0  0  0
M  CHG  1   4   1
M  END
> <s_m_source_file>
AV-unprocessed.smi

> <i_m_source_file_index>
1433

> <i_lp_mmshare_version>
43012

> <i_f3d_flags>
0

> <s_epik_input>
W0NIM11bQ0BASF0xW0NIMl1OKFtDSDJdW0NASF0oTzEpW0NIM10pW0NASF0oW0NIM10pW0NIMl1bTkhdQyg9TylbQ0gyXW4yW2NIXVtjSF1bY0hdbjI=

> <s_epik_cmdline>
J2VwaWtfcHl0aG9uJywgJy1waCcsICc3LjAnLCAnLXRuJywgJzgnLCAnLW1hJywgJzIwMCcsICctbWV0YWxfYmluZGluZycsICctaW1hZScsICc8aW5maWxlLm1hZT4nLCAnLW9tYWUnLCAnPG91dGZpbGUubWFlPic=

> <r_lp_tautomer_probability>
1

> <r_epik_Ionization_Penalty>
0.748405

> <r_epik_Ionization_Penalty_Charging>
0.748396

> <r_epik_Ionization_Penalty_Neutral>
8.54426e-06

> <r_epik_State_Penalty>
0.775162

> <r_epik_Charging_Adjusted_Penalty>
1.52356

> <i_epik_Tot_Q>
1

> <i_epik_Tot_abs_Q>
1

> <r_epik_Metal_State_Penalty>
0.775167

> <b_epik_Metal_Only>
0

> <s_lp_Force_Field>
OPLS_2005

> <r_lp_Energy>
17.7412

> <b_lp_Chiralities_Consistent>
1

> <s_lp_Variant>
AV-unprocessed.smi:1433-13

> <Gold.Version>
5.8.1

> <Gold.Id.Protein>
6NUR|6NUR_protein|mol2

> <Gold.PLP.Fitness>
47.3494

> <Gold.PLP.PLP>
-33.4336

> <Gold.PLP.part.hbond>
-3.0000

> <Gold.PLP.part.metal>
0.0000

> <Gold.PLP.part.buried>
-4.7239

> <Gold.PLP.part.nonpolar>
-26.6650

> <Gold.PLP.part.repulsive>
0.2660

> <Gold.PLP.ligand.clash>
0.0000

> <Gold.PLP.ligand.torsion>
0.3097

> <Gold.PLP.Chemscore.Hbond>
3.8320

> <Gold.PLP.Chemscore.CHOScore>
0.9896

> <Gold.PLP.Chemscore.Metal>
0.0000

> <Gold.Chemscore.Hbonds>
donor molecule, donor type, donor heavy atom, donor atom, acceptor molecule, acceptor atom, score
      L1  H     4    45       P1  7948  2.00
      L1  H     8    33       P1  7948  1.00
      P1  H  7989  7998       L1    16  0.78
      L1  C    15    38       P1  8028  0.94

> <Gold.PLP.Chemscore.Internal.Correction>
0.0703

> <Gold.Rescore>
     Score         DG    S(hbond)    S(metal)    S(lipo)     H(rot)  DE(clash)    DE(int)     intcor
     16.71     -18.29       2.69        0.00      73.45       1.87       0.01       1.57       ----

> <Gold.Chemscore.Fitness>
16.7091

> <Gold.Chemscore.DG>
-18.2921

> <Gold.Chemscore.ZeroCoef>
-5.4800

> <Gold.Chemscore.Hbond>
2.6929

> <Gold.Chemscore.Metal>
0.0000

> <Gold.Chemscore.Lipo>
73.4514

> <Gold.Chemscore.Internal_Hbond>
0.0000

> <Gold.Chemscore.DEClash>
0.0121

> <Gold.Chemscore.DEInternal>
1.5708

> <Gold.Chemscore.Rot>
1.8657

> <Gold.Chemscore.Internal.Correction>
   9.000000E+99

> <Gold.Chemscore.Hbonds>
donor molecule, donor type, donor heavy atom, donor atom, acceptor molecule, acceptor atom, score
      L1  H     4    45       P1  7948  0.82
      L1  H     8    33       P1  7948  0.96
      P1  H  7989  7998       L1    16  0.04

> <Gold.Chemscore.Hbond.Weighted>
-8.9944

> <Gold.Chemscore.Metal.Weighted>
-0.0000

> <Gold.Chemscore.Lipo.Weighted>
-8.5938

> <Gold.Chemscore.Internal_Hbond.Weighted>
0.0000

> <Gold.Chemscore.DEClash.Weighted>
0.0121

> <Gold.Chemscore.DEInternal.Weighted>
1.5708

> <Gold.Chemscore.Rot.Weighted>
4.7761

> <Gold.Chemscore.Internal.Correction.Weighted>
   9.000000E+99

> <Gold.Protein.RotatedTorsions>
[ 6907 6896 6895 6894 ] final -100.93 input  -60.11 | X-H torsion
[ 7974 7965 7964 7962 ] final  177.37 input  175.53 | X-H torsion
[ 8008 7997 7996 7995 ] final  116.61 input   59.86 | X-H torsion
[ 10167 10162 10161 10158 ] final   98.93 input  -65.29 | X-H torsion
[ 10718 10713 10712 10709 ] final  148.46 input   66.30 | X-H torsion
[ 10763 10752 10751 10750 ] final  179.57 input  -60.55 | X-H torsion
[ 11005 11000 10999 10996 ] final -113.83 input  -57.11 | X-H torsion

> <Gold.Protein.ActiveResidues>
 VAL166  LYS551  ARG553  GLY616  TRP617  ASP618  TYR619  PRO620  LYS621  CYS622 
 ASP623  PHE694  ASN695  SER759  ASP760  ASP761  ALA762  ILE779  LEU786  VAL792 
 PHE793  MET794  SER795  GLU796  ALA797  LYS798  CYS799  TRP800  GLU811  SER814 

> <Gold.Protein.RotatedAtoms>
  150.7134  134.0812  159.3898 H   0  0  0  0  0  0  0  0  0  0  0  0  # atno 6907 bound_to 6896
  151.8796  135.0456  160.0497 H   0  0  0  0  0  0  0  0  0  0  0  0  # atno 6908 bound_to 6896
  152.2578  133.5235  159.5400 H   0  0  0  0  0  0  0  0  0  0  0  0  # atno 6909 bound_to 6896
  144.7170  140.0237  143.6440 H   0  0  0  0  0  0  0  0  0  0  0  0  # atno 7974 bound_to 7965
  156.2449  140.2914  156.0550 H   0  0  0  0  0  0  0  0  0  0  0  0  # atno 8008 bound_to 7997
  155.1839  140.0405  157.2905 H   0  0  0  0  0  0  0  0  0  0  0  0  # atno 8009 bound_to 7997
  154.6240  140.2483  155.7521 H   0  0  0  0  0  0  0  0  0  0  0  0  # atno 8010 bound_to 7997
  139.7663  144.6937  151.0219 H   0  0  0  0  0  0  0  0  0  0  0  0  # atno 10167 bound_to 10162
  157.3083  131.0883  151.1336 H   0  0  0  0  0  0  0  0  0  0  0  0  # atno 10718 bound_to 10713
  154.5224  135.2795  155.1251 H   0  0  0  0  0  0  0  0  0  0  0  0  # atno 10763 bound_to 10752
  154.2803  135.6286  153.5348 H   0  0  0  0  0  0  0  0  0  0  0  0  # atno 10764 bound_to 10752
  152.9939  135.5649  154.5717 H   0  0  0  0  0  0  0  0  0  0  0  0  # atno 10765 bound_to 10752
  141.0590  133.9566  157.2702 H   0  0  0  0  0  0  0  0  0  0  0  0  # atno 11005 bound_to 11000
  146.0160  139.3210  143.0842 LP  0  0  0  0  0  0  0  0  0  0  0  0  # atno 17320 bound_to 7965
  145.8626  140.9467  143.0692 LP  0  0  0  0  0  0  0  0  0  0  0  0  # atno 17321 bound_to 7965
  140.7811  143.4639  151.0240 LP  0  0  0  0  0  0  0  0  0  0  0  0  # atno 17342 bound_to 10162
  139.8324  143.7674  152.3180 LP  0  0  0  0  0  0  0  0  0  0  0  0  # atno 17343 bound_to 10162
  157.2668  130.6685  149.6000 LP  0  0  0  0  0  0  0  0  0  0  0  0  # atno 17370 bound_to 10713
  155.9676  130.4491  150.5646 LP  0  0  0  0  0  0  0  0  0  0  0  0  # atno 17371 bound_to 10713
  139.9415  135.0190  156.8724 LP  0  0  0  0  0  0  0  0  0  0  0  0  # atno 17394 bound_to 11000
  140.5907  134.0265  155.7498 LP  0  0  0  0  0  0  0  0  0  0  0  0  # atno 17395 bound_to 11000

$$$$
