#       Name:                AV-unprocessed.smi:34
#       Creating user name   scv26
#       Creation time:       Thu Mar 26 16:00:11 2020


#       File generated by GOLD software.
#

@<TRIPOS>MOLECULE
AV-unprocessed.smi:34
    66    70     1
SMALL
NO_CHARGES


@<TRIPOS>ATOM
      1 ****        -5.1790  -0.0697  -1.5293 O.2            1 S1                 0.0000
      2 ****        -5.5690  -0.2671  -0.3766 C.2            1 S1                 0.0000
      3 ****        -4.8369  -0.2461   0.7661 N.pl3          1 S1                -1.0000
      4 ****        -3.5105  -0.0520   0.7091 C.ar           1 S1                 0.0000
      5 ****        -2.9888   1.1858   0.9034 N.ar           1 S1                 0.0000
      6 ****        -1.6650   1.3750   0.8602 C.ar           1 S1                 0.0000
      7 ****        -0.6952   0.4806   0.6482 N.ar           1 S1                 0.0000
      8 ****        -1.2052  -0.7707   0.4537 C.ar           1 S1                 0.0000
      9 ****        -2.5900  -1.1102   0.4747 C.ar           1 S1                 0.0000
     10 ****        -2.7691  -2.4675   0.2528 N.2            1 S1                 0.0000
     11 ****        -1.5133  -2.8829   0.1080 C.2            1 S1                 0.0000
     12 ****        -0.5356  -1.9601   0.2070 N.pl3          1 S1                 0.0000
     13 ****         0.9384  -2.1939   0.0799 C.3            1 S1                 0.0000
     14 ****         1.5998  -1.3655   0.9879 O.3            1 S1                 0.0000
     15 ****         2.7616  -0.8315   0.3657 C.3            1 S1                 0.0000
     16 ****         3.2344   0.4350   1.0915 C.3            1 S1                 0.0000
     17 ****         4.4795   0.8524   0.5545 O.3            1 S1                 0.0000
     18 ****         5.1011   1.9365   1.0595 C.2            1 S1                 0.0000
     19 ****         4.6450   2.6160   1.9815 O.2            1 S1                 0.0000
     20 ****         6.4028   2.2250   0.3907 C.ar           1 S1                 0.0000
     21 ****         7.1956   3.3015   0.8531 C.ar           1 S1                 0.0000
     22 ****         8.4314   3.5958   0.2450 C.ar           1 S1                 0.0000
     23 ****         8.8891   2.8180  -0.8345 C.ar           1 S1                 0.0000
     24 ****         8.1087   1.7461  -1.3058 C.ar           1 S1                 0.0000
     25 ****         6.8728   1.4497  -0.6982 C.ar           1 S1                 0.0000
     26 ****         2.3328  -0.6328  -1.0895 C.3            1 S1                 0.0000
     27 ****         1.6014   0.4789  -1.1935 F              1 S1                 0.0000
     28 ****         1.4847  -1.8735  -1.3286 C.3            1 S1                 0.0000
     29 ****         0.5144  -1.6797  -2.3425 O.3            1 S1                 0.0000
     30 ****        -7.0361  -0.5052  -0.1374 C.ar           1 S1                 0.0000
     31 ****        -7.9937   0.1646  -0.9329 C.ar           1 S1                 0.0000
     32 ****        -9.3704  -0.0649  -0.7421 C.ar           1 S1                 0.0000
     33 ****        -9.8040  -0.9748   0.2403 C.ar           1 S1                 0.0000
     34 ****        -8.8597  -1.6581   1.0290 C.ar           1 S1                 0.0000
     35 ****        -7.4830  -1.4289   0.8390 C.ar           1 S1                 0.0000
     36 ****        -1.3345   2.3902   1.0216 H              1 S1                 0.0000
     37 ****        -1.2905  -3.9220  -0.0844 H              1 S1                 0.0000
     38 ****         1.0720  -3.2413   0.3543 H              1 S1                 0.0000
     39 ****         3.5404  -1.5949   0.4151 H              1 S1                 0.0000
     40 ****         2.4943   1.2316   1.0049 H              1 S1                 0.0000
     41 ****         3.3576   0.2214   2.1541 H              1 S1                 0.0000
     42 ****         6.8656   3.9120   1.6813 H              1 S1                 0.0000
     43 ****         9.0287   4.4191   0.6082 H              1 S1                 0.0000
     44 ****         9.8372   3.0435  -1.3004 H              1 S1                 0.0000
     45 ****         8.4587   1.1493  -2.1354 H              1 S1                 0.0000
     46 ****         6.2988   0.6203  -1.0850 H              1 S1                 0.0000
     47 ****         3.1715  -0.5411  -1.7802 H              1 S1                 0.0000
     48 ****         2.1334  -2.7007  -1.6196 H              1 S1                 0.0000
     49 ****        -0.0304  -2.4502  -2.3916 H              1 S1                 0.0000
     50 ****        -7.6769   0.8643  -1.6930 H              1 S1                 0.0000
     51 ****       -10.0930   0.4569  -1.3517 H              1 S1                 0.0000
     52 ****       -10.8593  -1.1518   0.3861 H              1 S1                 0.0000
     53 ****        -9.1901  -2.3617   1.7786 H              1 S1                 0.0000
     54 ****        -6.7743  -1.9722   1.4473 H              1 S1                 0.0000
     55 ****        -4.2157   0.1353  -1.7031 LP             1 S1                 0.0000
     56 ****        -5.8258  -0.1145  -2.2906 LP             1 S1                 0.0000
     57 ****        -5.2859  -0.3752   1.6502 LP             1 S1                 0.0000
     58 ****        -3.5966   1.9600   1.0797 LP             1 S1                 0.0000
     59 ****         0.2804   0.7000   0.6338 LP             1 S1                 0.0000
     60 ****        -3.6178  -2.9947   0.2123 LP             1 S1                 0.0000
     61 ****         1.8644  -1.8951   1.7938 LP             1 S1                 0.0000
     62 ****         0.9941  -0.6191   1.2637 LP             1 S1                 0.0000
     63 ****         3.7681   2.3724   2.3958 LP             1 S1                 0.0000
     64 ****         5.1520   3.4108   2.3151 LP             1 S1                 0.0000
     65 ****         0.9699  -1.5331  -3.2206 LP             1 S1                 0.0000
     66 ****        -0.0484  -0.8831  -2.1219 LP             1 S1                 0.0000
@<TRIPOS>BOND
    1    1    2 2     
    2    2    3 1     
    3    2   30 1     
    4    3    4 1     
    5    4    9 ar    
    6    4    5 ar    
    7    5    6 ar    
    8    6    7 ar    
    9    6   36 1     
   10    7    8 ar    
   11    8   12 1     
   12    8    9 ar    
   13    9   10 1     
   14   10   11 2     
   15   11   12 1     
   16   11   37 1     
   17   12   13 1     
   18   13   28 1     
   19   13   14 1     
   20   13   38 1     
   21   14   15 1     
   22   15   16 1     
   23   15   26 1     
   24   15   39 1     
   25   16   17 1     
   26   16   40 1     
   27   16   41 1     
   28   17   18 1     
   29   18   19 2     
   30   18   20 1     
   31   20   25 ar    
   32   20   21 ar    
   33   21   22 ar    
   34   21   42 1     
   35   22   23 ar    
   36   22   43 1     
   37   23   24 ar    
   38   23   44 1     
   39   24   25 ar    
   40   24   45 1     
   41   25   46 1     
   42   26   27 1     
   43   26   28 1     
   44   26   47 1     
   45   28   29 1     
   46   28   48 1     
   47   29   49 1     
   48   30   35 ar    
   49   30   31 ar    
   50   31   32 ar    
   51   31   50 1     
   52   32   33 ar    
   53   32   51 1     
   54   33   34 ar    
   55   33   52 1     
   56   34   35 ar    
   57   34   53 1     
   58   35   54 1     
   59    1   55 1     
   60    1   56 1     
   61    3   57 1     
   62    5   58 1     
   63    7   59 1     
   64   10   60 1     
   65   14   61 1     
   66   14   62 1     
   67   19   63 1     
   68   19   64 1     
   69   29   65 1     
   70   29   66 1     
@<TRIPOS>SUBSTRUCTURE
      1 S1             1
@<TRIPOS>SET
LONE_PAIRS      STATIC     ATOMS    <user>   **** ""
12 55 56 57 58 59 60 61 62 63 64 65 66
DONOR_HYDROGENS      STATIC     ATOMS    <user>   **** ""
1 49
ATOM$BLUE        STATIC     ATOMS    COLORGROUP SYSTEM
12 55 56 57 58 59 60 61 62 63 64 65 66
ATOM$RED        STATIC     ATOMS    COLORGROUP SYSTEM
1 49
