AV-unprocessed.smi:2204|AV-procd|sdf|8937|dock6
  -GOLD-   2272012153D 1   1.00000     0.00000
 Structure written by MMmdl.
 39 40  0  0  0  0  0  0  0  0  1 V2000
  153.8436  141.2931  161.0848 C   0  0  0  0  0  0  0  0  0  0  0  0
  153.0285  142.3646  160.4231 C   0  0  0  0  0  0  0  0  0  0  0  0
  152.5393  143.5752  160.9884 C   0  0  0  0  0  0  0  0  0  0  0  0
  151.8593  144.1748  159.9661 C   0  0  0  0  0  0  0  0  0  0  0  0
  151.1158  145.4697  159.9336 C   0  0  0  0  0  0  0  0  0  0  0  0
  151.9656  143.3382  158.8685 N   0  0  0  0  0  0  0  0  0  0  0  0
  151.4228  143.5046  157.5286 C   0  0  0  0  0  0  0  0  0  0  0  0
  150.5150  142.3372  157.1280 C   0  0  0  0  0  0  0  0  0  0  0  0
  149.4521  142.1429  157.7186 O   0  0  0  0  0  0  0  0  0  0  0  0
  150.9440  141.5768  156.1079 N   0  0  0  0  0  0  0  0  0  0  0  0
  150.2497  140.4181  155.5478 C   0  0  2  0  0  0  0  0  0  0  0  0
  151.2959  139.4336  155.0044 C   0  0  0  0  0  0  0  0  0  0  0  0
  149.2536  140.8559  154.4527 C   0  0  2  0  0  0  0  0  0  0  0  0
  148.0957  141.7326  154.9364 C   0  0  0  0  0  0  0  0  0  0  0  0
  147.0568  141.4870  153.8677 C   0  0  0  0  0  0  0  0  0  0  0  0
  147.2495  140.0003  153.5866 C   0  0  0  0  0  0  0  0  0  0  0  0
  148.6183  139.7196  153.8697 O   0  0  0  0  0  0  0  0  0  0  0  0
  152.6837  142.2296  159.1530 N   0  0  0  0  0  0  0  0  0  0  0  0
  154.1124  141.5750  162.1030 H   0  0  0  0  0  0  0  0  0  0  0  0
  154.7681  141.1070  160.5375 H   0  0  0  0  0  0  0  0  0  0  0  0
  153.2900  140.3553  161.1354 H   0  0  0  0  0  0  0  0  0  0  0  0
  152.6659  143.9462  161.9946 H   0  0  0  0  0  0  0  0  0  0  0  0
  151.0803  145.9231  160.9243 H   0  0  0  0  0  0  0  0  0  0  0  0
  150.0897  145.3223  159.5970 H   0  0  0  0  0  0  0  0  0  0  0  0
  151.5975  146.1768  159.2582 H   0  0  0  0  0  0  0  0  0  0  0  0
  150.8537  144.4331  157.4845 H   0  0  0  0  0  0  0  0  0  0  0  0
  152.2494  143.6076  156.8235 H   0  0  0  0  0  0  0  0  0  0  0  0
  151.8290  141.8173  155.6857 H   0  0  0  0  0  0  0  0  0  0  0  0
  149.6953  139.9054  156.3359 H   0  0  0  0  0  0  0  0  0  0  0  0
  150.8234  138.5363  154.6042 H   0  0  0  0  0  0  0  0  0  0  0  0
  151.9830  139.1173  155.7899 H   0  0  0  0  0  0  0  0  0  0  0  0
  151.8869  139.8820  154.2050 H   0  0  0  0  0  0  0  0  0  0  0  0
  149.7820  141.3817  153.6554 H   0  0  0  0  0  0  0  0  0  0  0  0
  147.7240  141.3838  155.9010 H   0  0  0  0  0  0  0  0  0  0  0  0
  148.3678  142.7840  155.0333 H   0  0  0  0  0  0  0  0  0  0  0  0
  146.0438  141.7334  154.1870 H   0  0  0  0  0  0  0  0  0  0  0  0
  147.2894  142.0731  152.9775 H   0  0  0  0  0  0  0  0  0  0  0  0
  146.6298  139.4027  154.2560 H   0  0  0  0  0  0  0  0  0  0  0  0
  146.9924  139.7361  152.5606 H   0  0  0  0  0  0  0  0  0  0  0  0
  1  2  1  0  0  0  0
  1 19  1  0  0  0  0
  1 20  1  0  0  0  0
  1 21  1  0  0  0  0
  2 18  2  0  0  0  0
  2  3  1  0  0  0  0
  3  4  2  0  0  0  0
  3 22  1  0  0  0  0
  4  5  1  0  0  0  0
  4  6  1  0  0  0  0
  5 23  1  0  0  0  0
  5 24  1  0  0  0  0
  5 25  1  0  0  0  0
  6  7  1  0  0  0  0
  6 18  1  0  0  0  0
  7  8  1  0  0  0  0
  7 26  1  0  0  0  0
  7 27  1  0  0  0  0
  8  9  2  0  0  0  0
  8 10  1  0  0  0  0
 10 11  1  0  0  0  0
 10 28  1  0  0  0  0
 11 12  1  0  0  0  0
 11 13  1  0  0  0  0
 11 29  1  0  0  0  0
 12 30  1  0  0  0  0
 12 31  1  0  0  0  0
 12 32  1  0  0  0  0
 13 17  1  0  0  0  0
 13 14  1  0  0  0  0
 13 33  1  0  0  0  0
 14 15  1  0  0  0  0
 14 34  1  0  0  0  0
 14 35  1  0  0  0  0
 15 16  1  0  0  0  0
 15 36  1  0  0  0  0
 15 37  1  0  0  0  0
 16 17  1  0  0  0  0
 16 38  1  0  0  0  0
 16 39  1  0  0  0  0
M  END
> <s_m_source_file>
AV-unprocessed.smi

> <i_m_source_file_index>
2204

> <i_lp_mmshare_version>
43012

> <i_f3d_flags>
0

> <s_epik_input>
W0NIM11jMVtjSF1jKFtDSDNdKW4objEpW0NIMl1DKD1PKVtOSF1bQ0BIXShbQ0gzXSlbQ0BASF0yW0NIMl1bQ0gyXVtDSDJdTzI=

> <s_epik_cmdline>
J2VwaWtfcHl0aG9uJywgJy1waCcsICc3LjAnLCAnLXRuJywgJzgnLCAnLW1hJywgJzIwMCcsICctbWV0YWxfYmluZGluZycsICctaW1hZScsICc8aW5maWxlLm1hZT4nLCAnLW9tYWUnLCAnPG91dGZpbGUubWFlPic=

> <r_lp_tautomer_probability>
1

> <r_epik_Ionization_Penalty>
0.000433354

> <r_epik_Ionization_Penalty_Charging>
0

> <r_epik_Ionization_Penalty_Neutral>
0.000433354

> <r_epik_State_Penalty>
-0

> <r_epik_Charging_Adjusted_Penalty>
0

> <i_epik_Tot_Q>
0

> <i_epik_Tot_abs_Q>
0

> <r_epik_Metal_State_Penalty>
-0

> <b_epik_Metal_Only>
0

> <s_lp_Force_Field>
OPLS_2005

> <r_lp_Energy>
17.0674

> <b_lp_Chiralities_Consistent>
1

> <s_lp_Variant>
AV-unprocessed.smi:2204-1

> <Gold.Version>
5.8.1

> <Gold.Id.Protein>
6NUR|6NUR_protein|mol2

> <Gold.PLP.Fitness>
43.0786

> <Gold.PLP.PLP>
-43.9154

> <Gold.PLP.part.hbond>
0.0000

> <Gold.PLP.part.metal>
0.0000

> <Gold.PLP.part.buried>
-5.1893

> <Gold.PLP.part.nonpolar>
-40.1378

> <Gold.PLP.part.repulsive>
1.9051

> <Gold.PLP.ligand.clash>
0.0000

> <Gold.PLP.ligand.torsion>
0.4267

> <Gold.PLP.Chemscore.Hbond>
0.0000

> <Gold.PLP.Chemscore.CHOScore>
0.0000

> <Gold.PLP.Chemscore.Metal>
0.0000

> <Gold.PLP.Chemscore.Internal.Correction>
0.0165

> <Gold.Rescore>
     Score         DG    S(hbond)    S(metal)    S(lipo)     H(rot)  DE(clash)    DE(int)     intcor
     13.92     -14.62       0.00        0.00     110.95       1.50       0.34       0.37       ----

> <Gold.Chemscore.Fitness>
13.9171

> <Gold.Chemscore.DG>
-14.6199

> <Gold.Chemscore.ZeroCoef>
-5.4800

> <Gold.Chemscore.Hbond>
0.0000

> <Gold.Chemscore.Metal>
0.0000

> <Gold.Chemscore.Lipo>
110.9496

> <Gold.Chemscore.Internal_Hbond>
0.0000

> <Gold.Chemscore.DEClash>
0.3377

> <Gold.Chemscore.DEInternal>
0.3650

> <Gold.Chemscore.Rot>
1.5005

> <Gold.Chemscore.Internal.Correction>
   9.000000E+99

> <Gold.Chemscore.Hbond.Weighted>
-0.0000

> <Gold.Chemscore.Metal.Weighted>
-0.0000

> <Gold.Chemscore.Lipo.Weighted>
-12.9811

> <Gold.Chemscore.Internal_Hbond.Weighted>
0.0000

> <Gold.Chemscore.DEClash.Weighted>
0.3377

> <Gold.Chemscore.DEInternal.Weighted>
0.3650

> <Gold.Chemscore.Rot.Weighted>
3.8412

> <Gold.Chemscore.Internal.Correction.Weighted>
   9.000000E+99

> <Gold.Protein.RotatedTorsions>
[ 6907 6896 6895 6894 ] final  -40.42 input  -60.11 | X-H torsion
[ 7974 7965 7964 7962 ] final  127.14 input  175.53 | X-H torsion
[ 8008 7997 7996 7995 ] final  104.50 input   59.86 | X-H torsion
[ 10167 10162 10161 10158 ] final -104.06 input  -65.29 | X-H torsion
[ 10718 10713 10712 10709 ] final  -93.94 input   66.30 | X-H torsion
[ 10763 10752 10751 10750 ] final -162.20 input  -60.55 | X-H torsion
[ 11005 11000 10999 10996 ] final  117.14 input  -57.11 | X-H torsion

> <Gold.Protein.ActiveResidues>
 VAL166  LYS551  ARG553  GLY616  TRP617  ASP618  TYR619  PRO620  LYS621  CYS622 
 ASP623  PHE694  ASN695  SER759  ASP760  ASP761  ALA762  ILE779  LEU786  VAL792 
 PHE793  MET794  SER795  GLU796  ALA797  LYS798  CYS799  TRP800  GLU811  SER814 

> <Gold.Protein.RotatedAtoms>
  150.9787  134.9146  159.7830 H   0  0  0  0  0  0  0  0  0  0  0  0  # atno 6907 bound_to 6896
  152.5214  134.3441  159.9237 H   0  0  0  0  0  0  0  0  0  0  0  0  # atno 6908 bound_to 6896
  151.3448  133.3907  159.2709 H   0  0  0  0  0  0  0  0  0  0  0  0  # atno 6909 bound_to 6896
  145.0538  139.3861  143.5040 H   0  0  0  0  0  0  0  0  0  0  0  0  # atno 7974 bound_to 7965
  156.1578  140.3146  155.8756 H   0  0  0  0  0  0  0  0  0  0  0  0  # atno 8008 bound_to 7997
  155.3842  140.0489  157.3060 H   0  0  0  0  0  0  0  0  0  0  0  0  # atno 8009 bound_to 7997
  154.5118  140.2167  155.9153 H   0  0  0  0  0  0  0  0  0  0  0  0  # atno 8010 bound_to 7997
  140.2133  143.3730  152.1032 H   0  0  0  0  0  0  0  0  0  0  0  0  # atno 10167 bound_to 10162
  156.0020  130.5047  150.5852 H   0  0  0  0  0  0  0  0  0  0  0  0  # atno 10718 bound_to 10713
  154.7235  135.3031  154.9009 H   0  0  0  0  0  0  0  0  0  0  0  0  # atno 10763 bound_to 10752
  153.9873  135.6723  153.4756 H   0  0  0  0  0  0  0  0  0  0  0  0  # atno 10764 bound_to 10752
  153.0854  135.4986  154.8505 H   0  0  0  0  0  0  0  0  0  0  0  0  # atno 10765 bound_to 10752
  139.9064  134.9606  156.7305 H   0  0  0  0  0  0  0  0  0  0  0  0  # atno 11005 bound_to 11000
  146.3520  140.0202  142.8659 LP  0  0  0  0  0  0  0  0  0  0  0  0  # atno 17320 bound_to 7965
  145.1493  140.9614  143.4442 LP  0  0  0  0  0  0  0  0  0  0  0  0  # atno 17321 bound_to 7965
  139.5171  144.6988  151.5554 LP  0  0  0  0  0  0  0  0  0  0  0  0  # atno 17342 bound_to 10162
  140.6308  143.9080  150.6604 LP  0  0  0  0  0  0  0  0  0  0  0  0  # atno 17343 bound_to 10162
  157.3726  131.0768  151.1545 LP  0  0  0  0  0  0  0  0  0  0  0  0  # atno 17370 bound_to 10713
  157.2293  130.6518  149.5843 LP  0  0  0  0  0  0  0  0  0  0  0  0  # atno 17371 bound_to 10713
  140.6929  133.9374  155.7977 LP  0  0  0  0  0  0  0  0  0  0  0  0  # atno 17394 bound_to 11000
  141.0428  134.0596  157.3881 LP  0  0  0  0  0  0  0  0  0  0  0  0  # atno 17395 bound_to 11000

$$$$
