AV-unprocessed.smi:1830|AV-procd|sdf|7441|dock9
  -GOLD-   22720 9133D 1   1.00000     0.00000
 Structure written by MMmdl.
 52 55  0  0  0  0  0  0  0  0  1 V2000
  148.0565  137.0659  156.1649 O   0  0  0  0  0  0  0  0  0  0  0  0
  148.2233  136.7006  155.0011 C   0  0  0  0  0  0  0  0  0  0  0  0
  149.3834  136.8300  154.3439 N   0  0  0  0  0  0  0  0  0  0  0  0
  150.5967  137.4217  154.8957 C   0  0  0  0  0  0  0  0  0  0  0  0
  150.9274  138.7745  154.2290 C   0  0  1  0  0  0  0  0  0  0  0  0
  149.8042  139.8214  154.4157 C   0  0  0  0  0  0  0  0  0  0  0  0
  149.8057  140.3367  155.7720 N   0  0  0  0  0  0  0  0  0  0  0  0
  148.8650  141.3917  156.0684 C   0  0  0  0  0  0  0  0  0  0  0  0
  149.3705  141.9904  157.3919 C   0  0  0  0  0  0  0  0  0  0  0  0
  150.8539  141.5652  157.4648 C   0  0  0  0  0  0  0  0  0  0  0  0
  151.0851  140.9014  156.1058 C   0  0  1  0  0  0  0  0  0  0  0  0
  152.1888  139.8391  156.0167 C   0  0  0  0  0  0  0  0  0  0  0  0
  152.1846  139.2944  154.6931 O   0  0  0  0  0  0  0  0  0  0  0  0
  147.2826  136.1482  154.2173 N   0  0  0  0  0  0  0  0  0  0  0  0
  145.9301  135.8398  154.5393 C   0  0  0  0  0  0  0  0  0  0  0  0
  145.3445  136.1930  155.7797 C   0  0  0  0  0  0  0  0  0  0  0  0
  144.0066  135.8421  156.0328 C   0  0  0  0  0  0  0  0  0  0  0  0
  143.3017  135.1409  155.0395 C   0  0  0  0  0  0  0  0  0  0  0  0
  143.8494  134.7821  153.8609 N   0  0  0  0  0  0  0  0  0  0  0  0
  145.1371  135.1198  153.6049 C   0  0  0  0  0  0  0  0  0  0  0  0
  145.6908  134.7022  152.3765 N   0  0  0  0  0  0  0  0  0  0  0  0
  146.7141  133.6699  152.5160 C   0  0  0  0  0  0  0  0  0  0  0  0
  146.5610  132.7439  151.3082 C   0  0  0  0  0  0  0  0  0  0  0  0
  145.0828  132.8735  150.9633 C   0  0  0  0  0  0  0  0  0  0  0  0
  144.7989  134.3421  151.2751 C   0  0  0  0  0  0  0  0  0  0  0  0
  149.4284  136.5109  153.3873 H   0  0  0  0  0  0  0  0  0  0  0  0
  150.4869  137.5514  155.9738 H   0  0  0  0  0  0  0  0  0  0  0  0
  151.4130  136.7122  154.7618 H   0  0  0  0  0  0  0  0  0  0  0  0
  151.0377  138.5988  153.1583 H   0  0  0  0  0  0  0  0  0  0  0  0
  149.9582  140.6418  153.7133 H   0  0  0  0  0  0  0  0  0  0  0  0
  148.8330  139.3859  154.1783 H   0  0  0  0  0  0  0  0  0  0  0  0
  148.8911  142.1506  155.2846 H   0  0  0  0  0  0  0  0  0  0  0  0
  147.8447  141.0133  156.1402 H   0  0  0  0  0  0  0  0  0  0  0  0
  149.2534  143.0745  157.4035 H   0  0  0  0  0  0  0  0  0  0  0  0
  148.8174  141.5842  158.2398 H   0  0  0  0  0  0  0  0  0  0  0  0
  151.5259  142.4076  157.6305 H   0  0  0  0  0  0  0  0  0  0  0  0
  150.9995  140.8495  158.2751 H   0  0  0  0  0  0  0  0  0  0  0  0
  151.3192  141.6902  155.3876 H   0  0  0  0  0  0  0  0  0  0  0  0
  153.1646  140.2815  156.2174 H   0  0  0  0  0  0  0  0  0  0  0  0
  152.0377  139.0495  156.7535 H   0  0  0  0  0  0  0  0  0  0  0  0
  147.5401  135.9998  153.2526 H   0  0  0  0  0  0  0  0  0  0  0  0
  145.8997  136.7124  156.5452 H   0  0  0  0  0  0  0  0  0  0  0  0
  143.5340  136.1003  156.9689 H   0  0  0  0  0  0  0  0  0  0  0  0
  142.2733  134.8525  155.1983 H   0  0  0  0  0  0  0  0  0  0  0  0
  147.7120  134.1070  152.5562 H   0  0  0  0  0  0  0  0  0  0  0  0
  146.5582  133.1079  153.4386 H   0  0  0  0  0  0  0  0  0  0  0  0
  147.1659  133.1125  150.4786 H   0  0  0  0  0  0  0  0  0  0  0  0
  146.8641  131.7177  151.5183 H   0  0  0  0  0  0  0  0  0  0  0  0
  144.8577  132.6071  149.9306 H   0  0  0  0  0  0  0  0  0  0  0  0
  144.4909  132.2325  151.6181 H   0  0  0  0  0  0  0  0  0  0  0  0
  143.7415  134.5171  151.4732 H   0  0  0  0  0  0  0  0  0  0  0  0
  145.0657  134.9616  150.4183 H   0  0  0  0  0  0  0  0  0  0  0  0
  1  2  2  0  0  0  0
  2  3  1  0  0  0  0
  2 14  1  0  0  0  0
  3  4  1  0  0  0  0
  3 26  1  0  0  0  0
  4  5  1  0  0  0  0
  4 27  1  0  0  0  0
  4 28  1  0  0  0  0
  5 13  1  0  0  0  0
  5  6  1  0  0  0  0
  5 29  1  0  0  0  0
  6  7  1  0  0  0  0
  6 30  1  0  0  0  0
  6 31  1  0  0  0  0
  7 11  1  0  0  0  0
  7  8  1  0  0  0  0
  8  9  1  0  0  0  0
  8 32  1  0  0  0  0
  8 33  1  0  0  0  0
  9 10  1  0  0  0  0
  9 34  1  0  0  0  0
  9 35  1  0  0  0  0
 10 11  1  0  0  0  0
 10 36  1  0  0  0  0
 10 37  1  0  0  0  0
 11 12  1  0  0  0  0
 11 38  1  0  0  0  0
 12 13  1  0  0  0  0
 12 39  1  0  0  0  0
 12 40  1  0  0  0  0
 14 15  1  0  0  0  0
 14 41  1  0  0  0  0
 15 20  1  0  0  0  0
 15 16  2  0  0  0  0
 16 17  1  0  0  0  0
 16 42  1  0  0  0  0
 17 18  2  0  0  0  0
 17 43  1  0  0  0  0
 18 19  1  0  0  0  0
 18 44  1  0  0  0  0
 19 20  2  0  0  0  0
 20 21  1  0  0  0  0
 21 25  1  0  0  0  0
 21 22  1  0  0  0  0
 22 23  1  0  0  0  0
 22 45  1  0  0  0  0
 22 46  1  0  0  0  0
 23 24  1  0  0  0  0
 23 47  1  0  0  0  0
 23 48  1  0  0  0  0
 24 25  1  0  0  0  0
 24 49  1  0  0  0  0
 24 50  1  0  0  0  0
 25 51  1  0  0  0  0
 25 52  1  0  0  0  0
M  END
> <s_m_source_file>
AV-unprocessed.smi

> <i_m_source_file_index>
1830

> <i_lp_mmshare_version>
43012

> <i_f3d_flags>
0

> <s_epik_input>
W0NIMl0xW0NIMl1bQ0gyXVtDQEhdKE4xMilbQ0gyXU9bQ0BASF0oW0NIMl0yKVtDSDJdW05IXUMoPU8pW05IXWMzW2NIXVtjSF1bY0hdbmMzTjRbQ0gyXVtDSDJdW0NIMl1bQ0gyXTQ=

> <s_epik_cmdline>
J2VwaWtfcHl0aG9uJywgJy1waCcsICc3LjAnLCAnLXRuJywgJzgnLCAnLW1hJywgJzIwMCcsICctbWV0YWxfYmluZGluZycsICctaW1hZScsICc8aW5maWxlLm1hZT4nLCAnLW9tYWUnLCAnPG91dGZpbGUubWFlPic=

> <r_lp_tautomer_probability>
1

> <r_epik_Ionization_Penalty>
1.16487

> <r_epik_Ionization_Penalty_Charging>
0

> <r_epik_Ionization_Penalty_Neutral>
1.16487

> <r_epik_State_Penalty>
1.21807

> <r_epik_Charging_Adjusted_Penalty>
1.21807

> <i_epik_Tot_Q>
0

> <i_epik_Tot_abs_Q>
0

> <r_epik_Metal_State_Penalty>
1.19922

> <b_epik_Metal_Only>
0

> <s_lp_Force_Field>
OPLS_2005

> <r_lp_Energy>
78.6276

> <b_lp_Chiralities_Consistent>
1

> <s_lp_Variant>
AV-unprocessed.smi:1830-10

> <Gold.Version>
5.8.1

> <Gold.Id.Protein>
6NUR|6NUR_protein|mol2

> <Gold.PLP.Fitness>
39.8838

> <Gold.PLP.PLP>
-31.3905

> <Gold.PLP.part.hbond>
-3.0000

> <Gold.PLP.part.metal>
0.0000

> <Gold.PLP.part.buried>
-2.8112

> <Gold.PLP.part.nonpolar>
-24.3410

> <Gold.PLP.part.repulsive>
0.3088

> <Gold.PLP.ligand.clash>
0.0000

> <Gold.PLP.ligand.torsion>
0.3965

> <Gold.PLP.Chemscore.Hbond>
2.0528

> <Gold.PLP.Chemscore.CHOScore>
1.0000

> <Gold.PLP.Chemscore.Metal>
0.0000

> <Gold.Chemscore.Hbonds>
donor molecule, donor type, donor heavy atom, donor atom, acceptor molecule, acceptor atom, score
      L1  H     3    26       P1  7948  1.00
      L1  H    14    41       P1  7948  0.93
      P1  H  7989  7998       L1    13  0.08
      L1  C    18    44       P1 11000  1.00

> <Gold.PLP.Chemscore.Internal.Correction>
0.1280

> <Gold.Rescore>
     Score         DG    S(hbond)    S(metal)    S(lipo)     H(rot)  DE(clash)    DE(int)     intcor
     15.33     -17.15       1.77        0.00      79.17       1.37       0.01       1.80       ----

> <Gold.Chemscore.Fitness>
15.3310

> <Gold.Chemscore.DG>
-17.1491

> <Gold.Chemscore.ZeroCoef>
-5.4800

> <Gold.Chemscore.Hbond>
1.7739

> <Gold.Chemscore.Metal>
0.0000

> <Gold.Chemscore.Lipo>
79.1732

> <Gold.Chemscore.Internal_Hbond>
0.0000

> <Gold.Chemscore.DEClash>
0.0148

> <Gold.Chemscore.DEInternal>
1.8033

> <Gold.Chemscore.Rot>
1.3746

> <Gold.Chemscore.Internal.Correction>
   9.000000E+99

> <Gold.Chemscore.Hbonds>
donor molecule, donor type, donor heavy atom, donor atom, acceptor molecule, acceptor atom, score
      L1  H     3    26       P1  7948  0.77
      L1  H    14    41       P1  7948  0.87

> <Gold.Chemscore.Hbond.Weighted>
-5.9247

> <Gold.Chemscore.Metal.Weighted>
-0.0000

> <Gold.Chemscore.Lipo.Weighted>
-9.2633

> <Gold.Chemscore.Internal_Hbond.Weighted>
0.0000

> <Gold.Chemscore.DEClash.Weighted>
0.0148

> <Gold.Chemscore.DEInternal.Weighted>
1.8033

> <Gold.Chemscore.Rot.Weighted>
3.5189

> <Gold.Chemscore.Internal.Correction.Weighted>
   9.000000E+99

> <Gold.Protein.RotatedTorsions>
[ 6907 6896 6895 6894 ] final   13.97 input  -60.11 | X-H torsion
[ 7974 7965 7964 7962 ] final  -36.22 input  175.53 | X-H torsion
[ 8008 7997 7996 7995 ] final  145.94 input   59.86 | X-H torsion
[ 10167 10162 10161 10158 ] final   30.03 input  -65.29 | X-H torsion
[ 10718 10713 10712 10709 ] final  -16.97 input   66.30 | X-H torsion
[ 10763 10752 10751 10750 ] final  149.89 input  -60.55 | X-H torsion
[ 11005 11000 10999 10996 ] final  171.84 input  -57.11 | X-H torsion

> <Gold.Protein.ActiveResidues>
 VAL166  LYS551  ARG553  GLY616  TRP617  ASP618  TYR619  PRO620  LYS621  CYS622 
 ASP623  PHE694  ASN695  SER759  ASP760  ASP761  ALA762  ILE779  LEU786  VAL792 
 PHE793  MET794  SER795  GLU796  ALA797  LYS798  CYS799  TRP800  GLU811  SER814 

> <Gold.Protein.RotatedAtoms>
  151.7948  135.0725  160.0391 H   0  0  0  0  0  0  0  0  0  0  0  0  # atno 6907 bound_to 6896
  152.3131  133.5769  159.5702 H   0  0  0  0  0  0  0  0  0  0  0  0  # atno 6908 bound_to 6896
  150.7330  134.0039  159.3689 H   0  0  0  0  0  0  0  0  0  0  0  0  # atno 6909 bound_to 6896
  146.0680  140.6253  142.8966 H   0  0  0  0  0  0  0  0  0  0  0  0  # atno 7974 bound_to 7965
  156.2869  140.2195  156.5297 H   0  0  0  0  0  0  0  0  0  0  0  0  # atno 8008 bound_to 7997
  154.7459  140.0484  157.0874 H   0  0  0  0  0  0  0  0  0  0  0  0  # atno 8009 bound_to 7997
  155.0171  140.3119  155.4810 H   0  0  0  0  0  0  0  0  0  0  0  0  # atno 8010 bound_to 7997
  140.4714  144.0757  150.6238 H   0  0  0  0  0  0  0  0  0  0  0  0  # atno 10167 bound_to 10162
  156.5800  130.4772  149.6324 H   0  0  0  0  0  0  0  0  0  0  0  0  # atno 10718 bound_to 10713
  154.0785  135.2861  155.3295 H   0  0  0  0  0  0  0  0  0  0  0  0  # atno 10763 bound_to 10752
  154.6699  135.5303  153.8129 H   0  0  0  0  0  0  0  0  0  0  0  0  # atno 10764 bound_to 10752
  153.0458  135.6555  154.0962 H   0  0  0  0  0  0  0  0  0  0  0  0  # atno 10765 bound_to 10752
  140.3233  134.7419  157.4080 H   0  0  0  0  0  0  0  0  0  0  0  0  # atno 11005 bound_to 11000
  144.7214  140.4385  143.7005 LP  0  0  0  0  0  0  0  0  0  0  0  0  # atno 17320 bound_to 7965
  145.6443  139.1555  143.2898 LP  0  0  0  0  0  0  0  0  0  0  0  0  # atno 17321 bound_to 7965
  140.3973  143.2722  151.9990 LP  0  0  0  0  0  0  0  0  0  0  0  0  # atno 17342 bound_to 10162
  139.4819  144.6027  151.7576 LP  0  0  0  0  0  0  0  0  0  0  0  0  # atno 17343 bound_to 10162
  156.2639  130.6978  151.1755 LP  0  0  0  0  0  0  0  0  0  0  0  0  # atno 17370 bound_to 10713
  157.7328  131.0596  150.5607 LP  0  0  0  0  0  0  0  0  0  0  0  0  # atno 17371 bound_to 10713
  140.0923  134.5584  155.8432 LP  0  0  0  0  0  0  0  0  0  0  0  0  # atno 17394 bound_to 11000
  141.2081  133.6671  156.6351 LP  0  0  0  0  0  0  0  0  0  0  0  0  # atno 17395 bound_to 11000

$$$$
