AV-unprocessed.smi:2001|AV-procd|sdf|8109|dock6
  -GOLD-   2272010333D 1   1.00000     0.00000
 Structure written by MMmdl.
 50 51  0  0  0  0  0  0  0  0  3 V2000
  143.4833  133.9386  163.1153 C   0  0  0  0  0  0  0  0  0  0  0  0
  144.8652  133.7066  162.9070 O   0  0  0  0  0  0  0  0  0  0  0  0
  145.5639  134.8845  162.5403 C   0  0  0  0  0  0  0  0  0  0  0  0
  147.0239  134.5211  162.2303 C   0  0  0  0  0  0  0  0  0  0  0  0
  147.3930  134.8962  160.8617 N   0  0  0  0  0  0  0  0  0  0  0  0
  147.4218  133.8341  159.9739 N   0  0  0  0  0  0  0  0  0  0  0  0
  147.7277  134.0260  158.7312 C   0  0  0  0  0  0  0  0  0  0  0  0
  147.7593  132.8772  157.7696 C   0  0  0  0  0  0  0  0  0  0  0  0
  148.2149  131.8199  158.2268 O   0  0  0  0  0  0  0  0  0  0  0  0
  147.3009  133.0639  156.4948 N   0  5  0  0  0  0  0  0  0  0  0  0
  145.9092  132.9312  156.0681 C   0  0  0  0  0  0  0  0  0  0  0  0
  145.7117  133.6445  154.7166 C   0  0  0  0  0  0  0  0  0  0  0  0
  145.2913  132.7042  153.6437 N   0  3  1  0  0  0  0  0  0  0  0  0
  144.8946  133.3956  152.3933 C   0  0  0  0  0  0  0  0  0  0  0  0
  144.3806  132.3800  151.3555 C   0  0  1  0  0  0  0  0  0  0  0  0
  144.0325  133.0463  150.0199 C   0  0  0  0  0  0  0  0  0  0  0  0
  145.3900  131.4046  151.1163 O   0  0  0  0  0  0  0  0  0  0  0  0
  145.7301  130.6698  152.2874 C   0  0  1  0  0  0  0  0  0  0  0  0
  146.7481  129.5919  151.8991 C   0  0  0  0  0  0  0  0  0  0  0  0
  146.2867  131.6416  153.3441 C   0  0  0  0  0  0  0  0  0  0  0  0
  148.0443  135.3649  158.2484 C   0  0  0  0  0  0  0  0  0  0  0  0
  148.0058  136.3916  159.1255 C   0  0  0  0  0  0  0  0  0  0  0  0
  147.6595  136.1954  160.5331 C   0  0  0  0  0  0  0  0  0  0  0  0
  147.6085  137.1163  161.3482 O   0  0  0  0  0  0  0  0  0  0  0  0
  142.9934  133.0061  163.3955 H   0  0  0  0  0  0  0  0  0  0  0  0
  143.0050  134.3107  162.2083 H   0  0  0  0  0  0  0  0  0  0  0  0
  143.3205  134.6587  163.9182 H   0  0  0  0  0  0  0  0  0  0  0  0
  145.0969  135.3383  161.6646 H   0  0  0  0  0  0  0  0  0  0  0  0
  145.5168  135.6110  163.3531 H   0  0  0  0  0  0  0  0  0  0  0  0
  147.6898  135.0009  162.9499 H   0  0  0  0  0  0  0  0  0  0  0  0
  147.1682  133.4486  162.3736 H   0  0  0  0  0  0  0  0  0  0  0  0
  145.6042  131.8896  155.9609 H   0  0  0  0  0  0  0  0  0  0  0  0
  145.2274  133.3652  156.8001 H   0  0  0  0  0  0  0  0  0  0  0  0
  144.9444  134.4091  154.8505 H   0  0  0  0  0  0  0  0  0  0  0  0
  146.6165  134.1759  154.4164 H   0  0  0  0  0  0  0  0  0  0  0  0
  144.1121  134.1244  152.6091 H   0  0  0  0  0  0  0  0  0  0  0  0
  145.7490  133.9471  151.9967 H   0  0  0  0  0  0  0  0  0  0  0  0
  143.4871  131.8838  151.7384 H   0  0  0  0  0  0  0  0  0  0  0  0
  143.2494  133.7942  150.1469 H   0  0  0  0  0  0  0  0  0  0  0  0
  143.6752  132.3108  149.2987 H   0  0  0  0  0  0  0  0  0  0  0  0
  144.9019  133.5421  149.5869 H   0  0  0  0  0  0  0  0  0  0  0  0
  144.8362  130.1780  152.6753 H   0  0  0  0  0  0  0  0  0  0  0  0
  147.0299  128.9894  152.7630 H   0  0  0  0  0  0  0  0  0  0  0  0
  147.6562  130.0345  151.4888 H   0  0  0  0  0  0  0  0  0  0  0  0
  146.3353  128.9195  151.1469 H   0  0  0  0  0  0  0  0  0  0  0  0
  147.2109  132.0988  152.9864 H   0  0  0  0  0  0  0  0  0  0  0  0
  146.5360  131.0901  154.2514 H   0  0  0  0  0  0  0  0  0  0  0  0
  148.3029  135.5514  157.2167 H   0  0  0  0  0  0  0  0  0  0  0  0
  148.2363  137.3881  158.7785 H   0  0  0  0  0  0  0  0  0  0  0  0
  144.4595  132.2458  153.9878 H   0  0  0  0  0  0  0  0  0  0  0  0
  1  2  1  0  0  0  0
  1 25  1  0  0  0  0
  1 26  1  0  0  0  0
  1 27  1  0  0  0  0
  2  3  1  0  0  0  0
  3  4  1  0  0  0  0
  3 28  1  0  0  0  0
  3 29  1  0  0  0  0
  4  5  1  0  0  0  0
  4 30  1  0  0  0  0
  4 31  1  0  0  0  0
  5 23  1  0  0  0  0
  5  6  1  0  0  0  0
  6  7  2  0  0  0  0
  7  8  1  0  0  0  0
  7 21  1  0  0  0  0
  8  9  2  0  0  0  0
  8 10  1  0  0  0  0
 10 11  1  0  0  0  0
 11 12  1  0  0  0  0
 11 32  1  0  0  0  0
 11 33  1  0  0  0  0
 12 13  1  0  0  0  0
 12 34  1  0  0  0  0
 12 35  1  0  0  0  0
 13 20  1  0  0  0  0
 13 14  1  0  0  0  0
 13 50  1  0  0  0  0
 14 15  1  0  0  0  0
 14 36  1  0  0  0  0
 14 37  1  0  0  0  0
 15 16  1  0  0  0  0
 15 17  1  0  0  0  0
 15 38  1  0  0  0  0
 16 39  1  0  0  0  0
 16 40  1  0  0  0  0
 16 41  1  0  0  0  0
 17 18  1  0  0  0  0
 18 19  1  0  0  0  0
 18 20  1  0  0  0  0
 18 42  1  0  0  0  0
 19 43  1  0  0  0  0
 19 44  1  0  0  0  0
 19 45  1  0  0  0  0
 20 46  1  0  0  0  0
 20 47  1  0  0  0  0
 21 22  2  0  0  0  0
 21 48  1  0  0  0  0
 22 23  1  0  0  0  0
 22 49  1  0  0  0  0
 23 24  2  0  0  0  0
M  CHG  1  10  -1
M  CHG  1  13   1
M  END
> <s_m_source_file>
AV-unprocessed.smi

> <i_m_source_file_index>
2001

> <i_lp_mmshare_version>
43012

> <i_f3d_flags>
0

> <s_epik_input>
W0NIM11PW0NIMl1bQ0gyXW4xbmMoW2NIXVtjSF1jMT1PKUMoPU8pW05IXVtDSDJdW0NIMl1OMltDSDJdW0NAQEhdKFtDSDNdKU9bQ0BASF0oW0NIM10pW0NIMl0y

> <s_epik_cmdline>
J2VwaWtfcHl0aG9uJywgJy1waCcsICc3LjAnLCAnLXRuJywgJzgnLCAnLW1hJywgJzIwMCcsICctbWV0YWxfYmluZGluZycsICctaW1hZScsICc8aW5maWxlLm1hZT4nLCAnLW9tYWUnLCAnPG91dGZpbGUubWFlPic=

> <r_lp_tautomer_probability>
1

> <r_epik_Ionization_Penalty>
6.90846

> <r_epik_Ionization_Penalty_Charging>
6.90846

> <r_epik_Ionization_Penalty_Neutral>
1.08445e-11

> <r_epik_State_Penalty>
7.54671

> <r_epik_Charging_Adjusted_Penalty>
14.4552

> <i_epik_Tot_Q>
0

> <i_epik_Tot_abs_Q>
2

> <r_epik_Metal_State_Penalty>
3.46181

> <b_epik_Metal_Only>
1

> <s_lp_Force_Field>
OPLS_2005

> <r_lp_Energy>
40.5373

> <b_lp_Chiralities_Consistent>
1

> <s_lp_Variant>
AV-unprocessed.smi:2001-8

> <Gold.Version>
5.8.1

> <Gold.Id.Protein>
6NUR|6NUR_protein|mol2

> <Gold.PLP.Fitness>
42.7331

> <Gold.PLP.PLP>
-36.2214

> <Gold.PLP.part.hbond>
-3.2606

> <Gold.PLP.part.metal>
0.0000

> <Gold.PLP.part.buried>
-5.6536

> <Gold.PLP.part.nonpolar>
-26.6142

> <Gold.PLP.part.repulsive>
0.1807

> <Gold.PLP.ligand.clash>
0.0000

> <Gold.PLP.ligand.torsion>
2.4599

> <Gold.PLP.Chemscore.Hbond>
3.7520

> <Gold.PLP.Chemscore.CHOScore>
0.0000

> <Gold.PLP.Chemscore.Metal>
0.0000

> <Gold.Chemscore.Hbonds>
donor molecule, donor type, donor heavy atom, donor atom, acceptor molecule, acceptor atom, score
      L1  H    13    50       P1 10957  2.00
      P1  H  6931  6943       L1    24  0.99
      P1  H  6934  6947       L1    24  0.86

> <Gold.PLP.Chemscore.Internal.Correction>
0.1755

> <Gold.Rescore>
     Score         DG    S(hbond)    S(metal)    S(lipo)     H(rot)  DE(clash)    DE(int)     intcor
     15.51     -17.82       2.66        0.00      73.71       2.02       0.03       2.29       ----

> <Gold.Chemscore.Fitness>
15.5070

> <Gold.Chemscore.DG>
-17.8173

> <Gold.Chemscore.ZeroCoef>
-5.4800

> <Gold.Chemscore.Hbond>
2.6583

> <Gold.Chemscore.Metal>
0.0000

> <Gold.Chemscore.Lipo>
73.7125

> <Gold.Chemscore.Internal_Hbond>
0.0000

> <Gold.Chemscore.DEClash>
0.0251

> <Gold.Chemscore.DEInternal>
2.2853

> <Gold.Chemscore.Rot>
2.0179

> <Gold.Chemscore.Internal.Correction>
   9.000000E+99

> <Gold.Chemscore.Hbonds>
donor molecule, donor type, donor heavy atom, donor atom, acceptor molecule, acceptor atom, score
      L1  H    13    50       P1 10957  0.25
      P1  H  6931  6943       L1    24  0.93
      P1  H  6934  6947       L1    24  0.82

> <Gold.Chemscore.Hbond.Weighted>
-8.8788

> <Gold.Chemscore.Metal.Weighted>
-0.0000

> <Gold.Chemscore.Lipo.Weighted>
-8.6244

> <Gold.Chemscore.Internal_Hbond.Weighted>
0.0000

> <Gold.Chemscore.DEClash.Weighted>
0.0251

> <Gold.Chemscore.DEInternal.Weighted>
2.2853

> <Gold.Chemscore.Rot.Weighted>
5.1659

> <Gold.Chemscore.Internal.Correction.Weighted>
   9.000000E+99

> <Gold.Protein.RotatedTorsions>
[ 6907 6896 6895 6894 ] final   27.61 input  -60.11 | X-H torsion
[ 7974 7965 7964 7962 ] final   26.35 input  175.53 | X-H torsion
[ 8008 7997 7996 7995 ] final   46.05 input   59.86 | X-H torsion
[ 10167 10162 10161 10158 ] final   86.01 input  -65.29 | X-H torsion
[ 10718 10713 10712 10709 ] final  125.50 input   66.30 | X-H torsion
[ 10763 10752 10751 10750 ] final  139.30 input  -60.55 | X-H torsion
[ 11005 11000 10999 10996 ] final  111.67 input  -57.11 | X-H torsion

> <Gold.Protein.ActiveResidues>
 VAL166  LYS551  ARG553  GLY616  TRP617  ASP618  TYR619  PRO620  LYS621  CYS622 
 ASP623  PHE694  ASN695  SER759  ASP760  ASP761  ALA762  ILE779  LEU786  VAL792 
 PHE793  MET794  SER795  GLU796  ALA797  LYS798  CYS799  TRP800  GLU811  SER814 

> <Gold.Protein.RotatedAtoms>
  152.0048  134.9908  160.0566 H   0  0  0  0  0  0  0  0  0  0  0  0  # atno 6907 bound_to 6896
  152.1485  133.4502  159.4810 H   0  0  0  0  0  0  0  0  0  0  0  0  # atno 6908 bound_to 6896
  150.6873  134.2137  159.4412 H   0  0  0  0  0  0  0  0  0  0  0  0  # atno 6909 bound_to 6896
  146.1842  139.7341  142.8878 H   0  0  0  0  0  0  0  0  0  0  0  0  # atno 7974 bound_to 7965
  155.3461  140.3411  155.4239 H   0  0  0  0  0  0  0  0  0  0  0  0  # atno 8008 bound_to 7997
  156.1788  140.1657  156.8348 H   0  0  0  0  0  0  0  0  0  0  0  0  # atno 8009 bound_to 7997
  154.5311  140.0745  156.8329 H   0  0  0  0  0  0  0  0  0  0  0  0  # atno 8010 bound_to 7997
  139.8919  144.6380  150.8729 H   0  0  0  0  0  0  0  0  0  0  0  0  # atno 10167 bound_to 10162
  157.5498  131.1094  150.8722 H   0  0  0  0  0  0  0  0  0  0  0  0  # atno 10718 bound_to 10713
  153.9038  135.3019  155.3448 H   0  0  0  0  0  0  0  0  0  0  0  0  # atno 10763 bound_to 10752
  154.7657  135.4911  153.9553 H   0  0  0  0  0  0  0  0  0  0  0  0  # atno 10764 bound_to 10752
  153.1230  135.6786  153.9404 H   0  0  0  0  0  0  0  0  0  0  0  0  # atno 10765 bound_to 10752
  139.8909  134.9513  156.6468 H   0  0  0  0  0  0  0  0  0  0  0  0  # atno 11005 bound_to 11000
  145.3987  141.0382  143.3083 LP  0  0  0  0  0  0  0  0  0  0  0  0  # atno 17320 bound_to 7965
  144.8368  139.5537  143.6918 LP  0  0  0  0  0  0  0  0  0  0  0  0  # atno 17321 bound_to 7965
  140.7725  143.3503  151.2027 LP  0  0  0  0  0  0  0  0  0  0  0  0  # atno 17342 bound_to 10162
  139.7102  143.9389  152.2944 LP  0  0  0  0  0  0  0  0  0  0  0  0  # atno 17343 bound_to 10162
  156.9250  130.5329  149.5279 LP  0  0  0  0  0  0  0  0  0  0  0  0  # atno 17370 bound_to 10713
  156.0566  130.5627  150.9105 LP  0  0  0  0  0  0  0  0  0  0  0  0  # atno 17371 bound_to 10713
  140.7551  133.8864  155.8376 LP  0  0  0  0  0  0  0  0  0  0  0  0  # atno 17394 bound_to 11000
  140.9968  134.1204  157.4356 LP  0  0  0  0  0  0  0  0  0  0  0  0  # atno 17395 bound_to 11000

$$$$
