AV-unprocessed.smi:1210|AV-procd|sdf|5077|dock5
  -GOLD-   22720 4123D 1   1.00000     0.00000
 Structure written by MMmdl.
 44 45  0  0  0  0  0  0  0  0  1 V2000
  149.0298  134.0571  158.1471 C   0  0  0  0  0  0  0  0  0  0  0  0
  148.7373  134.3868  159.5830 C   0  0  0  0  0  0  0  0  0  0  0  0
  148.6481  133.4091  160.4690 N   0  0  0  0  0  0  0  0  0  0  0  0
  148.3826  134.0261  161.6952 O   0  0  0  0  0  0  0  0  0  0  0  0
  148.3243  135.3676  161.4972 C   0  0  0  0  0  0  0  0  0  0  0  0
  148.0531  136.2125  162.6958 C   0  0  0  0  0  0  0  0  0  0  0  0
  148.5397  135.6659  160.1799 C   0  0  0  0  0  0  0  0  0  0  0  0
  148.5669  137.0199  159.5183 C   0  0  0  0  0  0  0  0  0  0  0  0
  149.9610  137.2863  158.9507 C   0  0  0  0  0  0  0  0  0  0  0  0
  150.8873  136.5160  159.2040 O   0  0  0  0  0  0  0  0  0  0  0  0
  150.0915  138.3702  158.1708 N   0  0  0  0  0  0  0  0  0  0  0  0
  151.3144  138.7684  157.4864 C   0  0  0  0  0  0  0  0  0  0  0  0
  151.2091  140.2064  156.9454 C   0  0  0  0  0  0  0  0  0  0  0  0
  151.5777  141.1928  157.9713 N   0  0  0  0  0  0  0  0  0  0  0  0
  150.6301  142.3024  158.1576 C   0  0  0  0  0  0  0  0  0  0  0  0
  151.2385  143.6715  157.7957 C   0  0  0  0  0  0  0  0  0  0  0  0
  152.1023  144.2859  158.9075 C   0  0  0  0  0  0  0  0  0  0  0  0
  153.3560  143.4722  159.2584 C   0  0  0  0  0  0  0  0  0  0  0  0
  153.0363  142.0675  159.7954 C   0  0  0  0  0  0  0  0  0  0  0  0
  152.7263  141.0637  158.6778 C   0  0  0  0  0  0  0  0  0  0  0  0
  153.5328  140.1556  158.4730 O   0  0  0  0  0  0  0  0  0  0  0  0
  150.0978  134.1316  157.9419 H   0  0  0  0  0  0  0  0  0  0  0  0
  148.5146  134.7417  157.4734 H   0  0  0  0  0  0  0  0  0  0  0  0
  148.7119  133.0450  157.8939 H   0  0  0  0  0  0  0  0  0  0  0  0
  148.8207  136.9782  162.8083 H   0  0  0  0  0  0  0  0  0  0  0  0
  148.0388  135.6125  163.6058 H   0  0  0  0  0  0  0  0  0  0  0  0
  147.0882  136.7113  162.6052 H   0  0  0  0  0  0  0  0  0  0  0  0
  147.8227  137.0868  158.7238 H   0  0  0  0  0  0  0  0  0  0  0  0
  148.3240  137.8141  160.2251 H   0  0  0  0  0  0  0  0  0  0  0  0
  149.2765  138.9470  158.0198 H   0  0  0  0  0  0  0  0  0  0  0  0
  152.1339  138.6911  158.2014 H   0  0  0  0  0  0  0  0  0  0  0  0
  151.5405  138.0699  156.6789 H   0  0  0  0  0  0  0  0  0  0  0  0
  151.8321  140.3195  156.0573 H   0  0  0  0  0  0  0  0  0  0  0  0
  150.1933  140.3952  156.5931 H   0  0  0  0  0  0  0  0  0  0  0  0
  149.7525  142.1569  157.5274 H   0  0  0  0  0  0  0  0  0  0  0  0
  150.2487  142.3040  159.1794 H   0  0  0  0  0  0  0  0  0  0  0  0
  151.8073  143.5990  156.8676 H   0  0  0  0  0  0  0  0  0  0  0  0
  150.4221  144.3642  157.5888 H   0  0  0  0  0  0  0  0  0  0  0  0
  152.4100  145.2855  158.5995 H   0  0  0  0  0  0  0  0  0  0  0  0
  151.4963  144.4242  159.8036 H   0  0  0  0  0  0  0  0  0  0  0  0
  154.0137  143.4070  158.3901 H   0  0  0  0  0  0  0  0  0  0  0  0
  153.9200  144.0163  160.0168 H   0  0  0  0  0  0  0  0  0  0  0  0
  153.9038  141.6984  160.3444 H   0  0  0  0  0  0  0  0  0  0  0  0
  152.2205  142.0969  160.5184 H   0  0  0  0  0  0  0  0  0  0  0  0
  1  2  1  0  0  0  0
  1 22  1  0  0  0  0
  1 23  1  0  0  0  0
  1 24  1  0  0  0  0
  2  7  1  0  0  0  0
  2  3  2  0  0  0  0
  3  4  1  0  0  0  0
  4  5  1  0  0  0  0
  5  6  1  0  0  0  0
  5  7  2  0  0  0  0
  6 25  1  0  0  0  0
  6 26  1  0  0  0  0
  6 27  1  0  0  0  0
  7  8  1  0  0  0  0
  8  9  1  0  0  0  0
  8 28  1  0  0  0  0
  8 29  1  0  0  0  0
  9 10  2  0  0  0  0
  9 11  1  0  0  0  0
 11 12  1  0  0  0  0
 11 30  1  0  0  0  0
 12 13  1  0  0  0  0
 12 31  1  0  0  0  0
 12 32  1  0  0  0  0
 13 14  1  0  0  0  0
 13 33  1  0  0  0  0
 13 34  1  0  0  0  0
 14 20  1  0  0  0  0
 14 15  1  0  0  0  0
 15 16  1  0  0  0  0
 15 35  1  0  0  0  0
 15 36  1  0  0  0  0
 16 17  1  0  0  0  0
 16 37  1  0  0  0  0
 16 38  1  0  0  0  0
 17 18  1  0  0  0  0
 17 39  1  0  0  0  0
 17 40  1  0  0  0  0
 18 19  1  0  0  0  0
 18 41  1  0  0  0  0
 18 42  1  0  0  0  0
 19 20  1  0  0  0  0
 19 43  1  0  0  0  0
 19 44  1  0  0  0  0
 20 21  2  0  0  0  0
M  END
> <s_m_source_file>
AV-unprocessed.smi

> <i_m_source_file_index>
1210

> <i_lp_mmshare_version>
43012

> <i_f3d_flags>
0

> <s_epik_input>
W0NIM11jMW5vYyhbQ0gzXSljMVtDSDJdQyg9TylbTkhdW0NIMl1bQ0gyXU4yW0NIMl1bQ0gyXVtDSDJdW0NIMl1bQ0gyXUMyPU8=

> <s_epik_cmdline>
J2VwaWtfcHl0aG9uJywgJy1waCcsICc3LjAnLCAnLXRuJywgJzgnLCAnLW1hJywgJzIwMCcsICctbWV0YWxfYmluZGluZycsICctaW1hZScsICc8aW5maWxlLm1hZT4nLCAnLW9tYWUnLCAnPG91dGZpbGUubWFlPic=

> <r_lp_tautomer_probability>
1

> <r_epik_Ionization_Penalty>
5.48219e-08

> <r_epik_Ionization_Penalty_Charging>
0

> <r_epik_Ionization_Penalty_Neutral>
5.48219e-08

> <r_epik_State_Penalty>
-0

> <r_epik_Charging_Adjusted_Penalty>
0

> <i_epik_Tot_Q>
0

> <i_epik_Tot_abs_Q>
0

> <r_epik_Metal_State_Penalty>
-0

> <b_epik_Metal_Only>
0

> <s_lp_Force_Field>
OPLS_2005

> <r_lp_Energy>
11.1007

> <b_lp_Chiralities_Consistent>
1

> <s_lp_Variant>
AV-unprocessed.smi:1210-1

> <Gold.Version>
5.8.1

> <Gold.Id.Protein>
6NUR|6NUR_protein|mol2

> <Gold.PLP.Fitness>
45.0295

> <Gold.PLP.PLP>
-39.8019

> <Gold.PLP.part.hbond>
-2.0000

> <Gold.PLP.part.metal>
0.0000

> <Gold.PLP.part.buried>
-4.5734

> <Gold.PLP.part.nonpolar>
-32.7006

> <Gold.PLP.part.repulsive>
0.1113

> <Gold.PLP.ligand.clash>
0.0000

> <Gold.PLP.ligand.torsion>
0.3996

> <Gold.PLP.Chemscore.Hbond>
2.0000

> <Gold.PLP.Chemscore.CHOScore>
0.0000

> <Gold.PLP.Chemscore.Metal>
0.0000

> <Gold.Chemscore.Hbonds>
donor molecule, donor type, donor heavy atom, donor atom, acceptor molecule, acceptor atom, score
      P1  H  6896  6907       L1    10  0.90
      P1  H  7997  8008       L1    21  0.98

> <Gold.PLP.Chemscore.Internal.Correction>
0.0267

> <Gold.Rescore>
     Score         DG    S(hbond)    S(metal)    S(lipo)     H(rot)  DE(clash)    DE(int)     intcor
     16.93     -18.64       1.94        0.00      96.27       1.79       0.02       1.68       ----

> <Gold.Chemscore.Fitness>
16.9343

> <Gold.Chemscore.DG>
-18.6438

> <Gold.Chemscore.ZeroCoef>
-5.4800

> <Gold.Chemscore.Hbond>
1.9427

> <Gold.Chemscore.Metal>
0.0000

> <Gold.Chemscore.Lipo>
96.2706

> <Gold.Chemscore.Internal_Hbond>
0.0000

> <Gold.Chemscore.DEClash>
0.0249

> <Gold.Chemscore.DEInternal>
1.6847

> <Gold.Chemscore.Rot>
1.7923

> <Gold.Chemscore.Internal.Correction>
   9.000000E+99

> <Gold.Chemscore.Hbonds>
donor molecule, donor type, donor heavy atom, donor atom, acceptor molecule, acceptor atom, score
      P1  H  6896  6907       L1    10  0.88
      P1  H  7997  8008       L1    21  0.93

> <Gold.Chemscore.Hbond.Weighted>
-6.4885

> <Gold.Chemscore.Metal.Weighted>
-0.0000

> <Gold.Chemscore.Lipo.Weighted>
-11.2637

> <Gold.Chemscore.Internal_Hbond.Weighted>
0.0000

> <Gold.Chemscore.DEClash.Weighted>
0.0249

> <Gold.Chemscore.DEInternal.Weighted>
1.6847

> <Gold.Chemscore.Rot.Weighted>
4.5884

> <Gold.Chemscore.Internal.Correction.Weighted>
   9.000000E+99

> <Gold.Protein.RotatedTorsions>
[ 6907 6896 6895 6894 ] final  -43.59 input  -60.11 | X-H torsion
[ 7974 7965 7964 7962 ] final -157.71 input  175.53 | X-H torsion
[ 8008 7997 7996 7995 ] final  -93.09 input   59.86 | X-H torsion
[ 10167 10162 10161 10158 ] final  146.52 input  -65.29 | X-H torsion
[ 10718 10713 10712 10709 ] final -155.92 input   66.30 | X-H torsion
[ 10763 10752 10751 10750 ] final -104.34 input  -60.55 | X-H torsion
[ 11005 11000 10999 10996 ] final   68.41 input  -57.11 | X-H torsion

> <Gold.Protein.ActiveResidues>
 VAL166  LYS551  ARG553  GLY616  TRP617  ASP618  TYR619  PRO620  LYS621  CYS622 
 ASP623  PHE694  ASN695  SER759  ASP760  ASP761  ALA762  ILE779  LEU786  VAL792 
 PHE793  MET794  SER795  GLU796  ALA797  LYS798  CYS799  TRP800  GLU811  SER814 

> <Gold.Protein.RotatedAtoms>
  150.9422  134.8830  159.7619 H   0  0  0  0  0  0  0  0  0  0  0  0  # atno 6907 bound_to 6896
  152.5085  134.3926  159.9399 H   0  0  0  0  0  0  0  0  0  0  0  0  # atno 6908 bound_to 6896
  151.3946  133.3737  159.2760 H   0  0  0  0  0  0  0  0  0  0  0  0  # atno 6909 bound_to 6896
  144.7536  140.3930  143.6029 H   0  0  0  0  0  0  0  0  0  0  0  0  # atno 7974 bound_to 7965
  154.7313  140.0502  157.0729 H   0  0  0  0  0  0  0  0  0  0  0  0  # atno 8008 bound_to 7997
  155.0298  140.3156  155.4743 H   0  0  0  0  0  0  0  0  0  0  0  0  # atno 8009 bound_to 7997
  156.2842  140.2152  156.5418 H   0  0  0  0  0  0  0  0  0  0  0  0  # atno 8010 bound_to 7997
  139.4906  144.5823  151.6847 H   0  0  0  0  0  0  0  0  0  0  0  0  # atno 10167 bound_to 10162
  156.5194  130.8471  151.2676 H   0  0  0  0  0  0  0  0  0  0  0  0  # atno 10718 bound_to 10713
  154.7871  135.4790  153.9971 H   0  0  0  0  0  0  0  0  0  0  0  0  # atno 10763 bound_to 10752
  153.1576  135.6803  153.8796 H   0  0  0  0  0  0  0  0  0  0  0  0  # atno 10764 bound_to 10752
  153.8420  135.3178  155.3405 H   0  0  0  0  0  0  0  0  0  0  0  0  # atno 10765 bound_to 10752
  139.9713  134.6896  156.0442 H   0  0  0  0  0  0  0  0  0  0  0  0  # atno 11005 bound_to 11000
  145.6856  139.1628  143.2676 LP  0  0  0  0  0  0  0  0  0  0  0  0  # atno 17320 bound_to 7965
  146.1519  140.6913  142.9318 LP  0  0  0  0  0  0  0  0  0  0  0  0  # atno 17321 bound_to 7965
  140.5432  144.0546  150.6096 LP  0  0  0  0  0  0  0  0  0  0  0  0  # atno 17342 bound_to 10162
  140.3575  143.2927  152.0420 LP  0  0  0  0  0  0  0  0  0  0  0  0  # atno 17343 bound_to 10162
  157.7439  130.9922  150.2629 LP  0  0  0  0  0  0  0  0  0  0  0  0  # atno 17370 bound_to 10713
  156.3164  130.3779  149.7615 LP  0  0  0  0  0  0  0  0  0  0  0  0  # atno 17371 bound_to 10713
  141.1392  133.6568  156.3681 LP  0  0  0  0  0  0  0  0  0  0  0  0  # atno 17394 bound_to 11000
  140.5288  134.6233  157.5343 LP  0  0  0  0  0  0  0  0  0  0  0  0  # atno 17395 bound_to 11000

$$$$
