#       Name:                AV-unprocessed.smi:1965
#       Creating user name   scv26
#       Creation time:       Fri Mar 27 10:11:15 2020


#       File generated by GOLD software.
#

@<TRIPOS>MOLECULE
AV-unprocessed.smi:1965
    40    42     1
SMALL
NO_CHARGES


@<TRIPOS>ATOM
      1 ****        -3.1977  -2.3385  -0.5077 O.2            1 S1                 0.0000
      2 ****        -1.9920  -2.4484  -0.2906 C.2            1 S1                 0.0000
      3 ****        -1.3424  -3.6406  -0.2409 N.pl3          1 S1                -1.0000
      4 ****        -0.0259  -3.7355   0.0240 C.2            1 S1                 0.0000
      5 ****         0.9088  -3.8123  -0.9305 N.2            1 S1                 0.0000
      6 ****         2.2092  -3.8938  -0.4292 C.2            1 S1                 0.0000
      7 ****         2.2660  -3.8785   0.9392 C.2            1 S1                 0.0000
      8 ****         0.6781  -3.7669   1.6431 S.3            1 S1                 0.0000
      9 ****        -1.2627  -1.3353  -0.0917 N.am           1 S1                 0.0000
     10 ****        -1.7540   0.0382  -0.0891 C.3            1 S1                 0.0000
     11 ****        -2.1022   0.5725  -1.4954 C.3            1 S1                 0.0000
     12 ****        -1.4562   1.9600  -1.5641 C.3            1 S1                 0.0000
     13 ****        -0.2818   1.8254  -0.6939 N.4            1 S1                 1.0000
     14 ****         0.4467   3.0513  -0.3074 C.3            1 S1                 0.0000
     15 ****         1.7155   2.6474   0.4742 C.3            1 S1                 0.0000
     16 ****         1.3986   1.7010   1.6541 C.3            1 S1                 0.0000
     17 ****         0.5392   0.5012   1.2039 C.3            1 S1                 0.0000
     18 ****        -0.7075   1.0261   0.4671 C.3            1 S1                 0.0000
     19 ****         3.0364  -3.9604  -1.1202 H              1 S1                 0.0000
     20 ****         3.1385  -3.9306   1.5729 H              1 S1                 0.0000
     21 ****        -0.2762  -1.4629   0.0809 H              1 S1                 0.0000
     22 ****        -2.6385   0.0818   0.5493 H              1 S1                 0.0000
     23 ****        -1.6637  -0.0667  -2.2636 H              1 S1                 0.0000
     24 ****        -3.1773   0.6069  -1.6742 H              1 S1                 0.0000
     25 ****        -1.1819   2.2471  -2.5797 H              1 S1                 0.0000
     26 ****        -2.1303   2.7166  -1.1591 H              1 S1                 0.0000
     27 ****         0.7184   3.6147  -1.2007 H              1 S1                 0.0000
     28 ****        -0.1946   3.6932   0.2985 H              1 S1                 0.0000
     29 ****         2.4087   2.1484  -0.2044 H              1 S1                 0.0000
     30 ****         2.2304   3.5375   0.8369 H              1 S1                 0.0000
     31 ****         2.3235   1.3486   2.1115 H              1 S1                 0.0000
     32 ****         0.8657   2.2565   2.4270 H              1 S1                 0.0000
     33 ****         1.1251  -0.1482   0.5513 H              1 S1                 0.0000
     34 ****         0.2483  -0.0971   2.0681 H              1 S1                 0.0000
     35 ****        -1.2434   1.6947   1.1448 H              1 S1                 0.0000
     36 ****         0.3695   1.2473  -1.2056 H              1 S1                 0.0000
     37 ****        -3.7548  -3.1549  -0.6595 LP             1 S1                 0.0000
     38 ****        -3.6207  -1.4328  -0.5324 LP             1 S1                 0.0000
     39 ****        -1.8615  -4.4789  -0.4073 LP             1 S1                 0.0000
     40 ****         0.6966  -3.8114  -1.9077 LP             1 S1                 0.0000
@<TRIPOS>BOND
    1    1    2 2     
    2    2    3 1     
    3    2    9 am    
    4    3    4 1     
    5    4    8 1     
    6    4    5 2     
    7    5    6 1     
    8    6    7 2     
    9    6   19 1     
   10    7    8 1     
   11    7   20 1     
   12    9   10 1     
   13    9   21 1     
   14   10   18 1     
   15   10   11 1     
   16   10   22 1     
   17   11   12 1     
   18   11   23 1     
   19   11   24 1     
   20   12   13 1     
   21   12   25 1     
   22   12   26 1     
   23   13   18 1     
   24   13   14 1     
   25   13   36 1     
   26   14   15 1     
   27   14   27 1     
   28   14   28 1     
   29   15   16 1     
   30   15   29 1     
   31   15   30 1     
   32   16   17 1     
   33   16   31 1     
   34   16   32 1     
   35   17   18 1     
   36   17   33 1     
   37   17   34 1     
   38   18   35 1     
   39    1   37 1     
   40    1   38 1     
   41    3   39 1     
   42    5   40 1     
@<TRIPOS>SUBSTRUCTURE
      1 S1             1
@<TRIPOS>SET
LONE_PAIRS      STATIC     ATOMS    <user>   **** ""
4 37 38 39 40
DONOR_HYDROGENS      STATIC     ATOMS    <user>   **** ""
2 21 36
ATOM$BLUE        STATIC     ATOMS    COLORGROUP SYSTEM
4 37 38 39 40
ATOM$RED        STATIC     ATOMS    COLORGROUP SYSTEM
2 21 36
