#       Name:                AV-unprocessed.smi:814
#       Creating user name   scv26
#       Creation time:       Fri Mar 27 01:26:23 2020


#       File generated by GOLD software.
#

@<TRIPOS>MOLECULE
AV-unprocessed.smi:814
    39    40     1
SMALL
NO_CHARGES


@<TRIPOS>ATOM
      1 ****        -1.5395   3.1517  -1.7836 C.3            1 S1                 0.0000
      2 ****        -2.1594   3.4889  -0.5000 N.pl3          1 S1                 0.0000
      3 ****        -2.7957   4.6614  -0.1820 C.2            1 S1                 0.0000
      4 ****        -3.2160   4.5404   1.1169 C.2            1 S1                 0.0000
      5 ****        -2.8190   3.3001   1.5379 N.pl3          1 S1                 1.0000
      6 ****        -2.1794   2.6567   0.5543 C.2            1 S1                 0.0000
      7 ****        -1.5919   1.2836   0.6463 C.3            1 S1                 0.0000
      8 ****        -0.1087   1.2963   1.0512 C.3            1 S1                 0.0000
      9 ****         0.4571  -0.0470   1.0394 N.am           1 S1                 0.0000
     10 ****         0.8514  -0.6985  -0.0660 C.2            1 S1                 0.0000
     11 ****         0.7775  -0.2114  -1.1949 O.2            1 S1                 0.0000
     12 ****         1.4093  -2.1142   0.1309 C.3            1 S1                 0.0000
     13 ****         0.5122  -3.1672  -0.5602 C.3            1 S1                 0.0000
     14 ****         1.1665  -4.5369  -0.6058 C.2            1 S1                 0.0000
     15 ****         2.4785  -4.7366  -0.3932 C.2            1 S1                 0.0000
     16 ****         3.4559  -3.6153  -0.0877 C.3            1 S1                 0.0000
     17 ****         2.8601  -2.2249  -0.3799 C.3            1 S1                 0.0000
     18 ****        -1.6168   4.0023  -2.4614 H              1 S1                 0.0000
     19 ****        -2.0545   2.2955  -2.2200 H              1 S1                 0.0000
     20 ****        -0.4878   2.9104  -1.6281 H              1 S1                 0.0000
     21 ****        -2.8997   5.4752  -0.8852 H              1 S1                 0.0000
     22 ****        -3.7529   5.2260   1.7563 H              1 S1                 0.0000
     23 ****        -2.1859   0.7277   1.3727 H              1 S1                 0.0000
     24 ****        -1.7391   0.8041  -0.3217 H              1 S1                 0.0000
     25 ****         0.4671   1.9419   0.3862 H              1 S1                 0.0000
     26 ****         0.0018   1.7101   2.0540 H              1 S1                 0.0000
     27 ****         0.5553  -0.5149   1.9290 H              1 S1                 0.0000
     28 ****         1.4205  -2.3302   1.2011 H              1 S1                 0.0000
     29 ****        -0.4350  -3.2522  -0.0265 H              1 S1                 0.0000
     30 ****         0.2738  -2.8763  -1.5843 H              1 S1                 0.0000
     31 ****         0.5258  -5.3756  -0.8353 H              1 S1                 0.0000
     32 ****         2.8815  -5.7382  -0.4264 H              1 S1                 0.0000
     33 ****         3.7377  -3.6910   0.9627 H              1 S1                 0.0000
     34 ****         4.3647  -3.7600  -0.6723 H              1 S1                 0.0000
     35 ****         2.8820  -2.0484  -1.4567 H              1 S1                 0.0000
     36 ****         3.4892  -1.4554   0.0699 H              1 S1                 0.0000
     37 ****        -2.9859   2.9202   2.4612 H              1 S1                 0.0000
     38 ****         0.4102   0.7105  -1.3186 LP             1 S1                 0.0000
     39 ****         1.0847  -0.7377  -1.9877 LP             1 S1                 0.0000
@<TRIPOS>BOND
    1    1    2 1     
    2    1   18 1     
    3    1   19 1     
    4    1   20 1     
    5    2    6 1     
    6    2    3 1     
    7    3    4 2     
    8    3   21 1     
    9    4    5 1     
   10    4   22 1     
   11    5    6 2     
   12    5   37 1     
   13    6    7 1     
   14    7    8 1     
   15    7   23 1     
   16    7   24 1     
   17    8    9 1     
   18    8   25 1     
   19    8   26 1     
   20    9   10 am    
   21    9   27 1     
   22   10   11 2     
   23   10   12 1     
   24   12   17 1     
   25   12   13 1     
   26   12   28 1     
   27   13   14 1     
   28   13   29 1     
   29   13   30 1     
   30   14   15 2     
   31   14   31 1     
   32   15   16 1     
   33   15   32 1     
   34   16   17 1     
   35   16   33 1     
   36   16   34 1     
   37   17   35 1     
   38   17   36 1     
   39   11   38 1     
   40   11   39 1     
@<TRIPOS>SUBSTRUCTURE
      1 S1             1
@<TRIPOS>SET
LONE_PAIRS      STATIC     ATOMS    <user>   **** ""
2 38 39
DONOR_HYDROGENS      STATIC     ATOMS    <user>   **** ""
2 37 27
ATOM$BLUE        STATIC     ATOMS    COLORGROUP SYSTEM
2 38 39
ATOM$RED        STATIC     ATOMS    COLORGROUP SYSTEM
2 37 27
