AV-unprocessed.smi:1510|AV-procd|sdf|6095|dock1
  -GOLD-   22720 6223D 1   1.00000     0.00000
 Structure written by MMmdl.
 32 33  0  0  0  0  0  0  0  0  2 V2000
  153.0740  139.4887  157.8252 O   0  0  0  0  0  0  0  0  0  0  0  0
  152.0628  140.1683  158.0105 C   0  0  0  0  0  0  0  0  0  0  0  0
  150.7294  139.8227  157.3287 C   0  0  0  0  0  0  0  0  0  0  0  0
  150.7346  138.5448  156.6015 N   0  0  0  0  0  0  0  0  0  0  0  0
  150.6150  137.3741  157.4663 N   0  5  0  0  0  0  0  0  0  0  0  0
  150.6041  136.1353  156.9066 C   0  0  0  0  0  0  0  0  0  0  0  0
  150.4941  135.1059  157.5686 O   0  0  0  0  0  0  0  0  0  0  0  0
  150.7331  136.0359  155.4621 C   0  0  0  0  0  0  0  0  0  0  0  0
  150.8602  137.1330  154.6898 C   0  0  0  0  0  0  0  0  0  0  0  0
  150.8725  138.4805  155.2461 C   0  0  0  0  0  0  0  0  0  0  0  0
  150.9972  139.4865  154.5475 O   0  0  0  0  0  0  0  0  0  0  0  0
  152.0446  141.2520  158.8011 N   0  0  0  0  0  0  0  0  0  0  0  0
  153.1852  141.7674  159.5488 C   0  0  0  0  0  0  0  0  0  0  0  0
  153.0678  143.2817  159.7889 C   0  0  1  0  0  0  0  0  0  0  0  0
  152.7689  144.0882  158.5236 C   0  0  0  0  0  0  0  0  0  0  0  0
  151.9621  145.2792  159.0239 C   0  0  0  0  0  0  0  0  0  0  0  0
  151.7166  144.9720  160.5022 C   0  0  0  0  0  0  0  0  0  0  0  0
  151.9537  143.5779  160.6170 O   0  0  0  0  0  0  0  0  0  0  0  0
  149.9394  139.8089  158.0817 H   0  0  0  0  0  0  0  0  0  0  0  0
  150.4741  140.6416  156.6536 H   0  0  0  0  0  0  0  0  0  0  0  0
  150.7296  135.0604  154.9986 H   0  0  0  0  0  0  0  0  0  0  0  0
  150.9556  137.0114  153.6211 H   0  0  0  0  0  0  0  0  0  0  0  0
  151.1728  141.7513  158.8976 H   0  0  0  0  0  0  0  0  0  0  0  0
  153.2724  141.2392  160.4998 H   0  0  0  0  0  0  0  0  0  0  0  0
  154.0925  141.5449  158.9867 H   0  0  0  0  0  0  0  0  0  0  0  0
  153.9728  143.6687  160.2615 H   0  0  0  0  0  0  0  0  0  0  0  0
  153.6791  144.3851  158.0015 H   0  0  0  0  0  0  0  0  0  0  0  0
  152.1625  143.5038  157.8301 H   0  0  0  0  0  0  0  0  0  0  0  0
  152.4961  146.2217  158.8992 H   0  0  0  0  0  0  0  0  0  0  0  0
  151.0203  145.3525  158.4787 H   0  0  0  0  0  0  0  0  0  0  0  0
  152.4284  145.5101  161.1301 H   0  0  0  0  0  0  0  0  0  0  0  0
  150.7095  145.2349  160.8263 H   0  0  0  0  0  0  0  0  0  0  0  0
  1  2  2  0  0  0  0
  2  3  1  0  0  0  0
  2 12  1  0  0  0  0
  3 19  1  0  0  0  0
  3 20  1  0  0  0  0
  3  4  1  0  0  0  0
  4  5  1  0  0  0  0
  4 10  1  0  0  0  0
  5  6  1  0  0  0  0
  6  7  2  0  0  0  0
  6  8  1  0  0  0  0
  8 21  1  0  0  0  0
  8  9  2  0  0  0  0
  9 22  1  0  0  0  0
  9 10  1  0  0  0  0
 10 11  2  0  0  0  0
 12 13  1  0  0  0  0
 12 23  1  0  0  0  0
 13 14  1  0  0  0  0
 13 24  1  0  0  0  0
 13 25  1  0  0  0  0
 14 18  1  0  0  0  0
 14 15  1  0  0  0  0
 14 26  1  0  0  0  0
 15 16  1  0  0  0  0
 15 27  1  0  0  0  0
 15 28  1  0  0  0  0
 16 17  1  0  0  0  0
 16 29  1  0  0  0  0
 16 30  1  0  0  0  0
 17 18  1  0  0  0  0
 17 31  1  0  0  0  0
 17 32  1  0  0  0  0
M  CHG  1   5  -1
M  END
> <s_m_source_file>
AV-unprocessed.smi

> <i_m_source_file_index>
1510

> <i_lp_mmshare_version>
43012

> <i_f3d_flags>
0

> <s_epik_input>
TzFbQ0gyXVtDSDJdW0NIMl1bQ0BIXTFbQ0gyXVtOSF1DKD1PKVtDSDJdbjJbbkhdYyg9TylbY0hdW2NIXWMyPU8=

> <s_epik_cmdline>
J2VwaWtfcHl0aG9uJywgJy1waCcsICc3LjAnLCAnLXRuJywgJzgnLCAnLW1hJywgJzIwMCcsICctbWV0YWxfYmluZGluZycsICctaW1hZScsICc8aW5maWxlLm1hZT4nLCAnLW9tYWUnLCAnPG91dGZpbGUubWFlPic=

> <r_lp_tautomer_probability>
1

> <r_epik_Ionization_Penalty>
0.0970799

> <r_epik_Ionization_Penalty_Charging>
0.0970799

> <r_epik_Ionization_Penalty_Neutral>
2.6859e-08

> <r_epik_State_Penalty>
0.0341592

> <r_epik_Charging_Adjusted_Penalty>
0.131239

> <i_epik_Tot_Q>
-1

> <i_epik_Tot_abs_Q>
1

> <r_epik_Metal_State_Penalty>
0.0341592

> <b_epik_Metal_Only>
0

> <s_lp_Force_Field>
OPLS_2005

> <r_lp_Energy>
32.1041

> <b_lp_Chiralities_Consistent>
1

> <s_lp_Variant>
AV-unprocessed.smi:1510-2

> <Gold.Version>
5.8.1

> <Gold.Id.Protein>
6NUR|6NUR_protein|mol2

> <Gold.PLP.Fitness>
41.7879

> <Gold.PLP.PLP>
-34.9831

> <Gold.PLP.part.hbond>
-3.0000

> <Gold.PLP.part.metal>
0.0000

> <Gold.PLP.part.buried>
-6.2050

> <Gold.PLP.part.nonpolar>
-27.2416

> <Gold.PLP.part.repulsive>
0.3016

> <Gold.PLP.ligand.clash>
0.0000

> <Gold.PLP.ligand.torsion>
0.5146

> <Gold.PLP.Chemscore.Hbond>
2.6080

> <Gold.PLP.Chemscore.CHOScore>
0.0000

> <Gold.PLP.Chemscore.Metal>
0.0000

> <Gold.Chemscore.Hbonds>
donor molecule, donor type, donor heavy atom, donor atom, acceptor molecule, acceptor atom, score
      P1  H  6896  6907       L1     7  0.54
      P1  H  7989  7998       L1    11  1.00
      P1  H  7997  8008       L1     1  1.00

> <Gold.PLP.Chemscore.Internal.Correction>
0.0099

> <Gold.Rescore>
     Score         DG    S(hbond)    S(metal)    S(lipo)     H(rot)  DE(clash)    DE(int)     intcor
     18.53     -19.15       2.91        0.00      78.49       2.05       0.01       0.62       ----

> <Gold.Chemscore.Fitness>
18.5262

> <Gold.Chemscore.DG>
-19.1491

> <Gold.Chemscore.ZeroCoef>
-5.4800

> <Gold.Chemscore.Hbond>
2.9116

> <Gold.Chemscore.Metal>
0.0000

> <Gold.Chemscore.Lipo>
78.4877

> <Gold.Chemscore.Internal_Hbond>
0.0000

> <Gold.Chemscore.DEClash>
0.0073

> <Gold.Chemscore.DEInternal>
0.6156

> <Gold.Chemscore.Rot>
2.0463

> <Gold.Chemscore.Internal.Correction>
   9.000000E+99

> <Gold.Chemscore.Hbonds>
donor molecule, donor type, donor heavy atom, donor atom, acceptor molecule, acceptor atom, score
      P1  H  6896  6907       L1     7  0.52
      P1  H  7989  7998       L1    11  1.00
      P1  H  7997  8008       L1     1  1.00

> <Gold.Chemscore.Hbond.Weighted>
-9.7247

> <Gold.Chemscore.Metal.Weighted>
-0.0000

> <Gold.Chemscore.Lipo.Weighted>
-9.1831

> <Gold.Chemscore.Internal_Hbond.Weighted>
0.0000

> <Gold.Chemscore.DEClash.Weighted>
0.0073

> <Gold.Chemscore.DEInternal.Weighted>
0.6156

> <Gold.Chemscore.Rot.Weighted>
5.2386

> <Gold.Chemscore.Internal.Correction.Weighted>
   9.000000E+99

> <Gold.Protein.RotatedTorsions>
[ 6907 6896 6895 6894 ] final  -84.44 input  -60.11 | X-H torsion
[ 7974 7965 7964 7962 ] final  167.66 input  175.53 | X-H torsion
[ 8008 7997 7996 7995 ] final  -80.14 input   59.86 | X-H torsion
[ 10167 10162 10161 10158 ] final -134.97 input  -65.29 | X-H torsion
[ 10718 10713 10712 10709 ] final   39.65 input   66.30 | X-H torsion
[ 10763 10752 10751 10750 ] final  -30.75 input  -60.55 | X-H torsion
[ 11005 11000 10999 10996 ] final   70.64 input  -57.11 | X-H torsion

> <Gold.Protein.ActiveResidues>
 VAL166  LYS551  ARG553  GLY616  TRP617  ASP618  TYR619  PRO620  LYS621  CYS622 
 ASP623  PHE694  ASN695  SER759  ASP760  ASP761  ALA762  ILE779  LEU786  VAL792 
 PHE793  MET794  SER795  GLU796  ALA797  LYS798  CYS799  TRP800  GLU811  SER814 

> <Gold.Protein.RotatedAtoms>
  150.6876  134.3357  159.4846 H   0  0  0  0  0  0  0  0  0  0  0  0  # atno 6907 bound_to 6896
  152.1217  134.9198  160.0572 H   0  0  0  0  0  0  0  0  0  0  0  0  # atno 6908 bound_to 6896
  152.0402  133.3939  159.4370 H   0  0  0  0  0  0  0  0  0  0  0  0  # atno 6909 bound_to 6896
  144.7416  139.8793  143.6395 H   0  0  0  0  0  0  0  0  0  0  0  0  # atno 7974 bound_to 7965
  154.5854  140.0667  156.9164 H   0  0  0  0  0  0  0  0  0  0  0  0  # atno 8008 bound_to 7997
  155.2388  140.3343  155.4276 H   0  0  0  0  0  0  0  0  0  0  0  0  # atno 8009 bound_to 7997
  156.2219  140.1802  156.7441 H   0  0  0  0  0  0  0  0  0  0  0  0  # atno 8010 bound_to 7997
  139.8826  143.6821  152.2625 H   0  0  0  0  0  0  0  0  0  0  0  0  # atno 10167 bound_to 10162
  157.3731  130.7712  149.7134 H   0  0  0  0  0  0  0  0  0  0  0  0  # atno 10718 bound_to 10713
  153.7861  135.6901  153.4880 H   0  0  0  0  0  0  0  0  0  0  0  0  # atno 10763 bound_to 10752
  153.1780  135.4517  154.9989 H   0  0  0  0  0  0  0  0  0  0  0  0  # atno 10764 bound_to 10752
  154.8063  135.3358  154.7360 H   0  0  0  0  0  0  0  0  0  0  0  0  # atno 10765 bound_to 10752
  139.9587  134.7099  156.0695 H   0  0  0  0  0  0  0  0  0  0  0  0  # atno 11005 bound_to 11000
  146.1223  139.4243  143.0220 LP  0  0  0  0  0  0  0  0  0  0  0  0  # atno 17320 bound_to 7965
  145.7286  141.0050  143.1364 LP  0  0  0  0  0  0  0  0  0  0  0  0  # atno 17321 bound_to 7965
  139.7182  144.7608  151.0998 LP  0  0  0  0  0  0  0  0  0  0  0  0  # atno 17342 bound_to 10162
  140.7742  143.5242  150.9501 LP  0  0  0  0  0  0  0  0  0  0  0  0  # atno 17343 bound_to 10162
  155.9759  130.4082  150.3813 LP  0  0  0  0  0  0  0  0  0  0  0  0  # atno 17370 bound_to 10713
  157.1907  131.0414  151.2702 LP  0  0  0  0  0  0  0  0  0  0  0  0  # atno 17371 bound_to 10713
  141.1261  133.6599  156.3341 LP  0  0  0  0  0  0  0  0  0  0  0  0  # atno 17394 bound_to 11000
  140.5550  134.5990  157.5418 LP  0  0  0  0  0  0  0  0  0  0  0  0  # atno 17395 bound_to 11000

$$$$
