AV-unprocessed.smi:1410|AV-procd|sdf|5730|dock1
  -GOLD-   22720 5363D 1   1.00000     0.00000
 Structure written by MMmdl.
 40 41  0  0  0  0  0  0  0  0  2 V2000
  146.6515  136.2336  152.5448 N   0  0  0  0  0  0  0  0  0  0  0  0
  146.1376  137.4654  152.5364 C   0  0  0  0  0  0  0  0  0  0  0  0
  145.0804  137.7384  153.1022 O   0  0  0  0  0  0  0  0  0  0  0  0
  146.9383  138.5450  151.8004 C   0  0  0  0  0  0  0  0  0  0  0  0
  147.5972  139.5060  152.7220 N   0  3  2  0  0  0  0  0  0  0  0  0
  148.0054  138.8904  154.0133 C   0  0  0  0  0  0  0  0  0  0  0  0
  148.8117  139.8818  154.8679 C   0  0  0  0  0  0  0  0  0  0  0  0
  148.0166  141.1735  155.1169 C   0  0  1  0  0  0  0  0  0  0  0  0
  148.8391  142.1265  155.8566 N   0  0  0  0  0  0  0  0  0  0  0  0
  149.5859  141.8303  156.9303 C   0  0  0  0  0  0  0  0  0  0  0  0
  149.6444  140.7037  157.4227 O   0  0  0  0  0  0  0  0  0  0  0  0
  150.2269  142.9184  157.3913 N   0  0  0  0  0  0  0  0  0  0  0  0
  151.1310  143.0207  158.4834 C   0  0  0  0  0  0  0  0  0  0  0  0
  151.3834  144.3048  159.0089 C   0  0  0  0  0  0  0  0  0  0  0  0
  152.2903  144.4341  160.0797 C   0  0  0  0  0  0  0  0  0  0  0  0
  152.9438  143.3889  160.6285 N   0  0  0  0  0  0  0  0  0  0  0  0
  152.7121  142.1623  160.1149 C   0  0  0  0  0  0  0  0  0  0  0  0
  151.8248  141.9226  159.0465 C   0  0  0  0  0  0  0  0  0  0  0  0
  147.5632  141.7680  153.7705 C   0  0  0  0  0  0  0  0  0  0  0  0
  146.7898  140.7336  152.9357 C   0  0  0  0  0  0  0  0  0  0  0  0
  146.1594  135.4897  153.0194 H   0  0  0  0  0  0  0  0  0  0  0  0
  147.5286  136.0444  152.0812 H   0  0  0  0  0  0  0  0  0  0  0  0
  147.6946  138.0236  151.2121 H   0  0  0  0  0  0  0  0  0  0  0  0
  146.3037  139.0800  151.0918 H   0  0  0  0  0  0  0  0  0  0  0  0
  147.1184  138.5618  154.5573 H   0  0  0  0  0  0  0  0  0  0  0  0
  148.6106  138.0016  153.8332 H   0  0  0  0  0  0  0  0  0  0  0  0
  149.0773  139.4165  155.8182 H   0  0  0  0  0  0  0  0  0  0  0  0
  149.7511  140.1128  154.3630 H   0  0  0  0  0  0  0  0  0  0  0  0
  147.1358  140.9233  155.7117 H   0  0  0  0  0  0  0  0  0  0  0  0
  148.8449  143.0796  155.5232 H   0  0  0  0  0  0  0  0  0  0  0  0
  150.0083  143.7902  156.9317 H   0  0  0  0  0  0  0  0  0  0  0  0
  150.8904  145.1778  158.6067 H   0  0  0  0  0  0  0  0  0  0  0  0
  152.4976  145.4048  160.5052 H   0  0  0  0  0  0  0  0  0  0  0  0
  153.2561  141.3454  160.5651 H   0  0  0  0  0  0  0  0  0  0  0  0
  151.7079  140.9151  158.6785 H   0  0  0  0  0  0  0  0  0  0  0  0
  146.9362  142.6450  153.9360 H   0  0  0  0  0  0  0  0  0  0  0  0
  148.4313  142.1113  153.2057 H   0  0  0  0  0  0  0  0  0  0  0  0
  146.5295  141.1762  151.9735 H   0  0  0  0  0  0  0  0  0  0  0  0
  145.8525  140.4732  153.4302 H   0  0  0  0  0  0  0  0  0  0  0  0
  148.4438  139.8010  152.2558 H   0  0  0  0  0  0  0  0  0  0  0  0
  1  2  1  0  0  0  0
  1 21  1  0  0  0  0
  1 22  1  0  0  0  0
  2  3  2  0  0  0  0
  2  4  1  0  0  0  0
  4  5  1  0  0  0  0
  4 23  1  0  0  0  0
  4 24  1  0  0  0  0
  5 20  1  0  0  0  0
  5  6  1  0  0  0  0
  5 40  1  0  0  0  0
  6  7  1  0  0  0  0
  6 25  1  0  0  0  0
  6 26  1  0  0  0  0
  7  8  1  0  0  0  0
  7 27  1  0  0  0  0
  7 28  1  0  0  0  0
  8  9  1  0  0  0  0
  8 19  1  0  0  0  0
  8 29  1  0  0  0  0
  9 10  1  0  0  0  0
  9 30  1  0  0  0  0
 10 11  2  0  0  0  0
 10 12  1  0  0  0  0
 12 13  1  0  0  0  0
 12 31  1  0  0  0  0
 13 18  1  0  0  0  0
 13 14  2  0  0  0  0
 14 15  1  0  0  0  0
 14 32  1  0  0  0  0
 15 16  2  0  0  0  0
 15 33  1  0  0  0  0
 16 17  1  0  0  0  0
 17 18  2  0  0  0  0
 17 34  1  0  0  0  0
 18 35  1  0  0  0  0
 19 20  1  0  0  0  0
 19 36  1  0  0  0  0
 19 37  1  0  0  0  0
 20 38  1  0  0  0  0
 20 39  1  0  0  0  0
M  CHG  1   5   1
M  END
> <s_m_source_file>
AV-unprocessed.smi

> <i_m_source_file_index>
1410

> <i_lp_mmshare_version>
43012

> <i_f3d_flags>
0

> <s_epik_input>
W05IMl1DKD1PKVtDSDJdTjFbQ0gyXVtDSDJdW0NIXShbQ0gyXVtDSDJdMSlbTkhdQyg9TylbTkhdYzJbY0hdW2NIXW5bY0hdW2NIXTI=

> <s_epik_cmdline>
J2VwaWtfcHl0aG9uJywgJy1waCcsICc3LjAnLCAnLXRuJywgJzgnLCAnLW1hJywgJzIwMCcsICctbWV0YWxfYmluZGluZycsICctaW1hZScsICc8aW5maWxlLm1hZT4nLCAnLW9tYWUnLCAnPG91dGZpbGUubWFlPic=

> <r_epik_Ionization_Penalty>
0.938358

> <r_epik_Ionization_Penalty_Charging>
0.838844

> <r_epik_Ionization_Penalty_Neutral>
0.0995144

> <r_epik_State_Penalty>
0.957795

> <r_epik_Charging_Adjusted_Penalty>
1.79664

> <i_epik_Tot_Q>
1

> <i_epik_Tot_abs_Q>
1

> <r_epik_Metal_State_Penalty>
0.97276

> <b_epik_Metal_Only>
0

> <s_lp_Force_Field>
OPLS_2005

> <r_lp_Energy>
17.3232

> <b_lp_Chiralities_Consistent>
1

> <s_lp_Variant>
AV-unprocessed.smi:1410-2

> <Gold.Version>
5.8.1

> <Gold.Id.Protein>
6NUR|6NUR_protein|mol2

> <Gold.PLP.Fitness>
46.3601

> <Gold.PLP.PLP>
-35.9722

> <Gold.PLP.part.hbond>
-4.0000

> <Gold.PLP.part.metal>
0.0000

> <Gold.PLP.part.buried>
-3.9444

> <Gold.PLP.part.nonpolar>
-29.7076

> <Gold.PLP.part.repulsive>
1.2939

> <Gold.PLP.ligand.clash>
0.0000

> <Gold.PLP.ligand.torsion>
0.7796

> <Gold.PLP.Chemscore.Hbond>
3.9760

> <Gold.PLP.Chemscore.CHOScore>
0.0000

> <Gold.PLP.Chemscore.Metal>
0.0000

> <Gold.Chemscore.Hbonds>
donor molecule, donor type, donor heavy atom, donor atom, acceptor molecule, acceptor atom, score
      L1  H     1    22       P1  7948  0.76
      L1  H     5    40       P1  7957  1.00
      L1  H     9    30       P1  8028  1.00
      L1  H    12    31       P1  8028  0.96

> <Gold.PLP.Chemscore.Internal.Correction>
0.0190

> <Gold.Rescore>
     Score         DG    S(hbond)    S(metal)    S(lipo)     H(rot)  DE(clash)    DE(int)     intcor
     21.02     -24.10       3.90        0.00      90.90       1.96       0.67       2.41       ----

> <Gold.Chemscore.Fitness>
21.0167

> <Gold.Chemscore.DG>
-24.1037

> <Gold.Chemscore.ZeroCoef>
-5.4800

> <Gold.Chemscore.Hbond>
3.8971

> <Gold.Chemscore.Metal>
0.0000

> <Gold.Chemscore.Lipo>
90.9044

> <Gold.Chemscore.Internal_Hbond>
0.0000

> <Gold.Chemscore.DEClash>
0.6743

> <Gold.Chemscore.DEInternal>
2.4127

> <Gold.Chemscore.Rot>
1.9642

> <Gold.Chemscore.Internal.Correction>
   9.000000E+99

> <Gold.Chemscore.Hbonds>
donor molecule, donor type, donor heavy atom, donor atom, acceptor molecule, acceptor atom, score
      L1  H     1    22       P1  7948  0.74
      L1  H     5    40       P1  7957  0.98
      L1  H     9    30       P1  8028  0.98
      L1  H    12    31       P1  8028  0.90

> <Gold.Chemscore.Hbond.Weighted>
-13.0162

> <Gold.Chemscore.Metal.Weighted>
-0.0000

> <Gold.Chemscore.Lipo.Weighted>
-10.6358

> <Gold.Chemscore.Internal_Hbond.Weighted>
0.0000

> <Gold.Chemscore.DEClash.Weighted>
0.6743

> <Gold.Chemscore.DEInternal.Weighted>
2.4127

> <Gold.Chemscore.Rot.Weighted>
5.0283

> <Gold.Chemscore.Internal.Correction.Weighted>
   9.000000E+99

> <Gold.Protein.RotatedTorsions>
[ 6907 6896 6895 6894 ] final  113.15 input  -60.11 | X-H torsion
[ 7974 7965 7964 7962 ] final -169.18 input  175.53 | X-H torsion
[ 8008 7997 7996 7995 ] final -156.45 input   59.86 | X-H torsion
[ 10167 10162 10161 10158 ] final   51.68 input  -65.29 | X-H torsion
[ 10718 10713 10712 10709 ] final -125.67 input   66.30 | X-H torsion
[ 10763 10752 10751 10750 ] final  159.85 input  -60.55 | X-H torsion
[ 11005 11000 10999 10996 ] final   25.74 input  -57.11 | X-H torsion

> <Gold.Protein.ActiveResidues>
 VAL166  LYS551  ARG553  GLY616  TRP617  ASP618  TYR619  PRO620  LYS621  CYS622 
 ASP623  PHE694  ASN695  SER759  ASP760  ASP761  ALA762  ILE779  LEU786  VAL792 
 PHE793  MET794  SER795  GLU796  ALA797  LYS798  CYS799  TRP800  GLU811  SER814 

> <Gold.Protein.RotatedAtoms>
  152.4877  133.8416  159.7155 H   0  0  0  0  0  0  0  0  0  0  0  0  # atno 6907 bound_to 6896
  150.8978  133.7149  159.2893 H   0  0  0  0  0  0  0  0  0  0  0  0  # atno 6908 bound_to 6896
  151.4600  135.1041  159.9774 H   0  0  0  0  0  0  0  0  0  0  0  0  # atno 6909 bound_to 6896
  144.7190  140.2260  143.6310 H   0  0  0  0  0  0  0  0  0  0  0  0  # atno 7974 bound_to 7965
  155.7174  140.0786  157.2345 H   0  0  0  0  0  0  0  0  0  0  0  0  # atno 8008 bound_to 7997
  154.4050  140.1619  156.2418 H   0  0  0  0  0  0  0  0  0  0  0  0  # atno 8009 bound_to 7997
  155.9227  140.3396  155.6189 H   0  0  0  0  0  0  0  0  0  0  0  0  # atno 8010 bound_to 7997
  140.2593  144.3391  150.6323 H   0  0  0  0  0  0  0  0  0  0  0  0  # atno 10167 bound_to 10162
  156.1696  130.6658  151.0162 H   0  0  0  0  0  0  0  0  0  0  0  0  # atno 10718 bound_to 10713
  154.2382  135.2776  155.2864 H   0  0  0  0  0  0  0  0  0  0  0  0  # atno 10763 bound_to 10752
  154.5567  135.5659  153.6974 H   0  0  0  0  0  0  0  0  0  0  0  0  # atno 10764 bound_to 10752
  153.0005  135.6288  154.2525 H   0  0  0  0  0  0  0  0  0  0  0  0  # atno 10765 bound_to 10752
  140.3446  134.2295  155.7686 H   0  0  0  0  0  0  0  0  0  0  0  0  # atno 11005 bound_to 11000
  145.8456  139.2150  143.1802 LP  0  0  0  0  0  0  0  0  0  0  0  0  # atno 17320 bound_to 7965
  146.0307  140.8261  142.9877 LP  0  0  0  0  0  0  0  0  0  0  0  0  # atno 17321 bound_to 7965
  140.5978  143.2167  151.7130 LP  0  0  0  0  0  0  0  0  0  0  0  0  # atno 17342 bound_to 10162
  139.5021  144.3840  152.0348 LP  0  0  0  0  0  0  0  0  0  0  0  0  # atno 17343 bound_to 10162
  157.6793  131.0842  150.7411 LP  0  0  0  0  0  0  0  0  0  0  0  0  # atno 17370 bound_to 10713
  156.7471  130.4757  149.5465 LP  0  0  0  0  0  0  0  0  0  0  0  0  # atno 17371 bound_to 10713
  141.2029  133.7926  157.0367 LP  0  0  0  0  0  0  0  0  0  0  0  0  # atno 17394 bound_to 11000
  140.0753  134.9679  157.1535 LP  0  0  0  0  0  0  0  0  0  0  0  0  # atno 17395 bound_to 11000

$$$$
