AV-unprocessed.smi:898|AV-procd|sdf|4085|dock4
  -GOLD-   22720 1573D 1   1.00000     0.00000
 Structure written by MMmdl.
 33 35  0  0  0  0  0  0  0  0  2 V2000
  150.6289  140.9015  157.2791 O   0  0  0  0  0  0  0  0  0  0  0  0
  151.8261  140.6888  157.4848 C   0  0  0  0  0  0  0  0  0  0  0  0
  152.5935  139.7635  156.8648 N   0  5  0  0  0  0  0  0  0  0  0  0
  152.0585  138.5901  156.4894 C   0  0  0  0  0  0  0  0  0  0  0  0
  152.6224  137.8090  155.5574 N   0  0  0  0  0  0  0  0  0  0  0  0
  151.9101  136.6424  155.3207 N   0  0  0  0  0  0  0  0  0  0  0  0
  150.8190  136.5549  156.0850 C   0  0  0  0  0  0  0  0  0  0  0  0
  149.8844  135.3941  156.0137 C   0  0  0  0  0  0  0  0  0  0  0  0
  150.2188  134.1838  155.1724 C   0  0  0  0  0  0  0  0  0  0  0  0
  149.0894  135.0936  154.7617 C   0  0  0  0  0  0  0  0  0  0  0  0
  150.5827  137.9115  157.1752 S   0  0  0  0  0  0  0  0  0  0  0  0
  152.4881  141.4118  158.3997 N   0  0  0  0  0  0  0  0  0  0  0  0
  151.9275  142.4737  159.2316 C   0  0  2  0  0  0  0  0  0  0  0  0
  151.7542  143.7663  158.4066 C   0  0  0  0  0  0  0  0  0  0  0  0
  151.1175  144.9049  159.2197 C   0  0  0  0  0  0  0  0  0  0  0  0
  151.9672  145.3013  160.4350 C   0  0  0  0  0  0  0  0  0  0  0  0
  152.1416  143.9177  161.5937 S   0  0  0  0  0  0  0  0  0  0  0  0
  152.8402  142.6939  160.4503 C   0  0  0  0  0  0  0  0  0  0  0  0
  149.4016  135.2297  156.9750 H   0  0  0  0  0  0  0  0  0  0  0  0
  151.1319  134.2176  154.5811 H   0  0  0  0  0  0  0  0  0  0  0  0
  149.9584  133.2066  155.5738 H   0  0  0  0  0  0  0  0  0  0  0  0
  148.0742  134.7243  154.8900 H   0  0  0  0  0  0  0  0  0  0  0  0
  149.2498  135.7203  153.8865 H   0  0  0  0  0  0  0  0  0  0  0  0
  153.4667  141.2012  158.5306 H   0  0  0  0  0  0  0  0  0  0  0  0
  150.9507  142.1513  159.5973 H   0  0  0  0  0  0  0  0  0  0  0  0
  152.7201  144.0904  158.0169 H   0  0  0  0  0  0  0  0  0  0  0  0
  151.1280  143.5662  157.5364 H   0  0  0  0  0  0  0  0  0  0  0  0
  150.9842  145.7743  158.5755 H   0  0  0  0  0  0  0  0  0  0  0  0
  150.1195  144.6113  159.5470 H   0  0  0  0  0  0  0  0  0  0  0  0
  152.9584  145.6260  160.1168 H   0  0  0  0  0  0  0  0  0  0  0  0
  151.5084  146.1399  160.9590 H   0  0  0  0  0  0  0  0  0  0  0  0
  152.9803  141.7594  160.9947 H   0  0  0  0  0  0  0  0  0  0  0  0
  153.8282  143.0305  160.1337 H   0  0  0  0  0  0  0  0  0  0  0  0
  1  2  2  0  0  0  0
  2  3  1  0  0  0  0
  2 12  1  0  0  0  0
  3  4  1  0  0  0  0
  4 11  1  0  0  0  0
  4  5  2  0  0  0  0
  5  6  1  0  0  0  0
  6  7  2  0  0  0  0
  7  8  1  0  0  0  0
  7 11  1  0  0  0  0
  8 10  1  0  0  0  0
  8  9  1  0  0  0  0
  8 19  1  0  0  0  0
  9 10  1  0  0  0  0
  9 20  1  0  0  0  0
  9 21  1  0  0  0  0
 10 22  1  0  0  0  0
 10 23  1  0  0  0  0
 12 13  1  0  0  0  0
 12 24  1  0  0  0  0
 13 18  1  0  0  0  0
 13 14  1  0  0  0  0
 13 25  1  0  0  0  0
 14 15  1  0  0  0  0
 14 26  1  0  0  0  0
 14 27  1  0  0  0  0
 15 16  1  0  0  0  0
 15 28  1  0  0  0  0
 15 29  1  0  0  0  0
 16 17  1  0  0  0  0
 16 30  1  0  0  0  0
 16 31  1  0  0  0  0
 17 18  1  0  0  0  0
 18 32  1  0  0  0  0
 18 33  1  0  0  0  0
M  CHG  1   3  -1
M  END
> <s_m_source_file>
AV-unprocessed.smi

> <i_m_source_file_index>
898

> <i_lp_mmshare_version>
43012

> <i_f3d_flags>
0

> <s_epik_input>
W0NIMl0xU1tDSDJdW0NIMl1bQ0gyXVtDQEhdMVtOSF1DKD1PKVtOSF1jMm5uYyhzMilbQ0hdM1tDSDJdW0NIMl0z

> <s_epik_cmdline>
J2VwaWtfcHl0aG9uJywgJy1waCcsICc3LjAnLCAnLXRuJywgJzgnLCAnLW1hJywgJzIwMCcsICctbWV0YWxfYmluZGluZycsICctaW1hZScsICc8aW5maWxlLm1hZT4nLCAnLW9tYWUnLCAnPG91dGZpbGUubWFlPic=

> <r_lp_tautomer_probability>
1

> <r_epik_Ionization_Penalty>
4.71411

> <r_epik_Ionization_Penalty_Charging>
4.5615

> <r_epik_Ionization_Penalty_Neutral>
0.152604

> <r_epik_State_Penalty>
4.56123

> <r_epik_Charging_Adjusted_Penalty>
9.12273

> <i_epik_Tot_Q>
-1

> <i_epik_Tot_abs_Q>
1

> <r_epik_Metal_State_Penalty>
0.850765

> <b_epik_Metal_Only>
1

> <s_lp_Force_Field>
OPLS_2005

> <r_lp_Energy>
0.497958

> <b_lp_Chiralities_Consistent>
1

> <s_lp_Variant>
AV-unprocessed.smi:898-3

> <Gold.Version>
5.8.1

> <Gold.Id.Protein>
6NUR|6NUR_protein|mol2

> <Gold.PLP.Fitness>
43.1227

> <Gold.PLP.PLP>
-35.2539

> <Gold.PLP.part.hbond>
-2.8041

> <Gold.PLP.part.metal>
0.0000

> <Gold.PLP.part.buried>
-5.0688

> <Gold.PLP.part.nonpolar>
-27.4594

> <Gold.PLP.part.repulsive>
0.1983

> <Gold.PLP.ligand.clash>
0.0000

> <Gold.PLP.ligand.torsion>
0.6413

> <Gold.PLP.Chemscore.Hbond>
3.0000

> <Gold.PLP.Chemscore.CHOScore>
0.0000

> <Gold.PLP.Chemscore.Metal>
0.0000

> <Gold.Chemscore.Hbonds>
donor molecule, donor type, donor heavy atom, donor atom, acceptor molecule, acceptor atom, score
      P1  H  7997  8009       L1     3  2.00
      P1  H 10752 10764       L1     6  1.00

> <Gold.PLP.Chemscore.Internal.Correction>
0.1514

> <Gold.Rescore>
     Score         DG    S(hbond)    S(metal)    S(lipo)     H(rot)  DE(clash)    DE(int)     intcor
     16.85     -18.89       1.82        0.00      88.82       1.19       0.25       1.79       ----

> <Gold.Chemscore.Fitness>
16.8452

> <Gold.Chemscore.DG>
-18.8918

> <Gold.Chemscore.ZeroCoef>
-5.4800

> <Gold.Chemscore.Hbond>
1.8169

> <Gold.Chemscore.Metal>
0.0000

> <Gold.Chemscore.Lipo>
88.8241

> <Gold.Chemscore.Internal_Hbond>
0.0000

> <Gold.Chemscore.DEClash>
0.2539

> <Gold.Chemscore.DEInternal>
1.7927

> <Gold.Chemscore.Rot>
1.1911

> <Gold.Chemscore.Internal.Correction>
   9.000000E+99

> <Gold.Chemscore.Hbonds>
donor molecule, donor type, donor heavy atom, donor atom, acceptor molecule, acceptor atom, score
      P1  H  7997  8009       L1     3  0.95
      P1  H 10752 10764       L1     6  0.59

> <Gold.Chemscore.Hbond.Weighted>
-6.0686

> <Gold.Chemscore.Metal.Weighted>
-0.0000

> <Gold.Chemscore.Lipo.Weighted>
-10.3924

> <Gold.Chemscore.Internal_Hbond.Weighted>
0.0000

> <Gold.Chemscore.DEClash.Weighted>
0.2539

> <Gold.Chemscore.DEInternal.Weighted>
1.7927

> <Gold.Chemscore.Rot.Weighted>
3.0492

> <Gold.Chemscore.Internal.Correction.Weighted>
   9.000000E+99

> <Gold.Protein.RotatedTorsions>
[ 6907 6896 6895 6894 ] final  139.14 input  -60.11 | X-H torsion
[ 7974 7965 7964 7962 ] final  -18.81 input  175.53 | X-H torsion
[ 8008 7997 7996 7995 ] final -179.34 input   59.86 | X-H torsion
[ 10167 10162 10161 10158 ] final  175.15 input  -65.29 | X-H torsion
[ 10718 10713 10712 10709 ] final   92.22 input   66.30 | X-H torsion
[ 10763 10752 10751 10750 ] final  -58.09 input  -60.55 | X-H torsion
[ 11005 11000 10999 10996 ] final  -63.30 input  -57.11 | X-H torsion

> <Gold.Protein.ActiveResidues>
 VAL166  LYS551  ARG553  GLY616  TRP617  ASP618  TYR619  PRO620  LYS621  CYS622 
 ASP623  PHE694  ASN695  SER759  ASP760  ASP761  ALA762  ILE779  LEU786  VAL792 
 PHE793  MET794  SER795  GLU796  ALA797  LYS798  CYS799  TRP800  GLU811  SER814 

> <Gold.Protein.RotatedAtoms>
  152.2584  133.5275  159.5366 H   0  0  0  0  0  0  0  0  0  0  0  0  # atno 6907 bound_to 6896
  150.7117  134.0864  159.3925 H   0  0  0  0  0  0  0  0  0  0  0  0  # atno 6908 bound_to 6896
  151.8782  135.0463  160.0537 H   0  0  0  0  0  0  0  0  0  0  0  0  # atno 6909 bound_to 6896
  146.1873  140.3974  142.8471 H   0  0  0  0  0  0  0  0  0  0  0  0  # atno 7974 bound_to 7965
  156.0294  140.1278  157.0274 H   0  0  0  0  0  0  0  0  0  0  0  0  # atno 8008 bound_to 7997
  154.4343  140.1052  156.6147 H   0  0  0  0  0  0  0  0  0  0  0  0  # atno 8009 bound_to 7997
  155.5829  140.3468  155.4547 H   0  0  0  0  0  0  0  0  0  0  0  0  # atno 8010 bound_to 7997
  139.5167  144.3064  152.0331 H   0  0  0  0  0  0  0  0  0  0  0  0  # atno 10167 bound_to 10162
  157.6959  131.0435  150.3848 H   0  0  0  0  0  0  0  0  0  0  0  0  # atno 10718 bound_to 10713
  154.2327  135.6358  153.5181 H   0  0  0  0  0  0  0  0  0  0  0  0  # atno 10763 bound_to 10752
  152.9945  135.5523  154.5995 H   0  0  0  0  0  0  0  0  0  0  0  0  # atno 10764 bound_to 10752
  154.5482  135.2899  155.1007 H   0  0  0  0  0  0  0  0  0  0  0  0  # atno 10765 bound_to 10752
  141.1388  133.6650  156.5659 H   0  0  0  0  0  0  0  0  0  0  0  0  # atno 11005 bound_to 11000
  144.8421  140.6873  143.6223 LP  0  0  0  0  0  0  0  0  0  0  0  0  # atno 17320 bound_to 7965
  145.3900  139.1618  143.4234 LP  0  0  0  0  0  0  0  0  0  0  0  0  # atno 17321 bound_to 7965
  140.2510  144.4168  150.6222 LP  0  0  0  0  0  0  0  0  0  0  0  0  # atno 17342 bound_to 10162
  140.6224  143.2177  151.6666 LP  0  0  0  0  0  0  0  0  0  0  0  0  # atno 17343 bound_to 10162
  156.4258  130.3962  149.6794 LP  0  0  0  0  0  0  0  0  0  0  0  0  # atno 17370 bound_to 10713
  156.4028  130.7683  151.2692 LP  0  0  0  0  0  0  0  0  0  0  0  0  # atno 17371 bound_to 10713
  140.3951  134.7406  157.4745 LP  0  0  0  0  0  0  0  0  0  0  0  0  # atno 17394 bound_to 11000
  140.0537  134.6094  155.8830 LP  0  0  0  0  0  0  0  0  0  0  0  0  # atno 17395 bound_to 11000

$$$$
