AV-unprocessed.smi:2829|AV-procd|sdf|10902|dock3
  -GOLD-   2272015353D 1   1.00000     0.00000
 Structure written by MMmdl.
 50 53  0  0  0  0  0  0  0  0  1 V2000
  143.6879  131.7794  150.7461 C   0  0  0  0  0  0  0  0  0  0  0  0
  144.5859  132.7196  149.9103 C   0  0  0  0  0  0  0  0  0  0  0  0
  145.8958  131.9615  149.6092 C   0  0  0  0  0  0  0  0  0  0  0  0
  143.8410  133.0232  148.5935 C   0  0  0  0  0  0  0  0  0  0  0  0
  144.9033  134.0351  150.6442 C   0  0  0  0  0  0  0  0  0  0  0  0
  144.7474  135.3086  150.0514 C   0  0  0  0  0  0  0  0  0  0  0  0
  145.0706  136.4351  150.8262 C   0  0  0  0  0  0  0  0  0  0  0  0
  145.5281  136.2356  152.1440 C   0  0  0  0  0  0  0  0  0  0  0  0
  145.8330  137.4182  152.8666 N   0  0  0  0  0  0  0  0  0  0  0  0
  146.4205  138.5442  152.4157 C   0  0  0  0  0  0  0  0  0  0  0  0
  146.7874  138.7284  151.2568 O   0  0  0  0  0  0  0  0  0  0  0  0
  146.5607  139.4996  153.3516 N   0  0  0  0  0  0  0  0  0  0  0  0
  147.1544  140.8312  153.1906 C   0  0  2  0  0  0  0  0  0  0  0  0
  148.5401  140.9888  153.8703 C   0  0  2  0  0  0  0  0  0  0  0  0
  149.3358  139.8274  154.4171 C   0  0  0  0  0  0  0  0  0  0  0  0
  149.0241  139.8748  155.9153 C   0  0  0  0  0  0  0  0  0  0  0  0
  147.8011  140.6009  156.0103 O   0  0  0  0  0  0  0  0  0  0  0  0
  147.8450  141.6540  155.0523 C   0  0  2  0  0  0  0  0  0  0  0  0
  146.5767  141.8309  154.2070 C   0  0  0  0  0  0  0  0  0  0  0  0
  145.1766  141.7002  154.8304 C   0  0  0  0  0  0  0  0  0  0  0  0
  145.0997  143.2292  154.8538 C   0  0  0  0  0  0  0  0  0  0  0  0
  146.1723  143.2444  153.7609 C   0  0  0  0  0  0  0  0  0  0  0  0
  145.6547  134.9830  152.6499 N   0  0  0  0  0  0  0  0  0  0  0  0
  145.3506  133.9075  151.9175 N   0  0  0  0  0  0  0  0  0  0  0  0
  143.4793  130.8527  150.2101 H   0  0  0  0  0  0  0  0  0  0  0  0
  142.7251  132.2387  150.9740 H   0  0  0  0  0  0  0  0  0  0  0  0
  144.1616  131.5019  151.6887 H   0  0  0  0  0  0  0  0  0  0  0  0
  146.4440  131.7406  150.5257 H   0  0  0  0  0  0  0  0  0  0  0  0
  146.5578  132.5368  148.9612 H   0  0  0  0  0  0  0  0  0  0  0  0
  145.7003  131.0136  149.1065 H   0  0  0  0  0  0  0  0  0  0  0  0
  143.5827  132.1063  148.0625 H   0  0  0  0  0  0  0  0  0  0  0  0
  144.4453  133.6267  147.9157 H   0  0  0  0  0  0  0  0  0  0  0  0
  142.9142  133.5674  148.7794 H   0  0  0  0  0  0  0  0  0  0  0  0
  144.3946  135.4449  149.0409 H   0  0  0  0  0  0  0  0  0  0  0  0
  144.9682  137.4284  150.4142 H   0  0  0  0  0  0  0  0  0  0  0  0
  145.5761  137.4100  153.8426 H   0  0  0  0  0  0  0  0  0  0  0  0
  146.1790  139.2982  154.2648 H   0  0  0  0  0  0  0  0  0  0  0  0
  147.1267  141.2195  152.1710 H   0  0  0  0  0  0  0  0  0  0  0  0
  149.1488  141.7132  153.3266 H   0  0  0  0  0  0  0  0  0  0  0  0
  149.0338  138.8751  153.9840 H   0  0  0  0  0  0  0  0  0  0  0  0
  150.4051  139.9385  154.2360 H   0  0  0  0  0  0  0  0  0  0  0  0
  148.9363  138.8827  156.3585 H   0  0  0  0  0  0  0  0  0  0  0  0
  149.8021  140.4208  156.4511 H   0  0  0  0  0  0  0  0  0  0  0  0
  148.3305  142.5646  155.4060 H   0  0  0  0  0  0  0  0  0  0  0  0
  144.4474  141.2573  154.1501 H   0  0  0  0  0  0  0  0  0  0  0  0
  145.1502  141.2271  155.8124 H   0  0  0  0  0  0  0  0  0  0  0  0
  144.1366  143.6439  154.5552 H   0  0  0  0  0  0  0  0  0  0  0  0
  145.4508  143.6547  155.7953 H   0  0  0  0  0  0  0  0  0  0  0  0
  146.9413  144.0069  153.8870 H   0  0  0  0  0  0  0  0  0  0  0  0
  145.7456  143.2653  152.7568 H   0  0  0  0  0  0  0  0  0  0  0  0
  1  2  1  0  0  0  0
  1 25  1  0  0  0  0
  1 26  1  0  0  0  0
  1 27  1  0  0  0  0
  2  3  1  0  0  0  0
  2  4  1  0  0  0  0
  2  5  1  0  0  0  0
  3 28  1  0  0  0  0
  3 29  1  0  0  0  0
  3 30  1  0  0  0  0
  4 31  1  0  0  0  0
  4 32  1  0  0  0  0
  4 33  1  0  0  0  0
  5 24  1  0  0  0  0
  5  6  2  0  0  0  0
  6  7  1  0  0  0  0
  6 34  1  0  0  0  0
  7  8  2  0  0  0  0
  7 35  1  0  0  0  0
  8  9  1  0  0  0  0
  8 23  1  0  0  0  0
  9 10  1  0  0  0  0
  9 36  1  0  0  0  0
 10 11  2  0  0  0  0
 10 12  1  0  0  0  0
 12 13  1  0  0  0  0
 12 37  1  0  0  0  0
 13 19  1  0  0  0  0
 13 14  1  0  0  0  0
 13 38  1  0  0  0  0
 14 18  1  0  0  0  0
 14 15  1  0  0  0  0
 14 39  1  0  0  0  0
 15 16  1  0  0  0  0
 15 40  1  0  0  0  0
 15 41  1  0  0  0  0
 16 17  1  0  0  0  0
 16 42  1  0  0  0  0
 16 43  1  0  0  0  0
 17 18  1  0  0  0  0
 18 19  1  0  0  0  0
 18 44  1  0  0  0  0
 19 22  1  0  0  0  0
 19 20  1  0  0  0  0
 20 21  1  0  0  0  0
 20 45  1  0  0  0  0
 20 46  1  0  0  0  0
 21 22  1  0  0  0  0
 21 47  1  0  0  0  0
 21 48  1  0  0  0  0
 22 49  1  0  0  0  0
 22 50  1  0  0  0  0
 23 24  2  0  0  0  0
M  END
> <s_m_source_file>
AV-unprocessed.smi

> <i_m_source_file_index>
2829

> <i_lp_mmshare_version>
43012

> <i_f3d_flags>
0

> <s_epik_input>
W0NIM11DKFtDSDNdKShbQ0gzXSljMVtjSF1bY0hdYyhubjEpW05IXUMoPU8pW05IXVtDQEBIXTJbQ0BIXShbQ0gyXVtDSDJdTzMpW0NAQEhdM0MyNFtDSDJdW0NIMl1bQ0gyXTQ=

> <s_epik_cmdline>
J2VwaWtfcHl0aG9uJywgJy1waCcsICc3LjAnLCAnLXRuJywgJzgnLCAnLW1hJywgJzIwMCcsICctbWV0YWxfYmluZGluZycsICctaW1hZScsICc8aW5maWxlLm1hZT4nLCAnLW9tYWUnLCAnPG91dGZpbGUubWFlPic=

> <r_lp_tautomer_probability>
1

> <r_epik_Ionization_Penalty>
0.011915

> <r_epik_Ionization_Penalty_Charging>
0

> <r_epik_Ionization_Penalty_Neutral>
0.011915

> <r_epik_State_Penalty>
0.00486223

> <r_epik_Charging_Adjusted_Penalty>
0.00486223

> <i_epik_Tot_Q>
0

> <i_epik_Tot_abs_Q>
0

> <r_epik_Metal_State_Penalty>
-0

> <b_epik_Metal_Only>
0

> <s_lp_Force_Field>
OPLS_2005

> <r_lp_Energy>
61.2514

> <b_lp_Chiralities_Consistent>
1

> <s_lp_Variant>
AV-unprocessed.smi:2829-5

> <Gold.Version>
5.8.1

> <Gold.Id.Protein>
6NUR|6NUR_protein|mol2

> <Gold.PLP.Fitness>
44.3617

> <Gold.PLP.PLP>
-43.2394

> <Gold.PLP.part.hbond>
-1.1702

> <Gold.PLP.part.metal>
0.0000

> <Gold.PLP.part.buried>
3.7970

> <Gold.PLP.part.nonpolar>
-46.0166

> <Gold.PLP.part.repulsive>
1.0417

> <Gold.PLP.ligand.clash>
0.0000

> <Gold.PLP.ligand.torsion>
0.8393

> <Gold.PLP.Chemscore.Hbond>
0.8613

> <Gold.PLP.Chemscore.CHOScore>
0.0000

> <Gold.PLP.Chemscore.Metal>
0.0000

> <Gold.Chemscore.Hbonds>
donor molecule, donor type, donor heavy atom, donor atom, acceptor molecule, acceptor atom, score
      P1  H  7954  7966       L1    11  0.80

> <Gold.PLP.Chemscore.Internal.Correction>
0.2170

> <Gold.Rescore>
     Score         DG    S(hbond)    S(metal)    S(lipo)     H(rot)  DE(clash)    DE(int)     intcor
     15.25     -18.75       0.76        0.00     117.12       1.16       1.62       1.89       ----

> <Gold.Chemscore.Fitness>
15.2491

> <Gold.Chemscore.DG>
-18.7531

> <Gold.Chemscore.ZeroCoef>
-5.4800

> <Gold.Chemscore.Hbond>
0.7619

> <Gold.Chemscore.Metal>
0.0000

> <Gold.Chemscore.Lipo>
117.1161

> <Gold.Chemscore.Internal_Hbond>
0.0000

> <Gold.Chemscore.DEClash>
1.6183

> <Gold.Chemscore.DEInternal>
1.8858

> <Gold.Chemscore.Rot>
1.1618

> <Gold.Chemscore.Internal.Correction>
   9.000000E+99

> <Gold.Chemscore.Hbonds>
donor molecule, donor type, donor heavy atom, donor atom, acceptor molecule, acceptor atom, score
      P1  H  7954  7966       L1    11  0.74

> <Gold.Chemscore.Hbond.Weighted>
-2.5447

> <Gold.Chemscore.Metal.Weighted>
-0.0000

> <Gold.Chemscore.Lipo.Weighted>
-13.7026

> <Gold.Chemscore.Internal_Hbond.Weighted>
0.0000

> <Gold.Chemscore.DEClash.Weighted>
1.6183

> <Gold.Chemscore.DEInternal.Weighted>
1.8858

> <Gold.Chemscore.Rot.Weighted>
2.9741

> <Gold.Chemscore.Internal.Correction.Weighted>
   9.000000E+99

> <Gold.Protein.RotatedTorsions>
[ 6907 6896 6895 6894 ] final -168.41 input  -60.11 | X-H torsion
[ 7974 7965 7964 7962 ] final   79.81 input  175.53 | X-H torsion
[ 8008 7997 7996 7995 ] final   45.22 input   59.86 | X-H torsion
[ 10167 10162 10161 10158 ] final  -82.79 input  -65.29 | X-H torsion
[ 10718 10713 10712 10709 ] final  165.74 input   66.30 | X-H torsion
[ 10763 10752 10751 10750 ] final  -90.22 input  -60.55 | X-H torsion
[ 11005 11000 10999 10996 ] final    5.58 input  -57.11 | X-H torsion

> <Gold.Protein.ActiveResidues>
 VAL166  LYS551  ARG553  GLY616  TRP617  ASP618  TYR619  PRO620  LYS621  CYS622 
 ASP623  PHE694  ASN695  SER759  ASP760  ASP761  ALA762  ILE779  LEU786  VAL792 
 PHE793  MET794  SER795  GLU796  ALA797  LYS798  CYS799  TRP800  GLU811  SER814 

> <Gold.Protein.RotatedAtoms>
  151.4751  133.3560  159.2829 H   0  0  0  0  0  0  0  0  0  0  0  0  # atno 6907 bound_to 6896
  150.8935  134.8343  159.7321 H   0  0  0  0  0  0  0  0  0  0  0  0  # atno 6908 bound_to 6896
  152.4837  134.4663  159.9673 H   0  0  0  0  0  0  0  0  0  0  0  0  # atno 6909 bound_to 6896
  145.6594  139.2467  143.1931 H   0  0  0  0  0  0  0  0  0  0  0  0  # atno 7974 bound_to 7965
  155.3323  140.3403  155.4239 H   0  0  0  0  0  0  0  0  0  0  0  0  # atno 8008 bound_to 7997
  156.1855  140.1679  156.8230 H   0  0  0  0  0  0  0  0  0  0  0  0  # atno 8009 bound_to 7997
  154.5381  140.0730  156.8447 H   0  0  0  0  0  0  0  0  0  0  0  0  # atno 8010 bound_to 7997
  140.4287  143.2557  151.8790 H   0  0  0  0  0  0  0  0  0  0  0  0  # atno 10167 bound_to 10162
  157.0759  131.0379  151.2594 H   0  0  0  0  0  0  0  0  0  0  0  0  # atno 10718 bound_to 10713
  154.6635  135.5312  153.8047 H   0  0  0  0  0  0  0  0  0  0  0  0  # atno 10763 bound_to 10752
  153.0456  135.6511  154.0836 H   0  0  0  0  0  0  0  0  0  0  0  0  # atno 10764 bound_to 10752
  154.0742  135.2952  155.3282 H   0  0  0  0  0  0  0  0  0  0  0  0  # atno 10765 bound_to 10752
  140.5691  134.0119  155.8001 H   0  0  0  0  0  0  0  0  0  0  0  0  # atno 11005 bound_to 11000
  146.1138  140.7395  142.9490 LP  0  0  0  0  0  0  0  0  0  0  0  0  # atno 17320 bound_to 7965
  144.7094  140.3982  143.7092 LP  0  0  0  0  0  0  0  0  0  0  0  0  # atno 17321 bound_to 7965
  139.4784  144.5359  151.8599 LP  0  0  0  0  0  0  0  0  0  0  0  0  # atno 17342 bound_to 10162
  140.4452  144.1931  150.5893 LP  0  0  0  0  0  0  0  0  0  0  0  0  # atno 17343 bound_to 10162
  157.4840  130.7782  149.7442 LP  0  0  0  0  0  0  0  0  0  0  0  0  # atno 17370 bound_to 10713
  155.9937  130.3922  150.2889 LP  0  0  0  0  0  0  0  0  0  0  0  0  # atno 17371 bound_to 10713
  141.1067  133.9682  157.2983 LP  0  0  0  0  0  0  0  0  0  0  0  0  # atno 17394 bound_to 11000
  139.9370  135.0195  156.8589 LP  0  0  0  0  0  0  0  0  0  0  0  0  # atno 17395 bound_to 11000

$$$$
