#       Name:                AV-unprocessed.smi:18
#       Creating user name   scv26
#       Creation time:       Thu Mar 26 15:26:36 2020


#       File generated by GOLD software.
#

@<TRIPOS>MOLECULE
AV-unprocessed.smi:18
    57    60     1
SMALL
NO_CHARGES


@<TRIPOS>ATOM
      1 ****        -4.3751  -1.5725  -2.1250 O.3            1 S1                 0.0000
      2 ****        -3.9695  -0.2941  -1.6793 C.3            1 S1                 0.0000
      3 ****        -4.2462  -0.1071  -0.1771 C.3            1 S1                 0.0000
      4 ****        -3.4835  -1.1573   0.6576 C.3            1 S1                 0.0000
      5 ****        -2.0500  -1.1861   0.4100 N.pl3          1 S1                 0.0000
      6 ****        -1.3795  -2.0356  -0.4427 C.2            1 S1                 0.0000
      7 ****        -0.0871  -1.8628  -0.5012 N.2            1 S1                 0.0000
      8 ****         0.1528  -0.8263   0.3911 C.ar           1 S1                 0.0000
      9 ****         1.3222  -0.1383   0.8103 C.ar           1 S1                 0.0000
     10 ****         2.5487  -0.4571   0.3315 N.3            1 S1                 0.0000
     11 ****         3.1253  -1.5367   1.1265 C.3            1 S1                 0.0000
     12 ****         4.4326  -2.0308   0.4951 C.3            1 S1                 0.0000
     13 ****         5.3228  -0.9314   0.3674 O.3            1 S1                 0.0000
     14 ****         4.8038   0.0701  -0.4991 C.3            1 S1                 0.0000
     15 ****         3.4800   0.6474   0.0559 C.3            1 S1                 0.0000
     16 ****         2.8807   1.6851  -0.9293 C.3            1 S1                 0.0000
     17 ****         3.7541   2.9306  -1.1453 C.3            1 S1                 0.0000
     18 ****         3.1537   3.7572  -2.0009 F              1 S1                 0.0000
     19 ****         3.9536   3.5696   0.0070 F              1 S1                 0.0000
     20 ****         1.1812   0.8413   1.7430 N.ar           1 S1                 0.0000
     21 ****        -0.0308   1.1407   2.2199 C.ar           1 S1                 0.0000
     22 ****        -1.2082   0.5936   1.9100 N.ar           1 S1                 0.0000
     23 ****        -1.0681  -0.3951   0.9810 C.ar           1 S1                 0.0000
     24 ****        -4.1377   1.3462   0.3069 C.3            1 S1                 0.0000
     25 ****        -5.5700   1.5198   0.2779 O.3            1 S1                 0.0000
     26 ****        -5.7250   0.0881   0.1844 C.3            1 S1                 0.0000
     27 ****        -4.2310  -1.6252  -3.0575 H              1 S1                 0.0000
     28 ****        -2.9160  -0.1479  -1.9175 H              1 S1                 0.0000
     29 ****        -4.5139   0.4488  -2.2633 H              1 S1                 0.0000
     30 ****        -3.6338  -0.9801   1.7233 H              1 S1                 0.0000
     31 ****        -3.8810  -2.1557   0.4719 H              1 S1                 0.0000
     32 ****        -1.8851  -2.7863  -1.0327 H              1 S1                 0.0000
     33 ****         3.3155  -1.1804   2.1401 H              1 S1                 0.0000
     34 ****         2.4220  -2.3672   1.2047 H              1 S1                 0.0000
     35 ****         4.8926  -2.7904   1.1273 H              1 S1                 0.0000
     36 ****         4.2510  -2.4897  -0.4782 H              1 S1                 0.0000
     37 ****         5.5581   0.8510  -0.5849 H              1 S1                 0.0000
     38 ****         4.6616  -0.3449  -1.4984 H              1 S1                 0.0000
     39 ****         3.6998   1.1447   1.0018 H              1 S1                 0.0000
     40 ****         2.6946   1.2045  -1.8907 H              1 S1                 0.0000
     41 ****         1.9085   2.0306  -0.5790 H              1 S1                 0.0000
     42 ****         4.7287   2.6941  -1.5706 H              1 S1                 0.0000
     43 ****        -0.0615   1.9318   2.9545 H              1 S1                 0.0000
     44 ****        -3.7458   1.4544   1.3189 H              1 S1                 0.0000
     45 ****        -3.6173   2.0093  -0.3851 H              1 S1                 0.0000
     46 ****        -6.4204  -0.2092  -0.6013 H              1 S1                 0.0000
     47 ****        -6.0087  -0.3513   1.1421 H              1 S1                 0.0000
     48 ****        -5.3458  -1.7068  -1.9257 LP             1 S1                 0.0000
     49 ****        -3.8388  -2.2773  -1.6606 LP             1 S1                 0.0000
     50 ****         0.5764  -2.3612  -1.0592 LP             1 S1                 0.0000
     51 ****         2.3875  -0.7805  -0.6009 LP             1 S1                 0.0000
     52 ****         6.1922  -1.2599  -0.0016 LP             1 S1                 0.0000
     53 ****         5.4744  -0.5308   1.2710 LP             1 S1                 0.0000
     54 ****         1.9846   1.3377   2.0720 LP             1 S1                 0.0000
     55 ****        -2.0818   0.8731   2.3083 LP             1 S1                 0.0000
     56 ****        -5.9066   2.0221  -0.5186 LP             1 S1                 0.0000
     57 ****        -5.9519   1.9206   1.1106 LP             1 S1                 0.0000
@<TRIPOS>BOND
    1    1    2 1     
    2    1   27 1     
    3    2    3 1     
    4    2   28 1     
    5    2   29 1     
    6    3   26 1     
    7    3    4 1     
    8    3   24 1     
    9    4    5 1     
   10    4   30 1     
   11    4   31 1     
   12    5   23 1     
   13    5    6 1     
   14    6    7 2     
   15    6   32 1     
   16    7    8 1     
   17    8   23 ar    
   18    8    9 ar    
   19    9   10 1     
   20    9   20 ar    
   21   10   15 1     
   22   10   11 1     
   23   11   12 1     
   24   11   33 1     
   25   11   34 1     
   26   12   13 1     
   27   12   35 1     
   28   12   36 1     
   29   13   14 1     
   30   14   15 1     
   31   14   37 1     
   32   14   38 1     
   33   15   16 1     
   34   15   39 1     
   35   16   17 1     
   36   16   40 1     
   37   16   41 1     
   38   17   18 1     
   39   17   19 1     
   40   17   42 1     
   41   20   21 ar    
   42   21   22 ar    
   43   21   43 1     
   44   22   23 ar    
   45   24   25 1     
   46   24   44 1     
   47   24   45 1     
   48   25   26 1     
   49   26   46 1     
   50   26   47 1     
   51    1   48 1     
   52    1   49 1     
   53    7   50 1     
   54   10   51 1     
   55   13   52 1     
   56   13   53 1     
   57   20   54 1     
   58   22   55 1     
   59   25   56 1     
   60   25   57 1     
@<TRIPOS>SUBSTRUCTURE
      1 S1             1
@<TRIPOS>SET
LONE_PAIRS      STATIC     ATOMS    <user>   **** ""
10 48 49 50 51 52 53 54 55 56 57
DONOR_HYDROGENS      STATIC     ATOMS    <user>   **** ""
1 27
ATOM$BLUE        STATIC     ATOMS    COLORGROUP SYSTEM
10 48 49 50 51 52 53 54 55 56 57
ATOM$RED        STATIC     ATOMS    COLORGROUP SYSTEM
1 27
