AV-unprocessed.smi:2119|AV-procd|sdf|8636|dock7
  -GOLD-   2272011383D 1   1.00000     0.00000
 Structure written by MMmdl.
 48 50  0  0  0  0  0  0  0  0  2 V2000
  145.3495  136.9312  153.9962 O   0  0  0  0  0  0  0  0  0  0  0  0
  146.3927  136.7695  153.3642 C   0  0  0  0  0  0  0  0  0  0  0  0
  146.7195  135.6221  152.7522 N   0  0  0  0  0  0  0  0  0  0  0  0
  145.9156  134.4033  152.7475 C   0  0  0  0  0  0  0  0  0  0  0  0
  146.4261  133.3507  151.7267 C   0  0  2  0  0  0  0  0  0  0  0  0
  145.3116  132.7480  150.8240 C   0  0  1  0  0  0  0  0  0  0  0  0
  144.4277  133.7422  150.0869 C   0  0  0  0  0  0  0  0  0  0  0  0
  143.8493  132.9109  148.9441 C   0  0  0  0  0  0  0  0  0  0  0  0
  144.7770  131.8584  148.7082 O   0  0  0  0  0  0  0  0  0  0  0  0
  145.8520  131.9505  149.6321 C   0  0  0  0  0  0  0  0  0  0  0  0
  147.1718  132.2433  152.3990 N   0  3  0  0  0  0  0  0  0  0  0  0
  148.1604  132.7016  153.4055 C   0  0  0  0  0  0  0  0  0  0  0  0
  149.0066  131.5135  153.8953 C   0  0  0  0  0  0  0  0  0  0  0  0
  148.1561  130.4978  154.4144 O   0  0  0  0  0  0  0  0  0  0  0  0
  147.2591  129.9952  153.4309 C   0  0  0  0  0  0  0  0  0  0  0  0
  146.3479  131.1320  152.9403 C   0  0  0  0  0  0  0  0  0  0  0  0
  147.3557  137.6936  153.2058 N   0  0  0  0  0  0  0  0  0  0  0  0
  147.3749  139.0342  153.6761 C   0  0  0  0  0  0  0  0  0  0  0  0
  148.6236  139.6085  153.9915 C   0  0  0  0  0  0  0  0  0  0  0  0
  148.6719  140.9417  154.4408 C   0  0  0  0  0  0  0  0  0  0  0  0
  147.4633  141.6563  154.5481 C   0  0  0  0  0  0  0  0  0  0  0  0
  146.2614  141.1282  154.2351 N   0  0  0  0  0  0  0  0  0  0  0  0
  146.2218  139.8478  153.8073 C   0  0  0  0  0  0  0  0  0  0  0  0
  147.6024  135.5844  152.2640 H   0  0  0  0  0  0  0  0  0  0  0  0
  145.9499  134.0023  153.7603 H   0  0  0  0  0  0  0  0  0  0  0  0
  144.8695  134.6365  152.5436 H   0  0  0  0  0  0  0  0  0  0  0  0
  147.1340  133.8481  151.0615 H   0  0  0  0  0  0  0  0  0  0  0  0
  144.6658  132.0961  151.4138 H   0  0  0  0  0  0  0  0  0  0  0  0
  143.6406  134.1669  150.7092 H   0  0  0  0  0  0  0  0  0  0  0  0
  145.0264  134.5608  149.6851 H   0  0  0  0  0  0  0  0  0  0  0  0
  142.8944  132.4710  149.2333 H   0  0  0  0  0  0  0  0  0  0  0  0
  143.6889  133.5062  148.0448 H   0  0  0  0  0  0  0  0  0  0  0  0
  146.6756  132.4822  149.1530 H   0  0  0  0  0  0  0  0  0  0  0  0
  146.2086  130.9592  149.9136 H   0  0  0  0  0  0  0  0  0  0  0  0
  148.8152  133.4577  152.9709 H   0  0  0  0  0  0  0  0  0  0  0  0
  147.6503  133.1649  154.2504 H   0  0  0  0  0  0  0  0  0  0  0  0
  149.6191  131.1117  153.0865 H   0  0  0  0  0  0  0  0  0  0  0  0
  149.6897  131.8375  154.6807 H   0  0  0  0  0  0  0  0  0  0  0  0
  147.8155  129.5544  152.6021 H   0  0  0  0  0  0  0  0  0  0  0  0
  146.6608  129.1983  153.8729 H   0  0  0  0  0  0  0  0  0  0  0  0
  145.7368  131.4825  153.7728 H   0  0  0  0  0  0  0  0  0  0  0  0
  145.6689  130.7509  152.1781 H   0  0  0  0  0  0  0  0  0  0  0  0
  148.1977  137.3864  152.7414 H   0  0  0  0  0  0  0  0  0  0  0  0
  149.5344  139.0355  153.8962 H   0  0  0  0  0  0  0  0  0  0  0  0
  149.6128  141.4061  154.6965 H   0  0  0  0  0  0  0  0  0  0  0  0
  147.4626  142.6812  154.8883 H   0  0  0  0  0  0  0  0  0  0  0  0
  145.2378  139.4895  153.5474 H   0  0  0  0  0  0  0  0  0  0  0  0
  147.7295  131.8309  151.6649 H   0  0  0  0  0  0  0  0  0  0  0  0
  1  2  2  0  0  0  0
  2  3  1  0  0  0  0
  2 17  1  0  0  0  0
  3  4  1  0  0  0  0
  3 24  1  0  0  0  0
  4  5  1  0  0  0  0
  4 25  1  0  0  0  0
  4 26  1  0  0  0  0
  5  6  1  0  0  0  0
  5 11  1  0  0  0  0
  5 27  1  0  0  0  0
  6 10  1  0  0  0  0
  6  7  1  0  0  0  0
  6 28  1  0  0  0  0
  7  8  1  0  0  0  0
  7 29  1  0  0  0  0
  7 30  1  0  0  0  0
  8  9  1  0  0  0  0
  8 31  1  0  0  0  0
  8 32  1  0  0  0  0
  9 10  1  0  0  0  0
 10 33  1  0  0  0  0
 10 34  1  0  0  0  0
 11 16  1  0  0  0  0
 11 12  1  0  0  0  0
 11 48  1  0  0  0  0
 12 13  1  0  0  0  0
 12 35  1  0  0  0  0
 12 36  1  0  0  0  0
 13 14  1  0  0  0  0
 13 37  1  0  0  0  0
 13 38  1  0  0  0  0
 14 15  1  0  0  0  0
 15 16  1  0  0  0  0
 15 39  1  0  0  0  0
 15 40  1  0  0  0  0
 16 41  1  0  0  0  0
 16 42  1  0  0  0  0
 17 18  1  0  0  0  0
 17 43  1  0  0  0  0
 18 23  1  0  0  0  0
 18 19  2  0  0  0  0
 19 20  1  0  0  0  0
 19 44  1  0  0  0  0
 20 21  2  0  0  0  0
 20 45  1  0  0  0  0
 21 22  1  0  0  0  0
 21 46  1  0  0  0  0
 22 23  2  0  0  0  0
 23 47  1  0  0  0  0
M  CHG  1  11   1
M  END
> <s_m_source_file>
AV-unprocessed.smi

> <i_m_source_file_index>
2119

> <i_lp_mmshare_version>
43012

> <i_f3d_flags>
0

> <s_epik_input>
W2NIXTFuW2NIXVtjSF1bY0hdYzFbTkhdQyg9TylbTkhdW0NIMl1bQ0BIXShbQ0BASF0yW0NIMl1bQ0gyXU9bQ0gyXTIpTjNbQ0gyXVtDSDJdT1tDSDJdW0NIMl0z

> <s_epik_cmdline>
J2VwaWtfcHl0aG9uJywgJy1waCcsICc3LjAnLCAnLXRuJywgJzgnLCAnLW1hJywgJzIwMCcsICctbWV0YWxfYmluZGluZycsICctaW1hZScsICc8aW5maWxlLm1hZT4nLCAnLW9tYWUnLCAnPG91dGZpbGUubWFlPic=

> <r_epik_Ionization_Penalty>
0.987463

> <r_epik_Ionization_Penalty_Charging>
0.98326

> <r_epik_Ionization_Penalty_Neutral>
0.00420251

> <r_epik_State_Penalty>
1.01721

> <r_epik_Charging_Adjusted_Penalty>
2.00047

> <i_epik_Tot_Q>
1

> <i_epik_Tot_abs_Q>
1

> <r_epik_Metal_State_Penalty>
1.01439

> <b_epik_Metal_Only>
0

> <s_lp_Force_Field>
OPLS_2005

> <r_lp_Energy>
42.3323

> <b_lp_Chiralities_Consistent>
1

> <s_lp_Variant>
AV-unprocessed.smi:2119-7

> <Gold.Version>
5.8.1

> <Gold.Id.Protein>
6NUR|6NUR_protein|mol2

> <Gold.PLP.Fitness>
48.0620

> <Gold.PLP.PLP>
-35.3559

> <Gold.PLP.part.hbond>
-3.6853

> <Gold.PLP.part.metal>
0.0000

> <Gold.PLP.part.buried>
-2.1031

> <Gold.PLP.part.nonpolar>
-31.2764

> <Gold.PLP.part.repulsive>
0.5028

> <Gold.PLP.ligand.clash>
0.0000

> <Gold.PLP.ligand.torsion>
1.2436

> <Gold.PLP.Chemscore.Hbond>
2.9636

> <Gold.PLP.Chemscore.CHOScore>
1.9896

> <Gold.PLP.Chemscore.Metal>
0.0000

> <Gold.Chemscore.Hbonds>
donor molecule, donor type, donor heavy atom, donor atom, acceptor molecule, acceptor atom, score
      L1  H     3    24       P1  7948  0.99
      L1  H    11    48       P1 10747  0.81
      L1  H    17    43       P1  7948  0.98
      P1  H 10785 10796       L1     9  0.07
      L1  C    21    46       P1  8028  0.91
      L1  C    23    47       P1 10175  0.99

> <Gold.PLP.Chemscore.Internal.Correction>
0.3335

> <Gold.Rescore>
     Score         DG    S(hbond)    S(metal)    S(lipo)     H(rot)  DE(clash)    DE(int)     intcor
     19.34     -21.36       2.79        0.00      93.30       1.70       0.12       1.90       ----

> <Gold.Chemscore.Fitness>
19.3413

> <Gold.Chemscore.DG>
-21.3615

> <Gold.Chemscore.ZeroCoef>
-5.4800

> <Gold.Chemscore.Hbond>
2.7914

> <Gold.Chemscore.Metal>
0.0000

> <Gold.Chemscore.Lipo>
93.2955

> <Gold.Chemscore.Internal_Hbond>
0.0000

> <Gold.Chemscore.DEClash>
0.1213

> <Gold.Chemscore.DEInternal>
1.8989

> <Gold.Chemscore.Rot>
1.7021

> <Gold.Chemscore.Internal.Correction>
   9.000000E+99

> <Gold.Chemscore.Hbonds>
donor molecule, donor type, donor heavy atom, donor atom, acceptor molecule, acceptor atom, score
      L1  H     3    24       P1  7948  0.89
      L1  H    11    48       P1 10747  0.80
      L1  H    17    43       P1  7948  0.93
      P1  H 10785 10796       L1     9  0.01

> <Gold.Chemscore.Hbond.Weighted>
-9.3234

> <Gold.Chemscore.Metal.Weighted>
-0.0000

> <Gold.Chemscore.Lipo.Weighted>
-10.9156

> <Gold.Chemscore.Internal_Hbond.Weighted>
0.0000

> <Gold.Chemscore.DEClash.Weighted>
0.1213

> <Gold.Chemscore.DEInternal.Weighted>
1.8989

> <Gold.Chemscore.Rot.Weighted>
4.3575

> <Gold.Chemscore.Internal.Correction.Weighted>
   9.000000E+99

> <Gold.Protein.RotatedTorsions>
[ 6907 6896 6895 6894 ] final -174.80 input  -60.11 | X-H torsion
[ 7974 7965 7964 7962 ] final   85.30 input  175.53 | X-H torsion
[ 8008 7997 7996 7995 ] final   76.18 input   59.86 | X-H torsion
[ 10167 10162 10161 10158 ] final -132.07 input  -65.29 | X-H torsion
[ 10718 10713 10712 10709 ] final -171.47 input   66.30 | X-H torsion
[ 10763 10752 10751 10750 ] final -161.39 input  -60.55 | X-H torsion
[ 11005 11000 10999 10996 ] final -110.54 input  -57.11 | X-H torsion

> <Gold.Protein.ActiveResidues>
 VAL166  LYS551  ARG553  GLY616  TRP617  ASP618  TYR619  PRO620  LYS621  CYS622 
 ASP623  PHE694  ASN695  SER759  ASP760  ASP761  ALA762  ILE779  LEU786  VAL792 
 PHE793  MET794  SER795  GLU796  ALA797  LYS798  CYS799  TRP800  GLU811  SER814 

> <Gold.Protein.RotatedAtoms>
  151.5782  133.3381  159.3002 H   0  0  0  0  0  0  0  0  0  0  0  0  # atno 6907 bound_to 6896
  150.8328  134.7592  159.6879 H   0  0  0  0  0  0  0  0  0  0  0  0  # atno 6908 bound_to 6896
  152.4409  134.5598  159.9942 H   0  0  0  0  0  0  0  0  0  0  0  0  # atno 6909 bound_to 6896
  145.5873  139.2333  143.2319 H   0  0  0  0  0  0  0  0  0  0  0  0  # atno 7974 bound_to 7965
  155.8236  140.3469  155.5529 H   0  0  0  0  0  0  0  0  0  0  0  0  # atno 8008 bound_to 7997
  155.8316  140.0928  157.1809 H   0  0  0  0  0  0  0  0  0  0  0  0  # atno 8009 bound_to 7997
  154.4004  140.1411  156.3608 H   0  0  0  0  0  0  0  0  0  0  0  0  # atno 8010 bound_to 7997
  139.9124  143.6479  152.2572 H   0  0  0  0  0  0  0  0  0  0  0  0  # atno 10167 bound_to 10162
  156.7413  130.9343  151.3110 H   0  0  0  0  0  0  0  0  0  0  0  0  # atno 10718 bound_to 10713
  154.7308  135.3046  154.8894 H   0  0  0  0  0  0  0  0  0  0  0  0  # atno 10763 bound_to 10752
  153.9738  135.6738  153.4752 H   0  0  0  0  0  0  0  0  0  0  0  0  # atno 10764 bound_to 10752
  153.0916  135.4956  154.8622 H   0  0  0  0  0  0  0  0  0  0  0  0  # atno 10765 bound_to 10752
  141.0786  133.9259  157.2337 H   0  0  0  0  0  0  0  0  0  0  0  0  # atno 11005 bound_to 11000
  146.1672  140.6699  142.9250 LP  0  0  0  0  0  0  0  0  0  0  0  0  # atno 17320 bound_to 7965
  144.7367  140.4828  143.6899 LP  0  0  0  0  0  0  0  0  0  0  0  0  # atno 17321 bound_to 7965
  139.6931  144.7644  151.1403 LP  0  0  0  0  0  0  0  0  0  0  0  0  # atno 17342 bound_to 10162
  140.7682  143.5561  150.9151 LP  0  0  0  0  0  0  0  0  0  0  0  0  # atno 17343 bound_to 10162
  157.6817  130.9146  150.0284 LP  0  0  0  0  0  0  0  0  0  0  0  0  # atno 17370 bound_to 10713
  156.1463  130.3642  149.9506 LP  0  0  0  0  0  0  0  0  0  0  0  0  # atno 17371 bound_to 10713
  139.9599  135.0157  156.9231 LP  0  0  0  0  0  0  0  0  0  0  0  0  # atno 17394 bound_to 11000
  140.5519  134.0619  155.7372 LP  0  0  0  0  0  0  0  0  0  0  0  0  # atno 17395 bound_to 11000

$$$$
