AV-unprocessed.smi:1464|AV-procd|sdf|5940|dock1
  -GOLD-   22720 6 23D 1   1.00000     0.00000
 Structure written by MMmdl.
 40 41  0  0  0  0  0  0  0  0  2 V2000
  151.7527  145.3390  160.4317 C   0  0  0  0  0  0  0  0  0  0  0  0
  152.3744  144.0040  159.9814 C   0  0  1  0  0  0  0  0  0  0  0  0
  152.5919  143.0976  161.2098 C   0  0  0  0  0  0  0  0  0  0  0  0
  153.2419  141.7638  160.8266 C   0  0  0  0  0  0  0  0  0  0  0  0
  152.3948  141.0318  159.7821 C   0  0  0  0  0  0  0  0  0  0  0  0
  152.1699  141.9032  158.5314 C   0  0  1  0  0  0  0  0  0  0  0  0
  151.3234  141.1776  157.5858 N   0  0  0  0  0  0  0  0  0  0  0  0
  151.7165  140.1566  156.8085 C   0  0  0  0  0  0  0  0  0  0  0  0
  152.8596  139.6966  156.8296 O   0  0  0  0  0  0  0  0  0  0  0  0
  150.6349  139.5691  155.8882 C   0  0  0  0  0  0  0  0  0  0  0  0
  149.3279  140.2325  156.0027 N   0  0  0  0  0  0  0  0  0  0  0  0
  148.6148  139.9141  157.2369 N   0  5  0  0  0  0  0  0  0  0  0  0
  147.4048  140.4881  157.4698 C   0  0  0  0  0  0  0  0  0  0  0  0
  146.7550  140.2818  158.4922 O   0  0  0  0  0  0  0  0  0  0  0  0
  146.8641  141.3796  156.4571 C   0  0  0  0  0  0  0  0  0  0  0  0
  147.5343  141.6378  155.3170 C   0  0  0  0  0  0  0  0  0  0  0  0
  148.8370  141.0503  155.0281 C   0  0  0  0  0  0  0  0  0  0  0  0
  149.4511  141.2773  153.9856 O   0  0  0  0  0  0  0  0  0  0  0  0
  151.5394  143.2771  158.8884 C   0  0  2  0  0  0  0  0  0  0  0  0
  151.3578  144.1473  157.6250 C   0  0  0  0  0  0  0  0  0  0  0  0
  150.7293  145.2021  160.7820 H   0  0  0  0  0  0  0  0  0  0  0  0
  151.7393  146.0742  159.6278 H   0  0  0  0  0  0  0  0  0  0  0  0
  152.3247  145.7805  161.2484 H   0  0  0  0  0  0  0  0  0  0  0  0
  153.3563  144.2272  159.5613 H   0  0  0  0  0  0  0  0  0  0  0  0
  153.2204  143.6057  161.9421 H   0  0  0  0  0  0  0  0  0  0  0  0
  151.6371  142.9083  161.7027 H   0  0  0  0  0  0  0  0  0  0  0  0
  154.2436  141.9396  160.4322 H   0  0  0  0  0  0  0  0  0  0  0  0
  153.3613  141.1391  161.7123 H   0  0  0  0  0  0  0  0  0  0  0  0
  152.8859  140.0975  159.5067 H   0  0  0  0  0  0  0  0  0  0  0  0
  151.4344  140.7576  160.2213 H   0  0  0  0  0  0  0  0  0  0  0  0
  153.1397  142.0942  158.0669 H   0  0  0  0  0  0  0  0  0  0  0  0
  150.3660  141.4872  157.5037 H   0  0  0  0  0  0  0  0  0  0  0  0
  150.9934  139.6167  154.8588 H   0  0  0  0  0  0  0  0  0  0  0  0
  150.5287  138.5047  156.1075 H   0  0  0  0  0  0  0  0  0  0  0  0
  145.9027  141.8435  156.6217 H   0  0  0  0  0  0  0  0  0  0  0  0
  147.0939  142.3056  154.5916 H   0  0  0  0  0  0  0  0  0  0  0  0
  150.5466  143.0889  159.3007 H   0  0  0  0  0  0  0  0  0  0  0  0
  152.3208  144.4124  157.1876 H   0  0  0  0  0  0  0  0  0  0  0  0
  150.8223  145.0709  157.8405 H   0  0  0  0  0  0  0  0  0  0  0  0
  150.7787  143.6347  156.8570 H   0  0  0  0  0  0  0  0  0  0  0  0
  1  2  1  0  0  0  0
  1 21  1  0  0  0  0
  1 22  1  0  0  0  0
  1 23  1  0  0  0  0
  2 19  1  0  0  0  0
  2  3  1  0  0  0  0
  2 24  1  0  0  0  0
  3  4  1  0  0  0  0
  3 25  1  0  0  0  0
  3 26  1  0  0  0  0
  4  5  1  0  0  0  0
  4 27  1  0  0  0  0
  4 28  1  0  0  0  0
  5  6  1  0  0  0  0
  5 29  1  0  0  0  0
  5 30  1  0  0  0  0
  6  7  1  0  0  0  0
  6 19  1  0  0  0  0
  6 31  1  0  0  0  0
  7  8  1  0  0  0  0
  7 32  1  0  0  0  0
  8  9  2  0  0  0  0
  8 10  1  0  0  0  0
 10 33  1  0  0  0  0
 10 34  1  0  0  0  0
 10 11  1  0  0  0  0
 11 12  1  0  0  0  0
 11 17  1  0  0  0  0
 12 13  1  0  0  0  0
 13 14  2  0  0  0  0
 13 15  1  0  0  0  0
 15 35  1  0  0  0  0
 15 16  2  0  0  0  0
 16 36  1  0  0  0  0
 16 17  1  0  0  0  0
 17 18  2  0  0  0  0
 19 20  1  0  0  0  0
 19 37  1  0  0  0  0
 20 38  1  0  0  0  0
 20 39  1  0  0  0  0
 20 40  1  0  0  0  0
M  CHG  1  12  -1
M  END
> <s_m_source_file>
AV-unprocessed.smi

> <i_m_source_file_index>
1464

> <i_lp_mmshare_version>
43012

> <i_f3d_flags>
0

> <s_epik_input>
W0NIM11bQ0BASF0xW0NIMl1bQ0gyXVtDSDJdW0NASF0oW0NASF0xW0NIM10pW05IXUMoPU8pW0NIMl1uMltuSF1jKD1PKVtjSF1bY0hdYzI9Tw==

> <s_epik_cmdline>
J2VwaWtfcHl0aG9uJywgJy1waCcsICc3LjAnLCAnLXRuJywgJzgnLCAnLW1hJywgJzIwMCcsICctbWV0YWxfYmluZGluZycsICctaW1hZScsICc8aW5maWxlLm1hZT4nLCAnLW9tYWUnLCAnPG91dGZpbGUubWFlPic=

> <r_lp_tautomer_probability>
1

> <r_epik_Ionization_Penalty>
0.101366

> <r_epik_Ionization_Penalty_Charging>
0.101366

> <r_epik_Ionization_Penalty_Neutral>
1.90469e-08

> <r_epik_State_Penalty>
0.035861

> <r_epik_Charging_Adjusted_Penalty>
0.137227

> <i_epik_Tot_Q>
-1

> <i_epik_Tot_abs_Q>
1

> <r_epik_Metal_State_Penalty>
0.035861

> <b_epik_Metal_Only>
0

> <s_lp_Force_Field>
OPLS_2005

> <r_lp_Energy>
28.8284

> <b_lp_Chiralities_Consistent>
1

> <s_lp_Variant>
AV-unprocessed.smi:1464-6

> <Gold.Version>
5.8.1

> <Gold.Id.Protein>
6NUR|6NUR_protein|mol2

> <Gold.PLP.Fitness>
45.7182

> <Gold.PLP.PLP>
-39.7526

> <Gold.PLP.part.hbond>
-4.0000

> <Gold.PLP.part.metal>
0.0000

> <Gold.PLP.part.buried>
-4.2222

> <Gold.PLP.part.nonpolar>
-33.5744

> <Gold.PLP.part.repulsive>
1.5391

> <Gold.PLP.ligand.clash>
0.0000

> <Gold.PLP.ligand.torsion>
0.3720

> <Gold.PLP.Chemscore.Hbond>
2.2281

> <Gold.PLP.Chemscore.CHOScore>
0.0000

> <Gold.PLP.Chemscore.Metal>
0.0000

> <Gold.Chemscore.Hbonds>
donor molecule, donor type, donor heavy atom, donor atom, acceptor molecule, acceptor atom, score
      P1  H  6934  6946       L1    14  0.01
      P1  H  7989  7998       L1    18  0.16
      P1  H  7997  8009       L1     9  1.00
      P1  H  8011  8017       L1    18  0.78

> <Gold.PLP.Chemscore.Internal.Correction>
0.0253

> <Gold.Rescore>
     Score         DG    S(hbond)    S(metal)    S(lipo)     H(rot)  DE(clash)    DE(int)     intcor
     18.67     -20.13       2.14        0.00     100.19       1.64       0.30       1.16       ----

> <Gold.Chemscore.Fitness>
18.6697

> <Gold.Chemscore.DG>
-20.1287

> <Gold.Chemscore.ZeroCoef>
-5.4800

> <Gold.Chemscore.Hbond>
2.1362

> <Gold.Chemscore.Metal>
0.0000

> <Gold.Chemscore.Lipo>
100.1878

> <Gold.Chemscore.Internal_Hbond>
0.0000

> <Gold.Chemscore.DEClash>
0.2967

> <Gold.Chemscore.DEInternal>
1.1623

> <Gold.Chemscore.Rot>
1.6438

> <Gold.Chemscore.Internal.Correction>
   9.000000E+99

> <Gold.Chemscore.Hbonds>
donor molecule, donor type, donor heavy atom, donor atom, acceptor molecule, acceptor atom, score
      P1  H  6934  6946       L1    14  0.03
      P1  H  7989  7998       L1    18  0.15
      P1  H  7997  8009       L1     9  0.97
      P1  H  8011  8017       L1    18  0.72

> <Gold.Chemscore.Hbond.Weighted>
-7.1347

> <Gold.Chemscore.Metal.Weighted>
-0.0000

> <Gold.Chemscore.Lipo.Weighted>
-11.7220

> <Gold.Chemscore.Internal_Hbond.Weighted>
0.0000

> <Gold.Chemscore.DEClash.Weighted>
0.2967

> <Gold.Chemscore.DEInternal.Weighted>
1.1623

> <Gold.Chemscore.Rot.Weighted>
4.2080

> <Gold.Chemscore.Internal.Correction.Weighted>
   9.000000E+99

> <Gold.Protein.RotatedTorsions>
[ 6907 6896 6895 6894 ] final  -77.79 input  -60.11 | X-H torsion
[ 7974 7965 7964 7962 ] final  -62.52 input  175.53 | X-H torsion
[ 8008 7997 7996 7995 ] final -159.41 input   59.86 | X-H torsion
[ 10167 10162 10161 10158 ] final -162.25 input  -65.29 | X-H torsion
[ 10718 10713 10712 10709 ] final  166.43 input   66.30 | X-H torsion
[ 10763 10752 10751 10750 ] final   60.01 input  -60.55 | X-H torsion
[ 11005 11000 10999 10996 ] final  150.73 input  -57.11 | X-H torsion

> <Gold.Protein.ActiveResidues>
 VAL166  LYS551  ARG553  GLY616  TRP617  ASP618  TYR619  PRO620  LYS621  CYS622 
 ASP623  PHE694  ASN695  SER759  ASP760  ASP761  ALA762  ILE779  LEU786  VAL792 
 PHE793  MET794  SER795  GLU796  ALA797  LYS798  CYS799  TRP800  GLU811  SER814 

> <Gold.Protein.RotatedAtoms>
  150.6989  134.4369  159.5274 H   0  0  0  0  0  0  0  0  0  0  0  0  # atno 6907 bound_to 6896
  152.2086  134.8519  160.0509 H   0  0  0  0  0  0  0  0  0  0  0  0  # atno 6908 bound_to 6896
  151.9413  133.3604  159.4003 H   0  0  0  0  0  0  0  0  0  0  0  0  # atno 6909 bound_to 6896
  145.7903  140.8713  143.0284 H   0  0  0  0  0  0  0  0  0  0  0  0  # atno 7974 bound_to 7965
  155.7621  140.0840  157.2150 H   0  0  0  0  0  0  0  0  0  0  0  0  # atno 8008 bound_to 7997
  154.4003  140.1541  156.2901 H   0  0  0  0  0  0  0  0  0  0  0  0  # atno 8009 bound_to 7997
  155.8829  140.3419  155.5903 H   0  0  0  0  0  0  0  0  0  0  0  0  # atno 8010 bound_to 7997
  139.6406  144.0267  152.2089 H   0  0  0  0  0  0  0  0  0  0  0  0  # atno 10167 bound_to 10162
  157.0660  131.0353  151.2629 H   0  0  0  0  0  0  0  0  0  0  0  0  # atno 10718 bound_to 10713
  152.9909  135.5551  154.5805 H   0  0  0  0  0  0  0  0  0  0  0  0  # atno 10763 bound_to 10752
  154.5187  135.2806  155.1283 H   0  0  0  0  0  0  0  0  0  0  0  0  # atno 10764 bound_to 10752
  154.2645  135.6375  153.5340 H   0  0  0  0  0  0  0  0  0  0  0  0  # atno 10765 bound_to 10752
  140.1157  134.8896  157.2000 H   0  0  0  0  0  0  0  0  0  0  0  0  # atno 11005 bound_to 11000
  144.6783  140.0113  143.7484 LP  0  0  0  0  0  0  0  0  0  0  0  0  # atno 17320 bound_to 7965
  145.9984  139.3071  143.0942 LP  0  0  0  0  0  0  0  0  0  0  0  0  # atno 17321 bound_to 7965
  139.9955  144.6331  150.7776 LP  0  0  0  0  0  0  0  0  0  0  0  0  # atno 17342 bound_to 10162
  140.7489  143.2929  151.3282 LP  0  0  0  0  0  0  0  0  0  0  0  0  # atno 17343 bound_to 10162
  157.4916  130.7826  149.7514 LP  0  0  0  0  0  0  0  0  0  0  0  0  # atno 17370 bound_to 10713
  155.9964  130.3906  150.2780 LP  0  0  0  0  0  0  0  0  0  0  0  0  # atno 17371 bound_to 10713
  140.3031  134.3108  155.7285 LP  0  0  0  0  0  0  0  0  0  0  0  0  # atno 17394 bound_to 11000
  141.2140  133.7604  156.9670 LP  0  0  0  0  0  0  0  0  0  0  0  0  # atno 17395 bound_to 11000

$$$$
