AV-unprocessed.smi:2407|AV-procd|sdf|9519|dock4
  -GOLD-   2272013153D 1   1.00000     0.00000
 Structure written by MMmdl.
 38 39  0  0  0  0  0  0  0  0  1 V2000
  147.6668  137.2781  154.3056 C   0  0  0  0  0  0  0  0  0  0  0  0
  147.7432  138.7762  154.2737 C   0  0  0  0  0  0  0  0  0  0  0  0
  146.7770  139.5968  153.5684 C   0  0  0  0  0  0  0  0  0  0  0  0
  146.9160  140.9400  153.5792 C   0  0  0  0  0  0  0  0  0  0  0  0
  148.0176  141.5921  154.2839 C   0  0  0  0  0  0  0  0  0  0  0  0
  148.1836  142.8117  154.2982 O   0  0  0  0  0  0  0  0  0  0  0  0
  148.8540  140.7205  154.9197 N   0  0  0  0  0  0  0  0  0  0  0  0
  150.0211  141.2042  155.6648 C   0  0  0  0  0  0  0  0  0  0  0  0
  150.9938  140.0513  156.0120 C   0  0  1  0  0  0  0  0  0  0  0  0
  151.5427  139.5337  154.8169 O   0  0  0  0  0  0  0  0  0  0  0  0
  152.1602  140.5013  156.9040 C   0  0  0  0  0  0  0  0  0  0  0  0
  151.7014  141.5357  157.7639 O   0  0  0  0  0  0  0  0  0  0  0  0
  152.2801  141.6689  159.0090 C   0  0  0  0  0  0  0  0  0  0  0  0
  153.1098  140.6787  159.5952 C   0  0  0  0  0  0  0  0  0  0  0  0
  153.6674  140.8753  160.8720 C   0  0  0  0  0  0  0  0  0  0  0  0
  153.4061  142.0611  161.5791 C   0  0  0  0  0  0  0  0  0  0  0  0
  152.5872  143.0513  161.0075 C   0  0  0  0  0  0  0  0  0  0  0  0
  152.0208  142.8633  159.7262 C   0  0  0  0  0  0  0  0  0  0  0  0
  151.1454  143.9484  159.1074 C   0  0  0  0  0  0  0  0  0  0  0  0
  150.9854  144.9890  159.9261 F   0  0  0  0  0  0  0  0  0  0  0  0
  151.7147  144.3861  157.9849 F   0  0  0  0  0  0  0  0  0  0  0  0
  149.9385  143.4592  158.8209 F   0  0  0  0  0  0  0  0  0  0  0  0
  148.7186  139.3427  154.9053 N   0  0  0  0  0  0  0  0  0  0  0  0
  146.7053  136.9248  153.9328 H   0  0  0  0  0  0  0  0  0  0  0  0
  147.7883  136.9008  155.3215 H   0  0  0  0  0  0  0  0  0  0  0  0
  148.4480  136.8380  153.6856 H   0  0  0  0  0  0  0  0  0  0  0  0
  145.9582  139.1293  153.0417 H   0  0  0  0  0  0  0  0  0  0  0  0
  146.1961  141.5496  153.0532 H   0  0  0  0  0  0  0  0  0  0  0  0
  150.5237  141.9947  155.1036 H   0  0  0  0  0  0  0  0  0  0  0  0
  149.6831  141.6988  156.5777 H   0  0  0  0  0  0  0  0  0  0  0  0
  150.4674  139.2356  156.5105 H   0  0  0  0  0  0  0  0  0  0  0  0
  152.4410  139.2897  154.9824 H   0  0  0  0  0  0  0  0  0  0  0  0
  152.5075  139.6551  157.4995 H   0  0  0  0  0  0  0  0  0  0  0  0
  152.9932  140.8523  156.2920 H   0  0  0  0  0  0  0  0  0  0  0  0
  153.3355  139.7547  159.0855 H   0  0  0  0  0  0  0  0  0  0  0  0
  154.2970  140.1142  161.3087 H   0  0  0  0  0  0  0  0  0  0  0  0
  153.8349  142.2128  162.5587 H   0  0  0  0  0  0  0  0  0  0  0  0
  152.4020  143.9578  161.5639 H   0  0  0  0  0  0  0  0  0  0  0  0
  1  2  1  0  0  0  0
  1 24  1  0  0  0  0
  1 25  1  0  0  0  0
  1 26  1  0  0  0  0
  2 23  2  0  0  0  0
  2  3  1  0  0  0  0
  3  4  2  0  0  0  0
  3 27  1  0  0  0  0
  4  5  1  0  0  0  0
  4 28  1  0  0  0  0
  5  6  2  0  0  0  0
  5  7  1  0  0  0  0
  7  8  1  0  0  0  0
  7 23  1  0  0  0  0
  8  9  1  0  0  0  0
  8 29  1  0  0  0  0
  8 30  1  0  0  0  0
  9 10  1  0  0  0  0
  9 11  1  0  0  0  0
  9 31  1  0  0  0  0
 10 32  1  0  0  0  0
 11 12  1  0  0  0  0
 11 33  1  0  0  0  0
 11 34  1  0  0  0  0
 12 13  1  0  0  0  0
 13 18  1  0  0  0  0
 13 14  2  0  0  0  0
 14 15  1  0  0  0  0
 14 35  1  0  0  0  0
 15 16  2  0  0  0  0
 15 36  1  0  0  0  0
 16 17  1  0  0  0  0
 16 37  1  0  0  0  0
 17 18  2  0  0  0  0
 17 38  1  0  0  0  0
 18 19  1  0  0  0  0
 19 20  1  0  0  0  0
 19 21  1  0  0  0  0
 19 22  1  0  0  0  0
M  END
> <s_m_source_file>
AV-unprocessed.smi

> <i_m_source_file_index>
2407

> <i_lp_mmshare_version>
43012

> <i_f3d_flags>
0

> <s_epik_input>
W0NIM11jMVtjSF1bY0hdYyg9TyluKG4xKVtDSDJdW0NASF0oW09IXSlbQ0gyXU9jMltjSF1bY0hdW2NIXVtjSF1jMkMoRikoRilG

> <s_epik_cmdline>
J2VwaWtfcHl0aG9uJywgJy1waCcsICc3LjAnLCAnLXRuJywgJzgnLCAnLW1hJywgJzIwMCcsICctbWV0YWxfYmluZGluZycsICctaW1hZScsICc8aW5maWxlLm1hZT4nLCAnLW9tYWUnLCAnPG91dGZpbGUubWFlPic=

> <r_lp_tautomer_probability>
1

> <r_epik_Ionization_Penalty>
5.91655e-06

> <r_epik_Ionization_Penalty_Charging>
5.79937e-06

> <r_epik_Ionization_Penalty_Neutral>
1.17174e-07

> <r_epik_State_Penalty>
-0

> <r_epik_Charging_Adjusted_Penalty>
5.79937e-06

> <i_epik_Tot_Q>
0

> <i_epik_Tot_abs_Q>
0

> <r_epik_Metal_State_Penalty>
-0

> <b_epik_Metal_Only>
0

> <s_lp_Force_Field>
OPLS_2005

> <r_lp_Energy>
30.1001

> <b_lp_Chiralities_Consistent>
1

> <s_lp_Variant>
AV-unprocessed.smi:2407-2

> <Gold.Version>
5.8.1

> <Gold.Id.Protein>
6NUR|6NUR_protein|mol2

> <Gold.PLP.Fitness>
52.4933

> <Gold.PLP.PLP>
-48.0535

> <Gold.PLP.part.hbond>
-3.0000

> <Gold.PLP.part.metal>
0.0000

> <Gold.PLP.part.buried>
-2.7406

> <Gold.PLP.part.nonpolar>
-44.4804

> <Gold.PLP.part.repulsive>
4.8616

> <Gold.PLP.ligand.clash>
0.4803

> <Gold.PLP.ligand.torsion>
0.8318

> <Gold.PLP.Chemscore.Hbond>
2.0000

> <Gold.PLP.Chemscore.CHOScore>
0.0000

> <Gold.PLP.Chemscore.Metal>
0.0000

> <Gold.Chemscore.Hbonds>
donor molecule, donor type, donor heavy atom, donor atom, acceptor molecule, acceptor atom, score
      P1  H  7989  7998       L1    10  1.00
      P1  H  8022  8030       L1     6  0.83

> <Gold.PLP.Chemscore.Internal.Correction>
0.5837

> <Gold.Rescore>
     Score         DG    S(hbond)    S(metal)    S(lipo)     H(rot)  DE(clash)    DE(int)     intcor
     10.26     -17.19       1.61        0.00     111.16       2.60       2.20       4.72       ----

> <Gold.Chemscore.Fitness>
10.2617

> <Gold.Chemscore.DG>
-17.1863

> <Gold.Chemscore.ZeroCoef>
-5.4800

> <Gold.Chemscore.Hbond>
1.6065

> <Gold.Chemscore.Metal>
0.0000

> <Gold.Chemscore.Lipo>
111.1594

> <Gold.Chemscore.Internal_Hbond>
0.0000

> <Gold.Chemscore.DEClash>
2.2029

> <Gold.Chemscore.DEInternal>
4.7217

> <Gold.Chemscore.Rot>
2.6035

> <Gold.Chemscore.Internal.Correction>
   9.000000E+99

> <Gold.Chemscore.Hbonds>
donor molecule, donor type, donor heavy atom, donor atom, acceptor molecule, acceptor atom, score
      P1  H  7989  7998       L1    10  0.35
      P1  H  8022  8030       L1     6  0.78

> <Gold.Chemscore.Hbond.Weighted>
-5.3656

> <Gold.Chemscore.Metal.Weighted>
-0.0000

> <Gold.Chemscore.Lipo.Weighted>
-13.0056

> <Gold.Chemscore.Internal_Hbond.Weighted>
0.0000

> <Gold.Chemscore.DEClash.Weighted>
2.2029

> <Gold.Chemscore.DEInternal.Weighted>
4.7217

> <Gold.Chemscore.Rot.Weighted>
6.6649

> <Gold.Chemscore.Internal.Correction.Weighted>
   9.000000E+99

> <Gold.Protein.RotatedTorsions>
[ 6907 6896 6895 6894 ] final  -46.29 input  -60.11 | X-H torsion
[ 7974 7965 7964 7962 ] final  -33.26 input  175.53 | X-H torsion
[ 8008 7997 7996 7995 ] final   90.13 input   59.86 | X-H torsion
[ 10167 10162 10161 10158 ] final   30.55 input  -65.29 | X-H torsion
[ 10718 10713 10712 10709 ] final -160.03 input   66.30 | X-H torsion
[ 10763 10752 10751 10750 ] final   82.62 input  -60.55 | X-H torsion
[ 11005 11000 10999 10996 ] final  -83.02 input  -57.11 | X-H torsion

> <Gold.Protein.ActiveResidues>
 VAL166  LYS551  ARG553  GLY616  TRP617  ASP618  TYR619  PRO620  LYS621  CYS622 
 ASP623  PHE694  ASN695  SER759  ASP760  ASP761  ALA762  ILE779  LEU786  VAL792 
 PHE793  MET794  SER795  GLU796  ALA797  LYS798  CYS799  TRP800  GLU811  SER814 

> <Gold.Protein.RotatedAtoms>
  150.9128  134.8545  159.7436 H   0  0  0  0  0  0  0  0  0  0  0  0  # atno 6907 bound_to 6896
  152.4953  134.4333  159.9529 H   0  0  0  0  0  0  0  0  0  0  0  0  # atno 6908 bound_to 6896
  151.4374  133.3613  159.2812 H   0  0  0  0  0  0  0  0  0  0  0  0  # atno 6909 bound_to 6896
  146.0924  140.5895  142.8858 H   0  0  0  0  0  0  0  0  0  0  0  0  # atno 7974 bound_to 7965
  156.0082  140.3353  155.6914 H   0  0  0  0  0  0  0  0  0  0  0  0  # atno 8008 bound_to 7997
  155.6194  140.0673  157.2700 H   0  0  0  0  0  0  0  0  0  0  0  0  # atno 8009 bound_to 7997
  154.4272  140.1779  156.1344 H   0  0  0  0  0  0  0  0  0  0  0  0  # atno 8010 bound_to 7997
  140.4667  144.0824  150.6226 H   0  0  0  0  0  0  0  0  0  0  0  0  # atno 10167 bound_to 10162
  156.5764  130.8711  151.2852 H   0  0  0  0  0  0  0  0  0  0  0  0  # atno 10718 bound_to 10713
  153.1218  135.4721  154.9208 H   0  0  0  0  0  0  0  0  0  0  0  0  # atno 10763 bound_to 10752
  154.7583  135.3124  154.8430 H   0  0  0  0  0  0  0  0  0  0  0  0  # atno 10764 bound_to 10752
  153.8993  135.6877  153.4810 H   0  0  0  0  0  0  0  0  0  0  0  0  # atno 10765 bound_to 10752
  141.1660  133.7273  156.8659 H   0  0  0  0  0  0  0  0  0  0  0  0  # atno 11005 bound_to 11000
  144.7370  140.4837  143.6896 LP  0  0  0  0  0  0  0  0  0  0  0  0  # atno 17320 bound_to 7965
  145.6012  139.1504  143.3128 LP  0  0  0  0  0  0  0  0  0  0  0  0  # atno 17321 bound_to 7965
  140.4027  143.2696  151.9928 LP  0  0  0  0  0  0  0  0  0  0  0  0  # atno 17342 bound_to 10162
  139.4813  144.5984  151.7650 LP  0  0  0  0  0  0  0  0  0  0  0  0  # atno 17343 bound_to 10162
  157.7336  130.9733  150.1988 LP  0  0  0  0  0  0  0  0  0  0  0  0  # atno 17370 bound_to 10713
  156.2669  130.3717  149.8072 LP  0  0  0  0  0  0  0  0  0  0  0  0  # atno 17371 bound_to 10713
  140.1816  134.9029  157.2955 LP  0  0  0  0  0  0  0  0  0  0  0  0  # atno 17394 bound_to 11000
  140.2389  134.3819  155.7489 LP  0  0  0  0  0  0  0  0  0  0  0  0  # atno 17395 bound_to 11000

$$$$
