AV-unprocessed.smi:69|AV-procd|sdf|643|dock7
  -GOLD-   2262016533D 1   1.00000     0.00000
 Structure written by MMmdl.
 32 34  0  0  0  0  0  0  0  0  1 V2000
  152.8311  142.2172  161.1332 N   0  0  0  0  0  0  0  0  0  0  0  0
  153.0571  141.3260  160.1580 C   0  0  0  0  0  0  0  0  0  0  0  0
  153.9960  140.3727  160.3627 N   0  0  0  0  0  0  0  0  0  0  0  0
  154.2411  139.4736  159.4040 C   0  0  0  0  0  0  0  0  0  0  0  0
  153.6734  139.3598  158.2003 N   0  0  0  0  0  0  0  0  0  0  0  0
  152.7262  140.3218  157.9956 C   0  0  0  0  0  0  0  0  0  0  0  0
  152.3601  141.3363  158.9232 C   0  0  0  0  0  0  0  0  0  0  0  0
  151.3633  142.1360  158.3812 N   0  0  0  0  0  0  0  0  0  0  0  0
  151.1557  141.6205  157.1992 C   0  0  0  0  0  0  0  0  0  0  0  0
  151.9359  140.5294  156.8830 N   0  0  0  0  0  0  0  0  0  0  0  0
  151.9288  139.7403  155.6131 C   0  0  2  0  0  0  0  0  0  0  0  0
  150.8711  140.1948  154.8262 O   0  0  0  0  0  0  0  0  0  0  0  0
  150.2121  139.0875  154.2233 C   0  0  2  0  0  0  0  0  0  0  0  0
  148.7684  139.4731  153.8662 C   0  0  0  0  0  0  0  0  0  0  0  0
  148.0280  138.3197  153.5278 O   0  0  0  0  0  0  0  0  0  0  0  0
  150.3087  138.0154  155.3100 C   0  0  1  0  0  0  0  0  0  0  0  0
  150.1196  136.7051  154.8075 O   0  0  0  0  0  0  0  0  0  0  0  0
  151.6994  138.2459  155.8983 C   0  0  1  0  0  0  0  0  0  0  0  0
  152.6873  137.4521  155.2653 O   0  0  0  0  0  0  0  0  0  0  0  0
  152.8869  139.9603  155.1390 H   0  0  0  0  0  0  0  0  0  0  0  0
  150.7713  138.7700  153.3406 H   0  0  0  0  0  0  0  0  0  0  0  0
  149.5584  138.2027  156.0784 H   0  0  0  0  0  0  0  0  0  0  0  0
  151.7216  138.0403  156.9696 H   0  0  0  0  0  0  0  0  0  0  0  0
  152.1361  142.9384  161.0034 H   0  0  0  0  0  0  0  0  0  0  0  0
  153.3563  142.1670  161.9941 H   0  0  0  0  0  0  0  0  0  0  0  0
  155.0008  138.7411  159.6334 H   0  0  0  0  0  0  0  0  0  0  0  0
  150.4239  142.0295  156.5175 H   0  0  0  0  0  0  0  0  0  0  0  0
  148.2790  139.9339  154.7247 H   0  0  0  0  0  0  0  0  0  0  0  0
  148.7413  140.1970  153.0511 H   0  0  0  0  0  0  0  0  0  0  0  0
  148.5102  137.8334  152.8765 H   0  0  0  0  0  0  0  0  0  0  0  0
  149.7095  136.7671  153.9583 H   0  0  0  0  0  0  0  0  0  0  0  0
  153.5314  137.8485  155.4189 H   0  0  0  0  0  0  0  0  0  0  0  0
  1  2  1  0  0  0  0
  1 24  1  0  0  0  0
  1 25  1  0  0  0  0
  2  7  1  0  0  0  0
  2  3  2  0  0  0  0
  3  4  1  0  0  0  0
  4  5  2  0  0  0  0
  4 26  1  0  0  0  0
  5  6  1  0  0  0  0
  6 10  1  0  0  0  0
  6  7  2  0  0  0  0
  7  8  1  0  0  0  0
  8  9  2  0  0  0  0
  9 10  1  0  0  0  0
  9 27  1  0  0  0  0
 10 11  1  0  0  0  0
 11 20  1  0  0  0  0
 11 18  1  0  0  0  0
 11 12  1  0  0  0  0
 12 13  1  0  0  0  0
 13 21  1  0  0  0  0
 13 14  1  0  0  0  0
 13 16  1  0  0  0  0
 14 15  1  0  0  0  0
 14 28  1  0  0  0  0
 14 29  1  0  0  0  0
 15 30  1  0  0  0  0
 16 22  1  0  0  0  0
 16 17  1  0  0  0  0
 16 18  1  0  0  0  0
 17 31  1  0  0  0  0
 18 23  1  0  0  0  0
 18 19  1  0  0  0  0
 19 32  1  0  0  0  0
M  END
> <s_m_source_file>
AV-unprocessed.smi

> <i_m_source_file_index>
69

> <i_lp_mmshare_version>
43012

> <i_f3d_flags>
0

> <s_epik_input>
bjFbY0hdbmMoW05IMl0pYyhjMTIpbltjSF1uMltDQEBIXTNPW0NASF0oW0NIMl1bT0hdKVtDQEBIXShbT0hdKVtDQEhdM1tPSF0=

> <s_epik_cmdline>
J2VwaWtfcHl0aG9uJywgJy1waCcsICc3LjAnLCAnLXRuJywgJzgnLCAnLW1hJywgJzIwMCcsICctbWV0YWxfYmluZGluZycsICctaW1hZScsICc8aW5maWxlLm1hZT4nLCAnLW9tYWUnLCAnPG91dGZpbGUubWFlPic=

> <r_lp_tautomer_probability>
1

> <r_epik_Ionization_Penalty>
0.000428445

> <r_epik_Ionization_Penalty_Charging>
0

> <r_epik_Ionization_Penalty_Neutral>
0.000428445

> <r_epik_State_Penalty>
-0

> <r_epik_Charging_Adjusted_Penalty>
0

> <i_epik_Tot_Q>
0

> <i_epik_Tot_abs_Q>
0

> <r_epik_Metal_State_Penalty>
-0

> <b_epik_Metal_Only>
0

> <s_epik_Chemistry_Notes>
This compound contains an acetal/aminal-like group ( X-CH(R)-Y where X, Y are N, S, or O) that may be acid/base labile, releasing an aldehyde.

> <s_lp_Force_Field>
OPLS_2005

> <r_lp_Energy>
38.6476

> <b_lp_Chiralities_Consistent>
1

> <s_lp_Variant>
AV-unprocessed.smi:69-1

> <Gold.Version>
5.8.1

> <Gold.Id.Protein>
6NUR|6NUR_protein|mol2

> <Gold.PLP.Fitness>
40.8123

> <Gold.PLP.PLP>
-28.0590

> <Gold.PLP.part.hbond>
-5.3033

> <Gold.PLP.part.metal>
0.0000

> <Gold.PLP.part.buried>
-1.2109

> <Gold.PLP.part.nonpolar>
-21.3562

> <Gold.PLP.part.repulsive>
0.2318

> <Gold.PLP.ligand.clash>
0.0000

> <Gold.PLP.ligand.torsion>
0.1161

> <Gold.PLP.Chemscore.Hbond>
4.3243

> <Gold.PLP.Chemscore.CHOScore>
0.0000

> <Gold.PLP.Chemscore.Metal>
0.0000

> <Gold.Chemscore.Hbonds>
donor molecule, donor type, donor heavy atom, donor atom, acceptor molecule, acceptor atom, score
      L1  H    15    30       P1  7948  1.00
      L1  H    17    31       P1  7948  0.42
      P1  H  7989  7998       L1    12  1.00
      P1  H  7997  8009       L1     5  0.70
      P1  H 10752 10764       L1    19  0.51

> <Gold.PLP.Chemscore.Internal.Correction>
0.0128

> <Gold.Rescore>
     Score         DG    S(hbond)    S(metal)    S(lipo)     H(rot)  DE(clash)    DE(int)     intcor
      5.35      -7.33       2.40        0.00      35.54       4.03       1.80       0.18       ----

> <Gold.Chemscore.Fitness>
5.3471

> <Gold.Chemscore.DG>
-7.3297

> <Gold.Chemscore.ZeroCoef>
-5.4800

> <Gold.Chemscore.Hbond>
2.3959

> <Gold.Chemscore.Metal>
0.0000

> <Gold.Chemscore.Lipo>
35.5403

> <Gold.Chemscore.Internal_Hbond>
0.0000

> <Gold.Chemscore.DEClash>
1.8019

> <Gold.Chemscore.DEInternal>
0.1807

> <Gold.Chemscore.Rot>
4.0277

> <Gold.Chemscore.Internal.Correction>
   9.000000E+99

> <Gold.Chemscore.Hbonds>
donor molecule, donor type, donor heavy atom, donor atom, acceptor molecule, acceptor atom, score
      L1  H    15    30       P1  7948  0.98
      L1  H    17    31       P1  7948  0.29
      P1  H  7989  7998       L1    12  0.13
      P1  H  7997  8009       L1     5  0.04
      P1  H 10752 10764       L1    19  0.31

> <Gold.Chemscore.Hbond.Weighted>
-8.0024

> <Gold.Chemscore.Metal.Weighted>
-0.0000

> <Gold.Chemscore.Lipo.Weighted>
-4.1582

> <Gold.Chemscore.Internal_Hbond.Weighted>
0.0000

> <Gold.Chemscore.DEClash.Weighted>
1.8019

> <Gold.Chemscore.DEInternal.Weighted>
0.1807

> <Gold.Chemscore.Rot.Weighted>
10.3110

> <Gold.Chemscore.Internal.Correction.Weighted>
   9.000000E+99

> <Gold.Protein.RotatedTorsions>
[ 6907 6896 6895 6894 ] final  -77.38 input  -60.11 | X-H torsion
[ 7974 7965 7964 7962 ] final   -7.07 input  175.53 | X-H torsion
[ 8008 7997 7996 7995 ] final  143.31 input   59.86 | X-H torsion
[ 10167 10162 10161 10158 ] final -102.80 input  -65.29 | X-H torsion
[ 10718 10713 10712 10709 ] final -143.24 input   66.30 | X-H torsion
[ 10763 10752 10751 10750 ] final  -52.40 input  -60.55 | X-H torsion
[ 11005 11000 10999 10996 ] final   31.34 input  -57.11 | X-H torsion

> <Gold.Protein.ActiveResidues>
 VAL166  LYS551  ARG553  GLY616  TRP617  ASP618  TYR619  PRO620  LYS621  CYS622 
 ASP623  PHE694  ASN695  SER759  ASP760  ASP761  ALA762  ILE779  LEU786  VAL792 
 PHE793  MET794  SER795  GLU796  ALA797  LYS798  CYS799  TRP800  GLU811  SER814 

> <Gold.Protein.RotatedAtoms>
  150.7000  134.4431  159.5301 H   0  0  0  0  0  0  0  0  0  0  0  0  # atno 6907 bound_to 6896
  152.2137  134.8475  160.0503 H   0  0  0  0  0  0  0  0  0  0  0  0  # atno 6908 bound_to 6896
  151.9350  133.3587  159.3981 H   0  0  0  0  0  0  0  0  0  0  0  0  # atno 6909 bound_to 6896
  146.2316  140.2265  142.8339 H   0  0  0  0  0  0  0  0  0  0  0  0  # atno 7974 bound_to 7965
  156.2933  140.2266  156.4869 H   0  0  0  0  0  0  0  0  0  0  0  0  # atno 8008 bound_to 7997
  154.7804  140.0460  157.1144 H   0  0  0  0  0  0  0  0  0  0  0  0  # atno 8009 bound_to 7997
  154.9765  140.3073  155.4968 H   0  0  0  0  0  0  0  0  0  0  0  0  # atno 8010 bound_to 7997
  140.2268  143.3636  152.0922 H   0  0  0  0  0  0  0  0  0  0  0  0  # atno 10167 bound_to 10162
  156.3556  130.7711  151.1870 H   0  0  0  0  0  0  0  0  0  0  0  0  # atno 10718 bound_to 10713
  154.1422  135.6503  153.4944 H   0  0  0  0  0  0  0  0  0  0  0  0  # atno 10763 bound_to 10752
  153.0162  135.5318  154.6893 H   0  0  0  0  0  0  0  0  0  0  0  0  # atno 10764 bound_to 10752
  154.6158  135.2959  155.0353 H   0  0  0  0  0  0  0  0  0  0  0  0  # atno 10765 bound_to 10752
  140.2849  134.2930  155.7791 H   0  0  0  0  0  0  0  0  0  0  0  0  # atno 11005 bound_to 11000
  144.9591  140.8257  143.5524 LP  0  0  0  0  0  0  0  0  0  0  0  0  # atno 17320 bound_to 7965
  145.2233  139.2148  143.5081 LP  0  0  0  0  0  0  0  0  0  0  0  0  # atno 17321 bound_to 7965
  139.5124  144.6916  151.5743 LP  0  0  0  0  0  0  0  0  0  0  0  0  # atno 17342 bound_to 10162
  140.6215  143.9250  150.6530 LP  0  0  0  0  0  0  0  0  0  0  0  0  # atno 17343 bound_to 10162
  157.7467  131.0415  150.4649 LP  0  0  0  0  0  0  0  0  0  0  0  0  # atno 17370 bound_to 10713
  156.4851  130.4082  149.6439 LP  0  0  0  0  0  0  0  0  0  0  0  0  # atno 17371 bound_to 10713
  141.2156  133.7548  156.9537 LP  0  0  0  0  0  0  0  0  0  0  0  0  # atno 17394 bound_to 11000
  140.1249  134.9393  157.2255 LP  0  0  0  0  0  0  0  0  0  0  0  0  # atno 17395 bound_to 11000

$$$$
