AV-unprocessed.smi:2895|AV-procd|sdf|11129|dock7
  -GOLD-   2272016 03D 1   1.00000     0.00000
 Structure written by MMmdl.
 53 56  0  0  0  0  0  0  0  0  2 V2000
  150.1867  137.6092  158.1486 O   0  0  0  0  0  0  0  0  0  0  0  0
  149.4811  138.5264  158.5715 C   0  0  0  0  0  0  0  0  0  0  0  0
  148.5000  138.3090  159.4657 N   0  0  0  0  0  0  0  0  0  0  0  0
  148.1472  137.0125  160.0330 C   0  0  0  0  0  0  0  0  0  0  0  0
  146.7313  137.0253  160.6297 C   0  0  0  0  0  0  0  0  0  0  0  0
  146.7375  136.7372  162.1182 C   0  0  0  0  0  0  0  0  0  0  0  0
  146.2783  135.5001  162.6149 C   0  0  0  0  0  0  0  0  0  0  0  0
  146.3086  135.2829  164.0071 C   0  0  0  0  0  0  0  0  0  0  0  0
  146.7571  136.1997  164.8918 N   0  0  0  0  0  0  0  0  0  0  0  0
  147.1971  137.3812  164.4081 C   0  0  0  0  0  0  0  0  0  0  0  0
  147.2089  137.6994  163.0351 C   0  0  0  0  0  0  0  0  0  0  0  0
  149.6440  139.8245  158.1976 N   0  0  0  0  0  0  0  0  0  0  0  0
  148.9301  140.9483  158.8485 C   0  0  0  0  0  0  0  0  0  0  0  0
  148.8292  142.2216  157.9916 C   0  0  0  0  0  0  0  0  0  0  0  0
  150.1234  142.5897  157.3735 N   0  3  0  0  0  0  0  0  0  0  0  0
  151.1910  143.0350  158.3245 C   0  0  1  0  0  0  0  0  0  0  0  0
  152.2801  143.8942  157.6287 C   0  0  0  0  0  0  0  0  0  0  0  0
  152.3376  145.1696  158.4851 C   0  0  2  0  0  0  0  0  0  0  0  0
  152.9321  144.8431  159.8658 C   0  0  0  0  0  0  0  0  0  0  0  0
  151.7943  144.0584  160.5419 C   0  0  0  0  0  0  0  0  0  0  0  0
  150.7139  144.0024  159.4437 C   0  0  1  0  0  0  0  0  0  0  0  0
  150.8644  145.3788  158.8057 C   0  0  0  0  0  0  0  0  0  0  0  0
  150.5412  141.4851  156.4782 C   0  0  0  0  0  0  0  0  0  0  0  0
  150.7097  140.1472  157.2240 C   0  0  0  0  0  0  0  0  0  0  0  0
  147.9625  139.1031  159.7816 H   0  0  0  0  0  0  0  0  0  0  0  0
  148.2370  136.2314  159.2760 H   0  0  0  0  0  0  0  0  0  0  0  0
  148.8756  136.7758  160.8091 H   0  0  0  0  0  0  0  0  0  0  0  0
  146.2616  137.9951  160.4599 H   0  0  0  0  0  0  0  0  0  0  0  0
  146.1026  136.2875  160.1291 H   0  0  0  0  0  0  0  0  0  0  0  0
  145.9118  134.7336  161.9480 H   0  0  0  0  0  0  0  0  0  0  0  0
  145.9633  134.3472  164.4214 H   0  0  0  0  0  0  0  0  0  0  0  0
  147.5512  138.0951  165.1370 H   0  0  0  0  0  0  0  0  0  0  0  0
  147.5728  138.6586  162.6974 H   0  0  0  0  0  0  0  0  0  0  0  0
  147.9090  140.6737  159.1173 H   0  0  0  0  0  0  0  0  0  0  0  0
  149.4423  141.1760  159.7843 H   0  0  0  0  0  0  0  0  0  0  0  0
  148.1127  142.0451  157.1879 H   0  0  0  0  0  0  0  0  0  0  0  0
  148.3980  143.0399  158.5637 H   0  0  0  0  0  0  0  0  0  0  0  0
  151.6449  142.1541  158.7795 H   0  0  0  0  0  0  0  0  0  0  0  0
  153.2422  143.3830  157.5767 H   0  0  0  0  0  0  0  0  0  0  0  0
  151.9969  144.1685  156.6117 H   0  0  0  0  0  0  0  0  0  0  0  0
  152.8239  146.0085  157.9865 H   0  0  0  0  0  0  0  0  0  0  0  0
  153.8533  144.2638  159.7930 H   0  0  0  0  0  0  0  0  0  0  0  0
  153.1519  145.7555  160.4220 H   0  0  0  0  0  0  0  0  0  0  0  0
  152.1088  143.0682  160.8738 H   0  0  0  0  0  0  0  0  0  0  0  0
  151.4273  144.5982  161.4158 H   0  0  0  0  0  0  0  0  0  0  0  0
  149.7317  143.8031  159.8660 H   0  0  0  0  0  0  0  0  0  0  0  0
  150.6861  146.2006  159.5014 H   0  0  0  0  0  0  0  0  0  0  0  0
  150.2418  145.5173  157.9203 H   0  0  0  0  0  0  0  0  0  0  0  0
  149.7773  141.3671  155.7081 H   0  0  0  0  0  0  0  0  0  0  0  0
  151.4560  141.7286  155.9391 H   0  0  0  0  0  0  0  0  0  0  0  0
  151.6574  140.1524  157.7642 H   0  0  0  0  0  0  0  0  0  0  0  0
  150.8025  139.3662  156.4672 H   0  0  0  0  0  0  0  0  0  0  0  0
  149.9373  143.3854  156.7799 H   0  0  0  0  0  0  0  0  0  0  0  0
  1  2  2  0  0  0  0
  2  3  1  0  0  0  0
  2 12  1  0  0  0  0
  3  4  1  0  0  0  0
  3 25  1  0  0  0  0
  4  5  1  0  0  0  0
  4 26  1  0  0  0  0
  4 27  1  0  0  0  0
  5  6  1  0  0  0  0
  5 28  1  0  0  0  0
  5 29  1  0  0  0  0
  6 11  1  0  0  0  0
  6  7  2  0  0  0  0
  7  8  1  0  0  0  0
  7 30  1  0  0  0  0
  8  9  2  0  0  0  0
  8 31  1  0  0  0  0
  9 10  1  0  0  0  0
 10 11  2  0  0  0  0
 10 32  1  0  0  0  0
 11 33  1  0  0  0  0
 12 24  1  0  0  0  0
 12 13  1  0  0  0  0
 13 14  1  0  0  0  0
 13 34  1  0  0  0  0
 13 35  1  0  0  0  0
 14 15  1  0  0  0  0
 14 36  1  0  0  0  0
 14 37  1  0  0  0  0
 15 16  1  0  0  0  0
 15 23  1  0  0  0  0
 15 53  1  0  0  0  0
 16 21  1  0  0  0  0
 16 17  1  0  0  0  0
 16 38  1  0  0  0  0
 17 18  1  0  0  0  0
 17 39  1  0  0  0  0
 17 40  1  0  0  0  0
 18 22  1  0  0  0  0
 18 19  1  0  0  0  0
 18 41  1  0  0  0  0
 19 20  1  0  0  0  0
 19 42  1  0  0  0  0
 19 43  1  0  0  0  0
 20 21  1  0  0  0  0
 20 44  1  0  0  0  0
 20 45  1  0  0  0  0
 21 22  1  0  0  0  0
 21 46  1  0  0  0  0
 22 47  1  0  0  0  0
 22 48  1  0  0  0  0
 23 24  1  0  0  0  0
 23 49  1  0  0  0  0
 23 50  1  0  0  0  0
 24 51  1  0  0  0  0
 24 52  1  0  0  0  0
M  CHG  1  15   1
M  END
> <s_m_source_file>
AV-unprocessed.smi

> <i_m_source_file_index>
2895

> <i_lp_mmshare_version>
43012

> <i_f3d_flags>
0

> <s_epik_input>
W0NIMl0xW0NIMl1bQ0BASF0oW0NIMl0yKVtDQEBIXShbQ0gyXVtDQEhdMTIpTihbQ0gyXVtDSDJdMylbQ0gyXVtDSDJdTjNDKD1PKVtOSF1bQ0gyXVtDSDJdYzRbY0hdW2NIXW5bY0hdW2NIXTQ=

> <s_epik_cmdline>
J2VwaWtfcHl0aG9uJywgJy1waCcsICc3LjAnLCAnLXRuJywgJzgnLCAnLW1hJywgJzIwMCcsICctbWV0YWxfYmluZGluZycsICctaW1hZScsICc8aW5maWxlLm1hZT4nLCAnLW9tYWUnLCAnPG91dGZpbGUubWFlPic=

> <r_epik_Ionization_Penalty>
0.0566172

> <r_epik_Ionization_Penalty_Charging>
0.00262064

> <r_epik_Ionization_Penalty_Neutral>
0.0539965

> <r_epik_State_Penalty>
0.0463959

> <r_epik_Charging_Adjusted_Penalty>
0.0490165

> <i_epik_Tot_Q>
1

> <i_epik_Tot_abs_Q>
1

> <r_epik_Metal_State_Penalty>
0.0424856

> <b_epik_Metal_Only>
0

> <s_lp_Force_Field>
OPLS_2005

> <r_lp_Energy>
101.263

> <b_lp_Chiralities_Consistent>
1

> <s_lp_Variant>
AV-unprocessed.smi:2895-2

> <Gold.Version>
5.8.1

> <Gold.Id.Protein>
6NUR|6NUR_protein|mol2

> <Gold.PLP.Fitness>
49.9813

> <Gold.PLP.PLP>
-45.9077

> <Gold.PLP.part.hbond>
-2.2859

> <Gold.PLP.part.metal>
0.0000

> <Gold.PLP.part.buried>
-5.6324

> <Gold.PLP.part.nonpolar>
-37.8984

> <Gold.PLP.part.repulsive>
0.2004

> <Gold.PLP.ligand.clash>
0.2036

> <Gold.PLP.ligand.torsion>
0.9279

> <Gold.PLP.Chemscore.Hbond>
2.0000

> <Gold.PLP.Chemscore.CHOScore>
0.0000

> <Gold.PLP.Chemscore.Metal>
0.0000

> <Gold.Chemscore.Hbonds>
donor molecule, donor type, donor heavy atom, donor atom, acceptor molecule, acceptor atom, score
      L1  H    15    53       P1  8028  2.00
      P1  H  6888  6897       L1     9  0.38

> <Gold.PLP.Chemscore.Internal.Correction>
0.1330

> <Gold.Rescore>
     Score         DG    S(hbond)    S(metal)    S(lipo)     H(rot)  DE(clash)    DE(int)     intcor
     20.40     -21.54       0.99        0.00     139.04       1.37       0.59       0.55       ----

> <Gold.Chemscore.Fitness>
20.4030

> <Gold.Chemscore.DG>
-21.5438

> <Gold.Chemscore.ZeroCoef>
-5.4800

> <Gold.Chemscore.Hbond>
0.9915

> <Gold.Chemscore.Metal>
0.0000

> <Gold.Chemscore.Lipo>
139.0381

> <Gold.Chemscore.Internal_Hbond>
0.0000

> <Gold.Chemscore.DEClash>
0.5909

> <Gold.Chemscore.DEInternal>
0.5499

> <Gold.Chemscore.Rot>
1.3731

> <Gold.Chemscore.Internal.Correction>
   9.000000E+99

> <Gold.Chemscore.Hbonds>
donor molecule, donor type, donor heavy atom, donor atom, acceptor molecule, acceptor atom, score
      L1  H    15    53       P1  8028  0.93
      P1  H  6888  6897       L1     9  0.05

> <Gold.Chemscore.Hbond.Weighted>
-3.3115

> <Gold.Chemscore.Metal.Weighted>
-0.0000

> <Gold.Chemscore.Lipo.Weighted>
-16.2675

> <Gold.Chemscore.Internal_Hbond.Weighted>
0.0000

> <Gold.Chemscore.DEClash.Weighted>
0.5909

> <Gold.Chemscore.DEInternal.Weighted>
0.5499

> <Gold.Chemscore.Rot.Weighted>
3.5152

> <Gold.Chemscore.Internal.Correction.Weighted>
   9.000000E+99

> <Gold.Protein.RotatedTorsions>
[ 6907 6896 6895 6894 ] final -159.80 input  -60.11 | X-H torsion
[ 7974 7965 7964 7962 ] final  -16.11 input  175.53 | X-H torsion
[ 8008 7997 7996 7995 ] final -145.76 input   59.86 | X-H torsion
[ 10167 10162 10161 10158 ] final -112.02 input  -65.29 | X-H torsion
[ 10718 10713 10712 10709 ] final  114.24 input   66.30 | X-H torsion
[ 10763 10752 10751 10750 ] final   79.96 input  -60.55 | X-H torsion
[ 11005 11000 10999 10996 ] final  118.13 input  -57.11 | X-H torsion

> <Gold.Protein.ActiveResidues>
 VAL166  LYS551  ARG553  GLY616  TRP617  ASP618  TYR619  PRO620  LYS621  CYS622 
 ASP623  PHE694  ASN695  SER759  ASP760  ASP761  ALA762  ILE779  LEU786  VAL792 
 PHE793  MET794  SER795  GLU796  ALA797  LYS798  CYS799  TRP800  GLU811  SER814 

> <Gold.Protein.RotatedAtoms>
  151.3392  133.3969  159.2669 H   0  0  0  0  0  0  0  0  0  0  0  0  # atno 6907 bound_to 6896
  150.9892  134.9231  159.7900 H   0  0  0  0  0  0  0  0  0  0  0  0  # atno 6908 bound_to 6896
  152.5242  134.3357  159.9251 H   0  0  0  0  0  0  0  0  0  0  0  0  # atno 6909 bound_to 6896
  146.2002  140.3589  142.8426 H   0  0  0  0  0  0  0  0  0  0  0  0  # atno 7974 bound_to 7965
  155.5485  140.0614  157.2855 H   0  0  0  0  0  0  0  0  0  0  0  0  # atno 8008 bound_to 7997
  154.4428  140.1906  156.0706 H   0  0  0  0  0  0  0  0  0  0  0  0  # atno 8009 bound_to 7997
  156.0534  140.3281  155.7380 H   0  0  0  0  0  0  0  0  0  0  0  0  # atno 8010 bound_to 7997
  140.1273  143.4391  152.1651 H   0  0  0  0  0  0  0  0  0  0  0  0  # atno 10167 bound_to 10162
  157.6292  131.0996  150.7158 H   0  0  0  0  0  0  0  0  0  0  0  0  # atno 10718 bound_to 10713
  153.0995  135.4820  154.8840 H   0  0  0  0  0  0  0  0  0  0  0  0  # atno 10763 bound_to 10752
  154.7362  135.3071  154.8809 H   0  0  0  0  0  0  0  0  0  0  0  0  # atno 10764 bound_to 10752
  153.9430  135.6832  153.4797 H   0  0  0  0  0  0  0  0  0  0  0  0  # atno 10765 bound_to 10752
  139.9099  134.9617  156.7457 H   0  0  0  0  0  0  0  0  0  0  0  0  # atno 11005 bound_to 11000
  144.8667  140.7216  143.6072 LP  0  0  0  0  0  0  0  0  0  0  0  0  # atno 17320 bound_to 7965
  145.3508  139.1707  143.4435 LP  0  0  0  0  0  0  0  0  0  0  0  0  # atno 17321 bound_to 7965
  139.5537  144.7357  151.4356 LP  0  0  0  0  0  0  0  0  0  0  0  0  # atno 17342 bound_to 10162
  140.6837  143.8022  150.7157 LP  0  0  0  0  0  0  0  0  0  0  0  0  # atno 17343 bound_to 10162
  156.7500  130.4766  149.5458 LP  0  0  0  0  0  0  0  0  0  0  0  0  # atno 17370 bound_to 10713
  156.1484  130.6293  151.0563 LP  0  0  0  0  0  0  0  0  0  0  0  0  # atno 17371 bound_to 10713
  140.6814  133.9471  155.7912 LP  0  0  0  0  0  0  0  0  0  0  0  0  # atno 17394 bound_to 11000
  141.0507  134.0488  157.3786 LP  0  0  0  0  0  0  0  0  0  0  0  0  # atno 17395 bound_to 11000

$$$$
