#       Name:                AV-unprocessed.smi:2534
#       Creating user name   scv26
#       Creation time:       Fri Mar 27 14:02:24 2020


#       File generated by GOLD software.
#

@<TRIPOS>MOLECULE
AV-unprocessed.smi:2534
    46    48     1
SMALL
NO_CHARGES


@<TRIPOS>ATOM
      1 ****        -1.3084  -4.8396   0.5516 C.3            1 S1                 0.0000
      2 ****        -1.6739  -3.3489   0.5814 C.3            1 S1                 0.0000
      3 ****        -1.2107  -2.6283  -0.6999 C.3            1 S1                 0.0000
      4 ****        -1.5637  -1.1313  -0.6628 C.3            1 S1                 0.0000
      5 ****        -0.9731  -0.4228   0.5796 C.3            1 S1                 0.0000
      6 ****        -1.5392   0.8733   0.6179 O.3            1 S1                 0.0000
      7 ****         0.5746  -0.2693   0.5530 C.3            1 S1                 0.0000
      8 ****         1.0906   0.4931  -0.5781 N.pl3          1 S1                 0.0000
      9 ****         1.3977  -0.1457  -1.7374 N.2            1 S1                 0.0000
     10 ****         1.8435   0.7957  -2.5659 C.2            1 S1                 0.0000
     11 ****         1.8529   2.0796  -1.9558 C.2            1 S1                 0.0000
     12 ****         2.2362   3.4216  -2.3801 C.2            1 S1                 0.0000
     13 ****         2.1186   4.3909  -1.5279 N.2            1 S1                 0.0000
     14 ****         1.6401   4.1701  -0.2317 N.am           1 S1                 0.0000
     15 ****         1.5900   5.3817   0.5855 C.3            1 S1                 0.0000
     16 ****         1.2523   2.9535   0.2621 C.2            1 S1                 0.0000
     17 ****         0.8345   2.7695   1.4050 O.2            1 S1                 0.0000
     18 ****         1.3790   1.8385  -0.7085 C.2            1 S1                 0.0000
     19 ****        -1.4435  -1.1534   1.8574 C.3            1 S1                 0.0000
     20 ****        -1.1060  -2.6555   1.8350 C.3            1 S1                 0.0000
     21 ****        -0.2284  -4.9824   0.5037 H              1 S1                 0.0000
     22 ****        -1.7484  -5.3350  -0.3143 H              1 S1                 0.0000
     23 ****        -1.6724  -5.3510   1.4431 H              1 S1                 0.0000
     24 ****        -2.7619  -3.2794   0.6275 H              1 S1                 0.0000
     25 ****        -0.1356  -2.7528  -0.8326 H              1 S1                 0.0000
     26 ****        -1.6783  -3.0877  -1.5714 H              1 S1                 0.0000
     27 ****        -1.2438  -0.6461  -1.5845 H              1 S1                 0.0000
     28 ****        -2.6510  -1.0383  -0.6485 H              1 S1                 0.0000
     29 ****        -1.2850   1.3345  -0.1667 H              1 S1                 0.0000
     30 ****         0.9213   0.2018   1.4723 H              1 S1                 0.0000
     31 ****         1.0551  -1.2475   0.5390 H              1 S1                 0.0000
     32 ****         2.1453   0.5177  -3.5651 H              1 S1                 0.0000
     33 ****         2.6109   3.5981  -3.3881 H              1 S1                 0.0000
     34 ****         1.2182   5.2173   1.5977 H              1 S1                 0.0000
     35 ****         0.9414   6.1225   0.1165 H              1 S1                 0.0000
     36 ****         2.5872   5.8152   0.6713 H              1 S1                 0.0000
     37 ****        -1.0084  -0.6887   2.7431 H              1 S1                 0.0000
     38 ****        -2.5243  -1.0458   1.9627 H              1 S1                 0.0000
     39 ****        -1.5085  -3.1280   2.7317 H              1 S1                 0.0000
     40 ****        -0.0257  -2.7953   1.8807 H              1 S1                 0.0000
     41 ****        -1.2035   1.3644   1.4217 LP             1 S1                 0.0000
     42 ****        -2.5359   0.8049   0.6612 LP             1 S1                 0.0000
     43 ****         1.3073  -1.1231  -1.9288 LP             1 S1                 0.0000
     44 ****         2.3756   5.3173  -1.8028 LP             1 S1                 0.0000
     45 ****         0.7611   3.5382   2.0404 LP             1 S1                 0.0000
     46 ****         0.5685   1.8512   1.6984 LP             1 S1                 0.0000
@<TRIPOS>BOND
    1    1    2 1     
    2    1   21 1     
    3    1   22 1     
    4    1   23 1     
    5    2   20 1     
    6    2    3 1     
    7    2   24 1     
    8    3    4 1     
    9    3   25 1     
   10    3   26 1     
   11    4    5 1     
   12    4   27 1     
   13    4   28 1     
   14    5    6 1     
   15    5    7 1     
   16    5   19 1     
   17    6   29 1     
   18    7    8 1     
   19    7   30 1     
   20    7   31 1     
   21    8   18 1     
   22    8    9 1     
   23    9   10 2     
   24   10   11 1     
   25   10   32 1     
   26   11   18 2     
   27   11   12 1     
   28   12   13 2     
   29   12   33 1     
   30   13   14 1     
   31   14   15 1     
   32   14   16 am    
   33   15   34 1     
   34   15   35 1     
   35   15   36 1     
   36   16   17 2     
   37   16   18 1     
   38   19   20 1     
   39   19   37 1     
   40   19   38 1     
   41   20   39 1     
   42   20   40 1     
   43    6   41 1     
   44    6   42 1     
   45    9   43 1     
   46   13   44 1     
   47   17   45 1     
   48   17   46 1     
@<TRIPOS>SUBSTRUCTURE
      1 S1             1
@<TRIPOS>SET
LONE_PAIRS      STATIC     ATOMS    <user>   **** ""
6 41 42 43 44 45 46
DONOR_HYDROGENS      STATIC     ATOMS    <user>   **** ""
1 29
ATOM$BLUE        STATIC     ATOMS    COLORGROUP SYSTEM
6 41 42 43 44 45 46
ATOM$RED        STATIC     ATOMS    COLORGROUP SYSTEM
1 29
