AV-unprocessed.smi:2627|AV-procd|sdf|10241|dock3
  -GOLD-   2272014253D 1   1.00000     0.00000
 Structure written by MMmdl.
 40 42  0  0  0  0  0  0  0  0  2 V2000
  153.1482  138.6000  154.4210 C   0  0  0  0  0  0  0  0  0  0  0  0
  151.8405  137.8914  154.7962 C   0  0  2  0  0  0  0  0  0  0  0  0
  151.7835  136.6551  154.1151 O   0  0  0  0  0  0  0  0  0  0  0  0
  150.6578  138.7587  154.4941 C   0  0  0  0  0  0  0  0  0  0  0  0
  149.6186  138.4398  153.6703 N   0  3  0  0  0  0  0  0  0  0  0  0
  148.7051  139.4935  153.6296 C   0  0  0  0  0  0  0  0  0  0  0  0
  147.5024  139.6311  152.9437 C   0  0  0  0  0  0  0  0  0  0  0  0
  146.8057  140.8440  153.1251 C   0  0  0  0  0  0  0  0  0  0  0  0
  147.3083  141.8611  153.9627 C   0  0  0  0  0  0  0  0  0  0  0  0
  148.5296  141.7104  154.6524 C   0  0  0  0  0  0  0  0  0  0  0  0
  149.2137  140.5096  154.4642 C   0  0  0  0  0  0  0  0  0  0  0  0
  150.4245  140.0180  154.9645 N   0  0  0  0  0  0  0  0  0  0  0  0
  151.2218  140.8546  155.8705 C   0  0  0  0  0  0  0  0  0  0  0  0
  151.2966  140.2558  157.2798 C   0  0  0  0  0  0  0  0  0  0  0  0
  152.6546  140.2547  157.6944 O   0  0  0  0  0  0  0  0  0  0  0  0
  152.9774  140.8952  158.8713 C   0  0  0  0  0  0  0  0  0  0  0  0
  152.1620  141.9810  159.2522 C   0  0  0  0  0  0  0  0  0  0  0  0
  152.4193  142.6951  160.4382 C   0  0  0  0  0  0  0  0  0  0  0  0
  153.5000  142.3266  161.2604 C   0  0  0  0  0  0  0  0  0  0  0  0
  154.3211  141.2441  160.8936 C   0  0  0  0  0  0  0  0  0  0  0  0
  154.0641  140.5306  159.7067 C   0  0  0  0  0  0  0  0  0  0  0  0
  153.2550  139.5390  154.9650 H   0  0  0  0  0  0  0  0  0  0  0  0
  153.1868  138.8267  153.3549 H   0  0  0  0  0  0  0  0  0  0  0  0
  154.0133  137.9812  154.6617 H   0  0  0  0  0  0  0  0  0  0  0  0
  151.8487  137.6697  155.8637 H   0  0  0  0  0  0  0  0  0  0  0  0
  151.3830  136.7954  153.2703 H   0  0  0  0  0  0  0  0  0  0  0  0
  147.1145  138.8528  152.3026 H   0  0  0  0  0  0  0  0  0  0  0  0
  145.8669  140.9971  152.6125 H   0  0  0  0  0  0  0  0  0  0  0  0
  146.7458  142.7764  154.0786 H   0  0  0  0  0  0  0  0  0  0  0  0
  148.9040  142.4955  155.2926 H   0  0  0  0  0  0  0  0  0  0  0  0
  152.2221  140.9429  155.4460 H   0  0  0  0  0  0  0  0  0  0  0  0
  150.8069  141.8626  155.8896 H   0  0  0  0  0  0  0  0  0  0  0  0
  150.6898  140.8448  157.9694 H   0  0  0  0  0  0  0  0  0  0  0  0
  150.9068  139.2366  157.2654 H   0  0  0  0  0  0  0  0  0  0  0  0
  151.3308  142.2708  158.6262 H   0  0  0  0  0  0  0  0  0  0  0  0
  151.7874  143.5255  160.7162 H   0  0  0  0  0  0  0  0  0  0  0  0
  153.6986  142.8726  162.1708 H   0  0  0  0  0  0  0  0  0  0  0  0
  155.1505  140.9597  161.5242 H   0  0  0  0  0  0  0  0  0  0  0  0
  154.7153  139.7060  159.4601 H   0  0  0  0  0  0  0  0  0  0  0  0
  149.5444  137.5595  153.1765 H   0  0  0  0  0  0  0  0  0  0  0  0
  1  2  1  0  0  0  0
  1 22  1  0  0  0  0
  1 23  1  0  0  0  0
  1 24  1  0  0  0  0
  2  3  1  0  0  0  0
  2  4  1  0  0  0  0
  2 25  1  0  0  0  0
  3 26  1  0  0  0  0
  4 12  1  0  0  0  0
  4  5  2  0  0  0  0
  5  6  1  0  0  0  0
  5 40  1  0  0  0  0
  6 11  2  0  0  0  0
  6  7  1  0  0  0  0
  7  8  2  0  0  0  0
  7 27  1  0  0  0  0
  8  9  1  0  0  0  0
  8 28  1  0  0  0  0
  9 10  2  0  0  0  0
  9 29  1  0  0  0  0
 10 11  1  0  0  0  0
 10 30  1  0  0  0  0
 11 12  1  0  0  0  0
 12 13  1  0  0  0  0
 13 14  1  0  0  0  0
 13 31  1  0  0  0  0
 13 32  1  0  0  0  0
 14 15  1  0  0  0  0
 14 33  1  0  0  0  0
 14 34  1  0  0  0  0
 15 16  1  0  0  0  0
 16 21  1  0  0  0  0
 16 17  2  0  0  0  0
 17 18  1  0  0  0  0
 17 35  1  0  0  0  0
 18 19  2  0  0  0  0
 18 36  1  0  0  0  0
 19 20  1  0  0  0  0
 19 37  1  0  0  0  0
 20 21  2  0  0  0  0
 20 38  1  0  0  0  0
 21 39  1  0  0  0  0
M  CHG  1   5   1
M  END
> <s_m_source_file>
AV-unprocessed.smi

> <i_m_source_file_index>
2627

> <i_lp_mmshare_version>
43012

> <i_f3d_flags>
0

> <s_epik_input>
W2NIXTFbY0hdW2NIXVtjSF1jKGMxMiluKGMobjIpW0NASF0oW0NIM10pW09IXSlbQ0gyXVtDSDJdT2MzW2NIXVtjSF1bY0hdW2NIXVtjSF0z

> <s_epik_cmdline>
J2VwaWtfcHl0aG9uJywgJy1waCcsICc3LjAnLCAnLXRuJywgJzgnLCAnLW1hJywgJzIwMCcsICctbWV0YWxfYmluZGluZycsICctaW1hZScsICc8aW5maWxlLm1hZT4nLCAnLW9tYWUnLCAnPG91dGZpbGUubWFlPic=

> <r_lp_tautomer_probability>
1

> <r_epik_Ionization_Penalty>
1.52183

> <r_epik_Ionization_Penalty_Charging>
1.5218

> <r_epik_Ionization_Penalty_Neutral>
2.92192e-05

> <r_epik_State_Penalty>
1.61369

> <r_epik_Charging_Adjusted_Penalty>
3.13549

> <i_epik_Tot_Q>
1

> <i_epik_Tot_abs_Q>
1

> <r_epik_Metal_State_Penalty>
5.66625

> <b_epik_Metal_Only>
0

> <s_lp_Force_Field>
OPLS_2005

> <r_lp_Energy>
19.9406

> <b_lp_Chiralities_Consistent>
1

> <s_lp_Variant>
AV-unprocessed.smi:2627-3

> <Gold.Version>
5.8.1

> <Gold.Id.Protein>
6NUR|6NUR_protein|mol2

> <Gold.PLP.Fitness>
61.9602

> <Gold.PLP.PLP>
-49.6426

> <Gold.PLP.part.hbond>
-4.9763

> <Gold.PLP.part.metal>
0.0000

> <Gold.PLP.part.buried>
3.0914

> <Gold.PLP.part.nonpolar>
-47.0452

> <Gold.PLP.part.repulsive>
0.0664

> <Gold.PLP.ligand.clash>
0.0000

> <Gold.PLP.ligand.torsion>
1.1332

> <Gold.PLP.Chemscore.Hbond>
4.8313

> <Gold.PLP.Chemscore.CHOScore>
0.0000

> <Gold.PLP.Chemscore.Metal>
0.0000

> <Gold.Chemscore.Hbonds>
donor molecule, donor type, donor heavy atom, donor atom, acceptor molecule, acceptor atom, score
      L1  H     3    26       P1  7949  0.85
      L1  H     5    40       P1  7948  2.00
      P1  H  7997  8008       L1    15  0.98
      P1  H 10752 10764       L1     3  1.00

> <Gold.PLP.Chemscore.Internal.Correction>
0.0901

> <Gold.Rescore>
     Score         DG    S(hbond)    S(metal)    S(lipo)     H(rot)  DE(clash)    DE(int)     intcor
     22.71     -24.91       3.02        0.00     126.51       2.13       0.94       1.26       ----

> <Gold.Chemscore.Fitness>
22.7062

> <Gold.Chemscore.DG>
-24.9062

> <Gold.Chemscore.ZeroCoef>
-5.4800

> <Gold.Chemscore.Hbond>
3.0171

> <Gold.Chemscore.Metal>
0.0000

> <Gold.Chemscore.Lipo>
126.5105

> <Gold.Chemscore.Internal_Hbond>
0.0000

> <Gold.Chemscore.DEClash>
0.9397

> <Gold.Chemscore.DEInternal>
1.2602

> <Gold.Chemscore.Rot>
2.1299

> <Gold.Chemscore.Internal.Correction>
   9.000000E+99

> <Gold.Chemscore.Hbonds>
donor molecule, donor type, donor heavy atom, donor atom, acceptor molecule, acceptor atom, score
      L1  H     3    26       P1  7949  0.64
      L1  H     5    40       P1  7948  0.85
      P1  H  7997  8008       L1    15  0.36
      P1  H 10752 10764       L1     3  0.88

> <Gold.Chemscore.Hbond.Weighted>
-10.0770

> <Gold.Chemscore.Metal.Weighted>
-0.0000

> <Gold.Chemscore.Lipo.Weighted>
-14.8017

> <Gold.Chemscore.Internal_Hbond.Weighted>
0.0000

> <Gold.Chemscore.DEClash.Weighted>
0.9397

> <Gold.Chemscore.DEInternal.Weighted>
1.2602

> <Gold.Chemscore.Rot.Weighted>
5.4526

> <Gold.Chemscore.Internal.Correction.Weighted>
   9.000000E+99

> <Gold.Protein.RotatedTorsions>
[ 6907 6896 6895 6894 ] final -124.75 input  -60.11 | X-H torsion
[ 7974 7965 7964 7962 ] final   54.32 input  175.53 | X-H torsion
[ 8008 7997 7996 7995 ] final  -67.19 input   59.86 | X-H torsion
[ 10167 10162 10161 10158 ] final  -73.77 input  -65.29 | X-H torsion
[ 10718 10713 10712 10709 ] final   82.33 input   66.30 | X-H torsion
[ 10763 10752 10751 10750 ] final  -77.84 input  -60.55 | X-H torsion
[ 11005 11000 10999 10996 ] final   79.74 input  -57.11 | X-H torsion

> <Gold.Protein.ActiveResidues>
 VAL166  LYS551  ARG553  GLY616  TRP617  ASP618  TYR619  PRO620  LYS621  CYS622 
 ASP623  PHE694  ASN695  SER759  ASP760  ASP761  ALA762  ILE779  LEU786  VAL792 
 PHE793  MET794  SER795  GLU796  ALA797  LYS798  CYS799  TRP800  GLU811  SER814 

> <Gold.Protein.RotatedAtoms>
  150.8799  133.7387  159.2935 H   0  0  0  0  0  0  0  0  0  0  0  0  # atno 6907 bound_to 6896
  151.4971  135.1059  159.9828 H   0  0  0  0  0  0  0  0  0  0  0  0  # atno 6908 bound_to 6896
  152.4752  133.8077  159.7042 H   0  0  0  0  0  0  0  0  0  0  0  0  # atno 6909 bound_to 6896
  145.9621  139.4069  143.0242 H   0  0  0  0  0  0  0  0  0  0  0  0  # atno 7974 bound_to 7965
  154.4784  140.0897  156.7317 H   0  0  0  0  0  0  0  0  0  0  0  0  # atno 8008 bound_to 7997
  155.4536  140.3458  155.4285 H   0  0  0  0  0  0  0  0  0  0  0  0  # atno 8009 bound_to 7997
  156.1152  140.1459  156.9271 H   0  0  0  0  0  0  0  0  0  0  0  0  # atno 8010 bound_to 7997
  140.5083  143.2349  151.7637 H   0  0  0  0  0  0  0  0  0  0  0  0  # atno 10167 bound_to 10162
  157.6854  131.0043  150.2359 H   0  0  0  0  0  0  0  0  0  0  0  0  # atno 10718 bound_to 10713
  154.5182  135.5750  153.6659 H   0  0  0  0  0  0  0  0  0  0  0  0  # atno 10763 bound_to 10752
  152.9911  135.6175  154.2789 H   0  0  0  0  0  0  0  0  0  0  0  0  # atno 10764 bound_to 10752
  154.2708  135.2853  155.2718 H   0  0  0  0  0  0  0  0  0  0  0  0  # atno 10765 bound_to 10752
  139.9161  134.7866  156.1818 H   0  0  0  0  0  0  0  0  0  0  0  0  # atno 11005 bound_to 11000
  145.8025  140.9764  143.0991 LP  0  0  0  0  0  0  0  0  0  0  0  0  # atno 17320 bound_to 7965
  144.6817  139.9819  143.7483 LP  0  0  0  0  0  0  0  0  0  0  0  0  # atno 17321 bound_to 7965
  139.4889  144.4427  151.9746 LP  0  0  0  0  0  0  0  0  0  0  0  0  # atno 17342 bound_to 10162
  140.3518  144.3079  150.5948 LP  0  0  0  0  0  0  0  0  0  0  0  0  # atno 17343 bound_to 10162
  156.2982  130.3755  149.7775 LP  0  0  0  0  0  0  0  0  0  0  0  0  # atno 17370 bound_to 10713
  156.5413  130.8301  151.3270 LP  0  0  0  0  0  0  0  0  0  0  0  0  # atno 17371 bound_to 10713
  141.0637  133.6829  156.2003 LP  0  0  0  0  0  0  0  0  0  0  0  0  # atno 17394 bound_to 11000
  140.6619  134.4959  157.5584 LP  0  0  0  0  0  0  0  0  0  0  0  0  # atno 17395 bound_to 11000

$$$$
