AV-unprocessed.smi:730|AV-procd|sdf|3524|dock7
  -GOLD-   22720 0513D 1   1.00000     0.00000
 Structure written by MMmdl.
 40 41  0  0  0  0  0  0  0  0  1 V2000
  150.6200  124.5135  149.9503 C   0  0  0  0  0  0  0  0  0  0  0  0
  149.1376  124.3545  150.3431 C   0  0  0  0  0  0  0  0  0  0  0  0
  148.3370  123.9872  149.0795 C   0  0  0  0  0  0  0  0  0  0  0  0
  149.0263  123.2073  151.3647 C   0  0  0  0  0  0  0  0  0  0  0  0
  148.6026  125.6269  150.9391 C   0  0  0  0  0  0  0  0  0  0  0  0
  148.5164  126.9159  150.4868 C   0  0  0  0  0  0  0  0  0  0  0  0
  147.9007  127.6003  151.5678 C   0  0  0  0  0  0  0  0  0  0  0  0
  147.6309  128.9905  151.4896 N   0  0  0  0  0  0  0  0  0  0  0  0
  146.5596  129.6451  151.9687 C   0  0  0  0  0  0  0  0  0  0  0  0
  145.6161  129.1242  152.5644 O   0  0  0  0  0  0  0  0  0  0  0  0
  146.6386  130.9589  151.7152 N   0  0  0  0  0  0  0  0  0  0  0  0
  145.6360  131.9519  152.1022 C   0  0  2  0  0  0  0  0  0  0  0  0
  144.3980  131.8967  151.1807 C   0  0  0  0  0  0  0  0  0  0  0  0
  144.1606  133.3275  150.6894 C   0  0  0  0  0  0  0  0  0  0  0  0
  145.5386  133.9801  150.7354 C   0  0  0  0  0  0  0  0  0  0  0  0
  146.1714  133.3994  152.0009 C   0  0  2  0  0  0  0  0  0  0  0  0
  147.5820  133.5144  151.9677 O   0  0  0  0  0  0  0  0  0  0  0  0
  147.6333  126.8063  152.5921 N   0  0  0  0  0  0  0  0  0  0  0  0
  148.0803  125.5412  152.1954 O   0  0  0  0  0  0  0  0  0  0  0  0
  151.0181  123.5949  149.5180 H   0  0  0  0  0  0  0  0  0  0  0  0
  151.2372  124.7605  150.8151 H   0  0  0  0  0  0  0  0  0  0  0  0
  150.7541  125.3053  149.2124 H   0  0  0  0  0  0  0  0  0  0  0  0
  148.3969  124.7766  148.3292 H   0  0  0  0  0  0  0  0  0  0  0  0
  147.2817  123.8306  149.3063 H   0  0  0  0  0  0  0  0  0  0  0  0
  148.7112  123.0702  148.6228 H   0  0  0  0  0  0  0  0  0  0  0  0
  149.4165  122.2730  150.9598 H   0  0  0  0  0  0  0  0  0  0  0  0
  147.9899  123.0291  151.6539 H   0  0  0  0  0  0  0  0  0  0  0  0
  149.5860  123.4312  152.2735 H   0  0  0  0  0  0  0  0  0  0  0  0
  148.8422  127.3058  149.5339 H   0  0  0  0  0  0  0  0  0  0  0  0
  148.3281  129.5463  151.0171 H   0  0  0  0  0  0  0  0  0  0  0  0
  147.4487  131.3051  151.2218 H   0  0  0  0  0  0  0  0  0  0  0  0
  145.3412  131.7663  153.1369 H   0  0  0  0  0  0  0  0  0  0  0  0
  144.5852  131.2523  150.3200 H   0  0  0  0  0  0  0  0  0  0  0  0
  143.5237  131.4962  151.6949 H   0  0  0  0  0  0  0  0  0  0  0  0
  143.7125  133.3608  149.6960 H   0  0  0  0  0  0  0  0  0  0  0  0
  143.4883  133.8449  151.3751 H   0  0  0  0  0  0  0  0  0  0  0  0
  146.1105  133.6820  149.8551 H   0  0  0  0  0  0  0  0  0  0  0  0
  145.4895  135.0693  150.7501 H   0  0  0  0  0  0  0  0  0  0  0  0
  145.8072  133.9661  152.8592 H   0  0  0  0  0  0  0  0  0  0  0  0
  147.8057  134.4320  151.9337 H   0  0  0  0  0  0  0  0  0  0  0  0
  1  2  1  0  0  0  0
  1 20  1  0  0  0  0
  1 21  1  0  0  0  0
  1 22  1  0  0  0  0
  2  3  1  0  0  0  0
  2  4  1  0  0  0  0
  2  5  1  0  0  0  0
  3 23  1  0  0  0  0
  3 24  1  0  0  0  0
  3 25  1  0  0  0  0
  4 26  1  0  0  0  0
  4 27  1  0  0  0  0
  4 28  1  0  0  0  0
  5 19  1  0  0  0  0
  5  6  2  0  0  0  0
  6  7  1  0  0  0  0
  6 29  1  0  0  0  0
  7  8  1  0  0  0  0
  7 18  2  0  0  0  0
  8  9  1  0  0  0  0
  8 30  1  0  0  0  0
  9 10  2  0  0  0  0
  9 11  1  0  0  0  0
 11 12  1  0  0  0  0
 11 31  1  0  0  0  0
 12 16  1  0  0  0  0
 12 13  1  0  0  0  0
 12 32  1  0  0  0  0
 13 14  1  0  0  0  0
 13 33  1  0  0  0  0
 13 34  1  0  0  0  0
 14 15  1  0  0  0  0
 14 35  1  0  0  0  0
 14 36  1  0  0  0  0
 15 16  1  0  0  0  0
 15 37  1  0  0  0  0
 15 38  1  0  0  0  0
 16 17  1  0  0  0  0
 16 39  1  0  0  0  0
 17 40  1  0  0  0  0
 18 19  1  0  0  0  0
M  END
> <s_m_source_file>
AV-unprocessed.smi

> <i_m_source_file_index>
730

> <i_lp_mmshare_version>
43012

> <i_f3d_flags>
0

> <s_epik_input>
W0NIM11DKFtDSDNdKShbQ0gzXSljMVtjSF1jKG5vMSlbTkhdQyg9TylbTkhdW0NAQEhdMltDSDJdW0NIMl1bQ0gyXVtDQEhdMltPSF0=

> <s_epik_cmdline>
J2VwaWtfcHl0aG9uJywgJy1waCcsICc3LjAnLCAnLXRuJywgJzgnLCAnLW1hJywgJzIwMCcsICctbWV0YWxfYmluZGluZycsICctaW1hZScsICc8aW5maWxlLm1hZT4nLCAnLW9tYWUnLCAnPG91dGZpbGUubWFlPic=

> <r_lp_tautomer_probability>
1

> <r_epik_Ionization_Penalty>
2.23071e-05

> <r_epik_Ionization_Penalty_Charging>
0

> <r_epik_Ionization_Penalty_Neutral>
2.23071e-05

> <r_epik_State_Penalty>
-0

> <r_epik_Charging_Adjusted_Penalty>
0

> <i_epik_Tot_Q>
0

> <i_epik_Tot_abs_Q>
0

> <r_epik_Metal_State_Penalty>
-0

> <b_epik_Metal_Only>
0

> <s_lp_Force_Field>
OPLS_2005

> <r_lp_Energy>
21.1431

> <b_lp_Chiralities_Consistent>
1

> <s_lp_Variant>
AV-unprocessed.smi:730-3

> <Gold.Version>
5.8.1

> <Gold.Id.Protein>
6NUR|6NUR_protein|mol2

> <Gold.PLP.Fitness>
45.0997

> <Gold.PLP.PLP>
-37.8255

> <Gold.PLP.part.hbond>
-4.0049

> <Gold.PLP.part.metal>
0.0000

> <Gold.PLP.part.buried>
-5.9163

> <Gold.PLP.part.nonpolar>
-27.1532

> <Gold.PLP.part.repulsive>
0.2915

> <Gold.PLP.ligand.clash>
0.0000

> <Gold.PLP.ligand.torsion>
0.4989

> <Gold.PLP.Chemscore.Hbond>
2.7568

> <Gold.PLP.Chemscore.CHOScore>
0.0000

> <Gold.PLP.Chemscore.Metal>
0.0000

> <Gold.Chemscore.Hbonds>
donor molecule, donor type, donor heavy atom, donor atom, acceptor molecule, acceptor atom, score
      L1  H     8    30       P1 10747  1.00
      L1  H    11    31       P1 10747  0.91
      L1  H    17    40       P1  7948  0.83

> <Gold.PLP.Chemscore.Internal.Correction>
0.0019

> <Gold.Rescore>
     Score         DG    S(hbond)    S(metal)    S(lipo)     H(rot)  DE(clash)    DE(int)     intcor
     14.32     -15.07       1.70        0.00      70.92       1.71       0.21       0.54       ----

> <Gold.Chemscore.Fitness>
14.3214

> <Gold.Chemscore.DG>
-15.0673

> <Gold.Chemscore.ZeroCoef>
-5.4800

> <Gold.Chemscore.Hbond>
1.6988

> <Gold.Chemscore.Metal>
0.0000

> <Gold.Chemscore.Lipo>
70.9181

> <Gold.Chemscore.Internal_Hbond>
0.0000

> <Gold.Chemscore.DEClash>
0.2101

> <Gold.Chemscore.DEInternal>
0.5359

> <Gold.Chemscore.Rot>
1.7125

> <Gold.Chemscore.Internal.Correction>
   9.000000E+99

> <Gold.Chemscore.Hbonds>
donor molecule, donor type, donor heavy atom, donor atom, acceptor molecule, acceptor atom, score
      L1  H     8    30       P1 10747  0.29
      L1  H    11    31       P1 10747  0.90
      L1  H    17    40       P1  7948  0.18

> <Gold.Chemscore.Hbond.Weighted>
-5.6740

> <Gold.Chemscore.Metal.Weighted>
-0.0000

> <Gold.Chemscore.Lipo.Weighted>
-8.2974

> <Gold.Chemscore.Internal_Hbond.Weighted>
0.0000

> <Gold.Chemscore.DEClash.Weighted>
0.2101

> <Gold.Chemscore.DEInternal.Weighted>
0.5359

> <Gold.Chemscore.Rot.Weighted>
4.3841

> <Gold.Chemscore.Internal.Correction.Weighted>
   9.000000E+99

> <Gold.Protein.RotatedTorsions>
[ 6907 6896 6895 6894 ] final  -74.93 input  -60.11 | X-H torsion
[ 7974 7965 7964 7962 ] final -104.03 input  175.53 | X-H torsion
[ 8008 7997 7996 7995 ] final -167.75 input   59.86 | X-H torsion
[ 10167 10162 10161 10158 ] final   85.09 input  -65.29 | X-H torsion
[ 10718 10713 10712 10709 ] final  -40.90 input   66.30 | X-H torsion
[ 10763 10752 10751 10750 ] final    2.21 input  -60.55 | X-H torsion
[ 11005 11000 10999 10996 ] final  102.05 input  -57.11 | X-H torsion

> <Gold.Protein.ActiveResidues>
 VAL166  LYS551  ARG553  GLY616  TRP617  ASP618  TYR619  PRO620  LYS621  CYS622 
 ASP623  PHE694  ASN695  SER759  ASP760  ASP761  ALA762  ILE779  LEU786  VAL792 
 PHE793  MET794  SER795  GLU796  ALA797  LYS798  CYS799  TRP800  GLU811  SER814 

> <Gold.Protein.RotatedAtoms>
  150.7076  134.4796  159.5463 H   0  0  0  0  0  0  0  0  0  0  0  0  # atno 6907 bound_to 6896
  152.2436  134.8201  160.0466 H   0  0  0  0  0  0  0  0  0  0  0  0  # atno 6908 bound_to 6896
  151.8974  133.3495  159.3856 H   0  0  0  0  0  0  0  0  0  0  0  0  # atno 6909 bound_to 6896
  145.2483  140.9229  143.3110 H   0  0  0  0  0  0  0  0  0  0  0  0  # atno 7974 bound_to 7965
  155.8820  140.1010  157.1479 H   0  0  0  0  0  0  0  0  0  0  0  0  # atno 8008 bound_to 7997
  154.4006  140.1327  156.4272 H   0  0  0  0  0  0  0  0  0  0  0  0  # atno 8009 bound_to 7997
  155.7632  140.3462  155.5211 H   0  0  0  0  0  0  0  0  0  0  0  0  # atno 8010 bound_to 7997
  139.9014  144.6327  150.8633 H   0  0  0  0  0  0  0  0  0  0  0  0  # atno 10167 bound_to 10162
  156.2763  130.4212  149.8384 H   0  0  0  0  0  0  0  0  0  0  0  0  # atno 10718 bound_to 10713
  153.2984  135.6954  153.7226 H   0  0  0  0  0  0  0  0  0  0  0  0  # atno 10763 bound_to 10752
  153.6150  135.3437  155.2992 H   0  0  0  0  0  0  0  0  0  0  0  0  # atno 10764 bound_to 10752
  154.8544  135.4372  154.2088 H   0  0  0  0  0  0  0  0  0  0  0  0  # atno 10765 bound_to 10752
  139.8776  134.9208  156.4999 H   0  0  0  0  0  0  0  0  0  0  0  0  # atno 11005 bound_to 11000
  144.9526  139.4066  143.6395 LP  0  0  0  0  0  0  0  0  0  0  0  0  # atno 17320 bound_to 7965
  146.3309  139.8540  142.8868 LP  0  0  0  0  0  0  0  0  0  0  0  0  # atno 17321 bound_to 7965
  140.7706  143.3434  151.2161 LP  0  0  0  0  0  0  0  0  0  0  0  0  # atno 17342 bound_to 10162
  139.7022  143.9514  152.2911 LP  0  0  0  0  0  0  0  0  0  0  0  0  # atno 17343 bound_to 10162
  156.5848  130.8481  151.3392 LP  0  0  0  0  0  0  0  0  0  0  0  0  # atno 17370 bound_to 10713
  157.7300  130.9679  150.1813 LP  0  0  0  0  0  0  0  0  0  0  0  0  # atno 17371 bound_to 10713
  140.8597  133.8069  155.9252 LP  0  0  0  0  0  0  0  0  0  0  0  0  # atno 17394 bound_to 11000
  140.9062  134.2318  157.5013 LP  0  0  0  0  0  0  0  0  0  0  0  0  # atno 17395 bound_to 11000

$$$$
