AV-unprocessed.smi:1513|AV-procd|sdf|6108|dock4
  -GOLD-   22720 6243D 1   1.00000     0.00000
 Structure written by MMmdl.
 34 35  0  0  0  0  0  0  0  0  1 V2000
  151.6525  136.5666  158.1032 N   0  0  0  0  0  0  0  0  0  0  0  0
  153.3358  136.7648  158.3858 S   0  0  0  0  0  0  0  0  0  0  0  0
  153.7032  136.0355  159.6087 O   0  0  0  0  0  0  0  0  0  0  0  0
  154.0561  136.5591  157.1203 O   0  0  0  0  0  0  0  0  0  0  0  0
  153.3414  138.4482  158.7430 N   0  0  0  0  0  0  0  0  0  0  0  0
  152.0748  139.1467  158.9547 C   0  0  0  0  0  0  0  0  0  0  0  0
  152.2444  140.6577  158.9866 C   0  0  0  0  0  0  0  0  0  0  0  0
  152.9169  141.2650  160.0680 C   0  0  0  0  0  0  0  0  0  0  0  0
  153.0574  142.6648  160.0882 C   0  0  0  0  0  0  0  0  0  0  0  0
  152.5157  143.4057  159.0213 C   0  0  0  0  0  0  0  0  0  0  0  0
  151.8694  142.8395  157.9807 N   0  0  0  0  0  0  0  0  0  0  0  0
  151.7330  141.4915  157.9588 C   0  0  0  0  0  0  0  0  0  0  0  0
  151.0690  140.9243  156.8591 N   0  0  0  0  0  0  0  0  0  0  0  0
  150.3255  141.8595  156.0248 C   0  0  0  0  0  0  0  0  0  0  0  0
  149.5048  141.0819  154.9825 C   0  0  0  0  0  0  0  0  0  0  0  0
  150.3738  140.2497  154.2185 O   0  0  0  0  0  0  0  0  0  0  0  0
  151.0512  139.2923  155.0286 C   0  0  0  0  0  0  0  0  0  0  0  0
  151.9035  140.0148  156.0866 C   0  0  0  0  0  0  0  0  0  0  0  0
  151.1660  137.4594  158.0232 H   0  0  0  0  0  0  0  0  0  0  0  0
  151.2210  135.9248  158.7680 H   0  0  0  0  0  0  0  0  0  0  0  0
  154.0936  138.7372  159.3676 H   0  0  0  0  0  0  0  0  0  0  0  0
  151.3761  138.8546  158.1703 H   0  0  0  0  0  0  0  0  0  0  0  0
  151.6338  138.8218  159.8977 H   0  0  0  0  0  0  0  0  0  0  0  0
  153.3187  140.6687  160.8740 H   0  0  0  0  0  0  0  0  0  0  0  0
  153.5669  143.1584  160.9025 H   0  0  0  0  0  0  0  0  0  0  0  0
  152.6041  144.4818  159.0025 H   0  0  0  0  0  0  0  0  0  0  0  0
  149.6664  142.4664  156.6469 H   0  0  0  0  0  0  0  0  0  0  0  0
  151.0153  142.5379  155.5209 H   0  0  0  0  0  0  0  0  0  0  0  0
  148.7349  140.4774  155.4650 H   0  0  0  0  0  0  0  0  0  0  0  0
  148.9943  141.7737  154.3127 H   0  0  0  0  0  0  0  0  0  0  0  0
  150.3285  138.6259  155.5012 H   0  0  0  0  0  0  0  0  0  0  0  0
  151.6852  138.6737  154.3935 H   0  0  0  0  0  0  0  0  0  0  0  0
  152.7025  140.5780  155.6021 H   0  0  0  0  0  0  0  0  0  0  0  0
  152.3755  139.2875  156.7482 H   0  0  0  0  0  0  0  0  0  0  0  0
  1  2  1  0  0  0  0
  1 19  1  0  0  0  0
  1 20  1  0  0  0  0
  2  3  2  0  0  0  0
  2  4  2  0  0  0  0
  2  5  1  0  0  0  0
  5  6  1  0  0  0  0
  5 21  1  0  0  0  0
  6  7  1  0  0  0  0
  6 22  1  0  0  0  0
  6 23  1  0  0  0  0
  7 12  1  0  0  0  0
  7  8  2  0  0  0  0
  8  9  1  0  0  0  0
  8 24  1  0  0  0  0
  9 10  2  0  0  0  0
  9 25  1  0  0  0  0
 10 11  1  0  0  0  0
 10 26  1  0  0  0  0
 11 12  2  0  0  0  0
 12 13  1  0  0  0  0
 13 18  1  0  0  0  0
 13 14  1  0  0  0  0
 14 15  1  0  0  0  0
 14 27  1  0  0  0  0
 14 28  1  0  0  0  0
 15 16  1  0  0  0  0
 15 29  1  0  0  0  0
 15 30  1  0  0  0  0
 16 17  1  0  0  0  0
 17 18  1  0  0  0  0
 17 31  1  0  0  0  0
 17 32  1  0  0  0  0
 18 33  1  0  0  0  0
 18 34  1  0  0  0  0
M  END
> <s_m_source_file>
AV-unprocessed.smi

> <i_m_source_file_index>
1513

> <i_lp_mmshare_version>
43012

> <i_f3d_flags>
0

> <s_epik_input>
W05IMl1TKD1PKSg9TylbTkhdW0NIMl1jMVtjSF1bY0hdW2NIXW5jMU4yW0NIMl1bQ0gyXU9bQ0gyXVtDSDJdMg==

> <s_epik_cmdline>
J2VwaWtfcHl0aG9uJywgJy1waCcsICc3LjAnLCAnLXRuJywgJzgnLCAnLW1hJywgJzIwMCcsICctbWV0YWxfYmluZGluZycsICctaW1hZScsICc8aW5maWxlLm1hZT4nLCAnLW9tYWUnLCAnPG91dGZpbGUubWFlPic=

> <r_lp_tautomer_probability>
1

> <r_epik_Ionization_Penalty>
0.193648

> <r_epik_Ionization_Penalty_Charging>
0

> <r_epik_Ionization_Penalty_Neutral>
0.193648

> <r_epik_State_Penalty>
0.187016

> <r_epik_Charging_Adjusted_Penalty>
0.187016

> <i_epik_Tot_Q>
0

> <i_epik_Tot_abs_Q>
0

> <r_epik_Metal_State_Penalty>
0.77957

> <b_epik_Metal_Only>
0

> <s_lp_Force_Field>
OPLS_2005

> <r_lp_Energy>
22.2983

> <b_lp_Chiralities_Consistent>
1

> <s_lp_Variant>
AV-unprocessed.smi:1513-1

> <Gold.Version>
5.8.1

> <Gold.Id.Protein>
6NUR|6NUR_protein|mol2

> <Gold.PLP.Fitness>
42.2044

> <Gold.PLP.PLP>
-33.8601

> <Gold.PLP.part.hbond>
-3.9371

> <Gold.PLP.part.metal>
0.0000

> <Gold.PLP.part.buried>
-4.4066

> <Gold.PLP.part.nonpolar>
-26.0864

> <Gold.PLP.part.repulsive>
0.1816

> <Gold.PLP.ligand.clash>
0.0151

> <Gold.PLP.ligand.torsion>
0.4503

> <Gold.PLP.Chemscore.Hbond>
3.0000

> <Gold.PLP.Chemscore.CHOScore>
0.0000

> <Gold.PLP.Chemscore.Metal>
0.0000

> <Gold.Chemscore.Hbonds>
donor molecule, donor type, donor heavy atom, donor atom, acceptor molecule, acceptor atom, score
      P1  H  6896  6907       L1     3  1.00
      P1  H  7989  7998       L1    16  0.95
      P1  H 10752 10765       L1     4  0.81

> <Gold.PLP.Chemscore.Internal.Correction>
0.2601

> <Gold.Rescore>
     Score         DG    S(hbond)    S(metal)    S(lipo)     H(rot)  DE(clash)    DE(int)     intcor
     14.72     -16.25       2.57        0.00      72.57       2.47       0.00       1.53       ----

> <Gold.Chemscore.Fitness>
14.7199

> <Gold.Chemscore.DG>
-16.2529

> <Gold.Chemscore.ZeroCoef>
-5.4800

> <Gold.Chemscore.Hbond>
2.5742

> <Gold.Chemscore.Metal>
0.0000

> <Gold.Chemscore.Lipo>
72.5705

> <Gold.Chemscore.Internal_Hbond>
0.0000

> <Gold.Chemscore.DEClash>
0.0015

> <Gold.Chemscore.DEInternal>
1.5315

> <Gold.Chemscore.Rot>
2.4671

> <Gold.Chemscore.Internal.Correction>
   9.000000E+99

> <Gold.Chemscore.Hbonds>
donor molecule, donor type, donor heavy atom, donor atom, acceptor molecule, acceptor atom, score
      P1  H  6896  6907       L1     3  0.77
      P1  H  7989  7998       L1    16  0.20
      P1  H 10752 10765       L1     4  0.76

> <Gold.Chemscore.Hbond.Weighted>
-8.5979

> <Gold.Chemscore.Metal.Weighted>
-0.0000

> <Gold.Chemscore.Lipo.Weighted>
-8.4907

> <Gold.Chemscore.Internal_Hbond.Weighted>
0.0000

> <Gold.Chemscore.DEClash.Weighted>
0.0015

> <Gold.Chemscore.DEInternal.Weighted>
1.5315

> <Gold.Chemscore.Rot.Weighted>
6.3157

> <Gold.Chemscore.Internal.Correction.Weighted>
   9.000000E+99

> <Gold.Protein.RotatedTorsions>
[ 6907 6896 6895 6894 ] final   62.70 input  -60.11 | X-H torsion
[ 7974 7965 7964 7962 ] final -151.24 input  175.53 | X-H torsion
[ 8008 7997 7996 7995 ] final  124.19 input   59.86 | X-H torsion
[ 10167 10162 10161 10158 ] final  169.32 input  -65.29 | X-H torsion
[ 10718 10713 10712 10709 ] final   14.29 input   66.30 | X-H torsion
[ 10763 10752 10751 10750 ] final  -98.95 input  -60.55 | X-H torsion
[ 11005 11000 10999 10996 ] final  -77.54 input  -57.11 | X-H torsion

> <Gold.Protein.ActiveResidues>
 VAL166  LYS551  ARG553  GLY616  TRP617  ASP618  TYR619  PRO620  LYS621  CYS622 
 ASP623  PHE694  ASN695  SER759  ASP760  ASP761  ALA762  ILE779  LEU786  VAL792 
 PHE793  MET794  SER795  GLU796  ALA797  LYS798  CYS799  TRP800  GLU811  SER814 

> <Gold.Protein.RotatedAtoms>
  152.4193  134.5984  159.9993 H   0  0  0  0  0  0  0  0  0  0  0  0  # atno 6907 bound_to 6896
  151.6139  133.3339  159.3081 H   0  0  0  0  0  0  0  0  0  0  0  0  # atno 6908 bound_to 6896
  150.8081  134.7258  159.6729 H   0  0  0  0  0  0  0  0  0  0  0  0  # atno 6909 bound_to 6896
  144.7861  140.4825  143.5805 H   0  0  0  0  0  0  0  0  0  0  0  0  # atno 7974 bound_to 7965
  156.2793  140.2745  156.1749 H   0  0  0  0  0  0  0  0  0  0  0  0  # atno 8008 bound_to 7997
  155.0616  140.0386  157.2596 H   0  0  0  0  0  0  0  0  0  0  0  0  # atno 8009 bound_to 7997
  154.7112  140.2669  155.6633 H   0  0  0  0  0  0  0  0  0  0  0  0  # atno 8010 bound_to 7997
  139.4989  144.3719  151.9716 H   0  0  0  0  0  0  0  0  0  0  0  0  # atno 10167 bound_to 10162
  157.0370  130.6216  149.5744 H   0  0  0  0  0  0  0  0  0  0  0  0  # atno 10718 bound_to 10713
  154.7457  135.4990  153.9200 H   0  0  0  0  0  0  0  0  0  0  0  0  # atno 10763 bound_to 10752
  153.1089  135.6704  153.9543 H   0  0  0  0  0  0  0  0  0  0  0  0  # atno 10764 bound_to 10752
  153.9308  135.3078  155.3425 H   0  0  0  0  0  0  0  0  0  0  0  0  # atno 10765 bound_to 10752
  141.1661  133.7027  156.7837 H   0  0  0  0  0  0  0  0  0  0  0  0  # atno 11005 bound_to 11000
  145.5917  139.1496  143.3178 LP  0  0  0  0  0  0  0  0  0  0  0  0  # atno 17320 bound_to 7965
  146.2094  140.6043  142.9066 LP  0  0  0  0  0  0  0  0  0  0  0  0  # atno 17321 bound_to 7965
  140.3155  144.3489  150.6023 LP  0  0  0  0  0  0  0  0  0  0  0  0  # atno 17342 bound_to 10162
  140.5765  143.2176  151.7506 LP  0  0  0  0  0  0  0  0  0  0  0  0  # atno 17343 bound_to 10162
  156.0050  130.5136  150.7799 LP  0  0  0  0  0  0  0  0  0  0  0  0  # atno 17370 bound_to 10713
  157.5134  131.0927  151.0170 LP  0  0  0  0  0  0  0  0  0  0  0  0  # atno 17371 bound_to 10713
  140.2376  134.8638  157.3541 LP  0  0  0  0  0  0  0  0  0  0  0  0  # atno 17394 bound_to 11000
  140.1828  134.4468  155.7762 LP  0  0  0  0  0  0  0  0  0  0  0  0  # atno 17395 bound_to 11000

$$$$
