AV-unprocessed.smi:1695|AV-procd|sdf|6798|dock1
  -GOLD-   22720 7563D 1   1.00000     0.00000
 Structure written by MMmdl.
 50 52  0  0  0  0  0  0  0  0  1 V2000
  154.1477  142.5043  164.0065 C   0  0  0  0  0  0  0  0  0  0  0  0
  153.6090  142.6815  162.5979 C   0  0  0  0  0  0  0  0  0  0  0  0
  152.7993  143.8029  162.3081 C   0  0  0  0  0  0  0  0  0  0  0  0
  152.2771  144.0037  161.0115 C   0  0  0  0  0  0  0  0  0  0  0  0
  151.4750  145.0157  160.5122 N   0  0  0  0  0  0  0  0  0  0  0  0
  151.3302  144.6413  159.2440 C   0  0  0  0  0  0  0  0  0  0  0  0
  151.9453  143.5052  158.8628 N   0  0  0  0  0  0  0  0  0  0  0  0
  151.9351  142.9019  157.5422 C   0  0  0  0  0  0  0  0  0  0  0  0
  150.6422  142.1118  157.2653 C   0  0  1  0  0  0  0  0  0  0  0  0
  149.5334  142.9817  157.3855 O   0  0  0  0  0  0  0  0  0  0  0  0
  150.6415  141.5125  155.8446 C   0  0  0  0  0  0  0  0  0  0  0  0
  149.5717  140.5527  155.5605 N   0  0  0  0  0  0  0  0  0  0  0  0
  150.0202  139.4501  154.7033 C   0  0  0  0  0  0  0  0  0  0  0  0
  148.9105  138.4187  154.4363 C   0  0  0  0  0  0  0  0  0  0  0  0
  147.6809  139.0941  153.7974 C   0  0  0  0  0  0  0  0  0  0  0  0
  146.5322  138.0953  153.6026 C   0  0  0  0  0  0  0  0  0  0  0  0
  146.7579  137.0587  152.7914 N   0  0  0  0  0  0  0  0  0  0  0  0
  145.4555  138.2538  154.1751 O   0  0  0  0  0  0  0  0  0  0  0  0
  147.2478  140.2814  154.6796 C   0  0  0  0  0  0  0  0  0  0  0  0
  148.4342  141.2266  154.9334 C   0  0  0  0  0  0  0  0  0  0  0  0
  152.5895  143.0439  160.0050 C   0  0  0  0  0  0  0  0  0  0  0  0
  153.3935  141.9239  160.2808 C   0  0  0  0  0  0  0  0  0  0  0  0
  153.9071  141.7384  161.5816 C   0  0  0  0  0  0  0  0  0  0  0  0
  154.7749  140.5262  161.8697 C   0  0  0  0  0  0  0  0  0  0  0  0
  153.8744  143.3438  164.6462 H   0  0  0  0  0  0  0  0  0  0  0  0
  155.2355  142.4345  163.9956 H   0  0  0  0  0  0  0  0  0  0  0  0
  153.7462  141.5959  164.4557 H   0  0  0  0  0  0  0  0  0  0  0  0
  152.5711  144.5207  163.0822 H   0  0  0  0  0  0  0  0  0  0  0  0
  150.7418  145.2254  158.5514 H   0  0  0  0  0  0  0  0  0  0  0  0
  152.0726  143.6863  156.7964 H   0  0  0  0  0  0  0  0  0  0  0  0
  152.8018  142.2440  157.4659 H   0  0  0  0  0  0  0  0  0  0  0  0
  150.5506  141.3310  158.0186 H   0  0  0  0  0  0  0  0  0  0  0  0
  149.5276  143.5593  156.6372 H   0  0  0  0  0  0  0  0  0  0  0  0
  150.5847  142.3391  155.1346 H   0  0  0  0  0  0  0  0  0  0  0  0
  151.6037  141.0328  155.6575 H   0  0  0  0  0  0  0  0  0  0  0  0
  150.3860  139.8446  153.7540 H   0  0  0  0  0  0  0  0  0  0  0  0
  150.8576  138.9271  155.1615 H   0  0  0  0  0  0  0  0  0  0  0  0
  149.2899  137.6317  153.7832 H   0  0  0  0  0  0  0  0  0  0  0  0
  148.6361  137.9366  155.3762 H   0  0  0  0  0  0  0  0  0  0  0  0
  147.9741  139.4838  152.8206 H   0  0  0  0  0  0  0  0  0  0  0  0
  146.0322  136.3755  152.6305 H   0  0  0  0  0  0  0  0  0  0  0  0
  147.6561  136.9629  152.3396 H   0  0  0  0  0  0  0  0  0  0  0  0
  146.4374  140.8313  154.1999 H   0  0  0  0  0  0  0  0  0  0  0  0
  146.8595  139.9265  155.6357 H   0  0  0  0  0  0  0  0  0  0  0  0
  148.0965  142.0447  155.5707 H   0  0  0  0  0  0  0  0  0  0  0  0
  148.7461  141.6797  153.9912 H   0  0  0  0  0  0  0  0  0  0  0  0
  153.6118  141.2139  159.4968 H   0  0  0  0  0  0  0  0  0  0  0  0
  154.8688  139.8865  160.9917 H   0  0  0  0  0  0  0  0  0  0  0  0
  154.3450  139.9286  162.6737 H   0  0  0  0  0  0  0  0  0  0  0  0
  155.7771  140.8372  162.1658 H   0  0  0  0  0  0  0  0  0  0  0  0
  1  2  1  0  0  0  0
  1 25  1  0  0  0  0
  1 26  1  0  0  0  0
  1 27  1  0  0  0  0
  2 23  1  0  0  0  0
  2  3  2  0  0  0  0
  3  4  1  0  0  0  0
  3 28  1  0  0  0  0
  4 21  2  0  0  0  0
  4  5  1  0  0  0  0
  5  6  2  0  0  0  0
  6  7  1  0  0  0  0
  6 29  1  0  0  0  0
  7  8  1  0  0  0  0
  7 21  1  0  0  0  0
  8  9  1  0  0  0  0
  8 30  1  0  0  0  0
  8 31  1  0  0  0  0
  9 10  1  0  0  0  0
  9 11  1  0  0  0  0
  9 32  1  0  0  0  0
 10 33  1  0  0  0  0
 11 12  1  0  0  0  0
 11 34  1  0  0  0  0
 11 35  1  0  0  0  0
 12 20  1  0  0  0  0
 12 13  1  0  0  0  0
 13 14  1  0  0  0  0
 13 36  1  0  0  0  0
 13 37  1  0  0  0  0
 14 15  1  0  0  0  0
 14 38  1  0  0  0  0
 14 39  1  0  0  0  0
 15 16  1  0  0  0  0
 15 19  1  0  0  0  0
 15 40  1  0  0  0  0
 16 17  1  0  0  0  0
 16 18  2  0  0  0  0
 17 41  1  0  0  0  0
 17 42  1  0  0  0  0
 19 20  1  0  0  0  0
 19 43  1  0  0  0  0
 19 44  1  0  0  0  0
 20 45  1  0  0  0  0
 20 46  1  0  0  0  0
 21 22  1  0  0  0  0
 22 23  2  0  0  0  0
 22 47  1  0  0  0  0
 23 24  1  0  0  0  0
 24 48  1  0  0  0  0
 24 49  1  0  0  0  0
 24 50  1  0  0  0  0
M  END
> <s_m_source_file>
AV-unprocessed.smi

> <i_m_source_file_index>
1695

> <i_lp_mmshare_version>
43012

> <i_f3d_flags>
0

> <s_epik_input>
W0NIM11jKFtjSF0xKWMoW0NIM10pW2NIXWMoYzEyKW4oW2NIXW4yKVtDSDJdW0NASF0oW09IXSlbQ0gyXU4zW0NIMl1bQ0gyXVtDSF0oQyg9TylbTkgyXSlbQ0gyXVtDSDJdMw==

> <s_epik_cmdline>
J2VwaWtfcHl0aG9uJywgJy1waCcsICc3LjAnLCAnLXRuJywgJzgnLCAnLW1hJywgJzIwMCcsICctbWV0YWxfYmluZGluZycsICctaW1hZScsICc8aW5maWxlLm1hZT4nLCAnLW9tYWUnLCAnPG91dGZpbGUubWFlPic=

> <r_epik_Ionization_Penalty>
1.9508

> <r_epik_Ionization_Penalty_Charging>
0

> <r_epik_Ionization_Penalty_Neutral>
1.9508

> <r_epik_State_Penalty>
2.03746

> <r_epik_Charging_Adjusted_Penalty>
2.03746

> <i_epik_Tot_Q>
0

> <i_epik_Tot_abs_Q>
0

> <r_epik_Metal_State_Penalty>
2.03012

> <b_epik_Metal_Only>
0

> <s_lp_Force_Field>
OPLS_2005

> <r_lp_Energy>
30.7191

> <b_lp_Chiralities_Consistent>
1

> <s_lp_Variant>
AV-unprocessed.smi:1695-10

> <Gold.Version>
5.8.1

> <Gold.Id.Protein>
6NUR|6NUR_protein|mol2

> <Gold.PLP.Fitness>
56.8606

> <Gold.PLP.PLP>
-52.3549

> <Gold.PLP.part.hbond>
-2.0010

> <Gold.PLP.part.metal>
0.0000

> <Gold.PLP.part.buried>
-7.2886

> <Gold.PLP.part.nonpolar>
-44.7273

> <Gold.PLP.part.repulsive>
0.4423

> <Gold.PLP.ligand.clash>
0.0000

> <Gold.PLP.ligand.torsion>
0.8302

> <Gold.PLP.Chemscore.Hbond>
1.9920

> <Gold.PLP.Chemscore.CHOScore>
0.0000

> <Gold.PLP.Chemscore.Metal>
0.0000

> <Gold.Chemscore.Hbonds>
donor molecule, donor type, donor heavy atom, donor atom, acceptor molecule, acceptor atom, score
      L1  H    10    33       P1  8028  1.00
      L1  H    17    42       P1  7948  1.00

> <Gold.PLP.Chemscore.Internal.Correction>
0.1900

> <Gold.Rescore>
     Score         DG    S(hbond)    S(metal)    S(lipo)     H(rot)  DE(clash)    DE(int)     intcor
     19.56     -21.33       1.97        0.00     140.27       2.78       0.92       0.85       ----

> <Gold.Chemscore.Fitness>
19.5616

> <Gold.Chemscore.DG>
-21.3290

> <Gold.Chemscore.ZeroCoef>
-5.4800

> <Gold.Chemscore.Hbond>
1.9661

> <Gold.Chemscore.Metal>
0.0000

> <Gold.Chemscore.Lipo>
140.2702

> <Gold.Chemscore.Internal_Hbond>
0.0000

> <Gold.Chemscore.DEClash>
0.9200

> <Gold.Chemscore.DEInternal>
0.8474

> <Gold.Chemscore.Rot>
2.7849

> <Gold.Chemscore.Internal.Correction>
   9.000000E+99

> <Gold.Chemscore.Hbonds>
donor molecule, donor type, donor heavy atom, donor atom, acceptor molecule, acceptor atom, score
      L1  H    10    33       P1  8028  0.97
      L1  H    17    42       P1  7948  0.94

> <Gold.Chemscore.Hbond.Weighted>
-6.5668

> <Gold.Chemscore.Metal.Weighted>
-0.0000

> <Gold.Chemscore.Lipo.Weighted>
-16.4116

> <Gold.Chemscore.Internal_Hbond.Weighted>
0.0000

> <Gold.Chemscore.DEClash.Weighted>
0.9200

> <Gold.Chemscore.DEInternal.Weighted>
0.8474

> <Gold.Chemscore.Rot.Weighted>
7.1294

> <Gold.Chemscore.Internal.Correction.Weighted>
   9.000000E+99

> <Gold.Protein.RotatedTorsions>
[ 6907 6896 6895 6894 ] final  107.71 input  -60.11 | X-H torsion
[ 7974 7965 7964 7962 ] final  140.08 input  175.53 | X-H torsion
[ 8008 7997 7996 7995 ] final  -53.13 input   59.86 | X-H torsion
[ 10167 10162 10161 10158 ] final   92.33 input  -65.29 | X-H torsion
[ 10718 10713 10712 10709 ] final -117.83 input   66.30 | X-H torsion
[ 10763 10752 10751 10750 ] final -176.01 input  -60.55 | X-H torsion
[ 11005 11000 10999 10996 ] final   86.26 input  -57.11 | X-H torsion

> <Gold.Protein.ActiveResidues>
 VAL166  LYS551  ARG553  GLY616  TRP617  ASP618  TYR619  PRO620  LYS621  CYS622 
 ASP623  PHE694  ASN695  SER759  ASP760  ASP761  ALA762  ILE779  LEU786  VAL792 
 PHE793  MET794  SER795  GLU796  ALA797  LYS798  CYS799  TRP800  GLU811  SER814 

> <Gold.Protein.RotatedAtoms>
  152.5143  133.9194  159.7526 H   0  0  0  0  0  0  0  0  0  0  0  0  # atno 6907 bound_to 6896
  150.9569  133.6479  159.2768 H   0  0  0  0  0  0  0  0  0  0  0  0  # atno 6908 bound_to 6896
  151.3737  135.0932  159.9526 H   0  0  0  0  0  0  0  0  0  0  0  0  # atno 6909 bound_to 6896
  144.9220  139.5156  143.5659 H   0  0  0  0  0  0  0  0  0  0  0  0  # atno 7974 bound_to 7965
  154.4125  140.1207  156.5104 H   0  0  0  0  0  0  0  0  0  0  0  0  # atno 8008 bound_to 7997
  155.6805  140.3496  155.4834 H   0  0  0  0  0  0  0  0  0  0  0  0  # atno 8009 bound_to 7997
  155.9556  140.1113  157.0930 H   0  0  0  0  0  0  0  0  0  0  0  0  # atno 8010 bound_to 7997
  139.8288  144.6697  150.9426 H   0  0  0  0  0  0  0  0  0  0  0  0  # atno 10167 bound_to 10162
  156.1062  130.6212  150.9214 H   0  0  0  0  0  0  0  0  0  0  0  0  # atno 10718 bound_to 10713
  154.5776  135.2833  155.0765 H   0  0  0  0  0  0  0  0  0  0  0  0  # atno 10763 bound_to 10752
  154.2114  135.6407  153.5120 H   0  0  0  0  0  0  0  0  0  0  0  0  # atno 10764 bound_to 10752
  153.0077  135.5492  154.6419 H   0  0  0  0  0  0  0  0  0  0  0  0  # atno 10765 bound_to 10752
  139.8949  134.8343  156.2696 H   0  0  0  0  0  0  0  0  0  0  0  0  # atno 11005 bound_to 11000
  146.3209  139.8106  142.8946 LP  0  0  0  0  0  0  0  0  0  0  0  0  # atno 17320 bound_to 7965
  145.3281  141.0260  143.3462 LP  0  0  0  0  0  0  0  0  0  0  0  0  # atno 17321 bound_to 7965
  140.7808  143.4021  151.1132 LP  0  0  0  0  0  0  0  0  0  0  0  0  # atno 17342 bound_to 10162
  139.7676  143.8542  152.3114 LP  0  0  0  0  0  0  0  0  0  0  0  0  # atno 17343 bound_to 10162
  157.6239  131.0927  150.8570 LP  0  0  0  0  0  0  0  0  0  0  0  0  # atno 17370 bound_to 10713
  156.8689  130.5139  149.5298 LP  0  0  0  0  0  0  0  0  0  0  0  0  # atno 17371 bound_to 10713
  141.0110  133.7096  156.1111 LP  0  0  0  0  0  0  0  0  0  0  0  0  # atno 17394 bound_to 11000
  140.7368  134.4194  157.5559 LP  0  0  0  0  0  0  0  0  0  0  0  0  # atno 17395 bound_to 11000

$$$$
