#       Name:                AV-unprocessed.smi:219
#       Creating user name   scv26
#       Creation time:       Thu Mar 26 20:10:55 2020


#       File generated by GOLD software.
#

@<TRIPOS>MOLECULE
AV-unprocessed.smi:219
    60    63     1
SMALL
NO_CHARGES


@<TRIPOS>ATOM
      1 ****         0.1619  -2.1479   0.8664 N.am           1 S1                 0.0000
      2 ****        -0.7249  -1.7191   1.7684 C.2            1 S1                 0.0000
      3 ****        -0.4499  -1.6252   2.9626 O.2            1 S1                 0.0000
      4 ****        -2.1201  -1.3411   1.2507 C.3            1 S1                 0.0000
      5 ****        -2.7196  -0.0283   1.8384 C.3            1 S1                 0.0000
      6 ****        -4.2621  -0.1033   1.7608 C.3            1 S1                 0.0000
      7 ****        -4.9317   1.1635   2.3109 C.3            1 S1                 0.0000
      8 ****        -4.3877   2.3989   1.5859 C.3            1 S1                 0.0000
      9 ****        -2.8581   2.4457   1.6940 C.3            1 S1                 0.0000
     10 ****        -2.2514   1.2125   1.1882 N.3            1 S1                 0.0000
     11 ****        -0.9143   1.3404   1.0314 C.ar           1 S1                 0.0000
     12 ****        -0.1336   1.6828   2.0903 N.ar           1 S1                 0.0000
     13 ****         1.1925   1.7584   1.9426 C.ar           1 S1                 0.0000
     14 ****         1.9257   1.5297   0.8506 N.ar           1 S1                 0.0000
     15 ****         1.1408   1.1910  -0.2125 C.ar           1 S1                 0.0000
     16 ****        -0.2774   1.0867  -0.2112 C.ar           1 S1                 0.0000
     17 ****        -0.7331   0.7237  -1.4718 N.2            1 S1                 0.0000
     18 ****         0.3575   0.6121  -2.1796 C.2            1 S1                 0.0000
     19 ****         1.5291   0.8559  -1.4977 N.pl3          1 S1                 0.0000
     20 ****         2.8807   0.7735  -2.0277 C.3            1 S1                 0.0000
     21 ****         3.4973  -0.6401  -1.9072 C.3            1 S1                 0.0000
     22 ****         3.5865  -0.9942  -0.5377 O.3            1 S1                 0.0000
     23 ****         2.7100  -1.7276  -2.6347 C.3            1 S1                 0.0000
     24 ****         3.7977  -2.6885  -3.0937 C.3            1 S1                 0.0000
     25 ****         4.8391  -1.8086  -3.4797 O.3            1 S1                 0.0000
     26 ****         4.9026  -0.7467  -2.5331 C.3            1 S1                 0.0000
     27 ****         1.0953  -2.3957   1.1618 H              1 S1                 0.0000
     28 ****        -0.0981  -2.2117  -0.1071 H              1 S1                 0.0000
     29 ****        -2.1292  -1.3038   0.1603 H              1 S1                 0.0000
     30 ****        -2.7610  -2.1811   1.5204 H              1 S1                 0.0000
     31 ****        -2.4514   0.0404   2.8940 H              1 S1                 0.0000
     32 ****        -4.5689  -0.2503   0.7240 H              1 S1                 0.0000
     33 ****        -4.6245  -0.9699   2.3150 H              1 S1                 0.0000
     34 ****        -6.0135   1.1013   2.1901 H              1 S1                 0.0000
     35 ****        -4.7393   1.2479   3.3812 H              1 S1                 0.0000
     36 ****        -4.6822   2.3721   0.5359 H              1 S1                 0.0000
     37 ****        -4.8214   3.3051   2.0095 H              1 S1                 0.0000
     38 ****        -2.4785   3.3029   1.1355 H              1 S1                 0.0000
     39 ****        -2.5722   2.5923   2.7366 H              1 S1                 0.0000
     40 ****         1.7459   2.0332   2.8284 H              1 S1                 0.0000
     41 ****         0.3368   0.3338  -3.2232 H              1 S1                 0.0000
     42 ****         2.8536   1.0835  -3.0732 H              1 S1                 0.0000
     43 ****         3.5022   1.5040  -1.5077 H              1 S1                 0.0000
     44 ****         3.9995  -1.8418  -0.4730 H              1 S1                 0.0000
     45 ****         1.9435  -2.2044  -2.0219 H              1 S1                 0.0000
     46 ****         2.2196  -1.3128  -3.5161 H              1 S1                 0.0000
     47 ****         4.1347  -3.3246  -2.2738 H              1 S1                 0.0000
     48 ****         3.4794  -3.3249  -3.9198 H              1 S1                 0.0000
     49 ****         5.2032   0.1694  -3.0428 H              1 S1                 0.0000
     50 ****         5.6678  -0.9709  -1.7878 H              1 S1                 0.0000
     51 ****         0.4630  -1.8738   3.2865 LP             1 S1                 0.0000
     52 ****        -1.1390  -1.3002   3.6103 LP             1 S1                 0.0000
     53 ****        -2.6070   1.0791   0.2631 LP             1 S1                 0.0000
     54 ****        -0.5507   1.8778   2.9780 LP             1 S1                 0.0000
     55 ****         2.9228   1.5980   0.8163 LP             1 S1                 0.0000
     56 ****        -1.6774   0.5810  -1.7682 LP             1 S1                 0.0000
     57 ****         2.6702  -1.0343  -0.1394 LP             1 S1                 0.0000
     58 ****         4.1331  -0.3145  -0.0486 LP             1 S1                 0.0000
     59 ****         4.6498  -1.4394  -4.3896 LP             1 S1                 0.0000
     60 ****         5.7095  -2.3008  -3.4943 LP             1 S1                 0.0000
@<TRIPOS>BOND
    1    1    2 am    
    2    1   27 1     
    3    1   28 1     
    4    2    3 2     
    5    2    4 1     
    6    4    5 1     
    7    4   29 1     
    8    4   30 1     
    9    5   10 1     
   10    5    6 1     
   11    5   31 1     
   12    6    7 1     
   13    6   32 1     
   14    6   33 1     
   15    7    8 1     
   16    7   34 1     
   17    7   35 1     
   18    8    9 1     
   19    8   36 1     
   20    8   37 1     
   21    9   10 1     
   22    9   38 1     
   23    9   39 1     
   24   10   11 1     
   25   11   16 ar    
   26   11   12 ar    
   27   12   13 ar    
   28   13   14 ar    
   29   13   40 1     
   30   14   15 ar    
   31   15   19 1     
   32   15   16 ar    
   33   16   17 1     
   34   17   18 2     
   35   18   19 1     
   36   18   41 1     
   37   19   20 1     
   38   20   21 1     
   39   20   42 1     
   40   20   43 1     
   41   21   26 1     
   42   21   22 1     
   43   21   23 1     
   44   22   44 1     
   45   23   24 1     
   46   23   45 1     
   47   23   46 1     
   48   24   25 1     
   49   24   47 1     
   50   24   48 1     
   51   25   26 1     
   52   26   49 1     
   53   26   50 1     
   54    3   51 1     
   55    3   52 1     
   56   10   53 1     
   57   12   54 1     
   58   14   55 1     
   59   17   56 1     
   60   22   57 1     
   61   22   58 1     
   62   25   59 1     
   63   25   60 1     
@<TRIPOS>SUBSTRUCTURE
      1 S1             1
@<TRIPOS>SET
LONE_PAIRS      STATIC     ATOMS    <user>   **** ""
10 51 52 53 54 55 56 57 58 59 60
DONOR_HYDROGENS      STATIC     ATOMS    <user>   **** ""
3 27 28 44
ATOM$BLUE        STATIC     ATOMS    COLORGROUP SYSTEM
10 51 52 53 54 55 56 57 58 59 60
ATOM$RED        STATIC     ATOMS    COLORGROUP SYSTEM
3 27 28 44
