AV-unprocessed.smi:2693|AV-procd|sdf|10400|dock3
  -GOLD-   2272014433D 1   1.00000     0.00000
 Structure written by MMmdl.
 45 47  0  0  0  0  0  0  0  0  1 V2000
  149.1439  129.4814  153.6426 C   0  0  0  0  0  0  0  0  0  0  0  0
  150.1380  130.2955  154.3360 N   0  0  0  0  0  0  0  0  0  0  0  0
  151.2866  129.6093  154.9207 C   0  0  0  0  0  0  0  0  0  0  0  0
  149.9890  131.6810  154.4472 C   0  0  0  0  0  0  0  0  0  0  0  0
  150.6979  132.3038  155.3979 N   0  0  0  0  0  0  0  0  0  0  0  0
  150.5573  133.6417  155.5144 C   0  0  0  0  0  0  0  0  0  0  0  0
  149.6902  134.3737  154.6682 C   0  0  0  0  0  0  0  0  0  0  0  0
  149.4912  135.7799  154.7076 N   0  0  0  0  0  0  0  0  0  0  0  0
  149.5338  136.6068  155.7657 C   0  0  0  0  0  0  0  0  0  0  0  0
  149.7405  136.2684  156.9303 O   0  0  0  0  0  0  0  0  0  0  0  0
  149.3124  137.8737  155.3928 N   0  0  0  0  0  0  0  0  0  0  0  0
  149.2913  139.0249  156.2970 C   0  0  1  0  0  0  0  0  0  0  0  0
  150.7000  139.4735  156.7520 C   0  0  1  0  0  0  0  0  0  0  0  0
  151.9451  138.6521  156.5179 C   0  0  0  0  0  0  0  0  0  0  0  0
  152.5235  139.2668  155.2400 C   0  0  0  0  0  0  0  0  0  0  0  0
  151.4244  139.9376  154.6269 O   0  0  0  0  0  0  0  0  0  0  0  0
  150.6451  140.5322  155.6624 C   0  0  1  0  0  0  0  0  0  0  0  0
  149.1147  140.3724  155.5485 C   0  0  0  0  0  0  0  0  0  0  0  0
  148.5328  140.3573  154.1283 C   0  0  0  0  0  0  0  0  0  0  0  0
  148.3184  141.4234  156.3281 C   0  0  0  0  0  0  0  0  0  0  0  0
  149.0018  133.6185  153.6978 C   0  0  0  0  0  0  0  0  0  0  0  0
  149.1502  132.2814  153.5929 N   0  0  0  0  0  0  0  0  0  0  0  0
  149.0502  129.7985  152.6036 H   0  0  0  0  0  0  0  0  0  0  0  0
  148.1697  129.5805  154.1222 H   0  0  0  0  0  0  0  0  0  0  0  0
  149.4090  128.4243  153.6441 H   0  0  0  0  0  0  0  0  0  0  0  0
  152.2154  129.9914  154.4959 H   0  0  0  0  0  0  0  0  0  0  0  0
  151.2561  128.5349  154.7393 H   0  0  0  0  0  0  0  0  0  0  0  0
  151.3129  129.7638  155.9999 H   0  0  0  0  0  0  0  0  0  0  0  0
  151.1606  134.1030  156.2798 H   0  0  0  0  0  0  0  0  0  0  0  0
  149.2579  136.2071  153.8229 H   0  0  0  0  0  0  0  0  0  0  0  0
  149.1532  138.0639  154.4141 H   0  0  0  0  0  0  0  0  0  0  0  0
  148.5944  138.9172  157.1305 H   0  0  0  0  0  0  0  0  0  0  0  0
  150.6575  139.9298  157.7422 H   0  0  0  0  0  0  0  0  0  0  0  0
  152.6514  138.7312  157.3447 H   0  0  0  0  0  0  0  0  0  0  0  0
  151.7235  137.5939  156.3836 H   0  0  0  0  0  0  0  0  0  0  0  0
  153.2938  139.9999  155.4835 H   0  0  0  0  0  0  0  0  0  0  0  0
  152.9592  138.5215  154.5744 H   0  0  0  0  0  0  0  0  0  0  0  0
  151.0071  141.5131  155.9742 H   0  0  0  0  0  0  0  0  0  0  0  0
  148.5428  141.3520  153.6815 H   0  0  0  0  0  0  0  0  0  0  0  0
  147.5005  140.0061  154.1253 H   0  0  0  0  0  0  0  0  0  0  0  0
  149.0964  139.7088  153.4574 H   0  0  0  0  0  0  0  0  0  0  0  0
  148.4152  142.4133  155.8809 H   0  0  0  0  0  0  0  0  0  0  0  0
  148.6603  141.5044  157.3604 H   0  0  0  0  0  0  0  0  0  0  0  0
  147.2564  141.1779  156.3597 H   0  0  0  0  0  0  0  0  0  0  0  0
  148.3246  134.0880  152.9995 H   0  0  0  0  0  0  0  0  0  0  0  0
  1  2  1  0  0  0  0
  1 23  1  0  0  0  0
  1 24  1  0  0  0  0
  1 25  1  0  0  0  0
  2  3  1  0  0  0  0
  2  4  1  0  0  0  0
  3 26  1  0  0  0  0
  3 27  1  0  0  0  0
  3 28  1  0  0  0  0
  4 22  1  0  0  0  0
  4  5  2  0  0  0  0
  5  6  1  0  0  0  0
  6  7  2  0  0  0  0
  6 29  1  0  0  0  0
  7  8  1  0  0  0  0
  7 21  1  0  0  0  0
  8  9  1  0  0  0  0
  8 30  1  0  0  0  0
  9 10  2  0  0  0  0
  9 11  1  0  0  0  0
 11 12  1  0  0  0  0
 11 31  1  0  0  0  0
 12 18  1  0  0  0  0
 12 13  1  0  0  0  0
 12 32  1  0  0  0  0
 13 17  1  0  0  0  0
 13 14  1  0  0  0  0
 13 33  1  0  0  0  0
 14 15  1  0  0  0  0
 14 34  1  0  0  0  0
 14 35  1  0  0  0  0
 15 16  1  0  0  0  0
 15 36  1  0  0  0  0
 15 37  1  0  0  0  0
 16 17  1  0  0  0  0
 17 18  1  0  0  0  0
 17 38  1  0  0  0  0
 18 19  1  0  0  0  0
 18 20  1  0  0  0  0
 19 39  1  0  0  0  0
 19 40  1  0  0  0  0
 19 41  1  0  0  0  0
 20 42  1  0  0  0  0
 20 43  1  0  0  0  0
 20 44  1  0  0  0  0
 21 22  2  0  0  0  0
 21 45  1  0  0  0  0
M  END
> <s_m_source_file>
AV-unprocessed.smi

> <i_m_source_file_index>
2693

> <i_lp_mmshare_version>
43012

> <i_f3d_flags>
0

> <s_epik_input>
W0NIM11OKFtDSDNdKWMxbltjSF1jKFtjSF1uMSlbTkhdQyg9TylbTkhdW0NASF0yQyhbQ0gzXSkoW0NIM10pW0NAQEhdKFtDQEhdMjMpT1tDSDJdW0NIMl0z

> <s_epik_cmdline>
J2VwaWtfcHl0aG9uJywgJy1waCcsICc3LjAnLCAnLXRuJywgJzgnLCAnLW1hJywgJzIwMCcsICctbWV0YWxfYmluZGluZycsICctaW1hZScsICc8aW5maWxlLm1hZT4nLCAnLW9tYWUnLCAnPG91dGZpbGUubWFlPic=

> <r_lp_tautomer_probability>
1

> <r_epik_Ionization_Penalty>
0.00031779

> <r_epik_Ionization_Penalty_Charging>
0

> <r_epik_Ionization_Penalty_Neutral>
0.00031779

> <r_epik_State_Penalty>
-0

> <r_epik_Charging_Adjusted_Penalty>
0

> <i_epik_Tot_Q>
0

> <i_epik_Tot_abs_Q>
0

> <r_epik_Metal_State_Penalty>
-0

> <b_epik_Metal_Only>
0

> <s_lp_Force_Field>
OPLS_2005

> <r_lp_Energy>
31.917

> <b_lp_Chiralities_Consistent>
1

> <s_lp_Variant>
AV-unprocessed.smi:2693-4

> <Gold.Version>
5.8.1

> <Gold.Id.Protein>
6NUR|6NUR_protein|mol2

> <Gold.PLP.Fitness>
39.2924

> <Gold.PLP.PLP>
-31.6321

> <Gold.PLP.part.hbond>
-1.9409

> <Gold.PLP.part.metal>
0.0000

> <Gold.PLP.part.buried>
-3.3683

> <Gold.PLP.part.nonpolar>
-26.7798

> <Gold.PLP.part.repulsive>
0.2233

> <Gold.PLP.ligand.clash>
0.0000

> <Gold.PLP.ligand.torsion>
0.4691

> <Gold.PLP.Chemscore.Hbond>
2.0000

> <Gold.PLP.Chemscore.CHOScore>
0.8035

> <Gold.PLP.Chemscore.Metal>
0.0000

> <Gold.Chemscore.Hbonds>
donor molecule, donor type, donor heavy atom, donor atom, acceptor molecule, acceptor atom, score
      L1  H     8    30       P1  7948  1.00
      P1  H  7989  7998       L1    16  0.86
      L1  C    21    45       P1  7948  0.73

> <Gold.PLP.Chemscore.Internal.Correction>
0.1881

> <Gold.Rescore>
     Score         DG    S(hbond)    S(metal)    S(lipo)     H(rot)  DE(clash)    DE(int)     intcor
     16.18     -16.70       1.79        0.00      66.56       1.00       0.10       0.42       ----

> <Gold.Chemscore.Fitness>
16.1767

> <Gold.Chemscore.DG>
-16.7020

> <Gold.Chemscore.ZeroCoef>
-5.4800

> <Gold.Chemscore.Hbond>
1.7948

> <Gold.Chemscore.Metal>
0.0000

> <Gold.Chemscore.Lipo>
66.5578

> <Gold.Chemscore.Internal_Hbond>
0.0000

> <Gold.Chemscore.DEClash>
0.1045

> <Gold.Chemscore.DEInternal>
0.4208

> <Gold.Chemscore.Rot>
1.0000

> <Gold.Chemscore.Internal.Correction>
   9.000000E+99

> <Gold.Chemscore.Hbonds>
donor molecule, donor type, donor heavy atom, donor atom, acceptor molecule, acceptor atom, score
      L1  H     8    30       P1  7948  0.85
      P1  H  7989  7998       L1    16  0.67

> <Gold.Chemscore.Hbond.Weighted>
-5.9948

> <Gold.Chemscore.Metal.Weighted>
-0.0000

> <Gold.Chemscore.Lipo.Weighted>
-7.7873

> <Gold.Chemscore.Internal_Hbond.Weighted>
0.0000

> <Gold.Chemscore.DEClash.Weighted>
0.1045

> <Gold.Chemscore.DEInternal.Weighted>
0.4208

> <Gold.Chemscore.Rot.Weighted>
2.5600

> <Gold.Chemscore.Internal.Correction.Weighted>
   9.000000E+99

> <Gold.Protein.RotatedTorsions>
[ 6907 6896 6895 6894 ] final   41.91 input  -60.11 | X-H torsion
[ 7974 7965 7964 7962 ] final  -93.58 input  175.53 | X-H torsion
[ 8008 7997 7996 7995 ] final   88.37 input   59.86 | X-H torsion
[ 10167 10162 10161 10158 ] final  103.13 input  -65.29 | X-H torsion
[ 10718 10713 10712 10709 ] final    6.11 input   66.30 | X-H torsion
[ 10763 10752 10751 10750 ] final  126.43 input  -60.55 | X-H torsion
[ 11005 11000 10999 10996 ] final   82.87 input  -57.11 | X-H torsion

> <Gold.Protein.ActiveResidues>
 VAL166  LYS551  ARG553  GLY616  TRP617  ASP618  TYR619  PRO620  LYS621  CYS622 
 ASP623  PHE694  ASN695  SER759  ASP760  ASP761  ALA762  ILE779  LEU786  VAL792 
 PHE793  MET794  SER795  GLU796  ALA797  LYS798  CYS799  TRP800  GLU811  SER814 

> <Gold.Protein.RotatedAtoms>
  152.2012  134.8586  160.0507 H   0  0  0  0  0  0  0  0  0  0  0  0  # atno 6907 bound_to 6896
  151.9439  133.3641  159.3983 H   0  0  0  0  0  0  0  0  0  0  0  0  # atno 6908 bound_to 6896
  150.6955  134.4335  159.5303 H   0  0  0  0  0  0  0  0  0  0  0  0  # atno 6909 bound_to 6896
  145.3846  140.9521  143.2374 H   0  0  0  0  0  0  0  0  0  0  0  0  # atno 7974 bound_to 7965
  155.9869  140.3372  155.6716 H   0  0  0  0  0  0  0  0  0  0  0  0  # atno 8008 bound_to 7997
  155.6473  140.0702  157.2616 H   0  0  0  0  0  0  0  0  0  0  0  0  # atno 8009 bound_to 7997
  154.4208  140.1732  156.1625 H   0  0  0  0  0  0  0  0  0  0  0  0  # atno 8010 bound_to 7997
  139.7290  144.7040  151.0752 H   0  0  0  0  0  0  0  0  0  0  0  0  # atno 10167 bound_to 10162
  156.9174  130.5778  149.5647 H   0  0  0  0  0  0  0  0  0  0  0  0  # atno 10718 bound_to 10713
  153.6931  135.3295  155.3207 H   0  0  0  0  0  0  0  0  0  0  0  0  # atno 10763 bound_to 10752
  154.8434  135.4436  154.1487 H   0  0  0  0  0  0  0  0  0  0  0  0  # atno 10764 bound_to 10752
  153.2534  135.6984  153.7732 H   0  0  0  0  0  0  0  0  0  0  0  0  # atno 10765 bound_to 10752
  139.9049  134.8103  156.2232 H   0  0  0  0  0  0  0  0  0  0  0  0  # atno 11005 bound_to 11000
  144.8483  139.5362  143.6868 LP  0  0  0  0  0  0  0  0  0  0  0  0  # atno 17320 bound_to 7965
  146.2826  139.6918  142.9218 LP  0  0  0  0  0  0  0  0  0  0  0  0  # atno 17321 bound_to 7965
  140.7768  143.5068  150.9702 LP  0  0  0  0  0  0  0  0  0  0  0  0  # atno 17342 bound_to 10162
  139.8756  143.7137  152.3162 LP  0  0  0  0  0  0  0  0  0  0  0  0  # atno 17343 bound_to 10162
  156.0507  130.5577  150.8982 LP  0  0  0  0  0  0  0  0  0  0  0  0  # atno 17370 bound_to 10713
  157.5929  131.0944  150.9088 LP  0  0  0  0  0  0  0  0  0  0  0  0  # atno 17371 bound_to 10713
  141.0392  133.6947  156.1567 LP  0  0  0  0  0  0  0  0  0  0  0  0  # atno 17394 bound_to 11000
  140.6981  134.4594  157.5587 LP  0  0  0  0  0  0  0  0  0  0  0  0  # atno 17395 bound_to 11000

$$$$
