AV-unprocessed.smi:2287|AV-procd|sdf|9205|dock8
  -GOLD-   2272012423D 1   1.00000     0.00000
 Structure written by MMmdl.
 38 39  0  0  0  0  0  0  0  0  2 V2000
  146.1147  135.1757  153.2090 C   0  0  0  0  0  0  0  0  0  0  0  0
  146.3217  136.2818  152.2461 N   0  3  0  0  0  0  0  0  0  0  0  0
  145.6397  136.0158  150.9602 C   0  0  0  0  0  0  0  0  0  0  0  0
  145.9731  137.6160  152.7967 C   0  0  0  0  0  0  0  0  0  0  0  0
  146.8428  138.7412  152.2127 C   0  0  0  0  0  0  0  0  0  0  0  0
  148.1292  138.8007  152.8946 N   0  0  0  0  0  0  0  0  0  0  0  0
  148.4683  139.7438  153.7836 C   0  0  0  0  0  0  0  0  0  0  0  0
  147.7243  140.6714  154.0996 O   0  0  0  0  0  0  0  0  0  0  0  0
  149.7110  139.5453  154.2551 N   0  0  0  0  0  0  0  0  0  0  0  0
  150.4055  140.2740  155.2584 C   0  0  0  0  0  0  0  0  0  0  0  0
  150.0784  141.5816  155.6963 C   0  0  0  0  0  0  0  0  0  0  0  0
  150.7736  142.1960  156.6780 N   0  0  0  0  0  0  0  0  0  0  0  0
  151.7919  141.5194  157.2159 C   0  0  0  0  0  0  0  0  0  0  0  0
  152.5239  142.1870  158.3388 C   0  0  0  0  0  0  0  0  0  0  0  0
  151.7857  142.6603  159.5742 C   0  0  0  0  0  0  0  0  0  0  0  0
  152.3489  143.6672  158.6103 C   0  0  0  0  0  0  0  0  0  0  0  0
  152.1805  140.2815  156.8978 N   0  0  0  0  0  0  0  0  0  0  0  0
  151.4903  139.6591  155.9183 C   0  0  0  0  0  0  0  0  0  0  0  0
  145.0674  135.1059  153.5060 H   0  0  0  0  0  0  0  0  0  0  0  0
  146.7174  135.3075  154.1069 H   0  0  0  0  0  0  0  0  0  0  0  0
  146.4045  134.2227  152.7648 H   0  0  0  0  0  0  0  0  0  0  0  0
  144.5567  135.9989  151.0889 H   0  0  0  0  0  0  0  0  0  0  0  0
  145.9502  135.0545  150.5492 H   0  0  0  0  0  0  0  0  0  0  0  0
  145.8860  136.7822  150.2247 H   0  0  0  0  0  0  0  0  0  0  0  0
  144.9311  137.8353  152.5576 H   0  0  0  0  0  0  0  0  0  0  0  0
  146.0432  137.5966  153.8856 H   0  0  0  0  0  0  0  0  0  0  0  0
  147.0281  138.5850  151.1497 H   0  0  0  0  0  0  0  0  0  0  0  0
  146.3271  139.6977  152.3149 H   0  0  0  0  0  0  0  0  0  0  0  0
  148.8002  138.0765  152.6834 H   0  0  0  0  0  0  0  0  0  0  0  0
  150.2288  138.7848  153.8394 H   0  0  0  0  0  0  0  0  0  0  0  0
  149.2521  142.1458  155.2940 H   0  0  0  0  0  0  0  0  0  0  0  0
  153.5158  141.7596  158.4725 H   0  0  0  0  0  0  0  0  0  0  0  0
  150.7042  142.5408  159.5979 H   0  0  0  0  0  0  0  0  0  0  0  0
  152.2884  142.5442  160.5322 H   0  0  0  0  0  0  0  0  0  0  0  0
  153.2287  144.2260  158.9229 H   0  0  0  0  0  0  0  0  0  0  0  0
  151.6419  144.2179  157.9926 H   0  0  0  0  0  0  0  0  0  0  0  0
  151.8063  138.6581  155.6628 H   0  0  0  0  0  0  0  0  0  0  0  0
  147.3098  136.3065  152.0366 H   0  0  0  0  0  0  0  0  0  0  0  0
  1  2  1  0  0  0  0
  1 19  1  0  0  0  0
  1 20  1  0  0  0  0
  1 21  1  0  0  0  0
  2  3  1  0  0  0  0
  2  4  1  0  0  0  0
  2 38  1  0  0  0  0
  3 22  1  0  0  0  0
  3 23  1  0  0  0  0
  3 24  1  0  0  0  0
  4  5  1  0  0  0  0
  4 25  1  0  0  0  0
  4 26  1  0  0  0  0
  5  6  1  0  0  0  0
  5 27  1  0  0  0  0
  5 28  1  0  0  0  0
  6  7  1  0  0  0  0
  6 29  1  0  0  0  0
  7  8  2  0  0  0  0
  7  9  1  0  0  0  0
  9 10  1  0  0  0  0
  9 30  1  0  0  0  0
 10 18  1  0  0  0  0
 10 11  2  0  0  0  0
 11 12  1  0  0  0  0
 11 31  1  0  0  0  0
 12 13  2  0  0  0  0
 13 14  1  0  0  0  0
 13 17  1  0  0  0  0
 14 16  1  0  0  0  0
 14 15  1  0  0  0  0
 14 32  1  0  0  0  0
 15 16  1  0  0  0  0
 15 33  1  0  0  0  0
 15 34  1  0  0  0  0
 16 35  1  0  0  0  0
 16 36  1  0  0  0  0
 17 18  2  0  0  0  0
 18 37  1  0  0  0  0
M  CHG  1   2   1
M  END
> <s_m_source_file>
AV-unprocessed.smi

> <i_m_source_file_index>
2287

> <i_lp_mmshare_version>
43012

> <i_f3d_flags>
0

> <s_epik_input>
W0NIM11OKFtDSDNdKVtDSDJdW0NIMl1bTkhdQyg9TylbTkhdYzFbY0hdbmMobltjSF0xKVtDSF0yW0NIMl1bQ0gyXTI=

> <s_epik_cmdline>
J2VwaWtfcHl0aG9uJywgJy1waCcsICc3LjAnLCAnLXRuJywgJzgnLCAnLW1hJywgJzIwMCcsICctbWV0YWxfYmluZGluZycsICctaW1hZScsICc8aW5maWxlLm1hZT4nLCAnLW9tYWUnLCAnPG91dGZpbGUubWFlPic=

> <r_lp_tautomer_probability>
1

> <r_epik_Ionization_Penalty>
0.00435795

> <r_epik_Ionization_Penalty_Charging>
0.00433655

> <r_epik_Ionization_Penalty_Neutral>
2.14019e-05

> <r_epik_State_Penalty>
0.00312208

> <r_epik_Charging_Adjusted_Penalty>
0.00745864

> <i_epik_Tot_Q>
1

> <i_epik_Tot_abs_Q>
1

> <r_epik_Metal_State_Penalty>
-0

> <b_epik_Metal_Only>
0

> <s_lp_Force_Field>
OPLS_2005

> <r_lp_Energy>
7.96618

> <b_lp_Chiralities_Consistent>
1

> <s_lp_Variant>
AV-unprocessed.smi:2287-1

> <Gold.Version>
5.8.1

> <Gold.Id.Protein>
6NUR|6NUR_protein|mol2

> <Gold.PLP.Fitness>
42.0694

> <Gold.PLP.PLP>
-30.9083

> <Gold.PLP.part.hbond>
-4.3451

> <Gold.PLP.part.metal>
0.0000

> <Gold.PLP.part.buried>
-1.6655

> <Gold.PLP.part.nonpolar>
-24.0660

> <Gold.PLP.part.repulsive>
0.4509

> <Gold.PLP.ligand.clash>
0.0000

> <Gold.PLP.ligand.torsion>
0.7854

> <Gold.PLP.Chemscore.Hbond>
3.4411

> <Gold.PLP.Chemscore.CHOScore>
0.7555

> <Gold.PLP.Chemscore.Metal>
0.0000

> <Gold.Chemscore.Hbonds>
donor molecule, donor type, donor heavy atom, donor atom, acceptor molecule, acceptor atom, score
      L1  H     2    38       P1  7948  2.00
      L1  H     6    29       P1  7948  0.86
      P1  H  7997  8008       L1    17  0.57
      L1  C    11    31       P1  8028  0.70

> <Gold.PLP.Chemscore.Internal.Correction>
0.1422

> <Gold.Rescore>
     Score         DG    S(hbond)    S(metal)    S(lipo)     H(rot)  DE(clash)    DE(int)     intcor
     15.40     -17.27       2.23        0.00      74.73       1.73       0.07       1.80       ----

> <Gold.Chemscore.Fitness>
15.3952

> <Gold.Chemscore.DG>
-17.2675

> <Gold.Chemscore.ZeroCoef>
-5.4800

> <Gold.Chemscore.Hbond>
2.2343

> <Gold.Chemscore.Metal>
0.0000

> <Gold.Chemscore.Lipo>
74.7296

> <Gold.Chemscore.Internal_Hbond>
0.0000

> <Gold.Chemscore.DEClash>
0.0732

> <Gold.Chemscore.DEInternal>
1.7991

> <Gold.Chemscore.Rot>
1.7260

> <Gold.Chemscore.Internal.Correction>
   9.000000E+99

> <Gold.Chemscore.Hbonds>
donor molecule, donor type, donor heavy atom, donor atom, acceptor molecule, acceptor atom, score
      L1  H     2    38       P1  7948  1.00
      L1  H     6    29       P1  7948  0.82
      P1  H  7997  8008       L1    17  0.32

> <Gold.Chemscore.Hbond.Weighted>
-7.4627

> <Gold.Chemscore.Metal.Weighted>
-0.0000

> <Gold.Chemscore.Lipo.Weighted>
-8.7434

> <Gold.Chemscore.Internal_Hbond.Weighted>
0.0000

> <Gold.Chemscore.DEClash.Weighted>
0.0732

> <Gold.Chemscore.DEInternal.Weighted>
1.7991

> <Gold.Chemscore.Rot.Weighted>
4.4186

> <Gold.Chemscore.Internal.Correction.Weighted>
   9.000000E+99

> <Gold.Protein.RotatedTorsions>
[ 6907 6896 6895 6894 ] final -107.44 input  -60.11 | X-H torsion
[ 7974 7965 7964 7962 ] final  126.44 input  175.53 | X-H torsion
[ 8008 7997 7996 7995 ] final  -49.07 input   59.86 | X-H torsion
[ 10167 10162 10161 10158 ] final  113.16 input  -65.29 | X-H torsion
[ 10718 10713 10712 10709 ] final  104.23 input   66.30 | X-H torsion
[ 10763 10752 10751 10750 ] final   98.18 input  -60.55 | X-H torsion
[ 11005 11000 10999 10996 ] final -143.34 input  -57.11 | X-H torsion

> <Gold.Protein.ActiveResidues>
 VAL166  LYS551  ARG553  GLY616  TRP617  ASP618  TYR619  PRO620  LYS621  CYS622 
 ASP623  PHE694  ASN695  SER759  ASP760  ASP761  ALA762  ILE779  LEU786  VAL792 
 PHE793  MET794  SER795  GLU796  ALA797  LYS798  CYS799  TRP800  GLU811  SER814 

> <Gold.Protein.RotatedAtoms>
  150.7444  133.9825  159.3580 H   0  0  0  0  0  0  0  0  0  0  0  0  # atno 6907 bound_to 6896
  151.7768  135.0770  160.0377 H   0  0  0  0  0  0  0  0  0  0  0  0  # atno 6908 bound_to 6896
  152.3301  133.5912  159.5840 H   0  0  0  0  0  0  0  0  0  0  0  0  # atno 6909 bound_to 6896
  145.0617  139.3800  143.5003 H   0  0  0  0  0  0  0  0  0  0  0  0  # atno 7974 bound_to 7965
  154.4038  140.1306  156.4442 H   0  0  0  0  0  0  0  0  0  0  0  0  # atno 8008 bound_to 7997
  155.7429  140.3489  155.5093 H   0  0  0  0  0  0  0  0  0  0  0  0  # atno 8009 bound_to 7997
  155.9022  140.1021  157.1331 H   0  0  0  0  0  0  0  0  0  0  0  0  # atno 8010 bound_to 7997
  139.6482  144.7127  151.2101 H   0  0  0  0  0  0  0  0  0  0  0  0  # atno 10167 bound_to 10162
  157.6747  131.0798  150.5674 H   0  0  0  0  0  0  0  0  0  0  0  0  # atno 10718 bound_to 10713
  153.2859  135.4157  155.1122 H   0  0  0  0  0  0  0  0  0  0  0  0  # atno 10763 bound_to 10752
  154.8504  135.3506  154.6048 H   0  0  0  0  0  0  0  0  0  0  0  0  # atno 10764 bound_to 10752
  153.6470  135.7054  153.5280 H   0  0  0  0  0  0  0  0  0  0  0  0  # atno 10765 bound_to 10752
  140.8135  134.2716  157.4931 H   0  0  0  0  0  0  0  0  0  0  0  0  # atno 11005 bound_to 11000
  146.3524  140.0318  142.8650 LP  0  0  0  0  0  0  0  0  0  0  0  0  # atno 17320 bound_to 7965
  145.1401  140.9566  143.4493 LP  0  0  0  0  0  0  0  0  0  0  0  0  # atno 17321 bound_to 7965
  140.7525  143.6196  150.8526 LP  0  0  0  0  0  0  0  0  0  0  0  0  # atno 17342 bound_to 10162
  139.9841  143.5919  152.2933 LP  0  0  0  0  0  0  0  0  0  0  0  0  # atno 17343 bound_to 10162
  156.5976  130.4346  149.5910 LP  0  0  0  0  0  0  0  0  0  0  0  0  # atno 17370 bound_to 10713
  156.2532  130.6919  151.1664 LP  0  0  0  0  0  0  0  0  0  0  0  0  # atno 17371 bound_to 10713
  139.8712  134.9496  156.4031 LP  0  0  0  0  0  0  0  0  0  0  0  0  # atno 17394 bound_to 11000
  140.9173  133.7670  155.9863 LP  0  0  0  0  0  0  0  0  0  0  0  0  # atno 17395 bound_to 11000

$$$$
