AV-unprocessed.smi:13|AV-procd|sdf|70|dock1
  -GOLD-   2262015193D 1   1.00000     0.00000
 Structure written by MMmdl.
 54 58  0  0  0  0  0  0  0  0  1 V2000
  147.3996  134.9860  163.0038 C   0  0  0  0  0  0  0  0  0  0  0  0
  147.0914  135.8550  161.7773 C   0  0  0  0  0  0  0  0  0  0  0  0
  145.9246  136.7631  162.1646 C   0  0  0  0  0  0  0  0  0  0  0  0
  148.3017  136.5557  161.1409 C   0  0  0  0  0  0  0  0  0  0  0  0
  148.3576  135.4505  160.1979 N   0  0  0  0  0  0  0  0  0  0  0  0
  148.6939  135.8029  158.8638 C   0  0  0  0  0  0  0  0  0  0  0  0
  149.3728  134.8719  158.1473 N   0  0  0  0  0  0  0  0  0  0  0  0
  149.7232  135.0963  156.8781 C   0  0  0  0  0  0  0  0  0  0  0  0
  149.4976  136.1765  156.1307 N   0  0  0  0  0  0  0  0  0  0  0  0
  148.8148  137.1232  156.8336 C   0  0  0  0  0  0  0  0  0  0  0  0
  148.3814  137.0209  158.1870 C   0  0  0  0  0  0  0  0  0  0  0  0
  147.7176  138.1873  158.5523 N   0  0  0  0  0  0  0  0  0  0  0  0
  147.7584  138.9323  157.4822 C   0  0  0  0  0  0  0  0  0  0  0  0
  148.3920  138.3674  156.3996 N   0  0  0  0  0  0  0  0  0  0  0  0
  148.5744  138.9672  155.0869 C   0  0  0  0  0  0  0  0  0  0  0  0
  150.0604  139.1347  154.6932 C   0  0  2  0  0  0  0  0  0  0  0  0
  150.1718  140.2018  153.7669 O   0  0  0  0  0  0  0  0  0  0  0  0
  150.6887  137.8888  154.0745 C   0  0  0  0  0  0  0  0  0  0  0  0
  152.1410  137.9858  154.5194 C   0  0  0  0  0  0  0  0  0  0  0  0
  152.0244  138.4624  155.8489 O   0  0  0  0  0  0  0  0  0  0  0  0
  150.9828  139.4328  155.8923 C   0  0  0  0  0  0  0  0  0  0  0  0
  146.9506  135.1396  160.4171 C   0  0  1  0  0  0  0  0  0  0  0  0
  146.6817  133.6375  160.3191 C   0  0  2  0  0  0  0  0  0  0  0  0
  145.3835  133.1904  160.9885 C   0  0  0  0  0  0  0  0  0  0  0  0
  145.6377  131.7240  161.2882 C   0  0  0  0  0  0  0  0  0  0  0  0
  147.1648  131.6076  161.2875 C   0  0  0  0  0  0  0  0  0  0  0  0
  147.6507  132.9269  161.0730 O   0  0  0  0  0  0  0  0  0  0  0  0
  147.6510  135.5954  163.8724 H   0  0  0  0  0  0  0  0  0  0  0  0
  148.2466  134.3229  162.8257 H   0  0  0  0  0  0  0  0  0  0  0  0
  146.5492  134.3599  163.2756 H   0  0  0  0  0  0  0  0  0  0  0  0
  145.6476  137.4271  161.3450 H   0  0  0  0  0  0  0  0  0  0  0  0
  146.1719  137.3929  163.0196 H   0  0  0  0  0  0  0  0  0  0  0  0
  145.0377  136.1840  162.4241 H   0  0  0  0  0  0  0  0  0  0  0  0
  148.0598  137.5205  160.6945 H   0  0  0  0  0  0  0  0  0  0  0  0
  149.1763  136.6183  161.7889 H   0  0  0  0  0  0  0  0  0  0  0  0
  150.2582  134.2942  156.3919 H   0  0  0  0  0  0  0  0  0  0  0  0
  147.3184  139.9186  157.4504 H   0  0  0  0  0  0  0  0  0  0  0  0
  148.0526  138.3524  154.3520 H   0  0  0  0  0  0  0  0  0  0  0  0
  148.0749  139.9367  155.0826 H   0  0  0  0  0  0  0  0  0  0  0  0
  149.7386  139.9486  152.9661 H   0  0  0  0  0  0  0  0  0  0  0  0
  150.2512  136.9897  154.5099 H   0  0  0  0  0  0  0  0  0  0  0  0
  150.5711  137.8247  152.9917 H   0  0  0  0  0  0  0  0  0  0  0  0
  152.6617  137.0290  154.4778 H   0  0  0  0  0  0  0  0  0  0  0  0
  152.6911  138.7083  153.9143 H   0  0  0  0  0  0  0  0  0  0  0  0
  151.4140  140.4339  155.8411 H   0  0  0  0  0  0  0  0  0  0  0  0
  150.4623  139.3522  156.8469 H   0  0  0  0  0  0  0  0  0  0  0  0
  146.2997  135.7183  159.7608 H   0  0  0  0  0  0  0  0  0  0  0  0
  146.7128  133.2864  159.2858 H   0  0  0  0  0  0  0  0  0  0  0  0
  145.2323  133.7363  161.9210 H   0  0  0  0  0  0  0  0  0  0  0  0
  144.5068  133.3485  160.3600 H   0  0  0  0  0  0  0  0  0  0  0  0
  145.1999  131.4279  162.2421 H   0  0  0  0  0  0  0  0  0  0  0  0
  145.2109  131.0897  160.5105 H   0  0  0  0  0  0  0  0  0  0  0  0
  147.5512  131.2064  162.2245 H   0  0  0  0  0  0  0  0  0  0  0  0
  147.5008  130.9603  160.4761 H   0  0  0  0  0  0  0  0  0  0  0  0
  1  2  1  0  0  0  0
  1 28  1  0  0  0  0
  1 29  1  0  0  0  0
  1 30  1  0  0  0  0
  2 22  1  0  0  0  0
  2  3  1  0  0  0  0
  2  4  1  0  0  0  0
  3 31  1  0  0  0  0
  3 32  1  0  0  0  0
  3 33  1  0  0  0  0
  4  5  1  0  0  0  0
  4 34  1  0  0  0  0
  4 35  1  0  0  0  0
  5  6  1  0  0  0  0
  5 22  1  0  0  0  0
  6 11  1  0  0  0  0
  6  7  2  0  0  0  0
  7  8  1  0  0  0  0
  8  9  2  0  0  0  0
  8 36  1  0  0  0  0
  9 10  1  0  0  0  0
 10 14  1  0  0  0  0
 10 11  2  0  0  0  0
 11 12  1  0  0  0  0
 12 13  2  0  0  0  0
 13 14  1  0  0  0  0
 13 37  1  0  0  0  0
 14 15  1  0  0  0  0
 15 16  1  0  0  0  0
 15 38  1  0  0  0  0
 15 39  1  0  0  0  0
 16 21  1  0  0  0  0
 16 17  1  0  0  0  0
 16 18  1  0  0  0  0
 17 40  1  0  0  0  0
 18 19  1  0  0  0  0
 18 41  1  0  0  0  0
 18 42  1  0  0  0  0
 19 20  1  0  0  0  0
 19 43  1  0  0  0  0
 19 44  1  0  0  0  0
 20 21  1  0  0  0  0
 21 45  1  0  0  0  0
 21 46  1  0  0  0  0
 22 23  1  0  0  0  0
 22 47  1  0  0  0  0
 23 27  1  0  0  0  0
 23 24  1  0  0  0  0
 23 48  1  0  0  0  0
 24 25  1  0  0  0  0
 24 49  1  0  0  0  0
 24 50  1  0  0  0  0
 25 26  1  0  0  0  0
 25 51  1  0  0  0  0
 25 52  1  0  0  0  0
 26 27  1  0  0  0  0
 26 53  1  0  0  0  0
 26 54  1  0  0  0  0
M  END
> <s_m_source_file>
AV-unprocessed.smi

> <i_m_source_file_index>
13

> <i_lp_mmshare_version>
43012

> <i_f3d_flags>
0

> <s_epik_input>
TzFbQ0gyXVtDSDJdW0NIMl1bQ0BIXTFbQ0BASF0yTihbQ0gyXUMyKFtDSDNdKVtDSDNdKWMobltjSF1uMyljKGMzNCluW2NIXW40W0NIMl1bQ0BAXTUoW09IXSlbQ0gyXVtDSDJdT1tDSDJdNQ==

> <s_epik_cmdline>
J2VwaWtfcHl0aG9uJywgJy1waCcsICc3LjAnLCAnLXRuJywgJzgnLCAnLW1hJywgJzIwMCcsICctbWV0YWxfYmluZGluZycsICctaW1hZScsICc8aW5maWxlLm1hZT4nLCAnLW9tYWUnLCAnPG91dGZpbGUubWFlPic=

> <r_lp_tautomer_probability>
1

> <r_epik_Ionization_Penalty>
0.00202764

> <r_epik_Ionization_Penalty_Charging>
0

> <r_epik_Ionization_Penalty_Neutral>
0.00202764

> <r_epik_State_Penalty>
0.00134017

> <r_epik_Charging_Adjusted_Penalty>
0.00134017

> <i_epik_Tot_Q>
0

> <i_epik_Tot_abs_Q>
0

> <r_epik_Metal_State_Penalty>
-0

> <b_epik_Metal_Only>
0

> <s_lp_Force_Field>
OPLS_2005

> <r_lp_Energy>
60.4811

> <b_lp_Chiralities_Consistent>
1

> <s_lp_Variant>
AV-unprocessed.smi:13-2

> <Gold.Version>
5.8.1

> <Gold.Id.Protein>
6NUR|6NUR_protein|mol2

> <Gold.PLP.Fitness>
42.4211

> <Gold.PLP.PLP>
-35.9715

> <Gold.PLP.part.hbond>
-3.7321

> <Gold.PLP.part.metal>
0.0000

> <Gold.PLP.part.buried>
-2.8183

> <Gold.PLP.part.nonpolar>
-29.4280

> <Gold.PLP.part.repulsive>
0.0262

> <Gold.PLP.ligand.clash>
0.0000

> <Gold.PLP.ligand.torsion>
1.1076

> <Gold.PLP.Chemscore.Hbond>
2.7200

> <Gold.PLP.Chemscore.CHOScore>
0.0000

> <Gold.PLP.Chemscore.Metal>
0.0000

> <Gold.Chemscore.Hbonds>
donor molecule, donor type, donor heavy atom, donor atom, acceptor molecule, acceptor atom, score
      L1  H    17    40       P1  7957  0.99
      P1  H  6896  6909       L1     7  0.80
      P1  H  7989  7998       L1    17  0.78

> <Gold.PLP.Chemscore.Internal.Correction>
0.5049

> <Gold.Rescore>
     Score         DG    S(hbond)    S(metal)    S(lipo)     H(rot)  DE(clash)    DE(int)     intcor
     12.57     -17.09       2.20        0.00      86.83       2.30       0.81       3.71       ----

> <Gold.Chemscore.Fitness>
12.5689

> <Gold.Chemscore.DG>
-17.0918

> <Gold.Chemscore.ZeroCoef>
-5.4800

> <Gold.Chemscore.Hbond>
2.1977

> <Gold.Chemscore.Metal>
0.0000

> <Gold.Chemscore.Lipo>
86.8255

> <Gold.Chemscore.Internal_Hbond>
0.0000

> <Gold.Chemscore.DEClash>
0.8114

> <Gold.Chemscore.DEInternal>
3.7115

> <Gold.Chemscore.Rot>
2.2996

> <Gold.Chemscore.Internal.Correction>
   9.000000E+99

> <Gold.Chemscore.Hbonds>
donor molecule, donor type, donor heavy atom, donor atom, acceptor molecule, acceptor atom, score
      L1  H    17    40       P1  7957  0.93
      P1  H  6896  6909       L1     7  0.12
      P1  H  7989  7998       L1    17  0.59

> <Gold.Chemscore.Hbond.Weighted>
-7.3402

> <Gold.Chemscore.Metal.Weighted>
-0.0000

> <Gold.Chemscore.Lipo.Weighted>
-10.1586

> <Gold.Chemscore.Internal_Hbond.Weighted>
0.0000

> <Gold.Chemscore.DEClash.Weighted>
0.8114

> <Gold.Chemscore.DEInternal.Weighted>
3.7115

> <Gold.Chemscore.Rot.Weighted>
5.8869

> <Gold.Chemscore.Internal.Correction.Weighted>
   9.000000E+99

> <Gold.Protein.RotatedTorsions>
[ 6907 6896 6895 6894 ] final   43.50 input  -60.11 | X-H torsion
[ 7974 7965 7964 7962 ] final  122.78 input  175.53 | X-H torsion
[ 8008 7997 7996 7995 ] final   13.42 input   59.86 | X-H torsion
[ 10167 10162 10161 10158 ] final -117.94 input  -65.29 | X-H torsion
[ 10718 10713 10712 10709 ] final  117.42 input   66.30 | X-H torsion
[ 10763 10752 10751 10750 ] final  -34.41 input  -60.55 | X-H torsion
[ 11005 11000 10999 10996 ] final  142.25 input  -57.11 | X-H torsion

> <Gold.Protein.ActiveResidues>
 VAL166  LYS551  ARG553  GLY616  TRP617  ASP618  TYR619  PRO620  LYS621  CYS622 
 ASP623  PHE694  ASN695  SER759  ASP760  ASP761  ALA762  ILE779  LEU786  VAL792 
 PHE793  MET794  SER795  GLU796  ALA797  LYS798  CYS799  TRP800  GLU811  SER814 

> <Gold.Protein.RotatedAtoms>
  152.2210  134.8413  160.0485 H   0  0  0  0  0  0  0  0  0  0  0  0  # atno 6907 bound_to 6896
  151.9196  133.3577  159.3900 H   0  0  0  0  0  0  0  0  0  0  0  0  # atno 6908 bound_to 6896
  150.7000  134.4574  159.5408 H   0  0  0  0  0  0  0  0  0  0  0  0  # atno 6909 bound_to 6896
  145.1035  139.3502  143.4800 H   0  0  0  0  0  0  0  0  0  0  0  0  # atno 7974 bound_to 7965
  154.8342  140.2904  155.5702 H   0  0  0  0  0  0  0  0  0  0  0  0  # atno 8008 bound_to 7997
  156.3007  140.2526  156.3204 H   0  0  0  0  0  0  0  0  0  0  0  0  # atno 8009 bound_to 7997
  154.9197  140.0386  157.1980 H   0  0  0  0  0  0  0  0  0  0  0  0  # atno 8010 bound_to 7997
  140.0629  143.4950  152.2022 H   0  0  0  0  0  0  0  0  0  0  0  0  # atno 10167 bound_to 10162
  157.6097  131.1037  150.7612 H   0  0  0  0  0  0  0  0  0  0  0  0  # atno 10718 bound_to 10713
  153.8463  135.6853  153.4797 H   0  0  0  0  0  0  0  0  0  0  0  0  # atno 10763 bound_to 10752
  153.1424  135.4652  154.9513 H   0  0  0  0  0  0  0  0  0  0  0  0  # atno 10764 bound_to 10752
  154.7822  135.3273  154.7911 H   0  0  0  0  0  0  0  0  0  0  0  0  # atno 10765 bound_to 10752
  140.0463  134.9279  157.0935 H   0  0  0  0  0  0  0  0  0  0  0  0  # atno 11005 bound_to 11000
  146.3529  140.0923  142.8612 LP  0  0  0  0  0  0  0  0  0  0  0  0  # atno 17320 bound_to 7965
  145.0928  140.9295  143.4759 LP  0  0  0  0  0  0  0  0  0  0  0  0  # atno 17321 bound_to 7965
  139.5882  144.7540  151.3466 LP  0  0  0  0  0  0  0  0  0  0  0  0  # atno 17342 bound_to 10162
  140.7163  143.7257  150.7661 LP  0  0  0  0  0  0  0  0  0  0  0  0  # atno 17343 bound_to 10162
  156.7992  130.4915  149.5372 LP  0  0  0  0  0  0  0  0  0  0  0  0  # atno 17370 bound_to 10713
  156.1196  130.6100  151.0173 LP  0  0  0  0  0  0  0  0  0  0  0  0  # atno 17371 bound_to 10713
  140.3989  134.2104  155.7164 LP  0  0  0  0  0  0  0  0  0  0  0  0  # atno 17394 bound_to 11000
  141.1908  133.8208  157.0903 LP  0  0  0  0  0  0  0  0  0  0  0  0  # atno 17395 bound_to 11000

$$$$
