AV-unprocessed.smi:3055|AV-procd|sdf|11642|dock10
  -GOLD-   2272017 33D 1   1.00000     0.00000
 Structure written by MMmdl.
 48 50  0  0  0  0  0  0  0  0  3 V2000
  148.1360  132.5075  155.1809 O   0  0  0  0  0  0  0  0  0  0  0  0
  148.6576  133.5227  154.7181 C   0  0  0  0  0  0  0  0  0  0  0  0
  148.4057  133.9464  153.4696 N   0  0  0  0  0  0  0  0  0  0  0  0
  147.5013  133.2854  152.5372 C   0  0  0  0  0  0  0  0  0  0  0  0
  146.2848  134.1684  152.2190 C   0  0  0  0  0  0  0  0  0  0  0  0
  145.3483  133.5203  151.2958 N   0  0  0  0  0  0  0  0  0  0  0  0
  145.5706  132.3955  150.5437 C   0  0  0  0  0  0  0  0  0  0  0  0
  144.4177  132.1620  149.8393 C   0  0  0  0  0  0  0  0  0  0  0  0
  143.5405  133.1526  150.1919 N   0  3  0  0  0  0  0  0  0  0  0  0
  144.1078  133.9770  151.0786 C   0  0  0  0  0  0  0  0  0  0  0  0
  149.5424  134.2849  155.4098 N   0  0  0  0  0  0  0  0  0  0  0  0
  150.3149  135.4185  154.8775 C   0  0  0  0  0  0  0  0  0  0  0  0
  149.6548  136.7208  155.3605 C   0  0  0  0  0  0  0  0  0  0  0  0
  149.5439  136.7494  156.8978 C   0  0  0  0  0  0  0  0  0  0  0  0
  148.8985  135.4589  157.4694 C   0  0  2  0  0  0  0  0  0  0  0  0
  148.9255  135.4365  158.9588 N   0  3  0  0  0  0  0  0  0  0  0  0
  148.4671  136.6766  159.6226 C   0  0  0  0  0  0  0  0  0  0  0  0
  148.0789  136.2523  161.0340 C   0  0  0  0  0  0  0  0  0  0  0  0
  147.4555  134.8794  160.8153 C   0  0  0  0  0  0  0  0  0  0  0  0
  148.1779  134.3154  159.5844 C   0  0  0  0  0  0  0  0  0  0  0  0
  149.6282  134.2285  156.8744 C   0  0  0  0  0  0  0  0  0  0  0  0
  148.8672  134.7851  153.1501 H   0  0  0  0  0  0  0  0  0  0  0  0
  148.0350  133.0305  151.6200 H   0  0  0  0  0  0  0  0  0  0  0  0
  147.1636  132.3471  152.9793 H   0  0  0  0  0  0  0  0  0  0  0  0
  145.7359  134.3920  153.1346 H   0  0  0  0  0  0  0  0  0  0  0  0
  146.5954  135.1243  151.7941 H   0  0  0  0  0  0  0  0  0  0  0  0
  146.5086  131.8596  150.5647 H   0  0  0  0  0  0  0  0  0  0  0  0
  144.1627  131.3853  149.1331 H   0  0  0  0  0  0  0  0  0  0  0  0
  143.6526  134.8414  151.5285 H   0  0  0  0  0  0  0  0  0  0  0  0
  151.3400  135.3612  155.2469 H   0  0  0  0  0  0  0  0  0  0  0  0
  150.4024  135.4253  153.7911 H   0  0  0  0  0  0  0  0  0  0  0  0
  150.2247  137.5826  155.0120 H   0  0  0  0  0  0  0  0  0  0  0  0
  148.6602  136.8092  154.9209 H   0  0  0  0  0  0  0  0  0  0  0  0
  150.5430  136.8697  157.3193 H   0  0  0  0  0  0  0  0  0  0  0  0
  148.9770  137.6330  157.1912 H   0  0  0  0  0  0  0  0  0  0  0  0
  147.8532  135.4313  157.1553 H   0  0  0  0  0  0  0  0  0  0  0  0
  149.2372  137.4485  159.6232 H   0  0  0  0  0  0  0  0  0  0  0  0
  147.5902  137.0696  159.1052 H   0  0  0  0  0  0  0  0  0  0  0  0
  148.9715  136.1622  161.6547 H   0  0  0  0  0  0  0  0  0  0  0  0
  147.3998  136.9553  161.5173 H   0  0  0  0  0  0  0  0  0  0  0  0
  147.5466  134.2343  161.6895 H   0  0  0  0  0  0  0  0  0  0  0  0
  146.3927  134.9918  160.5961 H   0  0  0  0  0  0  0  0  0  0  0  0
  147.4506  133.8765  158.8998 H   0  0  0  0  0  0  0  0  0  0  0  0
  148.8829  133.5323  159.8650 H   0  0  0  0  0  0  0  0  0  0  0  0
  149.2214  133.2942  157.2624 H   0  0  0  0  0  0  0  0  0  0  0  0
  150.6766  134.2310  157.1769 H   0  0  0  0  0  0  0  0  0  0  0  0
  149.8892  135.3167  159.2368 H   0  0  0  0  0  0  0  0  0  0  0  0
  142.5972  133.2476  149.8367 H   0  0  0  0  0  0  0  0  0  0  0  0
  1  2  2  0  0  0  0
  2  3  1  0  0  0  0
  2 11  1  0  0  0  0
  3  4  1  0  0  0  0
  3 22  1  0  0  0  0
  4  5  1  0  0  0  0
  4 23  1  0  0  0  0
  4 24  1  0  0  0  0
  5  6  1  0  0  0  0
  5 25  1  0  0  0  0
  5 26  1  0  0  0  0
  6 10  1  0  0  0  0
  6  7  1  0  0  0  0
  7  8  2  0  0  0  0
  7 27  1  0  0  0  0
  8  9  1  0  0  0  0
  8 28  1  0  0  0  0
  9 10  2  0  0  0  0
  9 48  1  0  0  0  0
 10 29  1  0  0  0  0
 11 21  1  0  0  0  0
 11 12  1  0  0  0  0
 12 13  1  0  0  0  0
 12 30  1  0  0  0  0
 12 31  1  0  0  0  0
 13 14  1  0  0  0  0
 13 32  1  0  0  0  0
 13 33  1  0  0  0  0
 14 15  1  0  0  0  0
 14 34  1  0  0  0  0
 14 35  1  0  0  0  0
 15 16  1  0  0  0  0
 15 21  1  0  0  0  0
 15 36  1  0  0  0  0
 16 20  1  0  0  0  0
 16 17  1  0  0  0  0
 16 47  1  0  0  0  0
 17 18  1  0  0  0  0
 17 37  1  0  0  0  0
 17 38  1  0  0  0  0
 18 19  1  0  0  0  0
 18 39  1  0  0  0  0
 18 40  1  0  0  0  0
 19 20  1  0  0  0  0
 19 41  1  0  0  0  0
 19 42  1  0  0  0  0
 20 43  1  0  0  0  0
 20 44  1  0  0  0  0
 21 45  1  0  0  0  0
 21 46  1  0  0  0  0
M  CHG  1   9   1
M  CHG  1  16   1
M  END
> <s_m_source_file>
AV-unprocessed.smi

> <i_m_source_file_index>
3055

> <i_lp_mmshare_version>
43012

> <i_f3d_flags>
0

> <s_epik_input>
W2NIXTFuW2NIXVtjSF1uMVtDSDJdW0NIMl1bTkhdQyg9TylOMltDSDJdW0NIMl1bQ0gyXVtDQEhdKFtDSDJdMilOM1tDSDJdW0NIMl1bQ0gyXVtDSDJdMw==

> <s_epik_cmdline>
J2VwaWtfcHl0aG9uJywgJy1waCcsICc3LjAnLCAnLXRuJywgJzgnLCAnLW1hJywgJzIwMCcsICctbWV0YWxfYmluZGluZycsICctaW1hZScsICc8aW5maWxlLm1hZT4nLCAnLW9tYWUnLCAnPG91dGZpbGUubWFlPic=

> <r_lp_tautomer_probability>
1

> <r_epik_Ionization_Penalty>
0.259176

> <r_epik_Ionization_Penalty_Charging>
0.00125522

> <r_epik_Ionization_Penalty_Neutral>
0.257921

> <r_epik_State_Penalty>
0.249312

> <r_epik_Charging_Adjusted_Penalty>
0.250567

> <i_epik_Tot_Q>
2

> <i_epik_Tot_abs_Q>
2

> <r_epik_Metal_State_Penalty>
0.53666

> <b_epik_Metal_Only>
0

> <s_lp_Force_Field>
OPLS_2005

> <r_lp_Energy>
60.4865

> <b_lp_Chiralities_Consistent>
1

> <s_lp_Variant>
AV-unprocessed.smi:3055-2

> <Gold.Version>
5.8.1

> <Gold.Id.Protein>
6NUR|6NUR_protein|mol2

> <Gold.PLP.Fitness>
42.4567

> <Gold.PLP.PLP>
-32.4698

> <Gold.PLP.part.hbond>
-2.0000

> <Gold.PLP.part.metal>
0.0000

> <Gold.PLP.part.buried>
-4.5421

> <Gold.PLP.part.nonpolar>
-26.4137

> <Gold.PLP.part.repulsive>
0.6261

> <Gold.PLP.ligand.clash>
0.0000

> <Gold.PLP.ligand.torsion>
0.3471

> <Gold.PLP.Chemscore.Hbond>
2.6680

> <Gold.PLP.Chemscore.CHOScore>
0.8700

> <Gold.PLP.Chemscore.Metal>
0.0000

> <Gold.Chemscore.Hbonds>
donor molecule, donor type, donor heavy atom, donor atom, acceptor molecule, acceptor atom, score
      L1  H     3    22       P1  7948  0.86
      L1  H     9    48       P1 10186  1.92
      L1  C     7    27       P1 10747  0.64

> <Gold.PLP.Chemscore.Internal.Correction>
0.0671

> <Gold.Rescore>
     Score         DG    S(hbond)    S(metal)    S(lipo)     H(rot)  DE(clash)    DE(int)     intcor
     13.81     -14.11       1.76        0.00      64.59       1.87       0.05       0.24       ----

> <Gold.Chemscore.Fitness>
13.8144

> <Gold.Chemscore.DG>
-14.1080

> <Gold.Chemscore.ZeroCoef>
-5.4800

> <Gold.Chemscore.Hbond>
1.7565

> <Gold.Chemscore.Metal>
0.0000

> <Gold.Chemscore.Lipo>
64.5885

> <Gold.Chemscore.Internal_Hbond>
0.0000

> <Gold.Chemscore.DEClash>
0.0504

> <Gold.Chemscore.DEInternal>
0.2431

> <Gold.Chemscore.Rot>
1.8732

> <Gold.Chemscore.Internal.Correction>
   9.000000E+99

> <Gold.Chemscore.Hbonds>
donor molecule, donor type, donor heavy atom, donor atom, acceptor molecule, acceptor atom, score
      L1  H     3    22       P1  7948  0.16
      L1  H     9    48       P1 10186  0.89

> <Gold.Chemscore.Hbond.Weighted>
-5.8666

> <Gold.Chemscore.Metal.Weighted>
-0.0000

> <Gold.Chemscore.Lipo.Weighted>
-7.5569

> <Gold.Chemscore.Internal_Hbond.Weighted>
0.0000

> <Gold.Chemscore.DEClash.Weighted>
0.0504

> <Gold.Chemscore.DEInternal.Weighted>
0.2431

> <Gold.Chemscore.Rot.Weighted>
4.7954

> <Gold.Chemscore.Internal.Correction.Weighted>
   9.000000E+99

> <Gold.Protein.RotatedTorsions>
[ 6907 6896 6895 6894 ] final  -98.98 input  -60.11 | X-H torsion
[ 7974 7965 7964 7962 ] final   62.00 input  175.53 | X-H torsion
[ 8008 7997 7996 7995 ] final  -10.84 input   59.86 | X-H torsion
[ 10167 10162 10161 10158 ] final  -99.06 input  -65.29 | X-H torsion
[ 10718 10713 10712 10709 ] final  175.22 input   66.30 | X-H torsion
[ 10763 10752 10751 10750 ] final   23.89 input  -60.55 | X-H torsion
[ 11005 11000 10999 10996 ] final -178.48 input  -57.11 | X-H torsion

> <Gold.Protein.ActiveResidues>
 VAL166  LYS551  ARG553  GLY616  TRP617  ASP618  TYR619  PRO620  LYS621  CYS622 
 ASP623  PHE694  ASN695  SER759  ASP760  ASP761  ALA762  ILE779  LEU786  VAL792 
 PHE793  MET794  SER795  GLU796  ALA797  LYS798  CYS799  TRP800  GLU811  SER814 

> <Gold.Protein.RotatedAtoms>
  150.7064  134.1111  159.4000 H   0  0  0  0  0  0  0  0  0  0  0  0  # atno 6907 bound_to 6896
  151.9098  135.0341  160.0523 H   0  0  0  0  0  0  0  0  0  0  0  0  # atno 6908 bound_to 6896
  152.2345  133.5050  159.5271 H   0  0  0  0  0  0  0  0  0  0  0  0  # atno 6909 bound_to 6896
  145.8783  139.3425  143.0721 H   0  0  0  0  0  0  0  0  0  0  0  0  # atno 7974 bound_to 7965
  154.5518  140.2318  155.8473 H   0  0  0  0  0  0  0  0  0  0  0  0  # atno 8008 bound_to 7997
  156.1953  140.3066  155.9376 H   0  0  0  0  0  0  0  0  0  0  0  0  # atno 8009 bound_to 7997
  155.3056  140.0433  157.3022 H   0  0  0  0  0  0  0  0  0  0  0  0  # atno 8010 bound_to 7997
  140.2664  143.3373  152.0576 H   0  0  0  0  0  0  0  0  0  0  0  0  # atno 10167 bound_to 10162
  156.9380  130.9992  151.2974 H   0  0  0  0  0  0  0  0  0  0  0  0  # atno 10718 bound_to 10713
  153.0804  135.6617  154.0057 H   0  0  0  0  0  0  0  0  0  0  0  0  # atno 10763 bound_to 10752
  153.9680  135.2967  155.3430 H   0  0  0  0  0  0  0  0  0  0  0  0  # atno 10764 bound_to 10752
  154.7202  135.5168  153.8871 H   0  0  0  0  0  0  0  0  0  0  0  0  # atno 10765 bound_to 10752
  140.4293  134.6534  157.4704 H   0  0  0  0  0  0  0  0  0  0  0  0  # atno 11005 bound_to 11000
  145.9054  140.9215  143.0481 LP  0  0  0  0  0  0  0  0  0  0  0  0  # atno 17320 bound_to 7965
  144.6726  140.1089  143.7456 LP  0  0  0  0  0  0  0  0  0  0  0  0  # atno 17321 bound_to 7965
  139.5001  144.6685  151.6299 LP  0  0  0  0  0  0  0  0  0  0  0  0  # atno 17342 bound_to 10162
  140.5924  143.9755  150.6333 LP  0  0  0  0  0  0  0  0  0  0  0  0  # atno 17343 bound_to 10162
  157.5803  130.8372  149.8513 LP  0  0  0  0  0  0  0  0  0  0  0  0  # atno 17370 bound_to 10713
  156.0417  130.3737  150.1419 LP  0  0  0  0  0  0  0  0  0  0  0  0  # atno 17371 bound_to 10713
  140.0145  134.6639  155.9330 LP  0  0  0  0  0  0  0  0  0  0  0  0  # atno 17394 bound_to 11000
  141.1752  133.6540  156.4802 LP  0  0  0  0  0  0  0  0  0  0  0  0  # atno 17395 bound_to 11000

$$$$
