AV-unprocessed.smi:2650|AV-procd|sdf|10291|dock7
  -GOLD-   2272014303D 1   1.00000     0.00000
 Structure written by MMmdl.
 33 34  0  0  0  0  0  0  0  0  1 V2000
  144.6476  136.7217  152.5121 O   0  0  0  0  0  0  0  0  0  0  0  0
  145.8438  136.5071  152.3126 C   0  0  0  0  0  0  0  0  0  0  0  0
  146.8108  137.3868  152.6114 N   0  0  0  0  0  0  0  0  0  0  0  0
  146.5888  138.6961  153.2121 C   0  0  0  0  0  0  0  0  0  0  0  0
  147.7548  139.6565  152.9131 C   0  0  0  0  0  0  0  0  0  0  0  0
  148.1874  140.3643  154.1211 N   0  0  0  0  0  0  0  0  0  0  0  0
  149.4451  140.3608  154.5844 C   0  0  0  0  0  0  0  0  0  0  0  0
  150.4044  139.7737  154.0846 O   0  0  0  0  0  0  0  0  0  0  0  0
  149.5649  141.2046  155.8463 C   0  0  0  0  0  0  0  0  0  0  0  0
  148.1386  141.7248  156.0517 C   0  0  0  0  0  0  0  0  0  0  0  0
  147.3790  141.1181  154.8796 C   0  0  0  0  0  0  0  0  0  0  0  0
  146.1810  141.3230  154.6882 O   0  0  0  0  0  0  0  0  0  0  0  0
  146.3545  135.3829  151.7799 N   0  0  0  0  0  0  0  0  0  0  0  0
  145.6588  134.2231  151.3457 C   0  0  0  0  0  0  0  0  0  0  0  0
  146.4813  133.1369  150.9699 C   0  0  0  0  0  0  0  0  0  0  0  0
  145.8877  131.9399  150.5246 C   0  0  0  0  0  0  0  0  0  0  0  0
  144.4849  131.8597  150.4666 C   0  0  0  0  0  0  0  0  0  0  0  0
  143.7395  132.9866  150.8591 C   0  0  0  0  0  0  0  0  0  0  0  0
  144.3064  134.1346  151.2858 N   0  0  0  0  0  0  0  0  0  0  0  0
  147.7677  137.1318  152.4148 H   0  0  0  0  0  0  0  0  0  0  0  0
  145.6594  139.0991  152.8092 H   0  0  0  0  0  0  0  0  0  0  0  0
  146.4410  138.5914  154.2885 H   0  0  0  0  0  0  0  0  0  0  0  0
  148.5969  139.1069  152.4882 H   0  0  0  0  0  0  0  0  0  0  0  0
  147.4581  140.3735  152.1455 H   0  0  0  0  0  0  0  0  0  0  0  0
  149.8998  140.5931  156.6848 H   0  0  0  0  0  0  0  0  0  0  0  0
  150.2762  142.0172  155.6957 H   0  0  0  0  0  0  0  0  0  0  0  0
  147.7145  141.3860  156.9975 H   0  0  0  0  0  0  0  0  0  0  0  0
  148.0926  142.8137  156.0145 H   0  0  0  0  0  0  0  0  0  0  0  0
  147.3578  135.3511  151.6767 H   0  0  0  0  0  0  0  0  0  0  0  0
  147.5577  133.2152  151.0211 H   0  0  0  0  0  0  0  0  0  0  0  0
  146.4989  131.0983  150.2336 H   0  0  0  0  0  0  0  0  0  0  0  0
  143.9931  130.9589  150.1305 H   0  0  0  0  0  0  0  0  0  0  0  0
  142.6601  132.9668  150.8302 H   0  0  0  0  0  0  0  0  0  0  0  0
  1  2  2  0  0  0  0
  2  3  1  0  0  0  0
  2 13  1  0  0  0  0
  3  4  1  0  0  0  0
  3 20  1  0  0  0  0
  4  5  1  0  0  0  0
  4 21  1  0  0  0  0
  4 22  1  0  0  0  0
  5  6  1  0  0  0  0
  5 23  1  0  0  0  0
  5 24  1  0  0  0  0
  6 11  1  0  0  0  0
  6  7  1  0  0  0  0
  7  8  2  0  0  0  0
  7  9  1  0  0  0  0
  9 10  1  0  0  0  0
  9 25  1  0  0  0  0
  9 26  1  0  0  0  0
 10 11  1  0  0  0  0
 10 27  1  0  0  0  0
 10 28  1  0  0  0  0
 11 12  2  0  0  0  0
 13 14  1  0  0  0  0
 13 29  1  0  0  0  0
 14 19  1  0  0  0  0
 14 15  2  0  0  0  0
 15 16  1  0  0  0  0
 15 30  1  0  0  0  0
 16 17  2  0  0  0  0
 16 31  1  0  0  0  0
 17 18  1  0  0  0  0
 17 32  1  0  0  0  0
 18 19  2  0  0  0  0
 18 33  1  0  0  0  0
M  END
> <s_m_source_file>
AV-unprocessed.smi

> <i_m_source_file_index>
2650

> <i_lp_mmshare_version>
43012

> <i_f3d_flags>
0

> <s_epik_input>
bjFbY0hdW2NIXVtjSF1bY0hdYzFbTkhdQyg9TylbTkhdW0NIMl1bQ0gyXU4yQyg9TylbQ0gyXVtDSDJdQzI9Tw==

> <s_epik_cmdline>
J2VwaWtfcHl0aG9uJywgJy1waCcsICc3LjAnLCAnLXRuJywgJzgnLCAnLW1hJywgJzIwMCcsICctbWV0YWxfYmluZGluZycsICctaW1hZScsICc8aW5maWxlLm1hZT4nLCAnLW9tYWUnLCAnPG91dGZpbGUubWFlPic=

> <r_lp_tautomer_probability>
1

> <r_epik_Ionization_Penalty>
4.11926e-05

> <r_epik_Ionization_Penalty_Charging>
0

> <r_epik_Ionization_Penalty_Neutral>
4.11926e-05

> <r_epik_State_Penalty>
-0

> <r_epik_Charging_Adjusted_Penalty>
0

> <i_epik_Tot_Q>
0

> <i_epik_Tot_abs_Q>
0

> <r_epik_Metal_State_Penalty>
-0

> <b_epik_Metal_Only>
0

> <s_lp_Force_Field>
OPLS_2005

> <r_lp_Energy>
11.0549

> <b_lp_Chiralities_Consistent>
1

> <s_lp_Variant>
AV-unprocessed.smi:2650-1

> <Gold.Version>
5.8.1

> <Gold.Id.Protein>
6NUR|6NUR_protein|mol2

> <Gold.PLP.Fitness>
40.5709

> <Gold.PLP.PLP>
-29.6546

> <Gold.PLP.part.hbond>
-3.0000

> <Gold.PLP.part.metal>
0.0000

> <Gold.PLP.part.buried>
-0.9392

> <Gold.PLP.part.nonpolar>
-26.6949

> <Gold.PLP.part.repulsive>
1.2173

> <Gold.PLP.ligand.clash>
0.0000

> <Gold.PLP.ligand.torsion>
0.5200

> <Gold.PLP.Chemscore.Hbond>
2.9760

> <Gold.PLP.Chemscore.CHOScore>
1.0000

> <Gold.PLP.Chemscore.Metal>
0.0000

> <Gold.Chemscore.Hbonds>
donor molecule, donor type, donor heavy atom, donor atom, acceptor molecule, acceptor atom, score
      L1  H     3    20       P1  7948  1.00
      L1  H    13    29       P1  7948  0.98
      P1  H  7989  7998       L1     8  1.00
      L1  C    18    33       P1 10186  0.97

> <Gold.PLP.Chemscore.Internal.Correction>
0.0283

> <Gold.Rescore>
     Score         DG    S(hbond)    S(metal)    S(lipo)     H(rot)  DE(clash)    DE(int)     intcor
     13.65     -17.43       2.88        0.00      59.15       1.80       1.25       2.52       ----

> <Gold.Chemscore.Fitness>
13.6527

> <Gold.Chemscore.DG>
-17.4324

> <Gold.Chemscore.ZeroCoef>
-5.4800

> <Gold.Chemscore.Hbond>
2.8839

> <Gold.Chemscore.Metal>
0.0000

> <Gold.Chemscore.Lipo>
59.1454

> <Gold.Chemscore.Internal_Hbond>
0.0000

> <Gold.Chemscore.DEClash>
1.2548

> <Gold.Chemscore.DEInternal>
2.5248

> <Gold.Chemscore.Rot>
1.7968

> <Gold.Chemscore.Internal.Correction>
   9.000000E+99

> <Gold.Chemscore.Hbonds>
donor molecule, donor type, donor heavy atom, donor atom, acceptor molecule, acceptor atom, score
      L1  H     3    20       P1  7948  0.96
      L1  H    13    29       P1  7948  0.89
      P1  H  7989  7998       L1     8  0.84

> <Gold.Chemscore.Hbond.Weighted>
-9.6322

> <Gold.Chemscore.Metal.Weighted>
-0.0000

> <Gold.Chemscore.Lipo.Weighted>
-6.9200

> <Gold.Chemscore.Internal_Hbond.Weighted>
0.0000

> <Gold.Chemscore.DEClash.Weighted>
1.2548

> <Gold.Chemscore.DEInternal.Weighted>
2.5248

> <Gold.Chemscore.Rot.Weighted>
4.5999

> <Gold.Chemscore.Internal.Correction.Weighted>
   9.000000E+99

> <Gold.Protein.RotatedTorsions>
[ 6907 6896 6895 6894 ] final -155.05 input  -60.11 | X-H torsion
[ 7974 7965 7964 7962 ] final  -26.68 input  175.53 | X-H torsion
[ 8008 7997 7996 7995 ] final  -41.49 input   59.86 | X-H torsion
[ 10167 10162 10161 10158 ] final  -57.84 input  -65.29 | X-H torsion
[ 10718 10713 10712 10709 ] final   71.72 input   66.30 | X-H torsion
[ 10763 10752 10751 10750 ] final  163.61 input  -60.55 | X-H torsion
[ 11005 11000 10999 10996 ] final  -64.00 input  -57.11 | X-H torsion

> <Gold.Protein.ActiveResidues>
 VAL166  LYS551  ARG553  GLY616  TRP617  ASP618  TYR619  PRO620  LYS621  CYS622 
 ASP623  PHE694  ASN695  SER759  ASP760  ASP761  ALA762  ILE779  LEU786  VAL792 
 PHE793  MET794  SER795  GLU796  ALA797  LYS798  CYS799  TRP800  GLU811  SER814 

> <Gold.Protein.RotatedAtoms>
  151.2667  133.4275  159.2618 H   0  0  0  0  0  0  0  0  0  0  0  0  # atno 6907 bound_to 6896
  151.0482  134.9655  159.8207 H   0  0  0  0  0  0  0  0  0  0  0  0  # atno 6908 bound_to 6896
  152.5378  134.2623  159.8992 H   0  0  0  0  0  0  0  0  0  0  0  0  # atno 6909 bound_to 6896
  146.1409  140.5052  142.8652 H   0  0  0  0  0  0  0  0  0  0  0  0  # atno 7974 bound_to 7965
  154.4004  140.1498  156.3200 H   0  0  0  0  0  0  0  0  0  0  0  0  # atno 8008 bound_to 7997
  155.8538  140.3456  155.5689 H   0  0  0  0  0  0  0  0  0  0  0  0  # atno 8009 bound_to 7997
  155.7955  140.0862  157.1976 H   0  0  0  0  0  0  0  0  0  0  0  0  # atno 8010 bound_to 7997
  140.6234  143.2428  151.5424 H   0  0  0  0  0  0  0  0  0  0  0  0  # atno 10167 bound_to 10162
  157.6466  130.9542  150.0828 H   0  0  0  0  0  0  0  0  0  0  0  0  # atno 10718 bound_to 10713
  154.2963  135.2760  155.2632 H   0  0  0  0  0  0  0  0  0  0  0  0  # atno 10763 bound_to 10752
  154.5088  135.5788  153.6592 H   0  0  0  0  0  0  0  0  0  0  0  0  # atno 10764 bound_to 10752
  152.9907  135.6176  154.3130 H   0  0  0  0  0  0  0  0  0  0  0  0  # atno 10765 bound_to 10752
  141.1411  133.6659  156.5766 H   0  0  0  0  0  0  0  0  0  0  0  0  # atno 11005 bound_to 11000
  144.7791  140.5803  143.6617 LP  0  0  0  0  0  0  0  0  0  0  0  0  # atno 17320 bound_to 7965
  145.5049  139.1481  143.3637 LP  0  0  0  0  0  0  0  0  0  0  0  0  # atno 17321 bound_to 7965
  139.5458  144.2525  152.1439 LP  0  0  0  0  0  0  0  0  0  0  0  0  # atno 17342 bound_to 10162
  140.1750  144.4899  150.6559 LP  0  0  0  0  0  0  0  0  0  0  0  0  # atno 17343 bound_to 10162
  156.1800  130.3649  149.9049 LP  0  0  0  0  0  0  0  0  0  0  0  0  # atno 17370 bound_to 10713
  156.7003  130.8930  151.3598 LP  0  0  0  0  0  0  0  0  0  0  0  0  # atno 17371 bound_to 10713
  140.3871  134.7473  157.4698 LP  0  0  0  0  0  0  0  0  0  0  0  0  # atno 17394 bound_to 11000
  140.0594  134.6017  155.8767 LP  0  0  0  0  0  0  0  0  0  0  0  0  # atno 17395 bound_to 11000

$$$$
