AV-unprocessed.smi:2140|AV-procd|sdf|8717|dock9
  -GOLD-   2272011483D 1   1.00000     0.00000
 Structure written by MMmdl.
 40 41  0  0  0  0  0  0  0  0  2 V2000
  147.4453  139.5911  153.3425 C   0  0  0  0  0  0  0  0  0  0  0  0
  147.4977  138.3153  154.2181 C   0  0  1  0  0  0  0  0  0  0  0  0
  146.4338  137.2932  153.7337 C   0  0  0  0  0  0  0  0  0  0  0  0
  145.1193  137.8919  153.5177 N   0  0  0  0  0  0  0  0  0  0  0  0
  143.9518  137.2603  153.7066 C   0  0  0  0  0  0  0  0  0  0  0  0
  143.8703  136.0892  154.0766 O   0  0  0  0  0  0  0  0  0  0  0  0
  142.9115  138.0635  153.4270 N   0  0  0  0  0  0  0  0  0  0  0  0
  141.5224  137.7841  153.5402 C   0  0  0  0  0  0  0  0  0  0  0  0
  140.9903  136.5651  154.0271 C   0  0  0  0  0  0  0  0  0  0  0  0
  139.5922  136.4194  154.1108 C   0  0  0  0  0  0  0  0  0  0  0  0
  138.7780  137.4971  153.7122 C   0  0  0  0  0  0  0  0  0  0  0  0
  139.2714  138.6686  153.2590 N   0  0  0  0  0  0  0  0  0  0  0  0
  140.6127  138.8017  153.1822 C   0  0  0  0  0  0  0  0  0  0  0  0
  148.8538  137.6756  154.2621 N   0  3  0  0  0  0  0  0  0  0  0  0
  149.9954  138.6047  154.4911 C   0  0  0  0  0  0  0  0  0  0  0  0
  151.3361  137.8496  154.4930 C   0  0  0  0  0  0  0  0  0  0  0  0
  151.3126  136.8231  155.4733 O   0  0  0  0  0  0  0  0  0  0  0  0
  150.2978  135.8682  155.2017 C   0  0  0  0  0  0  0  0  0  0  0  0
  148.9236  136.5562  155.2413 C   0  0  0  0  0  0  0  0  0  0  0  0
  146.4425  140.0166  153.3072 H   0  0  0  0  0  0  0  0  0  0  0  0
  147.7467  139.3823  152.3155 H   0  0  0  0  0  0  0  0  0  0  0  0
  148.0844  140.3825  153.7338 H   0  0  0  0  0  0  0  0  0  0  0  0
  147.2528  138.6256  155.2352 H   0  0  0  0  0  0  0  0  0  0  0  0
  146.7554  136.8466  152.7923 H   0  0  0  0  0  0  0  0  0  0  0  0
  146.3119  136.4657  154.4311 H   0  0  0  0  0  0  0  0  0  0  0  0
  145.0985  138.8519  153.2052 H   0  0  0  0  0  0  0  0  0  0  0  0
  143.1386  138.9708  153.0468 H   0  0  0  0  0  0  0  0  0  0  0  0
  141.6192  135.7503  154.3498 H   0  0  0  0  0  0  0  0  0  0  0  0
  139.1538  135.5028  154.4770 H   0  0  0  0  0  0  0  0  0  0  0  0
  137.7024  137.4179  153.7649 H   0  0  0  0  0  0  0  0  0  0  0  0
  140.9715  139.7534  152.8180 H   0  0  0  0  0  0  0  0  0  0  0  0
  150.0481  139.3579  153.7057 H   0  0  0  0  0  0  0  0  0  0  0  0
  149.8590  139.1270  155.4394 H   0  0  0  0  0  0  0  0  0  0  0  0
  151.5455  137.4255  153.5095 H   0  0  0  0  0  0  0  0  0  0  0  0
  152.1520  138.5356  154.7220 H   0  0  0  0  0  0  0  0  0  0  0  0
  150.4710  135.3936  154.2344 H   0  0  0  0  0  0  0  0  0  0  0  0
  150.3445  135.0814  155.9550 H   0  0  0  0  0  0  0  0  0  0  0  0
  148.7339  136.9388  156.2456 H   0  0  0  0  0  0  0  0  0  0  0  0
  148.1595  135.8074  155.0420 H   0  0  0  0  0  0  0  0  0  0  0  0
  149.0068  137.2757  153.3472 H   0  0  0  0  0  0  0  0  0  0  0  0
  1  2  1  0  0  0  0
  1 20  1  0  0  0  0
  1 21  1  0  0  0  0
  1 22  1  0  0  0  0
  2  3  1  0  0  0  0
  2 14  1  0  0  0  0
  2 23  1  0  0  0  0
  3  4  1  0  0  0  0
  3 24  1  0  0  0  0
  3 25  1  0  0  0  0
  4  5  1  0  0  0  0
  4 26  1  0  0  0  0
  5  6  2  0  0  0  0
  5  7  1  0  0  0  0
  7  8  1  0  0  0  0
  7 27  1  0  0  0  0
  8 13  1  0  0  0  0
  8  9  2  0  0  0  0
  9 10  1  0  0  0  0
  9 28  1  0  0  0  0
 10 11  2  0  0  0  0
 10 29  1  0  0  0  0
 11 12  1  0  0  0  0
 11 30  1  0  0  0  0
 12 13  2  0  0  0  0
 13 31  1  0  0  0  0
 14 19  1  0  0  0  0
 14 15  1  0  0  0  0
 14 40  1  0  0  0  0
 15 16  1  0  0  0  0
 15 32  1  0  0  0  0
 15 33  1  0  0  0  0
 16 17  1  0  0  0  0
 16 34  1  0  0  0  0
 16 35  1  0  0  0  0
 17 18  1  0  0  0  0
 18 19  1  0  0  0  0
 18 36  1  0  0  0  0
 18 37  1  0  0  0  0
 19 38  1  0  0  0  0
 19 39  1  0  0  0  0
M  CHG  1  14   1
M  END
> <s_m_source_file>
AV-unprocessed.smi

> <i_m_source_file_index>
2140

> <i_lp_mmshare_version>
43012

> <i_f3d_flags>
0

> <s_epik_input>
W0NIMl0xW0NIMl1PW0NIMl1bQ0gyXU4xW0NASF0oW0NIM10pW0NIMl1bTkhdQyg9TylbTkhdYzJbY0hdW2NIXVtjSF1uW2NIXTI=

> <s_epik_cmdline>
J2VwaWtfcHl0aG9uJywgJy1waCcsICc3LjAnLCAnLXRuJywgJzgnLCAnLW1hJywgJzIwMCcsICctbWV0YWxfYmluZGluZycsICctaW1hZScsICc8aW5maWxlLm1hZT4nLCAnLW9tYWUnLCAnPG91dGZpbGUubWFlPic=

> <r_epik_Ionization_Penalty>
0.60672

> <r_epik_Ionization_Penalty_Charging>
0.602531

> <r_epik_Ionization_Penalty_Neutral>
0.00418997

> <r_epik_State_Penalty>
0.607459

> <r_epik_Charging_Adjusted_Penalty>
1.20999

> <i_epik_Tot_Q>
1

> <i_epik_Tot_abs_Q>
1

> <r_epik_Metal_State_Penalty>
0.604586

> <b_epik_Metal_Only>
0

> <s_lp_Force_Field>
OPLS_2005

> <r_lp_Energy>
23.4588

> <b_lp_Chiralities_Consistent>
1

> <s_lp_Variant>
AV-unprocessed.smi:2140-4

> <Gold.Version>
5.8.1

> <Gold.Id.Protein>
6NUR|6NUR_protein|mol2

> <Gold.PLP.Fitness>
44.3450

> <Gold.PLP.PLP>
-28.5581

> <Gold.PLP.part.hbond>
-3.7355

> <Gold.PLP.part.metal>
0.0000

> <Gold.PLP.part.buried>
-1.0269

> <Gold.PLP.part.nonpolar>
-24.7057

> <Gold.PLP.part.repulsive>
0.3213

> <Gold.PLP.ligand.clash>
0.0000

> <Gold.PLP.ligand.torsion>
0.3245

> <Gold.PLP.Chemscore.Hbond>
4.3493

> <Gold.PLP.Chemscore.CHOScore>
1.1128

> <Gold.PLP.Chemscore.Metal>
0.0000

> <Gold.Chemscore.Hbonds>
donor molecule, donor type, donor heavy atom, donor atom, acceptor molecule, acceptor atom, score
      L1  H     4    26       P1 10175  0.34
      L1  H     7    27       P1 10175  1.00
      L1  H    14    40       P1  7948  2.00
      P1  H 10752 10764       L1    17  0.39
      L1  C    13    31       P1 10160  0.86
      L1  C    13    31       P1 10175  0.34

> <Gold.PLP.Chemscore.Internal.Correction>
0.0498

> <Gold.Rescore>
     Score         DG    S(hbond)    S(metal)    S(lipo)     H(rot)  DE(clash)    DE(int)     intcor
     17.87     -19.53       2.82        0.00      72.65       1.52       0.09       1.56       ----

> <Gold.Chemscore.Fitness>
17.8720

> <Gold.Chemscore.DG>
-19.5271

> <Gold.Chemscore.ZeroCoef>
-5.4800

> <Gold.Chemscore.Hbond>
2.8242

> <Gold.Chemscore.Metal>
0.0000

> <Gold.Chemscore.Lipo>
72.6507

> <Gold.Chemscore.Internal_Hbond>
0.0000

> <Gold.Chemscore.DEClash>
0.0934

> <Gold.Chemscore.DEInternal>
1.5617

> <Gold.Chemscore.Rot>
1.5179

> <Gold.Chemscore.Internal.Correction>
   9.000000E+99

> <Gold.Chemscore.Hbonds>
donor molecule, donor type, donor heavy atom, donor atom, acceptor molecule, acceptor atom, score
      L1  H     4    26       P1 10175  0.33
      L1  H     7    27       P1 10175  1.00
      L1  H    14    40       P1  7948  1.00
      P1  H 10752 10764       L1    17  0.01

> <Gold.Chemscore.Hbond.Weighted>
-9.4328

> <Gold.Chemscore.Metal.Weighted>
-0.0000

> <Gold.Chemscore.Lipo.Weighted>
-8.5001

> <Gold.Chemscore.Internal_Hbond.Weighted>
0.0000

> <Gold.Chemscore.DEClash.Weighted>
0.0934

> <Gold.Chemscore.DEInternal.Weighted>
1.5617

> <Gold.Chemscore.Rot.Weighted>
3.8859

> <Gold.Chemscore.Internal.Correction.Weighted>
   9.000000E+99

> <Gold.Protein.RotatedTorsions>
[ 6907 6896 6895 6894 ] final  166.33 input  -60.11 | X-H torsion
[ 7974 7965 7964 7962 ] final   61.24 input  175.53 | X-H torsion
[ 8008 7997 7996 7995 ] final -147.47 input   59.86 | X-H torsion
[ 10167 10162 10161 10158 ] final   28.47 input  -65.29 | X-H torsion
[ 10718 10713 10712 10709 ] final  103.97 input   66.30 | X-H torsion
[ 10763 10752 10751 10750 ] final  -53.34 input  -60.55 | X-H torsion
[ 11005 11000 10999 10996 ] final   79.14 input  -57.11 | X-H torsion

> <Gold.Protein.ActiveResidues>
 VAL166  LYS551  ARG553  GLY616  TRP617  ASP618  TYR619  PRO620  LYS621  CYS622 
 ASP623  PHE694  ASN695  SER759  ASP760  ASP761  ALA762  ILE779  LEU786  VAL792 
 PHE793  MET794  SER795  GLU796  ALA797  LYS798  CYS799  TRP800  GLU811  SER814 

> <Gold.Protein.RotatedAtoms>
  151.8805  133.3494  159.3764 H   0  0  0  0  0  0  0  0  0  0  0  0  # atno 6907 bound_to 6896
  150.7129  134.5023  159.5576 H   0  0  0  0  0  0  0  0  0  0  0  0  # atno 6908 bound_to 6896
  152.2574  134.8070  160.0487 H   0  0  0  0  0  0  0  0  0  0  0  0  # atno 6909 bound_to 6896
  145.8869  139.3483  143.0672 H   0  0  0  0  0  0  0  0  0  0  0  0  # atno 7974 bound_to 7965
  155.5761  140.0639  157.2795 H   0  0  0  0  0  0  0  0  0  0  0  0  # atno 8008 bound_to 7997
  154.4346  140.1860  156.0974 H   0  0  0  0  0  0  0  0  0  0  0  0  # atno 8009 bound_to 7997
  156.0340  140.3303  155.7174 H   0  0  0  0  0  0  0  0  0  0  0  0  # atno 8010 bound_to 7997
  140.4850  144.0556  150.6277 H   0  0  0  0  0  0  0  0  0  0  0  0  # atno 10167 bound_to 10162
  157.6755  131.0792  150.5635 H   0  0  0  0  0  0  0  0  0  0  0  0  # atno 10718 bound_to 10713
  154.1572  135.6480  153.4977 H   0  0  0  0  0  0  0  0  0  0  0  0  # atno 10763 bound_to 10752
  153.0121  135.5352  154.6748 H   0  0  0  0  0  0  0  0  0  0  0  0  # atno 10764 bound_to 10752
  154.6052  135.2948  155.0464 H   0  0  0  0  0  0  0  0  0  0  0  0  # atno 10765 bound_to 10752
  139.9184  134.7819  156.1740 H   0  0  0  0  0  0  0  0  0  0  0  0  # atno 11005 bound_to 11000
  145.8955  140.9276  143.0530 LP  0  0  0  0  0  0  0  0  0  0  0  0  # atno 17320 bound_to 7965
  144.6729  140.0963  143.7463 LP  0  0  0  0  0  0  0  0  0  0  0  0  # atno 17321 bound_to 7965
  140.3809  143.2803  152.0171 LP  0  0  0  0  0  0  0  0  0  0  0  0  # atno 17342 bound_to 10162
  139.4840  144.6155  151.7354 LP  0  0  0  0  0  0  0  0  0  0  0  0  # atno 17343 bound_to 10162
  156.5937  130.4336  149.5925 LP  0  0  0  0  0  0  0  0  0  0  0  0  # atno 17370 bound_to 10713
  156.2562  130.6936  151.1690 LP  0  0  0  0  0  0  0  0  0  0  0  0  # atno 17371 bound_to 10713
  141.0683  133.6809  156.2088 LP  0  0  0  0  0  0  0  0  0  0  0  0  # atno 17394 bound_to 11000
  140.6549  134.5028  157.5580 LP  0  0  0  0  0  0  0  0  0  0  0  0  # atno 17395 bound_to 11000

$$$$
