AV-unprocessed.smi:3097|AV-procd|sdf|11798|dock2
  -GOLD-   2272017173D 1   1.00000     0.00000
 Structure written by MMmdl.
 35 35  0  0  0  0  0  0  0  0  2 V2000
  144.5675  133.0785  150.5114 C   0  0  0  0  0  0  0  0  0  0  0  0
  145.6776  133.0996  151.5700 C   0  0  0  0  0  0  0  0  0  0  0  0
  146.2421  134.5049  151.8263 C   0  0  0  0  0  0  0  0  0  0  0  0
  145.1787  135.4726  152.1346 N   0  0  0  0  0  0  0  0  0  0  0  0
  145.3208  136.8097  152.2292 C   0  0  0  0  0  0  0  0  0  0  0  0
  144.2596  137.5763  152.5482 N   0  3  0  0  0  0  0  0  0  0  0  0
  142.9014  137.0875  152.8151 C   0  0  0  0  0  0  0  0  0  0  0  0
  146.5207  137.3810  152.0076 N   0  0  0  0  0  0  0  0  0  0  0  0
  146.8139  138.8178  152.0868 C   0  0  0  0  0  0  0  0  0  0  0  0
  147.0695  139.2526  153.5357 C   0  0  0  0  0  0  0  0  0  0  0  0
  148.3200  138.7202  154.0401 N   0  0  0  0  0  0  0  0  0  0  0  0
  149.6047  139.1466  153.7755 C   0  0  0  0  0  0  0  0  0  0  0  0
  150.4530  138.3383  154.4764 C   0  0  0  0  0  0  0  0  0  0  0  0
  149.5822  137.4342  155.1468 C   0  0  0  0  0  0  0  0  0  0  0  0
  148.3058  137.6661  154.8845 N   0  0  0  0  0  0  0  0  0  0  0  0
  144.2102  132.0619  150.3457 H   0  0  0  0  0  0  0  0  0  0  0  0
  144.9263  133.4642  149.5567 H   0  0  0  0  0  0  0  0  0  0  0  0
  143.7135  133.6828  150.8184 H   0  0  0  0  0  0  0  0  0  0  0  0
  145.2987  132.6763  152.5008 H   0  0  0  0  0  0  0  0  0  0  0  0
  146.4884  132.4446  151.2495 H   0  0  0  0  0  0  0  0  0  0  0  0
  146.9519  134.4814  152.6537 H   0  0  0  0  0  0  0  0  0  0  0  0
  146.7948  134.8524  150.9531 H   0  0  0  0  0  0  0  0  0  0  0  0
  144.2700  135.0808  152.3376 H   0  0  0  0  0  0  0  0  0  0  0  0
  142.2437  137.9206  153.0623 H   0  0  0  0  0  0  0  0  0  0  0  0
  142.9049  136.3899  153.6527 H   0  0  0  0  0  0  0  0  0  0  0  0
  142.5002  136.5794  151.9381 H   0  0  0  0  0  0  0  0  0  0  0  0
  147.2984  136.7775  151.7818 H   0  0  0  0  0  0  0  0  0  0  0  0
  147.6869  139.0367  151.4710 H   0  0  0  0  0  0  0  0  0  0  0  0
  145.9734  139.3713  151.6665 H   0  0  0  0  0  0  0  0  0  0  0  0
  147.0993  140.3409  153.6106 H   0  0  0  0  0  0  0  0  0  0  0  0
  146.2604  138.9117  154.1833 H   0  0  0  0  0  0  0  0  0  0  0  0
  149.8069  139.9803  153.1188 H   0  0  0  0  0  0  0  0  0  0  0  0
  151.5317  138.3846  154.5052 H   0  0  0  0  0  0  0  0  0  0  0  0
  149.8376  136.6229  155.8126 H   0  0  0  0  0  0  0  0  0  0  0  0
  144.3969  138.5748  152.6149 H   0  0  0  0  0  0  0  0  0  0  0  0
  1  2  1  0  0  0  0
  1 16  1  0  0  0  0
  1 17  1  0  0  0  0
  1 18  1  0  0  0  0
  2  3  1  0  0  0  0
  2 19  1  0  0  0  0
  2 20  1  0  0  0  0
  3  4  1  0  0  0  0
  3 21  1  0  0  0  0
  3 22  1  0  0  0  0
  4  5  1  0  0  0  0
  4 23  1  0  0  0  0
  5  6  2  0  0  0  0
  5  8  1  0  0  0  0
  6  7  1  0  0  0  0
  6 35  1  0  0  0  0
  7 24  1  0  0  0  0
  7 25  1  0  0  0  0
  7 26  1  0  0  0  0
  8  9  1  0  0  0  0
  8 27  1  0  0  0  0
  9 10  1  0  0  0  0
  9 28  1  0  0  0  0
  9 29  1  0  0  0  0
 10 11  1  0  0  0  0
 10 30  1  0  0  0  0
 10 31  1  0  0  0  0
 11 15  1  0  0  0  0
 11 12  1  0  0  0  0
 12 13  2  0  0  0  0
 12 32  1  0  0  0  0
 13 14  1  0  0  0  0
 13 33  1  0  0  0  0
 14 15  2  0  0  0  0
 14 34  1  0  0  0  0
M  CHG  1   6   1
M  END
> <s_m_source_file>
AV-unprocessed.smi

> <i_m_source_file_index>
3097

> <i_lp_mmshare_version>
43012

> <i_f3d_flags>
0

> <s_epik_input>
W0NIM11bQ0gyXVtDSDJdW05IXS9DKD1OXFtDSDNdKVtOSF1bQ0gyXVtDSDJdbjFbY0hdW2NIXVtjSF1uMQ==

> <s_epik_cmdline>
J2VwaWtfcHl0aG9uJywgJy1waCcsICc3LjAnLCAnLXRuJywgJzgnLCAnLW1hJywgJzIwMCcsICctbWV0YWxfYmluZGluZycsICctaW1hZScsICc8aW5maWxlLm1hZT4nLCAnLW9tYWUnLCAnPG91dGZpbGUubWFlPic=

> <r_lp_tautomer_probability>
1

> <r_epik_Ionization_Penalty>
4.40305e-05

> <r_epik_Ionization_Penalty_Charging>
1.64417e-07

> <r_epik_Ionization_Penalty_Neutral>
4.38661e-05

> <r_epik_State_Penalty>
-0

> <r_epik_Charging_Adjusted_Penalty>
1.64417e-07

> <i_epik_Tot_Q>
1

> <i_epik_Tot_abs_Q>
1

> <r_epik_Metal_State_Penalty>
-0

> <b_epik_Metal_Only>
0

> <s_epik_Chemistry_Notes>
This compound has an imine and may undergo hydrolysis.

> <s_lp_Force_Field>
OPLS_2005

> <r_lp_Energy>
7.72145

> <b_lp_Chiralities_Consistent>
1

> <s_lp_Variant>
AV-unprocessed.smi:3097-1

> <Gold.Version>
5.8.1

> <Gold.Id.Protein>
6NUR|6NUR_protein|mol2

> <Gold.PLP.Fitness>
38.9699

> <Gold.PLP.PLP>
-24.9561

> <Gold.PLP.part.hbond>
-3.0000

> <Gold.PLP.part.metal>
0.0000

> <Gold.PLP.part.buried>
-1.9955

> <Gold.PLP.part.nonpolar>
-21.0544

> <Gold.PLP.part.repulsive>
0.1842

> <Gold.PLP.ligand.clash>
0.0000

> <Gold.PLP.ligand.torsion>
0.4585

> <Gold.PLP.Chemscore.Hbond>
3.9840

> <Gold.PLP.Chemscore.CHOScore>
0.9860

> <Gold.PLP.Chemscore.Metal>
0.0000

> <Gold.Chemscore.Hbonds>
donor molecule, donor type, donor heavy atom, donor atom, acceptor molecule, acceptor atom, score
      L1  H     6    35       P1 10175  1.95
      L1  H     8    27       P1  7948  2.00
      L1  C    12    32       P1  7957  0.80

> <Gold.PLP.Chemscore.Internal.Correction>
0.0208

> <Gold.Rescore>
     Score         DG    S(hbond)    S(metal)    S(lipo)     H(rot)  DE(clash)    DE(int)     intcor
     12.92     -13.59       1.92        0.00      55.07       1.86       0.08       0.59       ----

> <Gold.Chemscore.Fitness>
12.9247

> <Gold.Chemscore.DG>
-13.5944

> <Gold.Chemscore.ZeroCoef>
-5.4800

> <Gold.Chemscore.Hbond>
1.9231

> <Gold.Chemscore.Metal>
0.0000

> <Gold.Chemscore.Lipo>
55.0689

> <Gold.Chemscore.Internal_Hbond>
0.0000

> <Gold.Chemscore.DEClash>
0.0781

> <Gold.Chemscore.DEInternal>
0.5916

> <Gold.Chemscore.Rot>
1.8561

> <Gold.Chemscore.Internal.Correction>
   9.000000E+99

> <Gold.Chemscore.Hbonds>
donor molecule, donor type, donor heavy atom, donor atom, acceptor molecule, acceptor atom, score
      L1  H     6    35       P1 10175  0.89
      L1  H     8    27       P1  7948  0.99

> <Gold.Chemscore.Hbond.Weighted>
-6.4231

> <Gold.Chemscore.Metal.Weighted>
-0.0000

> <Gold.Chemscore.Lipo.Weighted>
-6.4431

> <Gold.Chemscore.Internal_Hbond.Weighted>
0.0000

> <Gold.Chemscore.DEClash.Weighted>
0.0781

> <Gold.Chemscore.DEInternal.Weighted>
0.5916

> <Gold.Chemscore.Rot.Weighted>
4.7517

> <Gold.Chemscore.Internal.Correction.Weighted>
   9.000000E+99

> <Gold.Protein.RotatedTorsions>
[ 6907 6896 6895 6894 ] final  107.44 input  -60.11 | X-H torsion
[ 7974 7965 7964 7962 ] final -127.46 input  175.53 | X-H torsion
[ 8008 7997 7996 7995 ] final   -8.40 input   59.86 | X-H torsion
[ 10167 10162 10161 10158 ] final  144.72 input  -65.29 | X-H torsion
[ 10718 10713 10712 10709 ] final   79.46 input   66.30 | X-H torsion
[ 10763 10752 10751 10750 ] final  -10.07 input  -60.55 | X-H torsion
[ 11005 11000 10999 10996 ] final   -8.97 input  -57.11 | X-H torsion

> <Gold.Protein.ActiveResidues>
 VAL166  LYS551  ARG553  GLY616  TRP617  ASP618  TYR619  PRO620  LYS621  CYS622 
 ASP623  PHE694  ASN695  SER759  ASP760  ASP761  ALA762  ILE779  LEU786  VAL792 
 PHE793  MET794  SER795  GLU796  ALA797  LYS798  CYS799  TRP800  GLU811  SER814 

> <Gold.Protein.RotatedAtoms>
  152.5154  133.9234  159.7545 H   0  0  0  0  0  0  0  0  0  0  0  0  # atno 6907 bound_to 6896
  150.9601  133.6446  159.2763 H   0  0  0  0  0  0  0  0  0  0  0  0  # atno 6908 bound_to 6896
  151.3694  135.0925  159.9513 H   0  0  0  0  0  0  0  0  0  0  0  0  # atno 6909 bound_to 6896
  144.9769  140.7602  143.4636 H   0  0  0  0  0  0  0  0  0  0  0  0  # atno 7974 bound_to 7965
  154.5745  140.2382  155.8143 H   0  0  0  0  0  0  0  0  0  0  0  0  # atno 8008 bound_to 7997
  156.2132  140.3020  155.9738 H   0  0  0  0  0  0  0  0  0  0  0  0  # atno 8009 bound_to 7997
  155.2652  140.0416  157.2992 H   0  0  0  0  0  0  0  0  0  0  0  0  # atno 8010 bound_to 7997
  139.4941  144.5952  151.6598 H   0  0  0  0  0  0  0  0  0  0  0  0  # atno 10167 bound_to 10162
  157.6777  130.9915  150.1935 H   0  0  0  0  0  0  0  0  0  0  0  0  # atno 10718 bound_to 10713
  153.4638  135.7016  153.6034 H   0  0  0  0  0  0  0  0  0  0  0  0  # atno 10763 bound_to 10752
  153.4317  135.3801  155.2174 H   0  0  0  0  0  0  0  0  0  0  0  0  # atno 10764 bound_to 10752
  154.8727  135.3952  154.4067 H   0  0  0  0  0  0  0  0  0  0  0  0  # atno 10765 bound_to 10752
  140.7292  133.8763  155.8879 H   0  0  0  0  0  0  0  0  0  0  0  0  # atno 11005 bound_to 11000
  145.2477  139.2045  143.4959 LP  0  0  0  0  0  0  0  0  0  0  0  0  # atno 17320 bound_to 7965
  146.3398  140.2384  142.8595 LP  0  0  0  0  0  0  0  0  0  0  0  0  # atno 17321 bound_to 7965
  140.5588  144.0303  150.6160 LP  0  0  0  0  0  0  0  0  0  0  0  0  # atno 17342 bound_to 10162
  140.3382  143.3036  152.0616 LP  0  0  0  0  0  0  0  0  0  0  0  0  # atno 17343 bound_to 10162
  156.2641  130.3714  149.8099 LP  0  0  0  0  0  0  0  0  0  0  0  0  # atno 17370 bound_to 10713
  156.5835  130.8476  151.3389 LP  0  0  0  0  0  0  0  0  0  0  0  0  # atno 17371 bound_to 10713
  140.9936  134.1245  157.4385 LP  0  0  0  0  0  0  0  0  0  0  0  0  # atno 17394 bound_to 11000
  139.8830  135.0048  156.6271 LP  0  0  0  0  0  0  0  0  0  0  0  0  # atno 17395 bound_to 11000

$$$$
