AV-unprocessed.smi:703|AV-procd|sdf|3434|dock9
  -GOLD-   22720 0423D 1   1.00000     0.00000
 Structure written by MMmdl.
 37 38  0  0  0  0  0  0  0  0  3 V2000
  146.8601  139.2708  152.7541 C   0  0  0  0  0  0  0  0  0  0  0  0
  147.2141  138.6257  154.1008 C   0  0  0  0  0  0  0  0  0  0  0  0
  148.4561  137.8178  154.0279 N   0  3  1  0  0  0  0  0  0  0  0  0
  149.7122  138.5950  154.1566 C   0  0  0  0  0  0  0  0  0  0  0  0
  150.7005  137.6598  154.8607 C   0  0  1  0  0  0  0  0  0  0  0  0
  151.9358  138.3601  155.4657 C   0  0  0  0  0  0  0  0  0  0  0  0
  149.8026  136.8472  155.8118 C   0  0  1  0  0  0  0  0  0  0  0  0
  149.5135  137.5940  157.0311 N   0  5  0  0  0  0  0  0  0  0  0  0
  149.6690  136.8626  158.4685 S   0  0  0  0  0  0  0  0  0  0  0  0
  150.1092  135.4639  158.3401 O   0  0  0  0  0  0  0  0  0  0  0  0
  150.3757  137.6984  159.4526 O   0  0  0  0  0  0  0  0  0  0  0  0
  147.9083  136.8046  159.0112 C   0  0  0  0  0  0  0  0  0  0  0  0
  147.8210  136.3369  160.4369 C   0  0  0  0  0  0  0  0  0  0  0  0
  147.6368  135.0137  160.9260 C   0  0  0  0  0  0  0  0  0  0  0  0
  147.6387  135.1710  162.2817 C   0  0  0  0  0  0  0  0  0  0  0  0
  147.8183  136.4755  162.6085 O   0  0  0  0  0  0  0  0  0  0  0  0
  147.9375  137.2117  161.4242 N   0  0  0  0  0  0  0  0  0  0  0  0
  148.5077  136.6932  154.9980 C   0  0  0  0  0  0  0  0  0  0  0  0
  145.9106  139.8024  152.8203 H   0  0  0  0  0  0  0  0  0  0  0  0
  146.7653  138.5197  151.9695 H   0  0  0  0  0  0  0  0  0  0  0  0
  147.6162  139.9912  152.4412 H   0  0  0  0  0  0  0  0  0  0  0  0
  147.3122  139.3879  154.8754 H   0  0  0  0  0  0  0  0  0  0  0  0
  146.3924  137.9751  154.4026 H   0  0  0  0  0  0  0  0  0  0  0  0
  150.0756  138.9136  153.1789 H   0  0  0  0  0  0  0  0  0  0  0  0
  149.5452  139.4978  154.7505 H   0  0  0  0  0  0  0  0  0  0  0  0
  151.0705  136.9606  154.1087 H   0  0  0  0  0  0  0  0  0  0  0  0
  151.6661  139.1291  156.1916 H   0  0  0  0  0  0  0  0  0  0  0  0
  152.5154  138.8501  154.6831 H   0  0  0  0  0  0  0  0  0  0  0  0
  152.6002  137.6511  155.9626 H   0  0  0  0  0  0  0  0  0  0  0  0
  150.2430  135.8706  156.0156 H   0  0  0  0  0  0  0  0  0  0  0  0
  147.4834  137.8020  158.9008 H   0  0  0  0  0  0  0  0  0  0  0  0
  147.3677  136.1365  158.3403 H   0  0  0  0  0  0  0  0  0  0  0  0
  147.5151  134.0972  160.3679 H   0  0  0  0  0  0  0  0  0  0  0  0
  147.5308  134.4846  163.1083 H   0  0  0  0  0  0  0  0  0  0  0  0
  147.6188  136.6325  155.6292 H   0  0  0  0  0  0  0  0  0  0  0  0
  148.5452  135.7676  154.4226 H   0  0  0  0  0  0  0  0  0  0  0  0
  148.4742  137.3879  153.1144 H   0  0  0  0  0  0  0  0  0  0  0  0
  1  2  1  0  0  0  0
  1 19  1  0  0  0  0
  1 20  1  0  0  0  0
  1 21  1  0  0  0  0
  2  3  1  0  0  0  0
  2 22  1  0  0  0  0
  2 23  1  0  0  0  0
  3 18  1  0  0  0  0
  3  4  1  0  0  0  0
  3 37  1  0  0  0  0
  4  5  1  0  0  0  0
  4 24  1  0  0  0  0
  4 25  1  0  0  0  0
  5  6  1  0  0  0  0
  5  7  1  0  0  0  0
  5 26  1  0  0  0  0
  6 27  1  0  0  0  0
  6 28  1  0  0  0  0
  6 29  1  0  0  0  0
  7  8  1  0  0  0  0
  7 18  1  0  0  0  0
  7 30  1  0  0  0  0
  8  9  1  0  0  0  0
  9 10  2  0  0  0  0
  9 11  2  0  0  0  0
  9 12  1  0  0  0  0
 12 13  1  0  0  0  0
 12 31  1  0  0  0  0
 12 32  1  0  0  0  0
 13 17  2  0  0  0  0
 13 14  1  0  0  0  0
 14 15  2  0  0  0  0
 14 33  1  0  0  0  0
 15 16  1  0  0  0  0
 15 34  1  0  0  0  0
 16 17  1  0  0  0  0
 18 35  1  0  0  0  0
 18 36  1  0  0  0  0
M  CHG  1   3   1
M  CHG  1   8  -1
M  END
> <s_m_source_file>
AV-unprocessed.smi

> <i_m_source_file_index>
703

> <i_lp_mmshare_version>
43012

> <i_f3d_flags>
0

> <s_epik_input>
W0NIM11bQ0gyXU4xW0NIMl1bQ0BASF0oW0NIM10pW0NASF0oW0NIMl0xKVtOSF1TKD1PKSg9TylbQ0gyXWMyW2NIXVtjSF1vbjI=

> <s_epik_cmdline>
J2VwaWtfcHl0aG9uJywgJy1waCcsICc3LjAnLCAnLXRuJywgJzgnLCAnLW1hJywgJzIwMCcsICctbWV0YWxfYmluZGluZycsICctaW1hZScsICc8aW5maWxlLm1hZT4nLCAnLW9tYWUnLCAnPG91dGZpbGUubWFlPic=

> <r_epik_Ionization_Penalty>
3.62494

> <r_epik_Ionization_Penalty_Charging>
3.62494

> <r_epik_Ionization_Penalty_Neutral>
2.0321e-10

> <r_epik_State_Penalty>
3.62558

> <r_epik_Charging_Adjusted_Penalty>
7.25052

> <i_epik_Tot_Q>
0

> <i_epik_Tot_abs_Q>
2

> <r_epik_Metal_State_Penalty>
0.530836

> <b_epik_Metal_Only>
1

> <s_lp_Force_Field>
OPLS_2005

> <r_lp_Energy>
18.2255

> <b_lp_Chiralities_Consistent>
1

> <s_lp_Variant>
AV-unprocessed.smi:703-9

> <Gold.Version>
5.8.1

> <Gold.Id.Protein>
6NUR|6NUR_protein|mol2

> <Gold.PLP.Fitness>
40.3150

> <Gold.PLP.PLP>
-27.8413

> <Gold.PLP.part.hbond>
-5.0660

> <Gold.PLP.part.metal>
0.0000

> <Gold.PLP.part.buried>
-3.8666

> <Gold.PLP.part.nonpolar>
-18.7772

> <Gold.PLP.part.repulsive>
0.0000

> <Gold.PLP.ligand.clash>
0.0000

> <Gold.PLP.ligand.torsion>
1.3507

> <Gold.PLP.Chemscore.Hbond>
4.7100

> <Gold.PLP.Chemscore.CHOScore>
0.0000

> <Gold.PLP.Chemscore.Metal>
0.0000

> <Gold.Chemscore.Hbonds>
donor molecule, donor type, donor heavy atom, donor atom, acceptor molecule, acceptor atom, score
      L1  H     3    37       P1  7948  2.00
      P1  H  6896  6907       L1    10  0.93
      P1  H  6931  6943       L1    17  0.90
      P1  H  6934  6947       L1    17  0.69

> <Gold.PLP.Chemscore.Internal.Correction>
1.0450

> <Gold.Rescore>
     Score         DG    S(hbond)    S(metal)    S(lipo)     H(rot)  DE(clash)    DE(int)     intcor
     17.30     -18.68       3.08        0.00      60.67       1.63       0.09       1.29       ----

> <Gold.Chemscore.Fitness>
17.3005

> <Gold.Chemscore.DG>
-18.6806

> <Gold.Chemscore.ZeroCoef>
-5.4800

> <Gold.Chemscore.Hbond>
3.0794

> <Gold.Chemscore.Metal>
0.0000

> <Gold.Chemscore.Lipo>
60.6665

> <Gold.Chemscore.Internal_Hbond>
0.0000

> <Gold.Chemscore.DEClash>
0.0876

> <Gold.Chemscore.DEInternal>
1.2925

> <Gold.Chemscore.Rot>
1.6338

> <Gold.Chemscore.Internal.Correction>
   9.000000E+99

> <Gold.Chemscore.Hbonds>
donor molecule, donor type, donor heavy atom, donor atom, acceptor molecule, acceptor atom, score
      L1  H     3    37       P1  7948  0.99
      P1  H  6896  6907       L1    10  0.88
      P1  H  6931  6943       L1    17  0.17
      P1  H  6934  6947       L1    17  0.55

> <Gold.Chemscore.Hbond.Weighted>
-10.2852

> <Gold.Chemscore.Metal.Weighted>
-0.0000

> <Gold.Chemscore.Lipo.Weighted>
-7.0980

> <Gold.Chemscore.Internal_Hbond.Weighted>
0.0000

> <Gold.Chemscore.DEClash.Weighted>
0.0876

> <Gold.Chemscore.DEInternal.Weighted>
1.2925

> <Gold.Chemscore.Rot.Weighted>
4.1825

> <Gold.Chemscore.Internal.Correction.Weighted>
   9.000000E+99

> <Gold.Protein.RotatedTorsions>
[ 6907 6896 6895 6894 ] final  -65.78 input  -60.11 | X-H torsion
[ 7974 7965 7964 7962 ] final   55.83 input  175.53 | X-H torsion
[ 8008 7997 7996 7995 ] final   72.84 input   59.86 | X-H torsion
[ 10167 10162 10161 10158 ] final   91.34 input  -65.29 | X-H torsion
[ 10718 10713 10712 10709 ] final   71.23 input   66.30 | X-H torsion
[ 10763 10752 10751 10750 ] final  111.77 input  -60.55 | X-H torsion
[ 11005 11000 10999 10996 ] final  162.98 input  -57.11 | X-H torsion

> <Gold.Protein.ActiveResidues>
 VAL166  LYS551  ARG553  GLY616  TRP617  ASP618  TYR619  PRO620  LYS621  CYS622 
 ASP623  PHE694  ASN695  SER759  ASP760  ASP761  ALA762  ILE779  LEU786  VAL792 
 PHE793  MET794  SER795  GLU796  ALA797  LYS798  CYS799  TRP800  GLU811  SER814 

> <Gold.Protein.RotatedAtoms>
  150.7503  134.6112  159.6086 H   0  0  0  0  0  0  0  0  0  0  0  0  # atno 6907 bound_to 6896
  152.3446  134.7086  160.0263 H   0  0  0  0  0  0  0  0  0  0  0  0  # atno 6908 bound_to 6896
  151.7527  133.3292  159.3432 H   0  0  0  0  0  0  0  0  0  0  0  0  # atno 6909 bound_to 6896
  145.9462  139.3932  143.0333 H   0  0  0  0  0  0  0  0  0  0  0  0  # atno 7974 bound_to 7965
  155.7748  140.3483  155.5266 H   0  0  0  0  0  0  0  0  0  0  0  0  # atno 8008 bound_to 7997
  155.8787  140.0998  157.1521 H   0  0  0  0  0  0  0  0  0  0  0  0  # atno 8009 bound_to 7997
  154.4023  140.1326  156.4156 H   0  0  0  0  0  0  0  0  0  0  0  0  # atno 8010 bound_to 7997
  139.8384  144.6653  150.9313 H   0  0  0  0  0  0  0  0  0  0  0  0  # atno 10167 bound_to 10162
  157.6441  130.9517  150.0760 H   0  0  0  0  0  0  0  0  0  0  0  0  # atno 10718 bound_to 10713
  153.4682  135.3706  155.2376 H   0  0  0  0  0  0  0  0  0  0  0  0  # atno 10763 bound_to 10752
  154.8757  135.3925  154.3844 H   0  0  0  0  0  0  0  0  0  0  0  0  # atno 10764 bound_to 10752
  153.4428  135.7084  153.6223 H   0  0  0  0  0  0  0  0  0  0  0  0  # atno 10765 bound_to 10752
  140.2312  134.8122  157.3319 H   0  0  0  0  0  0  0  0  0  0  0  0  # atno 11005 bound_to 11000
  145.8233  140.9668  143.0887 LP  0  0  0  0  0  0  0  0  0  0  0  0  # atno 17320 bound_to 7965
  144.6787  140.0069  143.7484 LP  0  0  0  0  0  0  0  0  0  0  0  0  # atno 17321 bound_to 7965
  140.7800  143.3935  151.1269 LP  0  0  0  0  0  0  0  0  0  0  0  0  # atno 17342 bound_to 10162
  139.7584  143.8673  152.3094 LP  0  0  0  0  0  0  0  0  0  0  0  0  # atno 17343 bound_to 10162
  156.1750  130.3648  149.9113 LP  0  0  0  0  0  0  0  0  0  0  0  0  # atno 17370 bound_to 10713
  156.7079  130.8958  151.3606 LP  0  0  0  0  0  0  0  0  0  0  0  0  # atno 17371 bound_to 10713
  140.1748  134.4563  155.7808 LP  0  0  0  0  0  0  0  0  0  0  0  0  # atno 17394 bound_to 11000
  141.2217  133.6957  156.7769 LP  0  0  0  0  0  0  0  0  0  0  0  0  # atno 17395 bound_to 11000

$$$$
