AV-unprocessed.smi:3245|AV-procd|sdf|12409|dock10
  -GOLD-   2272018293D 1   1.00000     0.00000
 Structure written by MMmdl.
 34 35  0  0  0  0  0  0  0  0  2 V2000
  144.0455  137.0133  152.5766 C   0  0  0  0  0  0  0  0  0  0  0  0
  145.3469  136.3323  152.1063 C   0  0  1  0  0  0  0  0  0  0  0  0
  145.1662  135.5484  150.7897 C   0  0  0  0  0  0  0  0  0  0  0  0
  145.1713  134.1090  150.9802 N   0  0  0  0  0  0  0  0  0  0  0  0
  144.1111  133.2306  150.8988 C   0  0  0  0  0  0  0  0  0  0  0  0
  144.5997  131.9799  151.1474 C   0  0  0  0  0  0  0  0  0  0  0  0
  145.9888  132.1973  151.3669 C   0  0  0  0  0  0  0  0  0  0  0  0
  146.3286  133.4721  151.2628 N   0  0  0  0  0  0  0  0  0  0  0  0
  146.3880  137.3270  151.8792 N   0  0  0  0  0  0  0  0  0  0  0  0
  146.5351  138.2461  152.9996 C   0  0  0  0  0  0  0  0  0  0  0  0
  147.1160  139.5870  152.5159 C   0  0  0  0  0  0  0  0  0  0  0  0
  147.3563  140.5197  153.6245 N   0  0  0  0  0  0  0  0  0  0  0  0
  148.4935  141.2008  153.7966 C   0  0  0  0  0  0  0  0  0  0  0  0
  149.5019  141.1803  153.0903 O   0  0  0  0  0  0  0  0  0  0  0  0
  148.3423  142.0333  155.0482 C   0  0  0  0  0  0  0  0  0  0  0  0
  147.0073  141.6938  155.4854 N   0  5  0  0  0  0  0  0  0  0  0  0
  146.4843  140.8006  154.6126 C   0  0  0  0  0  0  0  0  0  0  0  0
  145.3678  140.2859  154.6713 O   0  0  0  0  0  0  0  0  0  0  0  0
  143.2535  136.2832  152.7428 H   0  0  0  0  0  0  0  0  0  0  0  0
  143.6855  137.7288  151.8367 H   0  0  0  0  0  0  0  0  0  0  0  0
  144.1782  137.5468  153.5170 H   0  0  0  0  0  0  0  0  0  0  0  0
  145.6863  135.6337  152.8726 H   0  0  0  0  0  0  0  0  0  0  0  0
  144.2256  135.8256  150.3107 H   0  0  0  0  0  0  0  0  0  0  0  0
  145.9604  135.8003  150.0850 H   0  0  0  0  0  0  0  0  0  0  0  0
  143.1087  133.5657  150.6763 H   0  0  0  0  0  0  0  0  0  0  0  0
  144.0491  131.0513  151.1682 H   0  0  0  0  0  0  0  0  0  0  0  0
  146.7552  131.4715  151.5957 H   0  0  0  0  0  0  0  0  0  0  0  0
  147.2711  136.8622  151.7227 H   0  0  0  0  0  0  0  0  0  0  0  0
  145.5832  138.4087  153.5038 H   0  0  0  0  0  0  0  0  0  0  0  0
  147.2139  137.8038  153.7296 H   0  0  0  0  0  0  0  0  0  0  0  0
  148.0635  139.4001  152.0080 H   0  0  0  0  0  0  0  0  0  0  0  0
  146.4685  140.0324  151.7587 H   0  0  0  0  0  0  0  0  0  0  0  0
  149.1137  141.7620  155.7697 H   0  0  0  0  0  0  0  0  0  0  0  0
  148.4613  143.0902  154.8078 H   0  0  0  0  0  0  0  0  0  0  0  0
  1  2  1  0  0  0  0
  1 19  1  0  0  0  0
  1 20  1  0  0  0  0
  1 21  1  0  0  0  0
  2  3  1  0  0  0  0
  2  9  1  0  0  0  0
  2 22  1  0  0  0  0
  3  4  1  0  0  0  0
  3 23  1  0  0  0  0
  3 24  1  0  0  0  0
  4  8  1  0  0  0  0
  4  5  1  0  0  0  0
  5  6  2  0  0  0  0
  5 25  1  0  0  0  0
  6  7  1  0  0  0  0
  6 26  1  0  0  0  0
  7  8  2  0  0  0  0
  7 27  1  0  0  0  0
  9 10  1  0  0  0  0
  9 28  1  0  0  0  0
 10 11  1  0  0  0  0
 10 29  1  0  0  0  0
 10 30  1  0  0  0  0
 11 12  1  0  0  0  0
 11 31  1  0  0  0  0
 11 32  1  0  0  0  0
 12 17  1  0  0  0  0
 12 13  1  0  0  0  0
 13 14  2  0  0  0  0
 13 15  1  0  0  0  0
 15 16  1  0  0  0  0
 15 33  1  0  0  0  0
 15 34  1  0  0  0  0
 16 17  1  0  0  0  0
 17 18  2  0  0  0  0
M  CHG  1  16  -1
M  END
> <s_m_source_file>
AV-unprocessed.smi

> <i_m_source_file_index>
3245

> <i_lp_mmshare_version>
43012

> <i_f3d_flags>
0

> <s_epik_input>
bjFbY0hdW2NIXVtjSF1uMVtDSDJdW0NAQEhdKFtDSDNdKVtOSF1bQ0gyXVtDSDJdTjJDKD1PKVtDSDJdW05IXUMyPU8=

> <s_epik_cmdline>
J2VwaWtfcHl0aG9uJywgJy1waCcsICc3LjAnLCAnLXRuJywgJzgnLCAnLW1hJywgJzIwMCcsICctbWV0YWxfYmluZGluZycsICctaW1hZScsICc8aW5maWxlLm1hZT4nLCAnLW9tYWUnLCAnPG91dGZpbGUubWFlPic=

> <r_lp_tautomer_probability>
1

> <r_epik_Ionization_Penalty>
8.62027

> <r_epik_Ionization_Penalty_Charging>
6.28132

> <r_epik_Ionization_Penalty_Neutral>
2.33895

> <r_epik_State_Penalty>
8.57043

> <r_epik_Charging_Adjusted_Penalty>
14.8517

> <i_epik_Tot_Q>
-1

> <i_epik_Tot_abs_Q>
1

> <r_epik_Metal_State_Penalty>
4.56785

> <b_epik_Metal_Only>
1

> <s_lp_Force_Field>
OPLS_2005

> <r_lp_Energy>
21.4513

> <b_lp_Chiralities_Consistent>
1

> <s_lp_Variant>
AV-unprocessed.smi:3245-8

> <Gold.Version>
5.8.1

> <Gold.Id.Protein>
6NUR|6NUR_protein|mol2

> <Gold.PLP.Fitness>
39.2744

> <Gold.PLP.PLP>
-28.7119

> <Gold.PLP.part.hbond>
-3.0000

> <Gold.PLP.part.metal>
0.0000

> <Gold.PLP.part.buried>
-4.2368

> <Gold.PLP.part.nonpolar>
-24.8829

> <Gold.PLP.part.repulsive>
3.5028

> <Gold.PLP.ligand.clash>
0.0000

> <Gold.PLP.ligand.torsion>
1.1446

> <Gold.PLP.Chemscore.Hbond>
2.2746

> <Gold.PLP.Chemscore.CHOScore>
2.0000

> <Gold.PLP.Chemscore.Metal>
0.0000

> <Gold.Chemscore.Hbonds>
donor molecule, donor type, donor heavy atom, donor atom, acceptor molecule, acceptor atom, score
      L1  H     9    28       P1  7948  1.00
      P1  H  7989  7998       L1    14  0.04
      P1  H  8011  8017       L1    14  0.86
      L1  C     5    25       P1 10186  1.00
      L1  C     7    27       P1 10747  0.68

> <Gold.PLP.Chemscore.Internal.Correction>
0.0281

> <Gold.Rescore>
     Score         DG    S(hbond)    S(metal)    S(lipo)     H(rot)  DE(clash)    DE(int)     intcor
      8.97     -13.51       2.29        0.00      59.64       2.58       1.71       2.83       ----

> <Gold.Chemscore.Fitness>
8.9692

> <Gold.Chemscore.DG>
-13.5051

> <Gold.Chemscore.ZeroCoef>
-5.4800

> <Gold.Chemscore.Hbond>
2.2919

> <Gold.Chemscore.Metal>
0.0000

> <Gold.Chemscore.Lipo>
59.6377

> <Gold.Chemscore.Internal_Hbond>
0.0000

> <Gold.Chemscore.DEClash>
1.7072

> <Gold.Chemscore.DEInternal>
2.8287

> <Gold.Chemscore.Rot>
2.5811

> <Gold.Chemscore.Internal.Correction>
   9.000000E+99

> <Gold.Chemscore.Hbonds>
donor molecule, donor type, donor heavy atom, donor atom, acceptor molecule, acceptor atom, score
      L1  H     9    28       P1  7948  1.00
      P1  H  7989  7998       L1    14  0.06
      P1  H  8011  8017       L1    14  0.79

> <Gold.Chemscore.Hbond.Weighted>
-7.6550

> <Gold.Chemscore.Metal.Weighted>
-0.0000

> <Gold.Chemscore.Lipo.Weighted>
-6.9776

> <Gold.Chemscore.Internal_Hbond.Weighted>
0.0000

> <Gold.Chemscore.DEClash.Weighted>
1.7072

> <Gold.Chemscore.DEInternal.Weighted>
2.8287

> <Gold.Chemscore.Rot.Weighted>
6.6076

> <Gold.Chemscore.Internal.Correction.Weighted>
   9.000000E+99

> <Gold.Protein.RotatedTorsions>
[ 6907 6896 6895 6894 ] final -132.72 input  -60.11 | X-H torsion
[ 7974 7965 7964 7962 ] final   13.57 input  175.53 | X-H torsion
[ 8008 7997 7996 7995 ] final  -13.50 input   59.86 | X-H torsion
[ 10167 10162 10161 10158 ] final -126.65 input  -65.29 | X-H torsion
[ 10718 10713 10712 10709 ] final    6.60 input   66.30 | X-H torsion
[ 10763 10752 10751 10750 ] final -178.25 input  -60.55 | X-H torsion
[ 11005 11000 10999 10996 ] final   28.13 input  -57.11 | X-H torsion

> <Gold.Protein.ActiveResidues>
 VAL166  LYS551  ARG553  GLY616  TRP617  ASP618  TYR619  PRO620  LYS621  CYS622 
 ASP623  PHE694  ASN695  SER759  ASP760  ASP761  ALA762  ILE779  LEU786  VAL792 
 PHE793  MET794  SER795  GLU796  ALA797  LYS798  CYS799  TRP800  GLU811  SER814 

> <Gold.Protein.RotatedAtoms>
  150.9656  133.6398  159.2746 H   0  0  0  0  0  0  0  0  0  0  0  0  # atno 6907 bound_to 6896
  151.3705  135.0920  159.9473 H   0  0  0  0  0  0  0  0  0  0  0  0  # atno 6908 bound_to 6896
  152.5164  133.9211  159.7589 H   0  0  0  0  0  0  0  0  0  0  0  0  # atno 6909 bound_to 6896
  146.2326  139.9169  142.8516 H   0  0  0  0  0  0  0  0  0  0  0  0  # atno 7974 bound_to 7965
  154.5287  140.2248  155.8843 H   0  0  0  0  0  0  0  0  0  0  0  0  # atno 8008 bound_to 7997
  156.1741  140.3115  155.8990 H   0  0  0  0  0  0  0  0  0  0  0  0  # atno 8009 bound_to 7997
  155.3497  140.0455  157.3036 H   0  0  0  0  0  0  0  0  0  0  0  0  # atno 8010 bound_to 7997
  139.9692  143.5865  152.2419 H   0  0  0  0  0  0  0  0  0  0  0  0  # atno 10167 bound_to 10162
  156.9246  130.5803  149.5648 H   0  0  0  0  0  0  0  0  0  0  0  0  # atno 10718 bound_to 10713
  154.5501  135.2812  155.1017 H   0  0  0  0  0  0  0  0  0  0  0  0  # atno 10763 bound_to 10752
  154.2466  135.6347  153.5229 H   0  0  0  0  0  0  0  0  0  0  0  0  # atno 10764 bound_to 10752
  153.0000  135.5572  154.6064 H   0  0  0  0  0  0  0  0  0  0  0  0  # atno 10765 bound_to 10752
  140.3188  134.2566  155.7720 H   0  0  0  0  0  0  0  0  0  0  0  0  # atno 11005 bound_to 11000
  145.2174  140.9921  143.4065 LP  0  0  0  0  0  0  0  0  0  0  0  0  # atno 17320 bound_to 7965
  144.9639  139.3951  143.6342 LP  0  0  0  0  0  0  0  0  0  0  0  0  # atno 17321 bound_to 7965
  139.6494  144.7660  151.2177 LP  0  0  0  0  0  0  0  0  0  0  0  0  # atno 17342 bound_to 10162
  140.7528  143.6185  150.8536 LP  0  0  0  0  0  0  0  0  0  0  0  0  # atno 17343 bound_to 10162
  156.0475  130.5549  150.8914 LP  0  0  0  0  0  0  0  0  0  0  0  0  # atno 17370 bound_to 10713
  157.5886  131.0945  150.9156 LP  0  0  0  0  0  0  0  0  0  0  0  0  # atno 17371 bound_to 10713
  141.2091  133.7758  157.0016 LP  0  0  0  0  0  0  0  0  0  0  0  0  # atno 17394 bound_to 11000
  140.0960  134.9564  157.1849 LP  0  0  0  0  0  0  0  0  0  0  0  0  # atno 17395 bound_to 11000

$$$$
