AV-unprocessed.smi:1941|AV-procd|sdf|7848|dock2
  -GOLD-   22720 9593D 1   1.00000     0.00000
 Structure written by MMmdl.
 40 41  0  0  0  0  0  0  0  0  1 V2000
  144.1196  132.7200  148.9518 C   0  0  0  0  0  0  0  0  0  0  0  0
  144.9673  133.5014  149.8961 C   0  0  0  0  0  0  0  0  0  0  0  0
  144.5869  134.6559  150.4490 N   0  0  0  0  0  0  0  0  0  0  0  0
  145.5606  135.1928  151.2973 C   0  0  0  0  0  0  0  0  0  0  0  0
  145.3049  136.4896  152.0024 C   0  0  0  0  0  0  0  0  0  0  0  0
  146.2034  137.6252  151.4855 C   0  0  0  0  0  0  0  0  0  0  0  0
  146.0284  138.8400  152.2725 N   0  0  0  0  0  0  0  0  0  0  0  0
  146.9161  139.3149  153.1565 C   0  0  0  0  0  0  0  0  0  0  0  0
  147.9807  138.7597  153.4287 O   0  0  0  0  0  0  0  0  0  0  0  0
  146.5022  140.4677  153.7013 N   0  0  0  0  0  0  0  0  0  0  0  0
  147.2284  141.2528  154.6976 C   0  0  1  0  0  0  0  0  0  0  0  0
  148.6334  141.5641  154.1616 C   0  0  0  0  0  0  0  0  0  0  0  0
  146.4421  142.5346  155.0351 C   0  0  1  0  0  0  0  0  0  0  0  0
  146.0170  143.3670  153.8227 C   0  0  0  0  0  0  0  0  0  0  0  0
  144.7717  144.0991  154.3008 C   0  0  0  0  0  0  0  0  0  0  0  0
  144.4047  143.3982  155.6113 C   0  0  0  0  0  0  0  0  0  0  0  0
  145.1938  142.2178  155.6305 O   0  0  0  0  0  0  0  0  0  0  0  0
  146.6920  134.4200  151.3806 C   0  0  0  0  0  0  0  0  0  0  0  0
  146.5753  132.9893  150.3937 S   0  0  0  0  0  0  0  0  0  0  0  0
  143.1957  133.2553  148.7301 H   0  0  0  0  0  0  0  0  0  0  0  0
  143.8681  131.7544  149.3907 H   0  0  0  0  0  0  0  0  0  0  0  0
  144.6582  132.5524  148.0191 H   0  0  0  0  0  0  0  0  0  0  0  0
  144.2571  136.7698  151.8857 H   0  0  0  0  0  0  0  0  0  0  0  0
  145.4607  136.3633  153.0745 H   0  0  0  0  0  0  0  0  0  0  0  0
  147.2515  137.3314  151.5494 H   0  0  0  0  0  0  0  0  0  0  0  0
  146.0007  137.8261  150.4318 H   0  0  0  0  0  0  0  0  0  0  0  0
  145.1796  139.3646  152.1191 H   0  0  0  0  0  0  0  0  0  0  0  0
  145.6104  140.8352  153.4034 H   0  0  0  0  0  0  0  0  0  0  0  0
  147.3469  140.6755  155.6162 H   0  0  0  0  0  0  0  0  0  0  0  0
  149.2169  142.1269  154.8908 H   0  0  0  0  0  0  0  0  0  0  0  0
  148.5890  142.1537  153.2452 H   0  0  0  0  0  0  0  0  0  0  0  0
  149.1814  140.6472  153.9424 H   0  0  0  0  0  0  0  0  0  0  0  0
  147.0125  143.1585  155.7266 H   0  0  0  0  0  0  0  0  0  0  0  0
  146.8020  144.0439  153.4845 H   0  0  0  0  0  0  0  0  0  0  0  0
  145.7574  142.7133  152.9886 H   0  0  0  0  0  0  0  0  0  0  0  0
  144.9644  145.1593  154.4689 H   0  0  0  0  0  0  0  0  0  0  0  0
  143.9714  144.0163  153.5646 H   0  0  0  0  0  0  0  0  0  0  0  0
  144.6708  144.0206  156.4670 H   0  0  0  0  0  0  0  0  0  0  0  0
  143.3425  143.1631  155.6782 H   0  0  0  0  0  0  0  0  0  0  0  0
  147.5840  134.6056  151.9605 H   0  0  0  0  0  0  0  0  0  0  0  0
  1  2  1  0  0  0  0
  1 20  1  0  0  0  0
  1 21  1  0  0  0  0
  1 22  1  0  0  0  0
  2 19  1  0  0  0  0
  2  3  2  0  0  0  0
  3  4  1  0  0  0  0
  4  5  1  0  0  0  0
  4 18  2  0  0  0  0
  5  6  1  0  0  0  0
  5 23  1  0  0  0  0
  5 24  1  0  0  0  0
  6  7  1  0  0  0  0
  6 25  1  0  0  0  0
  6 26  1  0  0  0  0
  7  8  1  0  0  0  0
  7 27  1  0  0  0  0
  8  9  2  0  0  0  0
  8 10  1  0  0  0  0
 10 11  1  0  0  0  0
 10 28  1  0  0  0  0
 11 12  1  0  0  0  0
 11 13  1  0  0  0  0
 11 29  1  0  0  0  0
 12 30  1  0  0  0  0
 12 31  1  0  0  0  0
 12 32  1  0  0  0  0
 13 17  1  0  0  0  0
 13 14  1  0  0  0  0
 13 33  1  0  0  0  0
 14 15  1  0  0  0  0
 14 34  1  0  0  0  0
 14 35  1  0  0  0  0
 15 16  1  0  0  0  0
 15 36  1  0  0  0  0
 15 37  1  0  0  0  0
 16 17  1  0  0  0  0
 16 38  1  0  0  0  0
 16 39  1  0  0  0  0
 18 19  1  0  0  0  0
 18 40  1  0  0  0  0
M  END
> <s_m_source_file>
AV-unprocessed.smi

> <i_m_source_file_index>
1941

> <i_lp_mmshare_version>
43012

> <i_f3d_flags>
0

> <s_epik_input>
W0NIM11jMW5jKFtjSF1zMSlbQ0gyXVtDSDJdW05IXUMoPU8pW05IXVtDQEhdKFtDSDNdKVtDQEBIXTJbQ0gyXVtDSDJdW0NIMl1PMg==

> <s_epik_cmdline>
J2VwaWtfcHl0aG9uJywgJy1waCcsICc3LjAnLCAnLXRuJywgJzgnLCAnLW1hJywgJzIwMCcsICctbWV0YWxfYmluZGluZycsICctaW1hZScsICc8aW5maWxlLm1hZT4nLCAnLW9tYWUnLCAnPG91dGZpbGUubWFlPic=

> <r_epik_Ionization_Penalty>
0.00195486

> <r_epik_Ionization_Penalty_Charging>
0

> <r_epik_Ionization_Penalty_Neutral>
0.00195486

> <r_epik_State_Penalty>
0.00129472

> <r_epik_Charging_Adjusted_Penalty>
0.00129472

> <i_epik_Tot_Q>
0

> <i_epik_Tot_abs_Q>
0

> <r_epik_Metal_State_Penalty>
-0

> <b_epik_Metal_Only>
0

> <s_lp_Force_Field>
OPLS_2005

> <r_lp_Energy>
10.4384

> <b_lp_Chiralities_Consistent>
1

> <s_lp_Variant>
AV-unprocessed.smi:1941-4

> <Gold.Version>
5.8.1

> <Gold.Id.Protein>
6NUR|6NUR_protein|mol2

> <Gold.PLP.Fitness>
45.9121

> <Gold.PLP.PLP>
-37.3561

> <Gold.PLP.part.hbond>
-2.7201

> <Gold.PLP.part.metal>
0.0000

> <Gold.PLP.part.buried>
-1.7537

> <Gold.PLP.part.nonpolar>
-34.5258

> <Gold.PLP.part.repulsive>
1.1130

> <Gold.PLP.ligand.clash>
0.0000

> <Gold.PLP.ligand.torsion>
0.2191

> <Gold.PLP.Chemscore.Hbond>
1.9760

> <Gold.PLP.Chemscore.CHOScore>
0.9946

> <Gold.PLP.Chemscore.Metal>
0.0000

> <Gold.Chemscore.Hbonds>
donor molecule, donor type, donor heavy atom, donor atom, acceptor molecule, acceptor atom, score
      L1  H     7    27       P1 10175  1.00
      L1  H    10    28       P1 10175  0.65
      L1  C    18    40       P1  7948  0.99

> <Gold.PLP.Chemscore.Internal.Correction>
0.0823

> <Gold.Rescore>
     Score         DG    S(hbond)    S(metal)    S(lipo)     H(rot)  DE(clash)    DE(int)     intcor
     16.16     -16.44       1.85        0.00      77.84       1.69       0.10       0.18       ----

> <Gold.Chemscore.Fitness>
16.1574

> <Gold.Chemscore.DG>
-16.4361

> <Gold.Chemscore.ZeroCoef>
-5.4800

> <Gold.Chemscore.Hbond>
1.8505

> <Gold.Chemscore.Metal>
0.0000

> <Gold.Chemscore.Lipo>
77.8443

> <Gold.Chemscore.Internal_Hbond>
0.0000

> <Gold.Chemscore.DEClash>
0.1033

> <Gold.Chemscore.DEInternal>
0.1754

> <Gold.Chemscore.Rot>
1.6923

> <Gold.Chemscore.Internal.Correction>
   9.000000E+99

> <Gold.Chemscore.Hbonds>
donor molecule, donor type, donor heavy atom, donor atom, acceptor molecule, acceptor atom, score
      L1  H     7    27       P1 10175  0.99
      L1  H    10    28       P1 10175  0.46

> <Gold.Chemscore.Hbond.Weighted>
-6.1806

> <Gold.Chemscore.Metal.Weighted>
-0.0000

> <Gold.Chemscore.Lipo.Weighted>
-9.1078

> <Gold.Chemscore.Internal_Hbond.Weighted>
0.0000

> <Gold.Chemscore.DEClash.Weighted>
0.1033

> <Gold.Chemscore.DEInternal.Weighted>
0.1754

> <Gold.Chemscore.Rot.Weighted>
4.3323

> <Gold.Chemscore.Internal.Correction.Weighted>
   9.000000E+99

> <Gold.Protein.RotatedTorsions>
[ 6907 6896 6895 6894 ] final  169.06 input  -60.11 | X-H torsion
[ 7974 7965 7964 7962 ] final   88.35 input  175.53 | X-H torsion
[ 8008 7997 7996 7995 ] final -137.82 input   59.86 | X-H torsion
[ 10167 10162 10161 10158 ] final  -97.68 input  -65.29 | X-H torsion
[ 10718 10713 10712 10709 ] final  -45.34 input   66.30 | X-H torsion
[ 10763 10752 10751 10750 ] final   38.68 input  -60.55 | X-H torsion
[ 11005 11000 10999 10996 ] final -137.35 input  -57.11 | X-H torsion

> <Gold.Protein.ActiveResidues>
 VAL166  LYS551  ARG553  GLY616  TRP617  ASP618  TYR619  PRO620  LYS621  CYS622 
 ASP623  PHE694  ASN695  SER759  ASP760  ASP761  ALA762  ILE779  LEU786  VAL792 
 PHE793  MET794  SER795  GLU796  ALA797  LYS798  CYS799  TRP800  GLU811  SER814 

> <Gold.Protein.RotatedAtoms>
  151.8379  133.3419  159.3633 H   0  0  0  0  0  0  0  0  0  0  0  0  # atno 6907 bound_to 6896
  150.7244  134.5419  159.5761 H   0  0  0  0  0  0  0  0  0  0  0  0  # atno 6908 bound_to 6896
  152.2887  134.7747  160.0433 H   0  0  0  0  0  0  0  0  0  0  0  0  # atno 6909 bound_to 6896
  145.5468  139.2292  143.2535 H   0  0  0  0  0  0  0  0  0  0  0  0  # atno 7974 bound_to 7965
  155.4182  140.0517  157.3027 H   0  0  0  0  0  0  0  0  0  0  0  0  # atno 8008 bound_to 7997
  154.4915  140.2122  155.9498 H   0  0  0  0  0  0  0  0  0  0  0  0  # atno 8009 bound_to 7997
  156.1348  140.3165  155.8409 H   0  0  0  0  0  0  0  0  0  0  0  0  # atno 8010 bound_to 7997
  140.2809  143.3283  152.0442 H   0  0  0  0  0  0  0  0  0  0  0  0  # atno 10167 bound_to 10162
  156.2293  130.4171  149.8895 H   0  0  0  0  0  0  0  0  0  0  0  0  # atno 10718 bound_to 10713
  152.9992  135.6242  154.2344 H   0  0  0  0  0  0  0  0  0  0  0  0  # atno 10763 bound_to 10752
  154.2086  135.2801  155.2968 H   0  0  0  0  0  0  0  0  0  0  0  0  # atno 10764 bound_to 10752
  154.5625  135.5701  153.7079 H   0  0  0  0  0  0  0  0  0  0  0  0  # atno 10765 bound_to 10752
  140.8719  134.2040  157.4645 H   0  0  0  0  0  0  0  0  0  0  0  0  # atno 11005 bound_to 11000
  146.1944  140.6290  142.9131 LP  0  0  0  0  0  0  0  0  0  0  0  0  # atno 17320 bound_to 7965
  144.7549  140.5283  143.6776 LP  0  0  0  0  0  0  0  0  0  0  0  0  # atno 17321 bound_to 7965
  139.4963  144.6592  151.6503 LP  0  0  0  0  0  0  0  0  0  0  0  0  # atno 17342 bound_to 10162
  140.5813  143.9942  150.6270 LP  0  0  0  0  0  0  0  0  0  0  0  0  # atno 17343 bound_to 10162
  156.6514  130.8745  151.3532 LP  0  0  0  0  0  0  0  0  0  0  0  0  # atno 17370 bound_to 10713
  157.7125  130.9458  150.1140 LP  0  0  0  0  0  0  0  0  0  0  0  0  # atno 17371 bound_to 10713
  139.8713  134.9778  156.4973 LP  0  0  0  0  0  0  0  0  0  0  0  0  # atno 17394 bound_to 11000
  140.8563  133.8094  155.9219 LP  0  0  0  0  0  0  0  0  0  0  0  0  # atno 17395 bound_to 11000

$$$$
