#       Name:                AV-unprocessed.smi:2077
#       Creating user name   scv26
#       Creation time:       Fri Mar 27 11:16:06 2020


#       File generated by GOLD software.
#

@<TRIPOS>MOLECULE
AV-unprocessed.smi:2077
    45    47     1
SMALL
NO_CHARGES


@<TRIPOS>ATOM
      1 ****        -2.3678   3.7598  -0.4814 C.3            1 S1                 0.0000
      2 ****        -2.4782   2.2904  -0.5472 N.am           1 S1                 0.0000
      3 ****        -1.3239   1.5519  -0.5567 C.2            1 S1                 0.0000
      4 ****        -0.1874   2.0244  -0.5137 O.2            1 S1                 0.0000
      5 ****        -1.5461   0.1027  -0.6212 C.2            1 S1                 0.0000
      6 ****        -2.7818  -0.4538  -0.6637 C.2            1 S1                 0.0000
      7 ****        -2.7086  -1.8416  -0.7133 N.2            1 S1                 0.0000
      8 ****        -1.3924  -2.0532  -0.6961 C.2            1 S1                 0.0000
      9 ****        -0.6258  -0.9457  -0.6403 N.pl3          1 S1                 0.0000
     10 ****         0.8289  -0.9138  -0.6056 C.3            1 S1                 0.0000
     11 ****         1.3960  -1.0688   0.8208 C.3            1 S1                 0.0000
     12 ****         0.8652  -0.0746   1.6757 O.3            1 S1                 0.0000
     13 ****         2.9162  -1.0590   0.8141 C.ar           1 S1                 0.0000
     14 ****         3.6340  -2.2598   1.0016 C.ar           1 S1                 0.0000
     15 ****         5.0426  -2.2528   0.9928 C.ar           1 S1                 0.0000
     16 ****         5.7408  -1.0463   0.7939 C.ar           1 S1                 0.0000
     17 ****         5.0299   0.1540   0.6027 C.ar           1 S1                 0.0000
     18 ****         5.7002   1.3145   0.4093 F              1 S1                 0.0000
     19 ****         3.6217   0.1478   0.6120 C.ar           1 S1                 0.0000
     20 ****        -3.9109   0.4055  -0.6476 N.am           1 S1                 0.0000
     21 ****        -5.2540  -0.1797  -0.6892 C.3            1 S1                 0.0000
     22 ****        -3.7595   1.7683  -0.5858 C.2            1 S1                 0.0000
     23 ****        -4.7500   2.5046  -0.5640 O.2            1 S1                 0.0000
     24 ****        -1.3480   4.1452  -0.5074 H              1 S1                 0.0000
     25 ****        -2.8195   4.1312   0.4398 H              1 S1                 0.0000
     26 ****        -2.8904   4.2218  -1.3207 H              1 S1                 0.0000
     27 ****        -0.9712  -3.0475  -0.7224 H              1 S1                 0.0000
     28 ****         1.1971  -1.7256  -1.2345 H              1 S1                 0.0000
     29 ****         1.1823   0.0044  -1.0727 H              1 S1                 0.0000
     30 ****         1.0618  -2.0269   1.2216 H              1 S1                 0.0000
     31 ****         1.1581  -0.2493   2.5571 H              1 S1                 0.0000
     32 ****         3.1082  -3.1912   1.1532 H              1 S1                 0.0000
     33 ****         5.5876  -3.1739   1.1383 H              1 S1                 0.0000
     34 ****         6.8209  -1.0415   0.7870 H              1 S1                 0.0000
     35 ****         3.0834   1.0724   0.4619 H              1 S1                 0.0000
     36 ****        -5.8103   0.1948  -1.5498 H              1 S1                 0.0000
     37 ****        -5.8099   0.0775   0.2135 H              1 S1                 0.0000
     38 ****        -5.2395  -1.2667  -0.7627 H              1 S1                 0.0000
     39 ****        -0.0592   3.0151  -0.4679 LP             1 S1                 0.0000
     40 ****         0.6072   1.4174  -0.5245 LP             1 S1                 0.0000
     41 ****        -3.4521  -2.5092  -0.7519 LP             1 S1                 0.0000
     42 ****        -0.1339  -0.0985   1.6413 LP             1 S1                 0.0000
     43 ****         1.1872   0.8266   1.3857 LP             1 S1                 0.0000
     44 ****        -4.6345   3.4968  -0.5177 LP             1 S1                 0.0000
     45 ****        -5.6679   2.1089  -0.5926 LP             1 S1                 0.0000
@<TRIPOS>BOND
    1    1    2 1     
    2    1   24 1     
    3    1   25 1     
    4    1   26 1     
    5    2   22 am    
    6    2    3 am    
    7    3    4 2     
    8    3    5 1     
    9    5    9 1     
   10    5    6 2     
   11    6    7 1     
   12    6   20 1     
   13    7    8 2     
   14    8    9 1     
   15    8   27 1     
   16    9   10 1     
   17   10   11 1     
   18   10   28 1     
   19   10   29 1     
   20   11   12 1     
   21   11   13 1     
   22   11   30 1     
   23   12   31 1     
   24   13   19 ar    
   25   13   14 ar    
   26   14   15 ar    
   27   14   32 1     
   28   15   16 ar    
   29   15   33 1     
   30   16   17 ar    
   31   16   34 1     
   32   17   18 1     
   33   17   19 ar    
   34   19   35 1     
   35   20   21 1     
   36   20   22 am    
   37   21   36 1     
   38   21   37 1     
   39   21   38 1     
   40   22   23 2     
   41    4   39 1     
   42    4   40 1     
   43    7   41 1     
   44   12   42 1     
   45   12   43 1     
   46   23   44 1     
   47   23   45 1     
@<TRIPOS>SUBSTRUCTURE
      1 S1             1
@<TRIPOS>SET
LONE_PAIRS      STATIC     ATOMS    <user>   **** ""
7 39 40 41 42 43 44 45
DONOR_HYDROGENS      STATIC     ATOMS    <user>   **** ""
1 31
ATOM$BLUE        STATIC     ATOMS    COLORGROUP SYSTEM
7 39 40 41 42 43 44 45
ATOM$RED        STATIC     ATOMS    COLORGROUP SYSTEM
1 31
