AV-unprocessed.smi:3141|AV-procd|sdf|11963|dock1
  -GOLD-   2272017363D 1   1.00000     0.00000
 Structure written by MMmdl.
 36 38  0  0  0  0  0  0  0  0  2 V2000
  147.1889  142.1814  159.6540 O   0  0  0  0  0  0  0  0  0  0  0  0
  147.6225  143.0317  158.8762 C   0  0  0  0  0  0  0  0  0  0  0  0
  147.1688  144.2895  158.8044 N   0  0  0  0  0  0  0  0  0  0  0  0
  146.1298  144.8400  159.6131 C   0  0  0  0  0  0  0  0  0  0  0  0
  146.4520  146.0725  160.4296 C   0  0  0  0  0  0  0  0  0  0  0  0
  146.2855  144.7447  161.1152 C   0  0  0  0  0  0  0  0  0  0  0  0
  148.6244  142.8151  158.0116 N   0  0  0  0  0  0  0  0  0  0  0  0
  149.3375  141.5478  157.8349 C   0  0  1  0  0  0  0  0  0  0  0  0
  148.7789  140.8053  156.6028 C   0  0  0  0  0  0  0  0  0  0  0  0
  149.8843  140.8083  155.5345 C   0  0  0  0  0  0  0  0  0  0  0  0
  150.9128  141.8368  156.0035 C   0  0  0  0  0  0  0  0  0  0  0  0
  150.8409  141.7332  157.5291 C   0  0  1  0  0  0  0  0  0  0  0  0
  151.5141  142.8165  158.2694 N   0  0  0  0  0  0  0  0  0  0  0  0
  151.2935  144.1715  158.2039 C   0  0  0  0  0  0  0  0  0  0  0  0
  152.1345  144.7517  159.1179 C   0  0  0  0  0  0  0  0  0  0  0  0
  152.8265  143.7310  159.7104 N   0  3  0  0  0  0  0  0  0  0  0  0
  152.4459  142.5573  159.1970 C   0  0  0  0  0  0  0  0  0  0  0  0
  147.5926  144.9097  158.1297 H   0  0  0  0  0  0  0  0  0  0  0  0
  145.1113  144.7719  159.2336 H   0  0  0  0  0  0  0  0  0  0  0  0
  147.4591  146.4799  160.3626 H   0  0  0  0  0  0  0  0  0  0  0  0
  145.6607  146.8080  160.5598 H   0  0  0  0  0  0  0  0  0  0  0  0
  145.3831  144.5936  161.7041 H   0  0  0  0  0  0  0  0  0  0  0  0
  147.1816  144.2664  161.5059 H   0  0  0  0  0  0  0  0  0  0  0  0
  148.9093  143.5803  157.4176 H   0  0  0  0  0  0  0  0  0  0  0  0
  149.2098  140.9304  158.7262 H   0  0  0  0  0  0  0  0  0  0  0  0
  148.5062  139.7802  156.8572 H   0  0  0  0  0  0  0  0  0  0  0  0
  147.8753  141.2831  156.2199 H   0  0  0  0  0  0  0  0  0  0  0  0
  150.3495  139.8226  155.4898 H   0  0  0  0  0  0  0  0  0  0  0  0
  149.4999  141.0334  154.5392 H   0  0  0  0  0  0  0  0  0  0  0  0
  151.9113  141.6389  155.6128 H   0  0  0  0  0  0  0  0  0  0  0  0
  150.6056  142.8254  155.6617 H   0  0  0  0  0  0  0  0  0  0  0  0
  151.3511  140.8088  157.8076 H   0  0  0  0  0  0  0  0  0  0  0  0
  150.5715  144.6183  157.5367 H   0  0  0  0  0  0  0  0  0  0  0  0
  152.2832  145.7868  159.3890 H   0  0  0  0  0  0  0  0  0  0  0  0
  152.8113  141.5874  159.4842 H   0  0  0  0  0  0  0  0  0  0  0  0
  153.5197  143.8438  160.4394 H   0  0  0  0  0  0  0  0  0  0  0  0
  1  2  2  0  0  0  0
  2  3  1  0  0  0  0
  2  7  1  0  0  0  0
  3  4  1  0  0  0  0
  3 18  1  0  0  0  0
  4  6  1  0  0  0  0
  4  5  1  0  0  0  0
  4 19  1  0  0  0  0
  5  6  1  0  0  0  0
  5 20  1  0  0  0  0
  5 21  1  0  0  0  0
  6 22  1  0  0  0  0
  6 23  1  0  0  0  0
  7  8  1  0  0  0  0
  7 24  1  0  0  0  0
  8 12  1  0  0  0  0
  8  9  1  0  0  0  0
  8 25  1  0  0  0  0
  9 10  1  0  0  0  0
  9 26  1  0  0  0  0
  9 27  1  0  0  0  0
 10 11  1  0  0  0  0
 10 28  1  0  0  0  0
 10 29  1  0  0  0  0
 11 12  1  0  0  0  0
 11 30  1  0  0  0  0
 11 31  1  0  0  0  0
 12 13  1  0  0  0  0
 12 32  1  0  0  0  0
 13 17  1  0  0  0  0
 13 14  1  0  0  0  0
 14 15  2  0  0  0  0
 14 33  1  0  0  0  0
 15 16  1  0  0  0  0
 15 34  1  0  0  0  0
 16 17  2  0  0  0  0
 16 36  1  0  0  0  0
 17 35  1  0  0  0  0
M  CHG  1  16   1
M  END
> <s_m_source_file>
AV-unprocessed.smi

> <i_m_source_file_index>
3141

> <i_lp_mmshare_version>
43012

> <i_f3d_flags>
0

> <s_epik_input>
W0NIMl0xW0NIMl1bQ0hdMVtOSF1DKD1PKVtOSF1bQ0BASF0yW0NIMl1bQ0gyXVtDSDJdW0NASF0ybjNbY0hdW2NIXW5bY0hdMw==

> <s_epik_cmdline>
J2VwaWtfcHl0aG9uJywgJy1waCcsICc3LjAnLCAnLXRuJywgJzgnLCAnLW1hJywgJzIwMCcsICctbWV0YWxfYmluZGluZycsICctaW1hZScsICc8aW5maWxlLm1hZT4nLCAnLW9tYWUnLCAnPG91dGZpbGUubWFlPic=

> <r_lp_tautomer_probability>
1

> <r_epik_Ionization_Penalty>
0.205063

> <r_epik_Ionization_Penalty_Charging>
0

> <r_epik_Ionization_Penalty_Neutral>
0.205063

> <r_epik_State_Penalty>
0.194948

> <r_epik_Charging_Adjusted_Penalty>
0.194948

> <i_epik_Tot_Q>
1

> <i_epik_Tot_abs_Q>
1

> <r_epik_Metal_State_Penalty>
0.500882

> <b_epik_Metal_Only>
0

> <s_lp_Force_Field>
OPLS_2005

> <r_lp_Energy>
36.92

> <b_lp_Chiralities_Consistent>
1

> <s_lp_Variant>
AV-unprocessed.smi:3141-2

> <Gold.Version>
5.8.1

> <Gold.Id.Protein>
6NUR|6NUR_protein|mol2

> <Gold.PLP.Fitness>
40.6501

> <Gold.PLP.PLP>
-31.0728

> <Gold.PLP.part.hbond>
-3.5421

> <Gold.PLP.part.metal>
0.0000

> <Gold.PLP.part.buried>
-2.6644

> <Gold.PLP.part.nonpolar>
-25.8534

> <Gold.PLP.part.repulsive>
0.1799

> <Gold.PLP.ligand.clash>
0.0000

> <Gold.PLP.ligand.torsion>
0.3911

> <Gold.PLP.Chemscore.Hbond>
2.4318

> <Gold.PLP.Chemscore.CHOScore>
1.0000

> <Gold.PLP.Chemscore.Metal>
0.0000

> <Gold.Chemscore.Hbonds>
donor molecule, donor type, donor heavy atom, donor atom, acceptor molecule, acceptor atom, score
      L1  H     3    18       P1  8029  0.59
      L1  H     7    24       P1  8028  0.85
      P1  H  6933  6944       L1     1  0.26
      P1  H  6934  6946       L1     1  0.70
      L1  C    14    33       P1  8028  1.00

> <Gold.PLP.Chemscore.Internal.Correction>
0.0642

> <Gold.Rescore>
     Score         DG    S(hbond)    S(metal)    S(lipo)     H(rot)  DE(clash)    DE(int)     intcor
     14.30     -15.75       2.14        0.00      62.03       1.61       0.16       1.30       ----

> <Gold.Chemscore.Fitness>
14.2972

> <Gold.Chemscore.DG>
-15.7540

> <Gold.Chemscore.ZeroCoef>
-5.4800

> <Gold.Chemscore.Hbond>
2.1361

> <Gold.Chemscore.Metal>
0.0000

> <Gold.Chemscore.Lipo>
62.0340

> <Gold.Chemscore.Internal_Hbond>
0.0000

> <Gold.Chemscore.DEClash>
0.1568

> <Gold.Chemscore.DEInternal>
1.3000

> <Gold.Chemscore.Rot>
1.6088

> <Gold.Chemscore.Internal.Correction>
   9.000000E+99

> <Gold.Chemscore.Hbonds>
donor molecule, donor type, donor heavy atom, donor atom, acceptor molecule, acceptor atom, score
      L1  H     3    18       P1  8029  0.54
      L1  H     7    24       P1  8028  0.18
      P1  H  6933  6944       L1     1  0.13
      P1  H  6934  6946       L1     1  0.70

> <Gold.Chemscore.Hbond.Weighted>
-7.1347

> <Gold.Chemscore.Metal.Weighted>
-0.0000

> <Gold.Chemscore.Lipo.Weighted>
-7.2580

> <Gold.Chemscore.Internal_Hbond.Weighted>
0.0000

> <Gold.Chemscore.DEClash.Weighted>
0.1568

> <Gold.Chemscore.DEInternal.Weighted>
1.3000

> <Gold.Chemscore.Rot.Weighted>
4.1186

> <Gold.Chemscore.Internal.Correction.Weighted>
   9.000000E+99

> <Gold.Protein.RotatedTorsions>
[ 6907 6896 6895 6894 ] final    4.25 input  -60.11 | X-H torsion
[ 7974 7965 7964 7962 ] final   62.10 input  175.53 | X-H torsion
[ 8008 7997 7996 7995 ] final   20.67 input   59.86 | X-H torsion
[ 10167 10162 10161 10158 ] final   32.73 input  -65.29 | X-H torsion
[ 10718 10713 10712 10709 ] final  -49.71 input   66.30 | X-H torsion
[ 10763 10752 10751 10750 ] final -107.61 input  -60.55 | X-H torsion
[ 11005 11000 10999 10996 ] final -131.07 input  -57.11 | X-H torsion

> <Gold.Protein.ActiveResidues>
 VAL166  LYS551  ARG553  GLY616  TRP617  ASP618  TYR619  PRO620  LYS621  CYS622 
 ASP623  PHE694  ASN695  SER759  ASP760  ASP761  ALA762  ILE779  LEU786  VAL792 
 PHE793  MET794  SER795  GLU796  ALA797  LYS798  CYS799  TRP800  GLU811  SER814 

> <Gold.Protein.RotatedAtoms>
  151.6383  135.1015  160.0135 H   0  0  0  0  0  0  0  0  0  0  0  0  # atno 6907 bound_to 6896
  152.4068  133.6897  159.6372 H   0  0  0  0  0  0  0  0  0  0  0  0  # atno 6908 bound_to 6896
  150.7962  133.8611  159.3273 H   0  0  0  0  0  0  0  0  0  0  0  0  # atno 6909 bound_to 6896
  145.8772  139.3418  143.0727 H   0  0  0  0  0  0  0  0  0  0  0  0  # atno 7974 bound_to 7965
  154.9390  140.3050  155.5130 H   0  0  0  0  0  0  0  0  0  0  0  0  # atno 8008 bound_to 7997
  156.2997  140.2340  156.4395 H   0  0  0  0  0  0  0  0  0  0  0  0  # atno 8009 bound_to 7997
  154.8164  140.0426  157.1368 H   0  0  0  0  0  0  0  0  0  0  0  0  # atno 8010 bound_to 7997
  140.4472  144.1102  150.6184 H   0  0  0  0  0  0  0  0  0  0  0  0  # atno 10167 bound_to 10162
  156.1868  130.4151  149.9428 H   0  0  0  0  0  0  0  0  0  0  0  0  # atno 10718 bound_to 10713
  154.8085  135.4668  154.0455 H   0  0  0  0  0  0  0  0  0  0  0  0  # atno 10763 bound_to 10752
  153.1905  135.6854  153.8366 H   0  0  0  0  0  0  0  0  0  0  0  0  # atno 10764 bound_to 10752
  153.7885  135.3246  155.3353 H   0  0  0  0  0  0  0  0  0  0  0  0  # atno 10765 bound_to 10752
  140.9291  134.1344  157.4250 H   0  0  0  0  0  0  0  0  0  0  0  0  # atno 11005 bound_to 11000
  145.9066  140.9207  143.0475 LP  0  0  0  0  0  0  0  0  0  0  0  0  # atno 17320 bound_to 7965
  144.6726  140.1104  143.7455 LP  0  0  0  0  0  0  0  0  0  0  0  0  # atno 17321 bound_to 7965
  140.4250  143.2594  151.9668 LP  0  0  0  0  0  0  0  0  0  0  0  0  # atno 17342 bound_to 10162
  139.4793  144.5796  151.7954 LP  0  0  0  0  0  0  0  0  0  0  0  0  # atno 17343 bound_to 10162
  156.7181  130.8996  151.3615 LP  0  0  0  0  0  0  0  0  0  0  0  0  # atno 17370 bound_to 10713
  157.6904  130.9227  150.0497 LP  0  0  0  0  0  0  0  0  0  0  0  0  # atno 17371 bound_to 10713
  139.8792  134.9998  156.5977 LP  0  0  0  0  0  0  0  0  0  0  0  0  # atno 17394 bound_to 11000
  140.7887  133.8600  155.8628 LP  0  0  0  0  0  0  0  0  0  0  0  0  # atno 17395 bound_to 11000

$$$$
