AV-unprocessed.smi:1493|AV-procd|sdf|6049|dock6
  -GOLD-   22720 6163D 1   1.00000     0.00000
 Structure written by MMmdl.
 33 33  0  0  0  0  0  0  0  0  2 V2000
  151.9787  138.1119  154.3381 C   0  0  0  0  0  0  0  0  0  0  0  0
  151.1078  139.1964  154.9817 C   0  0  0  0  0  0  0  0  0  0  0  0
  151.6740  139.6867  156.3259 C   0  0  0  0  0  0  0  0  0  0  0  0
  151.6406  138.6234  157.4407 C   0  0  1  0  0  0  0  0  0  0  0  0
  152.3574  139.1081  158.7086 C   0  0  0  0  0  0  0  0  0  0  0  0
  150.2607  138.2728  157.7720 N   0  0  0  0  0  0  0  0  0  0  0  0
  149.8702  137.3919  158.7066 C   0  0  0  0  0  0  0  0  0  0  0  0
  150.6582  136.7620  159.4142 O   0  0  0  0  0  0  0  0  0  0  0  0
  148.3504  137.2072  158.8424 C   0  0  0  0  0  0  0  0  0  0  0  0
  147.9427  136.3733  159.9823 N   0  0  0  0  0  0  0  0  0  0  0  0
  148.1030  137.0277  161.2779 N   0  5  0  0  0  0  0  0  0  0  0  0
  147.7389  136.3618  162.4058 C   0  0  0  0  0  0  0  0  0  0  0  0
  147.8292  136.8534  163.5284 O   0  0  0  0  0  0  0  0  0  0  0  0
  147.2263  135.0090  162.2665 C   0  0  0  0  0  0  0  0  0  0  0  0
  147.1090  134.4219  161.0590 C   0  0  0  0  0  0  0  0  0  0  0  0
  147.4806  135.1002  159.8231 C   0  0  0  0  0  0  0  0  0  0  0  0
  147.3819  134.5677  158.7174 O   0  0  0  0  0  0  0  0  0  0  0  0
  151.5537  137.7865  153.3884 H   0  0  0  0  0  0  0  0  0  0  0  0
  152.0595  137.2369  154.9833 H   0  0  0  0  0  0  0  0  0  0  0  0
  152.9862  138.4800  154.1430 H   0  0  0  0  0  0  0  0  0  0  0  0
  151.0147  140.0320  154.2872 H   0  0  0  0  0  0  0  0  0  0  0  0
  150.1001  138.8064  155.1294 H   0  0  0  0  0  0  0  0  0  0  0  0
  152.7062  140.0058  156.1753 H   0  0  0  0  0  0  0  0  0  0  0  0
  151.1268  140.5736  156.6487 H   0  0  0  0  0  0  0  0  0  0  0  0
  152.1770  137.7450  157.0780 H   0  0  0  0  0  0  0  0  0  0  0  0
  153.3963  139.3628  158.4980 H   0  0  0  0  0  0  0  0  0  0  0  0
  152.3581  138.3356  159.4784 H   0  0  0  0  0  0  0  0  0  0  0  0
  151.8756  139.9936  159.1248 H   0  0  0  0  0  0  0  0  0  0  0  0
  149.5377  138.7359  157.2408 H   0  0  0  0  0  0  0  0  0  0  0  0
  147.8827  138.1904  158.9185 H   0  0  0  0  0  0  0  0  0  0  0  0
  147.9738  136.7791  157.9114 H   0  0  0  0  0  0  0  0  0  0  0  0
  146.9351  134.4622  163.1513 H   0  0  0  0  0  0  0  0  0  0  0  0
  146.7241  133.4148  161.0026 H   0  0  0  0  0  0  0  0  0  0  0  0
  1  2  1  0  0  0  0
  1 18  1  0  0  0  0
  1 19  1  0  0  0  0
  1 20  1  0  0  0  0
  2  3  1  0  0  0  0
  2 21  1  0  0  0  0
  2 22  1  0  0  0  0
  3  4  1  0  0  0  0
  3 23  1  0  0  0  0
  3 24  1  0  0  0  0
  4  5  1  0  0  0  0
  4  6  1  0  0  0  0
  4 25  1  0  0  0  0
  5 26  1  0  0  0  0
  5 27  1  0  0  0  0
  5 28  1  0  0  0  0
  6  7  1  0  0  0  0
  6 29  1  0  0  0  0
  7  8  2  0  0  0  0
  7  9  1  0  0  0  0
  9 30  1  0  0  0  0
  9 31  1  0  0  0  0
  9 10  1  0  0  0  0
 10 11  1  0  0  0  0
 10 16  1  0  0  0  0
 11 12  1  0  0  0  0
 12 13  2  0  0  0  0
 12 14  1  0  0  0  0
 14 32  1  0  0  0  0
 14 15  2  0  0  0  0
 15 33  1  0  0  0  0
 15 16  1  0  0  0  0
 16 17  2  0  0  0  0
M  CHG  1  11  -1
M  END
> <s_m_source_file>
AV-unprocessed.smi

> <i_m_source_file_index>
1493

> <i_lp_mmshare_version>
43012

> <i_f3d_flags>
0

> <s_epik_input>
W0NIM11bQ0gyXVtDSDJdW0NASF0oW0NIM10pW05IXUMoPU8pW0NIMl1uMVtuSF1jKD1PKVtjSF1bY0hdYzE9Tw==

> <s_epik_cmdline>
J2VwaWtfcHl0aG9uJywgJy1waCcsICc3LjAnLCAnLXRuJywgJzgnLCAnLW1hJywgJzIwMCcsICctbWV0YWxfYmluZGluZycsICctaW1hZScsICc8aW5maWxlLm1hZT4nLCAnLW9tYWUnLCAnPG91dGZpbGUubWFlPic=

> <r_lp_tautomer_probability>
1

> <r_epik_Ionization_Penalty>
0.0986298

> <r_epik_Ionization_Penalty_Charging>
0.0986298

> <r_epik_Ionization_Penalty_Neutral>
1.93017e-08

> <r_epik_State_Penalty>
0.0347731

> <r_epik_Charging_Adjusted_Penalty>
0.133403

> <i_epik_Tot_Q>
-1

> <i_epik_Tot_abs_Q>
1

> <r_epik_Metal_State_Penalty>
0.0347731

> <b_epik_Metal_Only>
0

> <s_lp_Force_Field>
OPLS_2005

> <r_lp_Energy>
19.264

> <b_lp_Chiralities_Consistent>
1

> <s_lp_Variant>
AV-unprocessed.smi:1493-2

> <Gold.Version>
5.8.1

> <Gold.Id.Protein>
6NUR|6NUR_protein|mol2

> <Gold.PLP.Fitness>
42.9312

> <Gold.PLP.PLP>
-30.4004

> <Gold.PLP.part.hbond>
-3.7631

> <Gold.PLP.part.metal>
0.0000

> <Gold.PLP.part.buried>
-2.6830

> <Gold.PLP.part.nonpolar>
-23.9093

> <Gold.PLP.part.repulsive>
0.1006

> <Gold.PLP.ligand.clash>
0.0000

> <Gold.PLP.ligand.torsion>
0.2428

> <Gold.PLP.Chemscore.Hbond>
4.3322

> <Gold.PLP.Chemscore.CHOScore>
0.0000

> <Gold.PLP.Chemscore.Metal>
0.0000

> <Gold.Chemscore.Hbonds>
donor molecule, donor type, donor heavy atom, donor atom, acceptor molecule, acceptor atom, score
      P1  H  6896  6909       L1     8  1.00
      P1  H  6931  6943       L1    11  2.00
      P1  H  6934  6947       L1    11  0.74

> <Gold.PLP.Chemscore.Internal.Correction>
0.0197

> <Gold.Rescore>
     Score         DG    S(hbond)    S(metal)    S(lipo)     H(rot)  DE(clash)    DE(int)     intcor
     11.43     -11.84       1.95        0.00      45.53       2.14       0.17       0.24       ----

> <Gold.Chemscore.Fitness>
11.4339

> <Gold.Chemscore.DG>
-11.8361

> <Gold.Chemscore.ZeroCoef>
-5.4800

> <Gold.Chemscore.Hbond>
1.9463

> <Gold.Chemscore.Metal>
0.0000

> <Gold.Chemscore.Lipo>
45.5272

> <Gold.Chemscore.Internal_Hbond>
0.0000

> <Gold.Chemscore.DEClash>
0.1671

> <Gold.Chemscore.DEInternal>
0.2351

> <Gold.Chemscore.Rot>
2.1372

> <Gold.Chemscore.Internal.Correction>
   9.000000E+99

> <Gold.Chemscore.Hbonds>
donor molecule, donor type, donor heavy atom, donor atom, acceptor molecule, acceptor atom, score
      P1  H  6896  6909       L1     8  1.00
      P1  H  6931  6943       L1    11  0.30
      P1  H  6934  6947       L1    11  0.14

> <Gold.Chemscore.Hbond.Weighted>
-6.5007

> <Gold.Chemscore.Metal.Weighted>
-0.0000

> <Gold.Chemscore.Lipo.Weighted>
-5.3267

> <Gold.Chemscore.Internal_Hbond.Weighted>
0.0000

> <Gold.Chemscore.DEClash.Weighted>
0.1671

> <Gold.Chemscore.DEInternal.Weighted>
0.2351

> <Gold.Chemscore.Rot.Weighted>
5.4713

> <Gold.Chemscore.Internal.Correction.Weighted>
   9.000000E+99

> <Gold.Protein.RotatedTorsions>
[ 6907 6896 6895 6894 ] final   83.91 input  -60.11 | X-H torsion
[ 7974 7965 7964 7962 ] final   35.16 input  175.53 | X-H torsion
[ 8008 7997 7996 7995 ] final -141.15 input   59.86 | X-H torsion
[ 10167 10162 10161 10158 ] final   43.73 input  -65.29 | X-H torsion
[ 10718 10713 10712 10709 ] final  109.44 input   66.30 | X-H torsion
[ 10763 10752 10751 10750 ] final -120.39 input  -60.55 | X-H torsion
[ 11005 11000 10999 10996 ] final  147.14 input  -57.11 | X-H torsion

> <Gold.Protein.ActiveResidues>
 VAL166  LYS551  ARG553  GLY616  TRP617  ASP618  TYR619  PRO620  LYS621  CYS622 
 ASP623  PHE694  ASN695  SER759  ASP760  ASP761  ALA762  ILE779  LEU786  VAL792 
 PHE793  MET794  SER795  GLU796  ALA797  LYS798  CYS799  TRP800  GLU811  SER814 

> <Gold.Protein.RotatedAtoms>
  152.5339  134.2823  159.9011 H   0  0  0  0  0  0  0  0  0  0  0  0  # atno 6907 bound_to 6896
  151.2776  133.4218  159.2632 H   0  0  0  0  0  0  0  0  0  0  0  0  # atno 6908 bound_to 6896
  151.0312  134.9555  159.8168 H   0  0  0  0  0  0  0  0  0  0  0  0  # atno 6909 bound_to 6896
  146.1302  139.6177  142.9231 H   0  0  0  0  0  0  0  0  0  0  0  0  # atno 7974 bound_to 7965
  155.4730  140.0554  157.2977 H   0  0  0  0  0  0  0  0  0  0  0  0  # atno 8008 bound_to 7997
  154.4690  140.2032  155.9995 H   0  0  0  0  0  0  0  0  0  0  0  0  # atno 8009 bound_to 7997
  156.1024  140.3217  155.7965 H   0  0  0  0  0  0  0  0  0  0  0  0  # atno 8010 bound_to 7997
  140.3414  144.2466  150.6155 H   0  0  0  0  0  0  0  0  0  0  0  0  # atno 10167 bound_to 10162
  157.6541  131.0913  150.6453 H   0  0  0  0  0  0  0  0  0  0  0  0  # atno 10718 bound_to 10713
  154.8643  135.4205  154.2451 H   0  0  0  0  0  0  0  0  0  0  0  0  # atno 10763 bound_to 10752
  153.3409  135.6993  153.6874 H   0  0  0  0  0  0  0  0  0  0  0  0  # atno 10764 bound_to 10752
  153.5853  135.3565  155.2863 H   0  0  0  0  0  0  0  0  0  0  0  0  # atno 10765 bound_to 10752
  140.0851  134.9074  157.1563 H   0  0  0  0  0  0  0  0  0  0  0  0  # atno 11005 bound_to 11000
  145.5277  141.0429  143.2400 LP  0  0  0  0  0  0  0  0  0  0  0  0  # atno 17320 bound_to 7965
  144.7683  139.6794  143.7205 LP  0  0  0  0  0  0  0  0  0  0  0  0  # atno 17321 bound_to 7965
  140.5305  143.2244  151.8245 LP  0  0  0  0  0  0  0  0  0  0  0  0  # atno 17342 bound_to 10162
  139.4840  144.4726  151.9407 LP  0  0  0  0  0  0  0  0  0  0  0  0  # atno 17343 bound_to 10162
  156.6762  130.4554  149.5642 LP  0  0  0  0  0  0  0  0  0  0  0  0  # atno 17370 bound_to 10713
  156.1962  130.6591  151.1117 LP  0  0  0  0  0  0  0  0  0  0  0  0  # atno 17371 bound_to 10713
  140.3432  134.2681  155.7209 LP  0  0  0  0  0  0  0  0  0  0  0  0  # atno 17394 bound_to 11000
  141.2060  133.7845  157.0202 LP  0  0  0  0  0  0  0  0  0  0  0  0  # atno 17395 bound_to 11000

$$$$
