#       Name:                AV-unprocessed.smi:113
#       Creating user name   scv26
#       Creation time:       Thu Mar 26 18:19:48 2020


#       File generated by GOLD software.
#

@<TRIPOS>MOLECULE
AV-unprocessed.smi:113
    63    66     1
SMALL
NO_CHARGES


@<TRIPOS>ATOM
      1 ****        -1.1655  -0.8955   4.0796 C.3            1 S1                 0.0000
      2 ****        -1.5590  -1.5690   2.7814 C.ar           1 S1                 0.0000
      3 ****        -1.4463  -0.8864   1.5575 C.ar           1 S1                 0.0000
      4 ****        -1.8190  -1.5482   0.3653 C.ar           1 S1                 0.0000
      5 ****        -1.7179  -0.8479  -0.9947 C.3            1 S1                 0.0000
      6 ****        -1.2625   0.5355  -0.9902 N.am           1 S1                 0.0000
      7 ****        -2.2385   1.5515  -0.8469 C.2            1 S1                 0.0000
      8 ****        -3.4381   1.2852  -0.7447 O.2            1 S1                 0.0000
      9 ****        -1.7124   2.9178  -0.8094 C.2            1 S1                 0.0000
     10 ****        -2.7008   4.0625  -0.6512 C.3            1 S1                 0.0000
     11 ****        -0.3777   3.1277  -0.9081 C.2            1 S1                 0.0000
     12 ****         0.5569   2.1175  -1.0553 N.am           1 S1                 0.0000
     13 ****         2.0297   2.4719  -1.0976 C.3            1 S1                 0.0000
     14 ****         2.7319   2.0373  -2.3888 C.3            1 S1                 0.0000
     15 ****         4.1091   1.6887  -1.8637 C.3            1 S1                 0.0000
     16 ****         4.7561   0.7650  -2.7146 O.3            1 S1                 0.0000
     17 ****         3.8001   1.0960  -0.4849 C.3            1 S1                 0.0000
     18 ****         4.9627   1.2300   0.5105 C.3            1 S1                 0.0000
     19 ****         4.7919   0.3263   1.5814 O.3            1 S1                 0.0000
     20 ****         2.6795   1.8537  -0.0256 O.3            1 S1                 0.0000
     21 ****         0.1287   0.7709  -1.0708 C.2            1 S1                 0.0000
     22 ****         0.9363  -0.1579  -1.1340 O.2            1 S1                 0.0000
     23 ****        -2.2904  -2.8851   0.4666 C.ar           1 S1                 0.0000
     24 ****        -2.6799  -3.6208  -0.6787 C.2            1 S1                 0.0000
     25 ****        -3.1478  -4.9412  -0.5567 C.2            1 S1                 0.0000
     26 ****        -3.2301  -5.5407   0.7108 C.2            1 S1                 0.0000
     27 ****        -2.8424  -4.8179   1.8532 C.2            1 S1                 0.0000
     28 ****        -2.3696  -3.4917   1.7549 C.ar           1 S1                 0.0000
     29 ****        -2.0066  -2.8359   2.8790 N.ar           1 S1                 0.0000
     30 ****        -1.3118   0.1832   4.0154 H              1 S1                 0.0000
     31 ****        -0.1147  -1.0867   4.2981 H              1 S1                 0.0000
     32 ****        -1.7634  -1.2672   4.9127 H              1 S1                 0.0000
     33 ****        -1.0772   0.1279   1.5504 H              1 S1                 0.0000
     34 ****        -1.0554  -1.4069  -1.6573 H              1 S1                 0.0000
     35 ****        -2.6837  -0.8688  -1.5013 H              1 S1                 0.0000
     36 ****        -2.2013   5.0317  -0.6374 H              1 S1                 0.0000
     37 ****        -3.2559   3.9609   0.2822 H              1 S1                 0.0000
     38 ****        -3.4144   4.0673  -1.4760 H              1 S1                 0.0000
     39 ****        -0.0259   4.1488  -0.8712 H              1 S1                 0.0000
     40 ****         2.0926   3.5502  -0.9481 H              1 S1                 0.0000
     41 ****         2.2460   1.1681  -2.8309 H              1 S1                 0.0000
     42 ****         2.7355   2.8436  -3.1226 H              1 S1                 0.0000
     43 ****         4.7090   2.5950  -1.7671 H              1 S1                 0.0000
     44 ****         4.2221  -0.0127  -2.7747 H              1 S1                 0.0000
     45 ****         3.5020   0.0522  -0.5973 H              1 S1                 0.0000
     46 ****         5.9050   0.9807   0.0217 H              1 S1                 0.0000
     47 ****         5.0513   2.2507   0.8833 H              1 S1                 0.0000
     48 ****         5.5284   0.4118   2.1673 H              1 S1                 0.0000
     49 ****        -2.6273  -3.1908  -1.6670 H              1 S1                 0.0000
     50 ****        -3.4431  -5.4936  -1.4366 H              1 S1                 0.0000
     51 ****        -3.5895  -6.5546   0.8078 H              1 S1                 0.0000
     52 ****        -2.9092  -5.2903   2.8224 H              1 S1                 0.0000
     53 ****        -3.7420   0.3327  -0.7620 LP             1 S1                 0.0000
     54 ****        -4.1070   2.0218  -0.6445 LP             1 S1                 0.0000
     55 ****         5.6525   0.5304  -2.3383 LP             1 S1                 0.0000
     56 ****         4.8708   1.1665  -3.6232 LP             1 S1                 0.0000
     57 ****         4.7478  -0.6088   1.2297 LP             1 S1                 0.0000
     58 ****         3.9459   0.5389   2.0703 LP             1 S1                 0.0000
     59 ****         2.0384   1.2430   0.4392 LP             1 S1                 0.0000
     60 ****         2.9964   2.5538   0.6143 LP             1 S1                 0.0000
     61 ****         0.6119  -1.1038  -1.1289 LP             1 S1                 0.0000
     62 ****         1.9161   0.0344  -1.1903 LP             1 S1                 0.0000
     63 ****        -2.0692  -3.2844   3.7706 LP             1 S1                 0.0000
@<TRIPOS>BOND
    1    1    2 1     
    2    1   30 1     
    3    1   31 1     
    4    1   32 1     
    5    2   29 ar    
    6    2    3 ar    
    7    3    4 ar    
    8    3   33 1     
    9    4    5 1     
   10    4   23 ar    
   11    5    6 1     
   12    5   34 1     
   13    5   35 1     
   14    6   21 am    
   15    6    7 am    
   16    7    8 2     
   17    7    9 1     
   18    9   10 1     
   19    9   11 2     
   20   10   36 1     
   21   10   37 1     
   22   10   38 1     
   23   11   12 1     
   24   11   39 1     
   25   12   13 1     
   26   12   21 am    
   27   13   20 1     
   28   13   14 1     
   29   13   40 1     
   30   14   15 1     
   31   14   41 1     
   32   14   42 1     
   33   15   16 1     
   34   15   17 1     
   35   15   43 1     
   36   16   44 1     
   37   17   18 1     
   38   17   20 1     
   39   17   45 1     
   40   18   19 1     
   41   18   46 1     
   42   18   47 1     
   43   19   48 1     
   44   21   22 2     
   45   23   28 ar    
   46   23   24 1     
   47   24   25 2     
   48   24   49 1     
   49   25   26 1     
   50   25   50 1     
   51   26   27 2     
   52   26   51 1     
   53   27   28 1     
   54   27   52 1     
   55   28   29 ar    
   56    8   53 1     
   57    8   54 1     
   58   16   55 1     
   59   16   56 1     
   60   19   57 1     
   61   19   58 1     
   62   20   59 1     
   63   20   60 1     
   64   22   61 1     
   65   22   62 1     
   66   29   63 1     
@<TRIPOS>SUBSTRUCTURE
      1 S1             1
@<TRIPOS>SET
LONE_PAIRS      STATIC     ATOMS    <user>   **** ""
11 53 54 55 56 57 58 59 60 61 62 63
DONOR_HYDROGENS      STATIC     ATOMS    <user>   **** ""
2 44 48
ATOM$BLUE        STATIC     ATOMS    COLORGROUP SYSTEM
11 53 54 55 56 57 58 59 60 61 62 63
ATOM$RED        STATIC     ATOMS    COLORGROUP SYSTEM
2 44 48
