AV-unprocessed.smi:1406|AV-procd|sdf|5719|dock6
  -GOLD-   22720 5353D 1   1.00000     0.00000
 Structure written by MMmdl.
 41 43  0  0  0  0  0  0  0  0  2 V2000
  148.9792  136.4832  156.9290 C   0  0  0  0  0  0  0  0  0  0  0  0
  149.0802  136.5191  155.3906 C   0  0  2  0  0  0  0  0  0  0  0  0
  149.3805  135.1389  154.7861 C   0  0  0  0  0  0  0  0  0  0  0  0
  150.4505  134.5724  155.0108 O   0  0  0  0  0  0  0  0  0  0  0  0
  148.4244  134.6085  154.0076 N   0  0  0  0  0  0  0  0  0  0  0  0
  148.5394  133.3342  153.3066 C   0  0  1  0  0  0  0  0  0  0  0  0
  148.8609  132.1355  154.2203 C   0  0  0  0  0  0  0  0  0  0  0  0
  148.0604  130.9532  153.6392 C   0  0  0  0  0  0  0  0  0  0  0  0
  147.4087  131.4815  152.4251 N   0  3  1  0  0  0  0  0  0  0  0  0
  146.1742  130.8047  151.9718 C   0  0  0  0  0  0  0  0  0  0  0  0
  145.6983  131.4471  150.6529 C   0  0  0  0  0  0  0  0  0  0  0  0
  145.5543  132.9782  150.7789 C   0  0  0  0  0  0  0  0  0  0  0  0
  146.8391  133.6151  151.3439 C   0  0  0  0  0  0  0  0  0  0  0  0
  147.2178  132.9203  152.6617 C   0  0  2  0  0  0  0  0  0  0  0  0
  150.0605  137.4917  154.9246 N   0  0  0  0  0  0  0  0  0  0  0  0
  149.9102  138.7830  154.6216 C   0  0  0  0  0  0  0  0  0  0  0  0
  151.0141  139.3640  154.1739 N   0  0  0  0  0  0  0  0  0  0  0  0
  151.8674  138.2983  154.2204 C   0  0  0  0  0  0  0  0  0  0  0  0
  151.3448  137.1506  154.6510 N   0  0  0  0  0  0  0  0  0  0  0  0
  148.1984  135.7954  157.2553 H   0  0  0  0  0  0  0  0  0  0  0  0
  148.7312  137.4687  157.3243 H   0  0  0  0  0  0  0  0  0  0  0  0
  149.9129  136.1674  157.3959 H   0  0  0  0  0  0  0  0  0  0  0  0
  148.1077  136.8396  155.0126 H   0  0  0  0  0  0  0  0  0  0  0  0
  147.5737  135.1355  153.8718 H   0  0  0  0  0  0  0  0  0  0  0  0
  149.3050  133.4116  152.5316 H   0  0  0  0  0  0  0  0  0  0  0  0
  149.9323  131.9320  154.2389 H   0  0  0  0  0  0  0  0  0  0  0  0
  148.5456  132.3233  155.2477 H   0  0  0  0  0  0  0  0  0  0  0  0
  148.6958  130.1014  153.3946 H   0  0  0  0  0  0  0  0  0  0  0  0
  147.3091  130.6214  154.3574 H   0  0  0  0  0  0  0  0  0  0  0  0
  146.3719  129.7425  151.8241 H   0  0  0  0  0  0  0  0  0  0  0  0
  145.4018  130.8866  152.7380 H   0  0  0  0  0  0  0  0  0  0  0  0
  146.4153  131.2184  149.8633 H   0  0  0  0  0  0  0  0  0  0  0  0
  144.7502  131.0063  150.3433 H   0  0  0  0  0  0  0  0  0  0  0  0
  145.3141  133.4135  149.8085 H   0  0  0  0  0  0  0  0  0  0  0  0
  144.7155  133.2092  151.4371 H   0  0  0  0  0  0  0  0  0  0  0  0
  147.6500  133.5193  150.6205 H   0  0  0  0  0  0  0  0  0  0  0  0
  146.6884  134.6827  151.5072 H   0  0  0  0  0  0  0  0  0  0  0  0
  146.4095  133.0488  153.3857 H   0  0  0  0  0  0  0  0  0  0  0  0
  148.9721  139.3081  154.7253 H   0  0  0  0  0  0  0  0  0  0  0  0
  152.9029  138.3687  153.9212 H   0  0  0  0  0  0  0  0  0  0  0  0
  148.0857  131.4032  151.6797 H   0  0  0  0  0  0  0  0  0  0  0  0
  1  2  1  0  0  0  0
  1 20  1  0  0  0  0
  1 21  1  0  0  0  0
  1 22  1  0  0  0  0
  2  3  1  0  0  0  0
  2 15  1  0  0  0  0
  2 23  1  0  0  0  0
  3  4  2  0  0  0  0
  3  5  1  0  0  0  0
  5  6  1  0  0  0  0
  5 24  1  0  0  0  0
  6 14  1  0  0  0  0
  6  7  1  0  0  0  0
  6 25  1  0  0  0  0
  7  8  1  0  0  0  0
  7 26  1  0  0  0  0
  7 27  1  0  0  0  0
  8  9  1  0  0  0  0
  8 28  1  0  0  0  0
  8 29  1  0  0  0  0
  9 14  1  0  0  0  0
  9 10  1  0  0  0  0
  9 41  1  0  0  0  0
 10 11  1  0  0  0  0
 10 30  1  0  0  0  0
 10 31  1  0  0  0  0
 11 12  1  0  0  0  0
 11 32  1  0  0  0  0
 11 33  1  0  0  0  0
 12 13  1  0  0  0  0
 12 34  1  0  0  0  0
 12 35  1  0  0  0  0
 13 14  1  0  0  0  0
 13 36  1  0  0  0  0
 13 37  1  0  0  0  0
 14 38  1  0  0  0  0
 15 19  1  0  0  0  0
 15 16  1  0  0  0  0
 16 17  2  0  0  0  0
 16 39  1  0  0  0  0
 17 18  1  0  0  0  0
 18 19  2  0  0  0  0
 18 40  1  0  0  0  0
M  CHG  1   9   1
M  END
> <s_m_source_file>
AV-unprocessed.smi

> <i_m_source_file_index>
1406

> <i_lp_mmshare_version>
43012

> <i_f3d_flags>
0

> <s_epik_input>
bjFbY0hdbltjSF1uMVtDQEhdKFtDSDNdKUMoPU8pW05IXVtDQEhdKFtDSDJdW0NIMl0yKVtDQEBIXShOMjMpW0NIMl1bQ0gyXVtDSDJdW0NIMl0z

> <s_epik_cmdline>
J2VwaWtfcHl0aG9uJywgJy1waCcsICc3LjAnLCAnLXRuJywgJzgnLCAnLW1hJywgJzIwMCcsICctbWV0YWxfYmluZGluZycsICctaW1hZScsICc8aW5maWxlLm1hZT4nLCAnLW9tYWUnLCAnPG91dGZpbGUubWFlPic=

> <r_lp_tautomer_probability>
1

> <r_epik_Ionization_Penalty>
0.00197066

> <r_epik_Ionization_Penalty_Charging>
0.00196223

> <r_epik_Ionization_Penalty_Neutral>
8.43107e-06

> <r_epik_State_Penalty>
0.00133866

> <r_epik_Charging_Adjusted_Penalty>
0.00330089

> <i_epik_Tot_Q>
1

> <i_epik_Tot_abs_Q>
1

> <r_epik_Metal_State_Penalty>
-0

> <b_epik_Metal_Only>
0

> <s_lp_Force_Field>
OPLS_2005

> <r_lp_Energy>
39.7149

> <b_lp_Chiralities_Consistent>
1

> <s_lp_Variant>
AV-unprocessed.smi:1406-11

> <Gold.Version>
5.8.1

> <Gold.Id.Protein>
6NUR|6NUR_protein|mol2

> <Gold.PLP.Fitness>
40.5675

> <Gold.PLP.PLP>
-33.0334

> <Gold.PLP.part.hbond>
-4.0000

> <Gold.PLP.part.metal>
0.0000

> <Gold.PLP.part.buried>
-3.9814

> <Gold.PLP.part.nonpolar>
-25.2063

> <Gold.PLP.part.repulsive>
0.3855

> <Gold.PLP.ligand.clash>
0.0000

> <Gold.PLP.ligand.torsion>
0.7830

> <Gold.PLP.Chemscore.Hbond>
3.0000

> <Gold.PLP.Chemscore.CHOScore>
0.0000

> <Gold.PLP.Chemscore.Metal>
0.0000

> <Gold.Chemscore.Hbonds>
donor molecule, donor type, donor heavy atom, donor atom, acceptor molecule, acceptor atom, score
      L1  H     9    41       P1 10747  1.00
      P1  H  7989  7998       L1    17  1.00
      P1  H 10752 10764       L1    19  0.55

> <Gold.PLP.Chemscore.Internal.Correction>
0.0999

> <Gold.Rescore>
     Score         DG    S(hbond)    S(metal)    S(lipo)     H(rot)  DE(clash)    DE(int)     intcor
     13.46     -15.81       2.54        0.00      57.11       1.89       0.17       2.18       ----

> <Gold.Chemscore.Fitness>
13.4579

> <Gold.Chemscore.DG>
-15.8086

> <Gold.Chemscore.ZeroCoef>
-5.4800

> <Gold.Chemscore.Hbond>
2.5379

> <Gold.Chemscore.Metal>
0.0000

> <Gold.Chemscore.Lipo>
57.1080

> <Gold.Chemscore.Internal_Hbond>
0.0000

> <Gold.Chemscore.DEClash>
0.1739

> <Gold.Chemscore.DEInternal>
2.1769

> <Gold.Chemscore.Rot>
1.8865

> <Gold.Chemscore.Internal.Correction>
   9.000000E+99

> <Gold.Chemscore.Hbonds>
donor molecule, donor type, donor heavy atom, donor atom, acceptor molecule, acceptor atom, score
      L1  H     9    41       P1 10747  1.00
      P1  H  7989  7998       L1    17  0.94
      P1  H 10752 10764       L1    19  0.34

> <Gold.Chemscore.Hbond.Weighted>
-8.4765

> <Gold.Chemscore.Metal.Weighted>
-0.0000

> <Gold.Chemscore.Lipo.Weighted>
-6.6816

> <Gold.Chemscore.Internal_Hbond.Weighted>
0.0000

> <Gold.Chemscore.DEClash.Weighted>
0.1739

> <Gold.Chemscore.DEInternal.Weighted>
2.1769

> <Gold.Chemscore.Rot.Weighted>
4.8295

> <Gold.Chemscore.Internal.Correction.Weighted>
   9.000000E+99

> <Gold.Protein.RotatedTorsions>
[ 6907 6896 6895 6894 ] final  -57.19 input  -60.11 | X-H torsion
[ 7974 7965 7964 7962 ] final  -68.24 input  175.53 | X-H torsion
[ 8008 7997 7996 7995 ] final  -25.74 input   59.86 | X-H torsion
[ 10167 10162 10161 10158 ] final -115.76 input  -65.29 | X-H torsion
[ 10718 10713 10712 10709 ] final -104.02 input   66.30 | X-H torsion
[ 10763 10752 10751 10750 ] final  -64.69 input  -60.55 | X-H torsion
[ 11005 11000 10999 10996 ] final -141.65 input  -57.11 | X-H torsion

> <Gold.Protein.ActiveResidues>
 VAL166  LYS551  ARG553  GLY616  TRP617  ASP618  TYR619  PRO620  LYS621  CYS622 
 ASP623  PHE694  ASN695  SER759  ASP760  ASP761  ALA762  ILE779  LEU786  VAL792 
 PHE793  MET794  SER795  GLU796  ALA797  LYS798  CYS799  TRP800  GLU811  SER814 

> <Gold.Protein.RotatedAtoms>
  150.8106  134.7258  159.6684 H   0  0  0  0  0  0  0  0  0  0  0  0  # atno 6907 bound_to 6896
  152.4226  134.5924  159.9987 H   0  0  0  0  0  0  0  0  0  0  0  0  # atno 6908 bound_to 6896
  151.6135  133.3308  159.3108 H   0  0  0  0  0  0  0  0  0  0  0  0  # atno 6909 bound_to 6896
  145.7191  140.9046  143.0640 H   0  0  0  0  0  0  0  0  0  0  0  0  # atno 7974 bound_to 7965
  154.4460  140.1918  156.0667 H   0  0  0  0  0  0  0  0  0  0  0  0  # atno 8008 bound_to 7997
  156.0542  140.3305  155.7359 H   0  0  0  0  0  0  0  0  0  0  0  0  # atno 8009 bound_to 7997
  155.5511  140.0595  157.2840 H   0  0  0  0  0  0  0  0  0  0  0  0  # atno 8010 bound_to 7997
  140.0866  143.4739  152.1895 H   0  0  0  0  0  0  0  0  0  0  0  0  # atno 10167 bound_to 10162
  156.0288  130.5495  150.7336 H   0  0  0  0  0  0  0  0  0  0  0  0  # atno 10718 bound_to 10713
  154.3339  135.6171  153.5564 H   0  0  0  0  0  0  0  0  0  0  0  0  # atno 10763 bound_to 10752
  152.9809  135.5753  154.4930 H   0  0  0  0  0  0  0  0  0  0  0  0  # atno 10764 bound_to 10752
  154.4621  135.2856  155.1682 H   0  0  0  0  0  0  0  0  0  0  0  0  # atno 10765 bound_to 10752
  140.8303  134.2524  157.4859 H   0  0  0  0  0  0  0  0  0  0  0  0  # atno 11005 bound_to 11000
  144.6921  139.9177  143.7466 LP  0  0  0  0  0  0  0  0  0  0  0  0  # atno 17320 bound_to 7965
  146.0642  139.3634  143.0562 LP  0  0  0  0  0  0  0  0  0  0  0  0  # atno 17321 bound_to 7965
  139.5749  144.7482  151.3792 LP  0  0  0  0  0  0  0  0  0  0  0  0  # atno 17342 bound_to 10162
  140.7050  143.7535  150.7467 LP  0  0  0  0  0  0  0  0  0  0  0  0  # atno 17343 bound_to 10162
  157.4922  131.0912  151.0413 LP  0  0  0  0  0  0  0  0  0  0  0  0  # atno 17370 bound_to 10713
  157.0816  130.5905  149.5421 LP  0  0  0  0  0  0  0  0  0  0  0  0  # atno 17371 bound_to 10713
  139.8705  134.9583  156.4295 LP  0  0  0  0  0  0  0  0  0  0  0  0  # atno 17394 bound_to 11000
  140.9005  133.7783  155.9674 LP  0  0  0  0  0  0  0  0  0  0  0  0  # atno 17395 bound_to 11000

$$$$
