AV-unprocessed.smi:1599|AV-procd|sdf|6425|dock4
  -GOLD-   22720 7 63D 1   1.00000     0.00000
 Structure written by MMmdl.
 39 40  0  0  0  0  0  0  0  0  1 V2000
  146.6005  138.8549  155.4040 C   0  0  0  0  0  0  0  0  0  0  0  0
  147.0234  139.2161  153.9726 C   0  0  2  0  0  0  0  0  0  0  0  0
  147.0412  137.9955  153.1674 N   0  0  0  0  0  0  0  0  0  0  0  0
  145.9653  137.3029  152.7660 C   0  0  0  0  0  0  0  0  0  0  0  0
  144.8069  137.6227  153.0332 O   0  0  0  0  0  0  0  0  0  0  0  0
  146.3206  136.2324  152.0369 N   0  0  0  0  0  0  0  0  0  0  0  0
  145.4611  135.2843  151.4266 C   0  0  0  0  0  0  0  0  0  0  0  0
  144.0493  135.2603  151.5680 C   0  0  0  0  0  0  0  0  0  0  0  0
  143.5165  134.2581  150.8856 N   0  0  0  0  0  0  0  0  0  0  0  0
  144.5682  133.6302  150.3015 N   0  0  0  0  0  0  0  0  0  0  0  0
  144.3388  132.4621  149.4689 C   0  0  0  0  0  0  0  0  0  0  0  0
  143.4722  132.8002  148.2535 C   0  0  0  0  0  0  0  0  0  0  0  0
  142.3180  132.1403  148.1206 N   0  0  0  0  0  0  0  0  0  0  0  0
  143.8441  133.6414  147.4382 O   0  0  0  0  0  0  0  0  0  0  0  0
  145.7716  134.2339  150.6103 C   0  0  0  0  0  0  0  0  0  0  0  0
  148.4028  139.9072  153.9404 C   0  0  1  0  0  0  0  0  0  0  0  0
  148.4079  141.3729  154.3803 C   0  0  0  0  0  0  0  0  0  0  0  0
  149.8504  141.5619  154.7884 C   0  0  0  0  0  0  0  0  0  0  0  0
  150.1610  140.2265  155.4572 C   0  0  0  0  0  0  0  0  0  0  0  0
  149.3059  139.2673  154.8394 O   0  0  0  0  0  0  0  0  0  0  0  0
  146.5409  139.7429  156.0339 H   0  0  0  0  0  0  0  0  0  0  0  0
  147.3088  138.1669  155.8668 H   0  0  0  0  0  0  0  0  0  0  0  0
  145.6185  138.3806  155.4156 H   0  0  0  0  0  0  0  0  0  0  0  0
  146.2796  139.9097  153.5764 H   0  0  0  0  0  0  0  0  0  0  0  0
  147.9504  137.6528  152.8936 H   0  0  0  0  0  0  0  0  0  0  0  0
  147.3090  136.0872  151.8930 H   0  0  0  0  0  0  0  0  0  0  0  0
  143.4066  135.9204  152.1315 H   0  0  0  0  0  0  0  0  0  0  0  0
  145.2982  132.0564  149.1440 H   0  0  0  0  0  0  0  0  0  0  0  0
  143.8531  131.6910  150.0682 H   0  0  0  0  0  0  0  0  0  0  0  0
  141.7161  132.3267  147.3317 H   0  0  0  0  0  0  0  0  0  0  0  0
  142.0541  131.4515  148.8103 H   0  0  0  0  0  0  0  0  0  0  0  0
  146.7117  133.8634  150.2295 H   0  0  0  0  0  0  0  0  0  0  0  0
  148.8316  139.8390  152.9390 H   0  0  0  0  0  0  0  0  0  0  0  0
  148.0934  142.0577  153.5924 H   0  0  0  0  0  0  0  0  0  0  0  0
  147.7557  141.5190  155.2427 H   0  0  0  0  0  0  0  0  0  0  0  0
  150.4747  141.6942  153.9038 H   0  0  0  0  0  0  0  0  0  0  0  0
  150.0040  142.4164  155.4480 H   0  0  0  0  0  0  0  0  0  0  0  0
  151.2103  139.9481  155.3569 H   0  0  0  0  0  0  0  0  0  0  0  0
  149.9213  140.2667  156.5203 H   0  0  0  0  0  0  0  0  0  0  0  0
  1  2  1  0  0  0  0
  1 21  1  0  0  0  0
  1 22  1  0  0  0  0
  1 23  1  0  0  0  0
  2  3  1  0  0  0  0
  2 16  1  0  0  0  0
  2 24  1  0  0  0  0
  3  4  1  0  0  0  0
  3 25  1  0  0  0  0
  4  5  2  0  0  0  0
  4  6  1  0  0  0  0
  6  7  1  0  0  0  0
  6 26  1  0  0  0  0
  7 15  2  0  0  0  0
  7  8  1  0  0  0  0
  8  9  2  0  0  0  0
  8 27  1  0  0  0  0
  9 10  1  0  0  0  0
 10 11  1  0  0  0  0
 10 15  1  0  0  0  0
 11 12  1  0  0  0  0
 11 28  1  0  0  0  0
 11 29  1  0  0  0  0
 12 13  1  0  0  0  0
 12 14  2  0  0  0  0
 13 30  1  0  0  0  0
 13 31  1  0  0  0  0
 15 32  1  0  0  0  0
 16 20  1  0  0  0  0
 16 17  1  0  0  0  0
 16 33  1  0  0  0  0
 17 18  1  0  0  0  0
 17 34  1  0  0  0  0
 17 35  1  0  0  0  0
 18 19  1  0  0  0  0
 18 36  1  0  0  0  0
 18 37  1  0  0  0  0
 19 20  1  0  0  0  0
 19 38  1  0  0  0  0
 19 39  1  0  0  0  0
M  END
> <s_m_source_file>
AV-unprocessed.smi

> <i_m_source_file_index>
1599

> <i_lp_mmshare_version>
43012

> <i_f3d_flags>
0

> <s_epik_input>
TzFbQ0gyXVtDSDJdW0NIMl1bQ0BIXTFbQ0BIXShbQ0gzXSlbTkhdQyg9TylbTkhdYzJbY0hdbm4oW2NIXTIpW0NIMl1DKD1PKVtOSDJd

> <s_epik_cmdline>
J2VwaWtfcHl0aG9uJywgJy1waCcsICc3LjAnLCAnLXRuJywgJzgnLCAnLW1hJywgJzIwMCcsICctbWV0YWxfYmluZGluZycsICctaW1hZScsICc8aW5maWxlLm1hZT4nLCAnLW9tYWUnLCAnPG91dGZpbGUubWFlPic=

> <r_lp_tautomer_probability>
1

> <r_epik_Ionization_Penalty>
4.15391e-05

> <r_epik_Ionization_Penalty_Charging>
0

> <r_epik_Ionization_Penalty_Neutral>
4.15391e-05

> <r_epik_State_Penalty>
-0

> <r_epik_Charging_Adjusted_Penalty>
0

> <i_epik_Tot_Q>
0

> <i_epik_Tot_abs_Q>
0

> <r_epik_Metal_State_Penalty>
-0

> <b_epik_Metal_Only>
0

> <s_lp_Force_Field>
OPLS_2005

> <r_lp_Energy>
20.4971

> <b_lp_Chiralities_Consistent>
1

> <s_lp_Variant>
AV-unprocessed.smi:1599-3

> <Gold.Version>
5.8.1

> <Gold.Id.Protein>
6NUR|6NUR_protein|mol2

> <Gold.PLP.Fitness>
41.9914

> <Gold.PLP.PLP>
-27.0492

> <Gold.PLP.part.hbond>
-6.4451

> <Gold.PLP.part.metal>
0.0000

> <Gold.PLP.part.buried>
-2.8612

> <Gold.PLP.part.nonpolar>
-25.5829

> <Gold.PLP.part.repulsive>
8.4333

> <Gold.PLP.ligand.clash>
0.0000

> <Gold.PLP.ligand.torsion>
0.4550

> <Gold.PLP.Chemscore.Hbond>
5.2158

> <Gold.PLP.Chemscore.CHOScore>
0.0602

> <Gold.PLP.Chemscore.Metal>
0.0000

> <Gold.Chemscore.Hbonds>
donor molecule, donor type, donor heavy atom, donor atom, acceptor molecule, acceptor atom, score
      L1  H     3    25       P1  7948  0.91
      L1  H     6    26       P1  7948  1.00
      L1  H    13    30       P1 10195  0.82
      L1  H    13    31       P1 10952  0.99
      P1  H  7918  7932       L1    14  0.91
      P1  H 10192 10197       L1    14  0.11
      L1  C    15    32       P1  7921  0.03

> <Gold.PLP.Chemscore.Internal.Correction>
0.0243

> <Gold.Rescore>
     Score         DG    S(hbond)    S(metal)    S(lipo)     H(rot)  DE(clash)    DE(int)     intcor
     15.68     -21.57       4.61        0.00      55.96       2.28       3.96       1.93       ----

> <Gold.Chemscore.Fitness>
15.6813

> <Gold.Chemscore.DG>
-21.5706

> <Gold.Chemscore.ZeroCoef>
-5.4800

> <Gold.Chemscore.Hbond>
4.6065

> <Gold.Chemscore.Metal>
0.0000

> <Gold.Chemscore.Lipo>
55.9628

> <Gold.Chemscore.Internal_Hbond>
0.0000

> <Gold.Chemscore.DEClash>
3.9568

> <Gold.Chemscore.DEInternal>
1.9326

> <Gold.Chemscore.Rot>
2.2823

> <Gold.Chemscore.Internal.Correction>
   9.000000E+99

> <Gold.Chemscore.Hbonds>
donor molecule, donor type, donor heavy atom, donor atom, acceptor molecule, acceptor atom, score
      L1  H     3    25       P1  7948  0.85
      L1  H     6    26       P1  7948  0.99
      L1  H    13    30       P1 10195  0.77
      L1  H    13    31       P1 10952  0.94
      P1  H  7918  7932       L1    14  0.88
      P1  H 10192 10197       L1    14  0.09

> <Gold.Chemscore.Hbond.Weighted>
-15.3857

> <Gold.Chemscore.Metal.Weighted>
-0.0000

> <Gold.Chemscore.Lipo.Weighted>
-6.5476

> <Gold.Chemscore.Internal_Hbond.Weighted>
0.0000

> <Gold.Chemscore.DEClash.Weighted>
3.9568

> <Gold.Chemscore.DEInternal.Weighted>
1.9326

> <Gold.Chemscore.Rot.Weighted>
5.8427

> <Gold.Chemscore.Internal.Correction.Weighted>
   9.000000E+99

> <Gold.Protein.RotatedTorsions>
[ 6907 6896 6895 6894 ] final   37.99 input  -60.11 | X-H torsion
[ 7974 7965 7964 7962 ] final   16.22 input  175.53 | X-H torsion
[ 8008 7997 7996 7995 ] final   27.43 input   59.86 | X-H torsion
[ 10167 10162 10161 10158 ] final  115.35 input  -65.29 | X-H torsion
[ 10718 10713 10712 10709 ] final  143.65 input   66.30 | X-H torsion
[ 10763 10752 10751 10750 ] final   81.77 input  -60.55 | X-H torsion
[ 11005 11000 10999 10996 ] final   77.83 input  -57.11 | X-H torsion

> <Gold.Protein.ActiveResidues>
 VAL166  LYS551  ARG553  GLY616  TRP617  ASP618  TYR619  PRO620  LYS621  CYS622 
 ASP623  PHE694  ASN695  SER759  ASP760  ASP761  ALA762  ILE779  LEU786  VAL792 
 PHE793  MET794  SER795  GLU796  ALA797  LYS798  CYS799  TRP800  GLU811  SER814 

> <Gold.Protein.RotatedAtoms>
  152.1506  134.8991  160.0548 H   0  0  0  0  0  0  0  0  0  0  0  0  # atno 6907 bound_to 6896
  152.0025  133.3826  159.4195 H   0  0  0  0  0  0  0  0  0  0  0  0  # atno 6908 bound_to 6896
  150.6875  134.3741  159.5049 H   0  0  0  0  0  0  0  0  0  0  0  0  # atno 6909 bound_to 6896
  146.2256  139.8779  142.8576 H   0  0  0  0  0  0  0  0  0  0  0  0  # atno 7974 bound_to 7965
  155.0428  140.3171  155.4718 H   0  0  0  0  0  0  0  0  0  0  0  0  # atno 8008 bound_to 7997
  156.2851  140.2160  156.5496 H   0  0  0  0  0  0  0  0  0  0  0  0  # atno 8009 bound_to 7997
  154.7275  140.0484  157.0684 H   0  0  0  0  0  0  0  0  0  0  0  0  # atno 8010 bound_to 7997
  139.6323  144.7116  151.2406 H   0  0  0  0  0  0  0  0  0  0  0  0  # atno 10167 bound_to 10162
  157.3665  131.0972  151.0868 H   0  0  0  0  0  0  0  0  0  0  0  0  # atno 10718 bound_to 10713
  153.1145  135.4753  154.9093 H   0  0  0  0  0  0  0  0  0  0  0  0  # atno 10763 bound_to 10752
  154.7515  135.3107  154.8551 H   0  0  0  0  0  0  0  0  0  0  0  0  # atno 10764 bound_to 10752
  153.9131  135.6863  153.4804 H   0  0  0  0  0  0  0  0  0  0  0  0  # atno 10765 bound_to 10752
  139.9238  134.7715  156.1572 H   0  0  0  0  0  0  0  0  0  0  0  0  # atno 11005 bound_to 11000
  145.2542  141.0054  143.3864 LP  0  0  0  0  0  0  0  0  0  0  0  0  # atno 17320 bound_to 7965
  144.9350  139.4254  143.6476 LP  0  0  0  0  0  0  0  0  0  0  0  0  # atno 17321 bound_to 7965
  140.7446  143.6458  150.8293 LP  0  0  0  0  0  0  0  0  0  0  0  0  # atno 17342 bound_to 10162
  140.0084  143.5668  152.2848 LP  0  0  0  0  0  0  0  0  0  0  0  0  # atno 17343 bound_to 10162
  157.1988  130.6385  149.5731 LP  0  0  0  0  0  0  0  0  0  0  0  0  # atno 17370 bound_to 10713
  155.9747  130.4698  150.6406 LP  0  0  0  0  0  0  0  0  0  0  0  0  # atno 17371 bound_to 10713
  141.0779  133.6767  156.2275 LP  0  0  0  0  0  0  0  0  0  0  0  0  # atno 17394 bound_to 11000
  140.6397  134.5179  157.5568 LP  0  0  0  0  0  0  0  0  0  0  0  0  # atno 17395 bound_to 11000

$$$$
