#       Name:                AV-unprocessed.smi:3336
#       Creating user name   scv26
#       Creation time:       Fri Mar 27 19:24:49 2020


#       File generated by GOLD software.
#

@<TRIPOS>MOLECULE
AV-unprocessed.smi:3336
    47    48     1
SMALL
NO_CHARGES


@<TRIPOS>ATOM
      1 ****        -1.1124  -2.5513  -0.2590 C.3            1 S1                 0.0000
      2 ****        -0.7261  -1.4436   0.7398 C.3            1 S1                 0.0000
      3 ****        -1.2061  -1.7534   2.1727 C.3            1 S1                 0.0000
      4 ****        -2.6447  -1.9277   2.2665 N.pl3          1 S1                 0.0000
      5 ****        -3.3538  -3.0676   2.5832 C.2            1 S1                 0.0000
      6 ****        -4.6795  -2.7415   2.5565 C.2            1 S1                 0.0000
      7 ****        -4.6814  -1.3593   2.2178 C.2            1 S1                 0.0000
      8 ****        -3.4617  -0.8747   2.0478 N.2            1 S1                 0.0000
      9 ****         0.7411  -1.2327   0.7521 N.4            1 S1                 1.0000
     10 ****         1.2897  -0.3791  -0.3310 C.3            1 S1                 0.0000
     11 ****         2.7972  -0.6510  -0.4683 C.3            1 S1                 0.0000
     12 ****         1.0388   1.1200  -0.0561 C.2            1 S1                 0.0000
     13 ****         0.8747   1.4720   1.1137 O.2            1 S1                 0.0000
     14 ****         1.0078   2.0083  -1.0813 N.am           1 S1                 0.0000
     15 ****         0.7582   3.4404  -0.8830 C.3            1 S1                 0.0000
     16 ****         2.0071   4.2233  -1.3228 C.3            1 S1                 0.0000
     17 ****         2.2950   3.9313  -2.6872 O.3            1 S1                 0.0000
     18 ****         2.5222   2.5447  -2.9226 C.3            1 S1                 0.0000
     19 ****         1.2851   1.7323  -2.4963 C.3            1 S1                 0.0000
     20 ****        -2.1938  -2.6797  -0.3120 H              1 S1                 0.0000
     21 ****        -0.6797  -3.5101   0.0284 H              1 S1                 0.0000
     22 ****        -0.7729  -2.3247  -1.2692 H              1 S1                 0.0000
     23 ****        -1.2051  -0.5152   0.4256 H              1 S1                 0.0000
     24 ****        -0.7245  -2.6587   2.5453 H              1 S1                 0.0000
     25 ****        -0.9191  -0.9470   2.8494 H              1 S1                 0.0000
     26 ****        -2.8631  -4.0059   2.7971 H              1 S1                 0.0000
     27 ****        -5.5202  -3.3903   2.7527 H              1 S1                 0.0000
     28 ****        -5.5265  -0.6982   2.0928 H              1 S1                 0.0000
     29 ****         0.9892  -0.7916   1.6268 H              1 S1                 0.0000
     30 ****         0.7921  -0.6787  -1.2511 H              1 S1                 0.0000
     31 ****         3.2433  -0.0711  -1.2763 H              1 S1                 0.0000
     32 ****         2.9840  -1.7031  -0.6858 H              1 S1                 0.0000
     33 ****         3.3329  -0.4033   0.4491 H              1 S1                 0.0000
     34 ****        -0.1037   3.7421  -1.4800 H              1 S1                 0.0000
     35 ****         0.5119   3.6955   0.1484 H              1 S1                 0.0000
     36 ****         1.8370   5.2949  -1.2189 H              1 S1                 0.0000
     37 ****         2.8648   3.9721  -0.6969 H              1 S1                 0.0000
     38 ****         2.7246   2.3960  -3.9835 H              1 S1                 0.0000
     39 ****         3.4102   2.2169  -2.3800 H              1 S1                 0.0000
     40 ****         1.4608   0.6838  -2.7230 H              1 S1                 0.0000
     41 ****         0.4213   2.0261  -3.0945 H              1 S1                 0.0000
     42 ****         1.1859  -2.1384   0.7139 H              1 S1                 0.0000
     43 ****        -3.2029   0.0616   1.8105 LP             1 S1                 0.0000
     44 ****         0.9063   0.7947   1.8487 LP             1 S1                 0.0000
     45 ****         0.7100   2.4348   1.3277 LP             1 S1                 0.0000
     46 ****         3.1137   4.4387  -2.9560 LP             1 S1                 0.0000
     47 ****         1.5208   4.2270  -3.2468 LP             1 S1                 0.0000
@<TRIPOS>BOND
    1    1    2 1     
    2    1   20 1     
    3    1   21 1     
    4    1   22 1     
    5    2    3 1     
    6    2    9 1     
    7    2   23 1     
    8    3    4 1     
    9    3   24 1     
   10    3   25 1     
   11    4    8 1     
   12    4    5 1     
   13    5    6 2     
   14    5   26 1     
   15    6    7 1     
   16    6   27 1     
   17    7    8 2     
   18    7   28 1     
   19    9   10 1     
   20    9   29 1     
   21    9   42 1     
   22   10   11 1     
   23   10   12 1     
   24   10   30 1     
   25   11   31 1     
   26   11   32 1     
   27   11   33 1     
   28   12   13 2     
   29   12   14 am    
   30   14   19 1     
   31   14   15 1     
   32   15   16 1     
   33   15   34 1     
   34   15   35 1     
   35   16   17 1     
   36   16   36 1     
   37   16   37 1     
   38   17   18 1     
   39   18   19 1     
   40   18   38 1     
   41   18   39 1     
   42   19   40 1     
   43   19   41 1     
   44    8   43 1     
   45   13   44 1     
   46   13   45 1     
   47   17   46 1     
   48   17   47 1     
@<TRIPOS>SUBSTRUCTURE
      1 S1             1
@<TRIPOS>SET
LONE_PAIRS      STATIC     ATOMS    <user>   **** ""
5 43 44 45 46 47
DONOR_HYDROGENS      STATIC     ATOMS    <user>   **** ""
2 29 42
ATOM$BLUE        STATIC     ATOMS    COLORGROUP SYSTEM
5 43 44 45 46 47
ATOM$RED        STATIC     ATOMS    COLORGROUP SYSTEM
2 29 42
