#       Name:                AV-unprocessed.smi:3349
#       Creating user name   scv26
#       Creation time:       Fri Mar 27 19:36:40 2020


#       File generated by GOLD software.
#

@<TRIPOS>MOLECULE
AV-unprocessed.smi:3349
    47    48     1
SMALL
NO_CHARGES


@<TRIPOS>ATOM
      1 ****        -0.3943   1.6982  -1.2496 C.3            1 S1                 0.0000
      2 ****        -0.8999   1.0281   0.0518 C.3            1 S1                 0.0000
      3 ****        -0.3139  -0.4052   0.1947 C.3            1 S1                 0.0000
      4 ****         1.1449  -0.4441   0.1207 N.am           1 S1                 0.0000
      5 ****         1.8624  -0.9209  -0.9102 C.2            1 S1                 0.0000
      6 ****         1.3483  -1.3576  -1.9405 O.2            1 S1                 0.0000
      7 ****         3.3910  -0.8844  -0.7479 C.3            1 S1                 0.0000
      8 ****         4.1384  -0.9349  -2.0963 C.3            1 S1                 0.0000
      9 ****         3.8294  -1.9354   0.1623 N.pl3          1 S1                 0.0000
     10 ****         4.1376  -1.8737   1.4595 C.2            1 S1                 0.0000
     11 ****         4.4572  -3.0437   1.9942 N.2            1 S1                 0.0000
     12 ****         4.3081  -3.8437   0.8971 C.2            1 S1                 0.0000
     13 ****         3.9237  -3.2326  -0.2232 N.2            1 S1                 0.0000
     14 ****        -2.4008   1.0442   0.1244 N.4            1 S1                 1.0000
     15 ****        -2.9693   0.2695   1.2643 C.3            1 S1                 0.0000
     16 ****        -4.5063   0.3307   1.2841 C.3            1 S1                 0.0000
     17 ****        -4.9342   1.6820   1.3312 O.3            1 S1                 0.0000
     18 ****        -4.5128   2.3914   0.1779 C.3            1 S1                 0.0000
     19 ****        -2.9766   2.4192   0.1205 C.3            1 S1                 0.0000
     20 ****         0.6919   1.6772  -1.3256 H              1 S1                 0.0000
     21 ****        -0.6554   2.7530  -1.3099 H              1 S1                 0.0000
     22 ****        -0.7942   1.1986  -2.1325 H              1 S1                 0.0000
     23 ****        -0.5277   1.6150   0.8932 H              1 S1                 0.0000
     24 ****        -0.5462  -0.8217   1.1737 H              1 S1                 0.0000
     25 ****        -0.7649  -1.0736  -0.5409 H              1 S1                 0.0000
     26 ****         1.6493  -0.1011   0.9256 H              1 S1                 0.0000
     27 ****         3.6409   0.0689  -0.2792 H              1 S1                 0.0000
     28 ****         3.8365  -0.1116  -2.7447 H              1 S1                 0.0000
     29 ****         3.9514  -1.8650  -2.6348 H              1 S1                 0.0000
     30 ****         5.2151  -0.8524  -1.9460 H              1 S1                 0.0000
     31 ****         4.1231  -0.9543   2.0264 H              1 S1                 0.0000
     32 ****         4.4813  -4.9094   0.9269 H              1 S1                 0.0000
     33 ****        -2.6971  -0.7826   1.1965 H              1 S1                 0.0000
     34 ****        -2.5678   0.6529   2.2036 H              1 S1                 0.0000
     35 ****        -4.9282  -0.1693   0.4106 H              1 S1                 0.0000
     36 ****        -4.8898  -0.1898   2.1617 H              1 S1                 0.0000
     37 ****        -4.9305   1.9363  -0.7218 H              1 S1                 0.0000
     38 ****        -4.9032   3.4079   0.2291 H              1 S1                 0.0000
     39 ****        -2.5840   2.9816   0.9690 H              1 S1                 0.0000
     40 ****        -2.6999   2.9614  -0.7811 H              1 S1                 0.0000
     41 ****        -2.7320   0.5905  -0.7154 H              1 S1                 0.0000
     42 ****         0.3530  -1.3679  -2.0371 LP             1 S1                 0.0000
     43 ****         1.9261  -1.7019  -2.6805 LP             1 S1                 0.0000
     44 ****         4.7285  -3.2738   2.9288 LP             1 S1                 0.0000
     45 ****         3.7484  -3.6310  -1.1235 LP             1 S1                 0.0000
     46 ****        -4.5471   2.1191   2.1431 LP             1 S1                 0.0000
     47 ****        -5.9326   1.7068   1.3833 LP             1 S1                 0.0000
@<TRIPOS>BOND
    1    1    2 1     
    2    1   20 1     
    3    1   21 1     
    4    1   22 1     
    5    2    3 1     
    6    2   14 1     
    7    2   23 1     
    8    3    4 1     
    9    3   24 1     
   10    3   25 1     
   11    4    5 am    
   12    4   26 1     
   13    5    6 2     
   14    5    7 1     
   15    7    8 1     
   16    7    9 1     
   17    7   27 1     
   18    8   28 1     
   19    8   29 1     
   20    8   30 1     
   21    9   13 1     
   22    9   10 1     
   23   10   11 2     
   24   10   31 1     
   25   11   12 1     
   26   12   13 2     
   27   12   32 1     
   28   14   19 1     
   29   14   15 1     
   30   14   41 1     
   31   15   16 1     
   32   15   33 1     
   33   15   34 1     
   34   16   17 1     
   35   16   35 1     
   36   16   36 1     
   37   17   18 1     
   38   18   19 1     
   39   18   37 1     
   40   18   38 1     
   41   19   39 1     
   42   19   40 1     
   43    6   42 1     
   44    6   43 1     
   45   11   44 1     
   46   13   45 1     
   47   17   46 1     
   48   17   47 1     
@<TRIPOS>SUBSTRUCTURE
      1 S1             1
@<TRIPOS>SET
LONE_PAIRS      STATIC     ATOMS    <user>   **** ""
6 42 43 44 45 46 47
DONOR_HYDROGENS      STATIC     ATOMS    <user>   **** ""
2 26 41
ATOM$BLUE        STATIC     ATOMS    COLORGROUP SYSTEM
6 42 43 44 45 46 47
ATOM$RED        STATIC     ATOMS    COLORGROUP SYSTEM
2 26 41
