#       Name:                AV-unprocessed.smi:216
#       Creating user name   scv26
#       Creation time:       Thu Mar 26 20:05:18 2020


#       File generated by GOLD software.
#

@<TRIPOS>MOLECULE
AV-unprocessed.smi:216
    73    77     1
SMALL
NO_CHARGES


@<TRIPOS>ATOM
      1 ****        -6.3045   0.2508  -0.6240 C.3            1 S1                 0.0000
      2 ****        -4.8782   0.7751  -0.3507 C.3            1 S1                 0.0000
      3 ****        -4.4111   1.6358  -1.5422 C.3            1 S1                 0.0000
      4 ****        -3.0459   2.2741  -1.2734 C.3            1 S1                 0.0000
      5 ****        -2.0663   1.2564  -0.9036 N.3            1 S1                 0.0000
      6 ****        -0.7590   1.6251  -0.9177 C.ar           1 S1                 0.0000
      7 ****        -0.4219   2.9383  -0.8028 N.ar           1 S1                 0.0000
      8 ****         0.8607   3.3114  -0.8124 C.ar           1 S1                 0.0000
      9 ****         1.9496   2.5495  -0.9228 N.ar           1 S1                 0.0000
     10 ****         1.6218   1.2309  -1.0371 C.ar           1 S1                 0.0000
     11 ****         0.3052   0.6884  -1.0486 C.ar           1 S1                 0.0000
     12 ****         0.3666  -0.6903  -1.2069 N.2            1 S1                 0.0000
     13 ****         1.6432  -0.9496  -1.2720 C.2            1 S1                 0.0000
     14 ****         2.4713   0.1447  -1.1626 N.pl3          1 S1                 0.0000
     15 ****         3.9268   0.1413  -1.2064 C.3            1 S1                 0.0000
     16 ****         4.6248   0.0106   0.1803 C.3            1 S1                 0.0000
     17 ****         4.1617  -1.2795   0.9169 C.3            1 S1                 0.0000
     18 ****         4.4214  -2.4482   0.1651 O.3            1 S1                 0.0000
     19 ****         6.1578   0.0126  -0.0448 C.3            1 S1                 0.0000
     20 ****         6.9577   0.1847   1.2590 C.3            1 S1                 0.0000
     21 ****         6.5598   1.3809   1.9155 O.3            1 S1                 0.0000
     22 ****         5.1908   1.3695   2.2972 C.3            1 S1                 0.0000
     23 ****         4.2944   1.2491   1.0511 C.3            1 S1                 0.0000
     24 ****        -2.4501   0.4310   0.2421 C.3            1 S1                 0.0000
     25 ****        -3.8078  -0.3060   0.0348 C.3            1 S1                 0.0000
     26 ****        -4.2048  -0.9879   1.3763 C.3            1 S1                 0.0000
     27 ****        -3.2780  -2.1477   1.7839 C.3            1 S1                 0.0000
     28 ****        -3.2037  -3.2076   0.6777 C.3            1 S1                 0.0000
     29 ****        -2.7641  -2.5836  -0.6525 C.3            1 S1                 0.0000
     30 ****        -3.6753  -1.4099  -1.0575 C.3            1 S1                 0.0000
     31 ****        -6.3451  -0.3931  -1.5017 H              1 S1                 0.0000
     32 ****        -6.9833   1.0826  -0.8137 H              1 S1                 0.0000
     33 ****        -6.7214  -0.2977   0.2186 H              1 S1                 0.0000
     34 ****        -4.9650   1.4503   0.5022 H              1 S1                 0.0000
     35 ****        -4.3633   1.0328  -2.4492 H              1 S1                 0.0000
     36 ****        -5.1374   2.4241  -1.7423 H              1 S1                 0.0000
     37 ****        -2.7148   2.8098  -2.1643 H              1 S1                 0.0000
     38 ****        -3.1306   3.0048  -0.4676 H              1 S1                 0.0000
     39 ****         1.0393   4.3722  -0.7170 H              1 S1                 0.0000
     40 ****         2.0190  -1.9544  -1.3992 H              1 S1                 0.0000
     41 ****         4.2388  -0.6717  -1.8634 H              1 S1                 0.0000
     42 ****         4.2472   1.0571  -1.7053 H              1 S1                 0.0000
     43 ****         4.6580  -1.3933   1.8791 H              1 S1                 0.0000
     44 ****         3.0947  -1.2410   1.1366 H              1 S1                 0.0000
     45 ****         4.1395  -3.1975   0.6678 H              1 S1                 0.0000
     46 ****         6.4755  -0.8963  -0.5566 H              1 S1                 0.0000
     47 ****         6.4236   0.8349  -0.7107 H              1 S1                 0.0000
     48 ****         6.8357  -0.6714   1.9230 H              1 S1                 0.0000
     49 ****         8.0218   0.2522   1.0327 H              1 S1                 0.0000
     50 ****         5.0035   0.5636   3.0071 H              1 S1                 0.0000
     51 ****         4.9701   2.3001   2.8204 H              1 S1                 0.0000
     52 ****         4.4251   2.1543   0.4566 H              1 S1                 0.0000
     53 ****         3.2484   1.2361   1.3586 H              1 S1                 0.0000
     54 ****        -1.6594  -0.2772   0.4807 H              1 S1                 0.0000
     55 ****        -2.5239   1.0896   1.1087 H              1 S1                 0.0000
     56 ****        -4.2367  -0.2498   2.1785 H              1 S1                 0.0000
     57 ****        -5.2111  -1.3975   1.3097 H              1 S1                 0.0000
     58 ****        -2.2790  -1.7774   2.0134 H              1 S1                 0.0000
     59 ****        -3.6465  -2.6051   2.7026 H              1 S1                 0.0000
     60 ****        -2.5112  -3.9991   0.9651 H              1 S1                 0.0000
     61 ****        -4.1801  -3.6779   0.5554 H              1 S1                 0.0000
     62 ****        -1.7304  -2.2530  -0.5750 H              1 S1                 0.0000
     63 ****        -2.7767  -3.3428  -1.4349 H              1 S1                 0.0000
     64 ****        -4.6552  -1.8288  -1.2816 H              1 S1                 0.0000
     65 ****        -3.3102  -0.9865  -1.9930 H              1 S1                 0.0000
     66 ****        -2.1107   0.6426  -1.6919 LP             1 S1                 0.0000
     67 ****        -1.1393   3.6288  -0.7106 LP             1 S1                 0.0000
     68 ****         2.8861   2.9001  -0.9219 LP             1 S1                 0.0000
     69 ****        -0.3946  -1.3368  -1.2591 LP             1 S1                 0.0000
     70 ****         5.4011  -2.5175  -0.0229 LP             1 S1                 0.0000
     71 ****         3.9180  -2.4126  -0.6983 LP             1 S1                 0.0000
     72 ****         6.7126   2.1512   1.2965 LP             1 S1                 0.0000
     73 ****         7.1195   1.4965   2.7360 LP             1 S1                 0.0000
@<TRIPOS>BOND
    1    1    2 1     
    2    1   31 1     
    3    1   32 1     
    4    1   33 1     
    5    2   25 1     
    6    2    3 1     
    7    2   34 1     
    8    3    4 1     
    9    3   35 1     
   10    3   36 1     
   11    4    5 1     
   12    4   37 1     
   13    4   38 1     
   14    5    6 1     
   15    5   24 1     
   16    6   11 ar    
   17    6    7 ar    
   18    7    8 ar    
   19    8    9 ar    
   20    8   39 1     
   21    9   10 ar    
   22   10   14 1     
   23   10   11 ar    
   24   11   12 1     
   25   12   13 2     
   26   13   14 1     
   27   13   40 1     
   28   14   15 1     
   29   15   16 1     
   30   15   41 1     
   31   15   42 1     
   32   16   23 1     
   33   16   17 1     
   34   16   19 1     
   35   17   18 1     
   36   17   43 1     
   37   17   44 1     
   38   18   45 1     
   39   19   20 1     
   40   19   46 1     
   41   19   47 1     
   42   20   21 1     
   43   20   48 1     
   44   20   49 1     
   45   21   22 1     
   46   22   23 1     
   47   22   50 1     
   48   22   51 1     
   49   23   52 1     
   50   23   53 1     
   51   24   25 1     
   52   24   54 1     
   53   24   55 1     
   54   25   30 1     
   55   25   26 1     
   56   26   27 1     
   57   26   56 1     
   58   26   57 1     
   59   27   28 1     
   60   27   58 1     
   61   27   59 1     
   62   28   29 1     
   63   28   60 1     
   64   28   61 1     
   65   29   30 1     
   66   29   62 1     
   67   29   63 1     
   68   30   64 1     
   69   30   65 1     
   70    5   66 1     
   71    7   67 1     
   72    9   68 1     
   73   12   69 1     
   74   18   70 1     
   75   18   71 1     
   76   21   72 1     
   77   21   73 1     
@<TRIPOS>SUBSTRUCTURE
      1 S1             1
@<TRIPOS>SET
LONE_PAIRS      STATIC     ATOMS    <user>   **** ""
8 66 67 68 69 70 71 72 73
DONOR_HYDROGENS      STATIC     ATOMS    <user>   **** ""
1 45
ATOM$BLUE        STATIC     ATOMS    COLORGROUP SYSTEM
8 66 67 68 69 70 71 72 73
ATOM$RED        STATIC     ATOMS    COLORGROUP SYSTEM
1 45
