AV-unprocessed.smi:1113|AV-procd|sdf|4799|dock2
  -GOLD-   22720 3343D 1   1.00000     0.00000
 Structure written by MMmdl.
 40 41  0  0  0  0  0  0  0  0  1 V2000
  144.5985  137.2236  152.8800 C   0  0  0  0  0  0  0  0  0  0  0  0
  145.7025  136.9823  151.8417 C   0  0  1  0  0  0  0  0  0  0  0  0
  145.0743  136.5053  150.6694 O   0  0  0  0  0  0  0  0  0  0  0  0
  146.4781  138.2737  151.5179 C   0  0  0  0  0  0  0  0  0  0  0  0
  147.6576  138.4198  152.3643 N   0  0  0  0  0  0  0  0  0  0  0  0
  147.8967  139.4562  153.1798 C   0  0  0  0  0  0  0  0  0  0  0  0
  147.1258  140.4061  153.3145 O   0  0  0  0  0  0  0  0  0  0  0  0
  149.0811  139.3196  153.8004 N   0  0  0  0  0  0  0  0  0  0  0  0
  149.6945  140.1826  154.7490 C   0  0  0  0  0  0  0  0  0  0  0  0
  149.3158  141.5265  154.9739 C   0  0  0  0  0  0  0  0  0  0  0  0
  149.9931  142.2702  155.9592 C   0  0  0  0  0  0  0  0  0  0  0  0
  151.0267  141.6557  156.7049 C   0  0  0  0  0  0  0  0  0  0  0  0
  151.7160  142.3837  157.6994 N   0  0  0  0  0  0  0  0  0  0  0  0
  151.5088  143.8299  157.6846 C   0  0  0  0  0  0  0  0  0  0  0  0
  152.5337  144.5281  158.5953 C   0  0  0  0  0  0  0  0  0  0  0  0
  152.4722  143.9745  159.9054 O   0  0  0  0  0  0  0  0  0  0  0  0
  152.7899  142.5868  159.9082 C   0  0  0  0  0  0  0  0  0  0  0  0
  151.7710  141.8205  159.0475 C   0  0  0  0  0  0  0  0  0  0  0  0
  151.3832  140.3658  156.4888 N   0  0  0  0  0  0  0  0  0  0  0  0
  150.7309  139.6562  155.5447 C   0  0  0  0  0  0  0  0  0  0  0  0
  145.0184  137.5740  153.8232 H   0  0  0  0  0  0  0  0  0  0  0  0
  144.0466  136.3063  153.0885 H   0  0  0  0  0  0  0  0  0  0  0  0
  143.8839  137.9724  152.5362 H   0  0  0  0  0  0  0  0  0  0  0  0
  146.3809  136.2157  152.2184 H   0  0  0  0  0  0  0  0  0  0  0  0
  144.4792  137.1687  150.3550 H   0  0  0  0  0  0  0  0  0  0  0  0
  146.7268  138.3369  150.4568 H   0  0  0  0  0  0  0  0  0  0  0  0
  145.8455  139.1361  151.7294 H   0  0  0  0  0  0  0  0  0  0  0  0
  148.3480  137.6853  152.3127 H   0  0  0  0  0  0  0  0  0  0  0  0
  149.6338  138.5211  153.5252 H   0  0  0  0  0  0  0  0  0  0  0  0
  148.5181  142.0004  154.4241 H   0  0  0  0  0  0  0  0  0  0  0  0
  149.7189  143.3018  156.1217 H   0  0  0  0  0  0  0  0  0  0  0  0
  151.5923  144.2405  156.6795 H   0  0  0  0  0  0  0  0  0  0  0  0
  150.4965  144.0429  158.0307 H   0  0  0  0  0  0  0  0  0  0  0  0
  153.5432  144.4272  158.1930 H   0  0  0  0  0  0  0  0  0  0  0  0
  152.3195  145.5955  158.6515 H   0  0  0  0  0  0  0  0  0  0  0  0
  153.8052  142.4342  159.5384 H   0  0  0  0  0  0  0  0  0  0  0  0
  152.7666  142.2190  160.9340 H   0  0  0  0  0  0  0  0  0  0  0  0
  150.7813  141.8765  159.5028 H   0  0  0  0  0  0  0  0  0  0  0  0
  152.0532  140.7676  159.0059 H   0  0  0  0  0  0  0  0  0  0  0  0
  151.0523  138.6324  155.4196 H   0  0  0  0  0  0  0  0  0  0  0  0
  1  2  1  0  0  0  0
  1 21  1  0  0  0  0
  1 22  1  0  0  0  0
  1 23  1  0  0  0  0
  2  3  1  0  0  0  0
  2  4  1  0  0  0  0
  2 24  1  0  0  0  0
  3 25  1  0  0  0  0
  4  5  1  0  0  0  0
  4 26  1  0  0  0  0
  4 27  1  0  0  0  0
  5  6  1  0  0  0  0
  5 28  1  0  0  0  0
  6  7  2  0  0  0  0
  6  8  1  0  0  0  0
  8  9  1  0  0  0  0
  8 29  1  0  0  0  0
  9 20  1  0  0  0  0
  9 10  2  0  0  0  0
 10 11  1  0  0  0  0
 10 30  1  0  0  0  0
 11 12  2  0  0  0  0
 11 31  1  0  0  0  0
 12 13  1  0  0  0  0
 12 19  1  0  0  0  0
 13 18  1  0  0  0  0
 13 14  1  0  0  0  0
 14 15  1  0  0  0  0
 14 32  1  0  0  0  0
 14 33  1  0  0  0  0
 15 16  1  0  0  0  0
 15 34  1  0  0  0  0
 15 35  1  0  0  0  0
 16 17  1  0  0  0  0
 17 18  1  0  0  0  0
 17 36  1  0  0  0  0
 17 37  1  0  0  0  0
 18 38  1  0  0  0  0
 18 39  1  0  0  0  0
 19 20  2  0  0  0  0
 20 40  1  0  0  0  0
M  END
> <s_m_source_file>
AV-unprocessed.smi

> <i_m_source_file_index>
1113

> <i_lp_mmshare_version>
43012

> <i_f3d_flags>
0

> <s_epik_input>
W0NIM11bQ0BIXShbT0hdKVtDSDJdW05IXUMoPU8pW05IXWMxW2NIXVtjSF1jKG5bY0hdMSlOMltDSDJdW0NIMl1PW0NIMl1bQ0gyXTI=

> <s_epik_cmdline>
J2VwaWtfcHl0aG9uJywgJy1waCcsICc3LjAnLCAnLXRuJywgJzgnLCAnLW1hJywgJzIwMCcsICctbWV0YWxfYmluZGluZycsICctaW1hZScsICc8aW5maWxlLm1hZT4nLCAnLW9tYWUnLCAnPG91dGZpbGUubWFlPic=

> <r_lp_tautomer_probability>
1

> <r_epik_Ionization_Penalty>
0.00204837

> <r_epik_Ionization_Penalty_Charging>
0

> <r_epik_Ionization_Penalty_Neutral>
0.00204837

> <r_epik_State_Penalty>
0.00137592

> <r_epik_Charging_Adjusted_Penalty>
0.00137592

> <i_epik_Tot_Q>
0

> <i_epik_Tot_abs_Q>
0

> <r_epik_Metal_State_Penalty>
-0

> <b_epik_Metal_Only>
0

> <s_lp_Force_Field>
OPLS_2005

> <r_lp_Energy>
20.0691

> <b_lp_Chiralities_Consistent>
1

> <s_lp_Variant>
AV-unprocessed.smi:1113-2

> <Gold.Version>
5.8.1

> <Gold.Id.Protein>
6NUR|6NUR_protein|mol2

> <Gold.PLP.Fitness>
42.6963

> <Gold.PLP.PLP>
-37.6747

> <Gold.PLP.part.hbond>
-4.0000

> <Gold.PLP.part.metal>
0.0000

> <Gold.PLP.part.buried>
2.7809

> <Gold.PLP.part.nonpolar>
-37.9568

> <Gold.PLP.part.repulsive>
0.4037

> <Gold.PLP.ligand.clash>
0.0000

> <Gold.PLP.ligand.torsion>
0.6632

> <Gold.PLP.Chemscore.Hbond>
2.0000

> <Gold.PLP.Chemscore.CHOScore>
0.0000

> <Gold.PLP.Chemscore.Metal>
0.0000

> <Gold.Chemscore.Hbonds>
donor molecule, donor type, donor heavy atom, donor atom, acceptor molecule, acceptor atom, score
      L1  H     3    25       P1 10171  1.00
      L1  H     5    28       P1  7948  1.00

> <Gold.PLP.Chemscore.Internal.Correction>
0.3480

> <Gold.Rescore>
     Score         DG    S(hbond)    S(metal)    S(lipo)     H(rot)  DE(clash)    DE(int)     intcor
     13.36     -18.07       1.96        0.00      97.17       2.08       2.89       1.82       ----

> <Gold.Chemscore.Fitness>
13.3634

> <Gold.Chemscore.DG>
-18.0746

> <Gold.Chemscore.ZeroCoef>
-5.4800

> <Gold.Chemscore.Hbond>
1.9611

> <Gold.Chemscore.Metal>
0.0000

> <Gold.Chemscore.Lipo>
97.1720

> <Gold.Chemscore.Internal_Hbond>
0.0000

> <Gold.Chemscore.DEClash>
2.8872

> <Gold.Chemscore.DEInternal>
1.8239

> <Gold.Chemscore.Rot>
2.0799

> <Gold.Chemscore.Internal.Correction>
   9.000000E+99

> <Gold.Chemscore.Hbonds>
donor molecule, donor type, donor heavy atom, donor atom, acceptor molecule, acceptor atom, score
      L1  H     3    25       P1 10171  0.99
      L1  H     5    28       P1  7948  0.97

> <Gold.Chemscore.Hbond.Weighted>
-6.5501

> <Gold.Chemscore.Metal.Weighted>
-0.0000

> <Gold.Chemscore.Lipo.Weighted>
-11.3691

> <Gold.Chemscore.Internal_Hbond.Weighted>
0.0000

> <Gold.Chemscore.DEClash.Weighted>
2.8872

> <Gold.Chemscore.DEInternal.Weighted>
1.8239

> <Gold.Chemscore.Rot.Weighted>
5.3246

> <Gold.Chemscore.Internal.Correction.Weighted>
   9.000000E+99

> <Gold.Protein.RotatedTorsions>
[ 6907 6896 6895 6894 ] final   -4.28 input  -60.11 | X-H torsion
[ 7974 7965 7964 7962 ] final  -58.55 input  175.53 | X-H torsion
[ 8008 7997 7996 7995 ] final  -49.18 input   59.86 | X-H torsion
[ 10167 10162 10161 10158 ] final  -54.81 input  -65.29 | X-H torsion
[ 10718 10713 10712 10709 ] final  145.27 input   66.30 | X-H torsion
[ 10763 10752 10751 10750 ] final   88.70 input  -60.55 | X-H torsion
[ 11005 11000 10999 10996 ] final  -99.85 input  -57.11 | X-H torsion

> <Gold.Protein.ActiveResidues>
 VAL166  LYS551  ARG553  GLY616  TRP617  ASP618  TYR619  PRO620  LYS621  CYS622 
 ASP623  PHE694  ASN695  SER759  ASP760  ASP761  ALA762  ILE779  LEU786  VAL792 
 PHE793  MET794  SER795  GLU796  ALA797  LYS798  CYS799  TRP800  GLU811  SER814 

> <Gold.Protein.RotatedAtoms>
  151.5001  135.1061  159.9826 H   0  0  0  0  0  0  0  0  0  0  0  0  # atno 6907 bound_to 6896
  152.4705  133.8015  159.6966 H   0  0  0  0  0  0  0  0  0  0  0  0  # atno 6908 bound_to 6896
  150.8712  133.7440  159.2986 H   0  0  0  0  0  0  0  0  0  0  0  0  # atno 6909 bound_to 6896
  145.8380  140.8436  143.0049 H   0  0  0  0  0  0  0  0  0  0  0  0  # atno 7974 bound_to 7965
  154.4040  140.1303  156.4460 H   0  0  0  0  0  0  0  0  0  0  0  0  # atno 8008 bound_to 7997
  155.7412  140.3490  155.5085 H   0  0  0  0  0  0  0  0  0  0  0  0  # atno 8009 bound_to 7997
  155.9037  140.1024  157.1321 H   0  0  0  0  0  0  0  0  0  0  0  0  # atno 8010 bound_to 7997
  140.6410  143.2507  151.4990 H   0  0  0  0  0  0  0  0  0  0  0  0  # atno 10167 bound_to 10162
  157.3472  131.0945  151.1031 H   0  0  0  0  0  0  0  0  0  0  0  0  # atno 10718 bound_to 10713
  153.1795  135.4497  155.0009 H   0  0  0  0  0  0  0  0  0  0  0  0  # atno 10763 bound_to 10752
  154.8021  135.3259  154.7527 H   0  0  0  0  0  0  0  0  0  0  0  0  # atno 10764 bound_to 10752
  153.7993  135.6964  153.4913 H   0  0  0  0  0  0  0  0  0  0  0  0  # atno 10765 bound_to 10752
  141.1293  133.8353  157.1025 H   0  0  0  0  0  0  0  0  0  0  0  0  # atno 11005 bound_to 11000
  144.6735  140.0770  143.7471 LP  0  0  0  0  0  0  0  0  0  0  0  0  # atno 17320 bound_to 7965
  145.9497  139.2725  143.1219 LP  0  0  0  0  0  0  0  0  0  0  0  0  # atno 17321 bound_to 7965
  139.5619  144.2136  152.1704 LP  0  0  0  0  0  0  0  0  0  0  0  0  # atno 17342 bound_to 10162
  140.1406  144.5205  150.6746 LP  0  0  0  0  0  0  0  0  0  0  0  0  # atno 17343 bound_to 10162
  157.2221  130.6486  149.5815 LP  0  0  0  0  0  0  0  0  0  0  0  0  # atno 17370 bound_to 10713
  155.9716  130.4626  150.6151 LP  0  0  0  0  0  0  0  0  0  0  0  0  # atno 17371 bound_to 10713
  140.0324  134.9894  157.0807 LP  0  0  0  0  0  0  0  0  0  0  0  0  # atno 17394 bound_to 11000
  140.4263  134.1827  155.7166 LP  0  0  0  0  0  0  0  0  0  0  0  0  # atno 17395 bound_to 11000

$$$$
