#       Name:                AV-unprocessed.smi:155
#       Creating user name   scv26
#       Creation time:       Thu Mar 26 18:53:46 2020


#       File generated by GOLD software.
#

@<TRIPOS>MOLECULE
AV-unprocessed.smi:155
    71    74     1
SMALL
NO_CHARGES


@<TRIPOS>ATOM
      1 ****        -2.3000   1.1736   0.4727 C.3            1 S1                 0.0000
      2 ****        -3.6424   1.7307   0.3508 N.3            1 S1                 0.0000
      3 ****        -3.5152   3.1690   0.1519 C.3            1 S1                 0.0000
      4 ****        -4.3761   1.1577  -0.7791 C.3            1 S1                 0.0000
      5 ****        -4.8775  -0.2796  -0.5098 C.3            1 S1                 0.0000
      6 ****        -3.8514  -1.3217  -0.7771 N.4            1 S1                 1.0000
      7 ****        -4.0705  -2.5833  -0.0214 C.3            1 S1                 0.0000
      8 ****        -2.7503  -3.0668   0.6036 C.3            1 S1                 0.0000
      9 ****        -1.7227  -3.6011  -0.4130 C.3            1 S1                 0.0000
     10 ****        -1.4514  -2.6679  -1.5062 N.pl3          1 S1                 0.0000
     11 ****        -0.5688  -1.6313  -1.3714 C.ar           1 S1                 0.0000
     12 ****        -0.4185  -0.7910  -2.4315 N.ar           1 S1                 0.0000
     13 ****         0.4067   0.2562  -2.3744 C.ar           1 S1                 0.0000
     14 ****         1.1710   0.6560  -1.3604 N.ar           1 S1                 0.0000
     15 ****         1.0390  -0.1748  -0.2888 C.ar           1 S1                 0.0000
     16 ****         0.2080  -1.3324  -0.2065 C.ar           1 S1                 0.0000
     17 ****         0.3541  -1.9041   1.0545 N.2            1 S1                 0.0000
     18 ****         1.2076  -1.1368   1.6736 C.2            1 S1                 0.0000
     19 ****         1.6679  -0.0718   0.9387 N.pl3          1 S1                 0.0000
     20 ****         2.6163   0.9384   1.3741 C.3            1 S1                 0.0000
     21 ****         4.0731   0.4404   1.3149 C.3            1 S1                 0.0000
     22 ****         4.4025  -0.0059   0.0126 O.3            1 S1                 0.0000
     23 ****         5.0885   1.5000   1.7880 C.3            1 S1                 0.0000
     24 ****         6.5702   1.0932   1.7089 C.3            1 S1                 0.0000
     25 ****         7.1985   2.1782   0.8518 C.3            1 S1                 0.0000
     26 ****         6.2260   3.3404   1.0078 C.3            1 S1                 0.0000
     27 ****         4.9622   2.6980   1.0273 O.3            1 S1                 0.0000
     28 ****        -2.4955  -2.5839  -2.5330 C.3            1 S1                 0.0000
     29 ****        -3.5926  -1.5380  -2.2282 C.3            1 S1                 0.0000
     30 ****        -2.3322   0.1172   0.7319 H              1 S1                 0.0000
     31 ****        -1.7474   1.6752   1.2681 H              1 S1                 0.0000
     32 ****        -1.7362   1.2862  -0.4541 H              1 S1                 0.0000
     33 ****        -4.4974   3.6392   0.0908 H              1 S1                 0.0000
     34 ****        -2.9689   3.3981  -0.7646 H              1 S1                 0.0000
     35 ****        -2.9859   3.6278   0.9880 H              1 S1                 0.0000
     36 ****        -5.2654   1.7714  -0.9305 H              1 S1                 0.0000
     37 ****        -3.8002   1.2418  -1.7003 H              1 S1                 0.0000
     38 ****        -5.2228  -0.3271   0.5240 H              1 S1                 0.0000
     39 ****        -5.7524  -0.4893  -1.1265 H              1 S1                 0.0000
     40 ****        -4.7762  -2.4239   0.7942 H              1 S1                 0.0000
     41 ****        -4.5201  -3.3501  -0.6542 H              1 S1                 0.0000
     42 ****        -2.3177  -2.2586   1.1925 H              1 S1                 0.0000
     43 ****        -2.9684  -3.8633   1.3156 H              1 S1                 0.0000
     44 ****        -0.7995  -3.9006   0.0801 H              1 S1                 0.0000
     45 ****        -2.1097  -4.5241  -0.8458 H              1 S1                 0.0000
     46 ****         0.4584   0.8624  -3.2669 H              1 S1                 0.0000
     47 ****         1.5265  -1.3272   2.6883 H              1 S1                 0.0000
     48 ****         2.4876   1.8271   0.7551 H              1 S1                 0.0000
     49 ****         2.3598   1.2310   2.3931 H              1 S1                 0.0000
     50 ****         4.1651  -0.4267   1.9699 H              1 S1                 0.0000
     51 ****         4.3410   0.7291  -0.5785 H              1 S1                 0.0000
     52 ****         4.8629   1.7599   2.8235 H              1 S1                 0.0000
     53 ****         7.0092   1.0955   2.7072 H              1 S1                 0.0000
     54 ****         6.7302   0.1017   1.2843 H              1 S1                 0.0000
     55 ****         8.2150   2.4288   1.1562 H              1 S1                 0.0000
     56 ****         7.2240   1.8571  -0.1904 H              1 S1                 0.0000
     57 ****         6.3872   3.8622   1.9525 H              1 S1                 0.0000
     58 ****         6.2979   4.0637   0.1952 H              1 S1                 0.0000
     59 ****        -2.0623  -2.4090  -3.5185 H              1 S1                 0.0000
     60 ****        -2.9683  -3.5634  -2.6112 H              1 S1                 0.0000
     61 ****        -4.5155  -1.8196  -2.7368 H              1 S1                 0.0000
     62 ****        -3.2798  -0.5933  -2.6699 H              1 S1                 0.0000
     63 ****        -2.9975  -0.9425  -0.3935 H              1 S1                 0.0000
     64 ****        -4.1535   1.5154   1.1829 LP             1 S1                 0.0000
     65 ****        -0.9366  -0.9617  -3.2696 LP             1 S1                 0.0000
     66 ****         1.7643   1.4607  -1.3824 LP             1 S1                 0.0000
     67 ****        -0.0967  -2.7237   1.4081 LP             1 S1                 0.0000
     68 ****         3.7643  -0.7217  -0.2708 LP             1 S1                 0.0000
     69 ****         5.3345  -0.3683   0.0053 LP             1 S1                 0.0000
     70 ****         4.2830   3.2982   1.4498 LP             1 S1                 0.0000
     71 ****         4.6786   2.4788   0.0938 LP             1 S1                 0.0000
@<TRIPOS>BOND
    1    1    2 1     
    2    1   30 1     
    3    1   31 1     
    4    1   32 1     
    5    2    3 1     
    6    2    4 1     
    7    3   33 1     
    8    3   34 1     
    9    3   35 1     
   10    4    5 1     
   11    4   36 1     
   12    4   37 1     
   13    5    6 1     
   14    5   38 1     
   15    5   39 1     
   16    6   29 1     
   17    6    7 1     
   18    6   63 1     
   19    7    8 1     
   20    7   40 1     
   21    7   41 1     
   22    8    9 1     
   23    8   42 1     
   24    8   43 1     
   25    9   10 1     
   26    9   44 1     
   27    9   45 1     
   28   10   11 1     
   29   10   28 1     
   30   11   16 ar    
   31   11   12 ar    
   32   12   13 ar    
   33   13   14 ar    
   34   13   46 1     
   35   14   15 ar    
   36   15   19 1     
   37   15   16 ar    
   38   16   17 1     
   39   17   18 2     
   40   18   19 1     
   41   18   47 1     
   42   19   20 1     
   43   20   21 1     
   44   20   48 1     
   45   20   49 1     
   46   21   22 1     
   47   21   23 1     
   48   21   50 1     
   49   22   51 1     
   50   23   27 1     
   51   23   24 1     
   52   23   52 1     
   53   24   25 1     
   54   24   53 1     
   55   24   54 1     
   56   25   26 1     
   57   25   55 1     
   58   25   56 1     
   59   26   27 1     
   60   26   57 1     
   61   26   58 1     
   62   28   29 1     
   63   28   59 1     
   64   28   60 1     
   65   29   61 1     
   66   29   62 1     
   67    2   64 1     
   68   12   65 1     
   69   14   66 1     
   70   17   67 1     
   71   22   68 1     
   72   22   69 1     
   73   27   70 1     
   74   27   71 1     
@<TRIPOS>SUBSTRUCTURE
      1 S1             1
@<TRIPOS>SET
LONE_PAIRS      STATIC     ATOMS    <user>   **** ""
8 64 65 66 67 68 69 70 71
DONOR_HYDROGENS      STATIC     ATOMS    <user>   **** ""
2 63 51
ATOM$BLUE        STATIC     ATOMS    COLORGROUP SYSTEM
8 64 65 66 67 68 69 70 71
ATOM$RED        STATIC     ATOMS    COLORGROUP SYSTEM
2 63 51
