#       Name:                AV-unprocessed.smi:618
#       Creating user name   scv26
#       Creation time:       Fri Mar 27 00:00:56 2020


#       File generated by GOLD software.
#

@<TRIPOS>MOLECULE
AV-unprocessed.smi:618
    46    48     1
SMALL
NO_CHARGES


@<TRIPOS>ATOM
      1 ****        -1.0422   1.8572  -1.2429 O.2            1 S1                 0.0000
      2 ****        -1.5494   0.8040  -1.6276 C.2            1 S1                 0.0000
      3 ****        -0.8409  -0.2958  -1.9194 N.am           1 S1                 0.0000
      4 ****         0.6094  -0.4158  -1.8112 C.3            1 S1                 0.0000
      5 ****         1.0307  -0.9754  -0.4421 C.3            1 S1                 0.0000
      6 ****         2.5464  -1.2774  -0.3884 C.3            1 S1                 0.0000
      7 ****         2.9194  -1.6963   0.9490 N.3            1 S1                 0.0000
      8 ****         4.3216  -1.9456   1.1896 C.3            1 S1                 0.0000
      9 ****         4.4481  -1.9512   2.7235 C.3            1 S1                 0.0000
     10 ****         3.1941  -1.1951   3.2165 C.3            1 S1                 0.0000
     11 ****         2.5720  -0.6888   1.9143 C.3            1 S1                 0.0000
     12 ****         1.0601  -0.4227   1.9008 C.3            1 S1                 0.0000
     13 ****         0.6972  -0.0236   0.5769 O.3            1 S1                 0.0000
     14 ****        -2.8658   0.5890  -1.7930 N.am           1 S1                 0.0000
     15 ****        -3.9445   1.4923  -1.5922 C.ar           1 S1                 0.0000
     16 ****        -3.8160   2.9026  -1.5866 C.ar           1 S1                 0.0000
     17 ****        -4.9682   3.6891  -1.3941 C.ar           1 S1                 0.0000
     18 ****        -6.2056   3.0392  -1.2217 C.ar           1 S1                 0.0000
     19 ****        -6.3450   1.6968  -1.2378 N.ar           1 S1                 0.0000
     20 ****        -5.2360   0.9493  -1.4230 C.ar           1 S1                 0.0000
     21 ****        -1.3422  -1.1174  -2.2238 H              1 S1                 0.0000
     22 ****         0.9398  -1.0932  -2.5991 H              1 S1                 0.0000
     23 ****         1.0987   0.5404  -2.0043 H              1 S1                 0.0000
     24 ****         0.4791  -1.8974  -0.2490 H              1 S1                 0.0000
     25 ****         2.8011  -2.0575  -1.1065 H              1 S1                 0.0000
     26 ****         3.1119  -0.3880  -0.6714 H              1 S1                 0.0000
     27 ****         4.6476  -2.8822   0.7366 H              1 S1                 0.0000
     28 ****         4.9250  -1.1381   0.7713 H              1 S1                 0.0000
     29 ****         4.4535  -2.9702   3.1120 H              1 S1                 0.0000
     30 ****         5.3708  -1.4657   3.0423 H              1 S1                 0.0000
     31 ****         2.5176  -1.8822   3.7269 H              1 S1                 0.0000
     32 ****         3.4343  -0.3819   3.9018 H              1 S1                 0.0000
     33 ****         3.0776   0.2423   1.6485 H              1 S1                 0.0000
     34 ****         0.4986  -1.3125   2.1896 H              1 S1                 0.0000
     35 ****         0.8007   0.3712   2.6012 H              1 S1                 0.0000
     36 ****        -3.1322  -0.3532  -2.0387 H              1 S1                 0.0000
     37 ****        -2.8685   3.3954  -1.7387 H              1 S1                 0.0000
     38 ****        -4.9051   4.7673  -1.3839 H              1 S1                 0.0000
     39 ****        -7.1084   3.6131  -1.0732 H              1 S1                 0.0000
     40 ****        -5.3858  -0.1207  -1.4324 H              1 S1                 0.0000
     41 ****        -0.0504   1.9238  -1.1334 LP             1 S1                 0.0000
     42 ****        -1.6218   2.6464  -1.0398 LP             1 S1                 0.0000
     43 ****         2.4211  -2.5588   1.0380 LP             1 S1                 0.0000
     44 ****        -0.2916   0.1242   0.5550 LP             1 S1                 0.0000
     45 ****         1.1672   0.8343   0.3692 LP             1 S1                 0.0000
     46 ****        -7.2409   1.2695  -1.1164 LP             1 S1                 0.0000
@<TRIPOS>BOND
    1    1    2 2     
    2    2    3 am    
    3    2   14 am    
    4    3    4 1     
    5    3   21 1     
    6    4    5 1     
    7    4   22 1     
    8    4   23 1     
    9    5   13 1     
   10    5    6 1     
   11    5   24 1     
   12    6    7 1     
   13    6   25 1     
   14    6   26 1     
   15    7   11 1     
   16    7    8 1     
   17    8    9 1     
   18    8   27 1     
   19    8   28 1     
   20    9   10 1     
   21    9   29 1     
   22    9   30 1     
   23   10   11 1     
   24   10   31 1     
   25   10   32 1     
   26   11   12 1     
   27   11   33 1     
   28   12   13 1     
   29   12   34 1     
   30   12   35 1     
   31   14   15 1     
   32   14   36 1     
   33   15   20 ar    
   34   15   16 ar    
   35   16   17 ar    
   36   16   37 1     
   37   17   18 ar    
   38   17   38 1     
   39   18   19 ar    
   40   18   39 1     
   41   19   20 ar    
   42   20   40 1     
   43    1   41 1     
   44    1   42 1     
   45    7   43 1     
   46   13   44 1     
   47   13   45 1     
   48   19   46 1     
@<TRIPOS>SUBSTRUCTURE
      1 S1             1
@<TRIPOS>SET
LONE_PAIRS      STATIC     ATOMS    <user>   **** ""
6 41 42 43 44 45 46
DONOR_HYDROGENS      STATIC     ATOMS    <user>   **** ""
2 21 36
ATOM$BLUE        STATIC     ATOMS    COLORGROUP SYSTEM
6 41 42 43 44 45 46
ATOM$RED        STATIC     ATOMS    COLORGROUP SYSTEM
2 21 36
