AV-unprocessed.smi:3277|AV-procd|sdf|12538|dock10
  -GOLD-   2272018453D 1   1.00000     0.00000
 Structure written by MMmdl.
 35 37  0  0  0  0  0  0  0  0  1 V2000
  159.1105  141.3591  159.0234 C   0  0  0  0  0  0  0  0  0  0  0  0
  158.0506  140.8040  159.8505 N   0  0  0  0  0  0  0  0  0  0  0  0
  157.0795  140.0003  159.3928 C   0  0  0  0  0  0  0  0  0  0  0  0
  156.9954  139.6429  158.2180 O   0  0  0  0  0  0  0  0  0  0  0  0
  156.0451  139.5236  160.4140 C   0  0  0  0  0  0  0  0  0  0  0  0
  154.7685  140.2555  160.1518 C   0  0  0  0  0  0  0  0  0  0  0  0
  154.6614  141.5861  160.1819 N   0  0  0  0  0  0  0  0  0  0  0  0
  153.3633  142.0385  159.9166 C   0  0  0  0  0  0  0  0  0  0  0  0
  153.0210  143.5082  159.9291 C   0  0  2  0  0  0  0  0  0  0  0  0
  152.0135  143.9417  161.0168 C   0  0  0  0  0  0  0  0  0  0  0  0
  151.0032  144.7862  160.2154 C   0  0  2  0  0  0  0  0  0  0  0  0
  150.1311  143.8543  159.3510 C   0  0  0  0  0  0  0  0  0  0  0  0
  151.0931  143.4349  158.2233 C   0  0  0  0  0  0  0  0  0  0  0  0
  152.4162  144.1117  158.6365 C   0  0  1  0  0  0  0  0  0  0  0  0
  151.8926  145.4448  159.1655 C   0  0  0  0  0  0  0  0  0  0  0  0
  152.4850  141.0120  159.6701 C   0  0  0  0  0  0  0  0  0  0  0  0
  153.2523  139.4509  159.7667 S   0  0  0  0  0  0  0  0  0  0  0  0
  159.7541  142.0009  159.6251 H   0  0  0  0  0  0  0  0  0  0  0  0
  158.6962  141.9572  158.2106 H   0  0  0  0  0  0  0  0  0  0  0  0
  159.7239  140.5654  158.5948 H   0  0  0  0  0  0  0  0  0  0  0  0
  158.0498  141.0513  160.8293 H   0  0  0  0  0  0  0  0  0  0  0  0
  155.8831  138.4491  160.3191 H   0  0  0  0  0  0  0  0  0  0  0  0
  156.3840  139.7209  161.4317 H   0  0  0  0  0  0  0  0  0  0  0  0
  153.9453  144.0562  160.1218 H   0  0  0  0  0  0  0  0  0  0  0  0
  151.5239  143.1056  161.5173 H   0  0  0  0  0  0  0  0  0  0  0  0
  152.5094  144.5371  161.7843 H   0  0  0  0  0  0  0  0  0  0  0  0
  150.4259  145.4760  160.8316 H   0  0  0  0  0  0  0  0  0  0  0  0
  149.7562  142.9996  159.9153 H   0  0  0  0  0  0  0  0  0  0  0  0
  149.2721  144.3878  158.9424 H   0  0  0  0  0  0  0  0  0  0  0  0
  151.1659  142.3565  158.0964 H   0  0  0  0  0  0  0  0  0  0  0  0
  150.7488  143.8392  157.2705 H   0  0  0  0  0  0  0  0  0  0  0  0
  153.1327  144.1940  157.8188 H   0  0  0  0  0  0  0  0  0  0  0  0
  151.3341  146.0186  158.4236 H   0  0  0  0  0  0  0  0  0  0  0  0
  152.6699  146.0799  159.5941 H   0  0  0  0  0  0  0  0  0  0  0  0
  151.4317  141.0802  159.4414 H   0  0  0  0  0  0  0  0  0  0  0  0
  1  2  1  0  0  0  0
  1 18  1  0  0  0  0
  1 19  1  0  0  0  0
  1 20  1  0  0  0  0
  2  3  1  0  0  0  0
  2 21  1  0  0  0  0
  3  4  2  0  0  0  0
  3  5  1  0  0  0  0
  5  6  1  0  0  0  0
  5 22  1  0  0  0  0
  5 23  1  0  0  0  0
  6 17  1  0  0  0  0
  6  7  2  0  0  0  0
  7  8  1  0  0  0  0
  8  9  1  0  0  0  0
  8 16  2  0  0  0  0
  9 14  1  0  0  0  0
  9 10  1  0  0  0  0
  9 24  1  0  0  0  0
 10 11  1  0  0  0  0
 10 25  1  0  0  0  0
 10 26  1  0  0  0  0
 11 15  1  0  0  0  0
 11 12  1  0  0  0  0
 11 27  1  0  0  0  0
 12 13  1  0  0  0  0
 12 28  1  0  0  0  0
 12 29  1  0  0  0  0
 13 14  1  0  0  0  0
 13 30  1  0  0  0  0
 13 31  1  0  0  0  0
 14 15  1  0  0  0  0
 14 32  1  0  0  0  0
 15 33  1  0  0  0  0
 15 34  1  0  0  0  0
 16 17  1  0  0  0  0
 16 35  1  0  0  0  0
M  END
> <s_m_source_file>
AV-unprocessed.smi

> <i_m_source_file_index>
3277

> <i_lp_mmshare_version>
43012

> <i_f3d_flags>
0

> <s_epik_input>
W0NIM11bTkhdQyg9TylbQ0gyXWMxbmMoW2NIXXMxKVtDQEhdKFtDSDJdW0NAQEhdMjMpW0NAQEhdKFtDSDJdMylbQ0gyXVtDSDJdMg==

> <s_epik_cmdline>
J2VwaWtfcHl0aG9uJywgJy1waCcsICc3LjAnLCAnLXRuJywgJzgnLCAnLW1hJywgJzIwMCcsICctbWV0YWxfYmluZGluZycsICctaW1hZScsICc8aW5maWxlLm1hZT4nLCAnLW9tYWUnLCAnPG91dGZpbGUubWFlPic=

> <r_lp_tautomer_probability>
1

> <r_epik_Ionization_Penalty>
8.50008e-05

> <r_epik_Ionization_Penalty_Charging>
0

> <r_epik_Ionization_Penalty_Neutral>
8.50008e-05

> <r_epik_State_Penalty>
-0

> <r_epik_Charging_Adjusted_Penalty>
0

> <i_epik_Tot_Q>
0

> <i_epik_Tot_abs_Q>
0

> <r_epik_Metal_State_Penalty>
-0

> <b_epik_Metal_Only>
0

> <s_lp_Force_Field>
OPLS_2005

> <r_lp_Energy>
46.0194

> <b_lp_Chiralities_Consistent>
1

> <s_lp_Variant>
AV-unprocessed.smi:3277-3

> <Gold.Version>
5.8.1

> <Gold.Id.Protein>
6NUR|6NUR_protein|mol2

> <Gold.PLP.Fitness>
44.3923

> <Gold.PLP.PLP>
-41.7261

> <Gold.PLP.part.hbond>
-2.5147

> <Gold.PLP.part.metal>
0.0000

> <Gold.PLP.part.buried>
-4.8818

> <Gold.PLP.part.nonpolar>
-35.2323

> <Gold.PLP.part.repulsive>
0.1021

> <Gold.PLP.ligand.clash>
0.0000

> <Gold.PLP.ligand.torsion>
0.1693

> <Gold.PLP.Chemscore.Hbond>
1.0000

> <Gold.PLP.Chemscore.CHOScore>
0.0000

> <Gold.PLP.Chemscore.Metal>
0.0000

> <Gold.Chemscore.Hbonds>
donor molecule, donor type, donor heavy atom, donor atom, acceptor molecule, acceptor atom, score
      P1  H  7997  8009       L1     4  1.00

> <Gold.PLP.Chemscore.Internal.Correction>
0.0047

> <Gold.Rescore>
     Score         DG    S(hbond)    S(metal)    S(lipo)     H(rot)  DE(clash)    DE(int)     intcor
     20.43     -20.67       1.00        0.00     132.24       1.41       0.07       0.17       ----

> <Gold.Chemscore.Fitness>
20.4275

> <Gold.Chemscore.DG>
-20.6744

> <Gold.Chemscore.ZeroCoef>
-5.4800

> <Gold.Chemscore.Hbond>
0.9992

> <Gold.Chemscore.Metal>
0.0000

> <Gold.Chemscore.Lipo>
132.2399

> <Gold.Chemscore.Internal_Hbond>
0.0000

> <Gold.Chemscore.DEClash>
0.0742

> <Gold.Chemscore.DEInternal>
0.1727

> <Gold.Chemscore.Rot>
1.4122

> <Gold.Chemscore.Internal.Correction>
   9.000000E+99

> <Gold.Chemscore.Hbonds>
donor molecule, donor type, donor heavy atom, donor atom, acceptor molecule, acceptor atom, score
      P1  H  7997  8009       L1     4  0.96

> <Gold.Chemscore.Hbond.Weighted>
-3.3374

> <Gold.Chemscore.Metal.Weighted>
-0.0000

> <Gold.Chemscore.Lipo.Weighted>
-15.4721

> <Gold.Chemscore.Internal_Hbond.Weighted>
0.0000

> <Gold.Chemscore.DEClash.Weighted>
0.0742

> <Gold.Chemscore.DEInternal.Weighted>
0.1727

> <Gold.Chemscore.Rot.Weighted>
3.6151

> <Gold.Chemscore.Internal.Correction.Weighted>
   9.000000E+99

> <Gold.Protein.RotatedTorsions>
[ 6907 6896 6895 6894 ] final   53.40 input  -60.11 | X-H torsion
[ 7974 7965 7964 7962 ] final  -22.34 input  175.53 | X-H torsion
[ 8008 7997 7996 7995 ] final   79.36 input   59.86 | X-H torsion
[ 10167 10162 10161 10158 ] final   24.42 input  -65.29 | X-H torsion
[ 10718 10713 10712 10709 ] final -177.71 input   66.30 | X-H torsion
[ 10763 10752 10751 10750 ] final  -99.55 input  -60.55 | X-H torsion
[ 11005 11000 10999 10996 ] final   86.67 input  -57.11 | X-H torsion

> <Gold.Protein.ActiveResidues>
 VAL166  LYS551  ARG553  GLY616  TRP617  ASP618  TYR619  PRO620  LYS621  CYS622 
 ASP623  PHE694  ASN695  SER759  ASP760  ASP761  ALA762  ILE779  LEU786  VAL792 
 PHE793  MET794  SER795  GLU796  ALA797  LYS798  CYS799  TRP800  GLU811  SER814 

> <Gold.Protein.RotatedAtoms>
  152.3333  134.7231  160.0283 H   0  0  0  0  0  0  0  0  0  0  0  0  # atno 6907 bound_to 6896
  151.7641  133.3330  159.3434 H   0  0  0  0  0  0  0  0  0  0  0  0  # atno 6908 bound_to 6896
  150.7435  134.6011  159.6081 H   0  0  0  0  0  0  0  0  0  0  0  0  # atno 6909 bound_to 6896
  146.1681  140.4465  142.8543 H   0  0  0  0  0  0  0  0  0  0  0  0  # atno 7974 bound_to 7965
  155.8686  140.3450  155.5805 H   0  0  0  0  0  0  0  0  0  0  0  0  # atno 8008 bound_to 7997
  155.7853  140.0864  157.2057 H   0  0  0  0  0  0  0  0  0  0  0  0  # atno 8009 bound_to 7997
  154.4016  140.1493  156.3087 H   0  0  0  0  0  0  0  0  0  0  0  0  # atno 8010 bound_to 7997
  140.5189  144.0035  150.6407 H   0  0  0  0  0  0  0  0  0  0  0  0  # atno 10167 bound_to 10162
  156.8335  130.9661  151.3105 H   0  0  0  0  0  0  0  0  0  0  0  0  # atno 10718 bound_to 10713
  154.7507  135.4968  153.9284 H   0  0  0  0  0  0  0  0  0  0  0  0  # atno 10763 bound_to 10752
  153.1140  135.6716  153.9458 H   0  0  0  0  0  0  0  0  0  0  0  0  # atno 10764 bound_to 10752
  153.9209  135.3088  155.3426 H   0  0  0  0  0  0  0  0  0  0  0  0  # atno 10765 bound_to 10752
  139.8938  134.8371  156.2753 H   0  0  0  0  0  0  0  0  0  0  0  0  # atno 11005 bound_to 11000
  144.8123  140.6406  143.6407 LP  0  0  0  0  0  0  0  0  0  0  0  0  # atno 17320 bound_to 7965
  145.4412  139.1535  143.3969 LP  0  0  0  0  0  0  0  0  0  0  0  0  # atno 17321 bound_to 7965
  140.3379  143.3038  152.0619 LP  0  0  0  0  0  0  0  0  0  0  0  0  # atno 17342 bound_to 10162
  139.4917  144.6464  151.6770 LP  0  0  0  0  0  0  0  0  0  0  0  0  # atno 17343 bound_to 10162
  157.6394  130.8793  149.9419 LP  0  0  0  0  0  0  0  0  0  0  0  0  # atno 17370 bound_to 10713
  156.0920  130.3662  150.0376 LP  0  0  0  0  0  0  0  0  0  0  0  0  # atno 17371 bound_to 10713
  141.0074  133.7116  156.1056 LP  0  0  0  0  0  0  0  0  0  0  0  0  # atno 17394 bound_to 11000
  140.7415  134.4145  157.5554 LP  0  0  0  0  0  0  0  0  0  0  0  0  # atno 17395 bound_to 11000

$$$$
