AV-unprocessed.smi:3185|AV-procd|sdf|12172|dock10
  -GOLD-   2272018 13D 1   1.00000     0.00000
 Structure written by MMmdl.
 37 38  0  0  0  0  0  0  0  0  1 V2000
  150.8828  136.3244  154.8488 N   0  0  0  0  0  0  0  0  0  0  0  0
  150.8568  137.4776  154.7606 C   0  0  0  0  0  0  0  0  0  0  0  0
  150.8237  138.9435  154.6494 C   0  0  0  0  0  0  0  0  0  0  0  0
  151.9436  139.6187  155.4515 C   0  0  0  0  0  0  0  0  0  0  0  0
  151.9038  139.2746  156.9462 C   0  0  0  0  0  0  0  0  0  0  0  0
  152.6495  140.2732  157.6983 N   0  0  0  0  0  0  0  0  0  0  0  0
  152.8077  139.9002  159.1014 C   0  0  1  0  0  0  0  0  0  0  0  0
  153.4851  138.5150  159.2132 C   0  0  0  0  0  0  0  0  0  0  0  0
  153.7739  138.1410  160.6752 C   0  0  0  0  0  0  0  0  0  0  0  0
  154.6228  139.2157  161.3680 C   0  0  0  0  0  0  0  0  0  0  0  0
  153.9459  140.5906  161.2783 C   0  0  0  0  0  0  0  0  0  0  0  0
  153.6583  140.9843  159.8145 C   0  0  2  0  0  0  0  0  0  0  0  0
  153.0399  142.3035  159.7481 N   0  0  0  0  0  0  0  0  0  0  0  0
  152.7529  143.1601  160.7908 C   0  0  0  0  0  0  0  0  0  0  0  0
  152.1813  144.2789  160.2563 C   0  0  0  0  0  0  0  0  0  0  0  0
  152.1565  144.0108  158.8596 C   0  0  0  0  0  0  0  0  0  0  0  0
  152.6707  142.8298  158.5579 N   0  0  0  0  0  0  0  0  0  0  0  0
  150.9002  139.2013  153.5928 H   0  0  0  0  0  0  0  0  0  0  0  0
  149.8456  139.2783  154.9953 H   0  0  0  0  0  0  0  0  0  0  0  0
  152.9158  139.3551  155.0326 H   0  0  0  0  0  0  0  0  0  0  0  0
  151.8494  140.6991  155.3389 H   0  0  0  0  0  0  0  0  0  0  0  0
  150.8670  139.2720  157.2848 H   0  0  0  0  0  0  0  0  0  0  0  0
  152.3049  138.2754  157.1141 H   0  0  0  0  0  0  0  0  0  0  0  0
  152.1426  141.1462  157.6561 H   0  0  0  0  0  0  0  0  0  0  0  0
  151.8268  139.8619  159.5778 H   0  0  0  0  0  0  0  0  0  0  0  0
  152.8584  137.7405  158.7724 H   0  0  0  0  0  0  0  0  0  0  0  0
  154.4199  138.5130  158.6505 H   0  0  0  0  0  0  0  0  0  0  0  0
  152.8331  138.0151  161.2122 H   0  0  0  0  0  0  0  0  0  0  0  0
  154.2854  137.1791  160.7185 H   0  0  0  0  0  0  0  0  0  0  0  0
  154.7813  138.9473  162.4130 H   0  0  0  0  0  0  0  0  0  0  0  0
  155.6097  139.2602  160.9056 H   0  0  0  0  0  0  0  0  0  0  0  0
  153.0173  140.5689  161.8505 H   0  0  0  0  0  0  0  0  0  0  0  0
  154.5807  141.3423  161.7487 H   0  0  0  0  0  0  0  0  0  0  0  0
  154.6185  141.0562  159.2998 H   0  0  0  0  0  0  0  0  0  0  0  0
  152.9788  142.9062  161.8161 H   0  0  0  0  0  0  0  0  0  0  0  0
  151.8332  145.1550  160.7832 H   0  0  0  0  0  0  0  0  0  0  0  0
  151.7834  144.6350  158.0611 H   0  0  0  0  0  0  0  0  0  0  0  0
  1  2  3  0  0  0  0
  2  3  1  0  0  0  0
  3  4  1  0  0  0  0
  3 18  1  0  0  0  0
  3 19  1  0  0  0  0
  4  5  1  0  0  0  0
  4 20  1  0  0  0  0
  4 21  1  0  0  0  0
  5  6  1  0  0  0  0
  5 22  1  0  0  0  0
  5 23  1  0  0  0  0
  6  7  1  0  0  0  0
  6 24  1  0  0  0  0
  7 12  1  0  0  0  0
  7  8  1  0  0  0  0
  7 25  1  0  0  0  0
  8  9  1  0  0  0  0
  8 26  1  0  0  0  0
  8 27  1  0  0  0  0
  9 10  1  0  0  0  0
  9 28  1  0  0  0  0
  9 29  1  0  0  0  0
 10 11  1  0  0  0  0
 10 30  1  0  0  0  0
 10 31  1  0  0  0  0
 11 12  1  0  0  0  0
 11 32  1  0  0  0  0
 11 33  1  0  0  0  0
 12 13  1  0  0  0  0
 12 34  1  0  0  0  0
 13 17  1  0  0  0  0
 13 14  1  0  0  0  0
 14 15  2  0  0  0  0
 14 35  1  0  0  0  0
 15 16  1  0  0  0  0
 15 36  1  0  0  0  0
 16 17  2  0  0  0  0
 16 37  1  0  0  0  0
M  END
> <s_m_source_file>
AV-unprocessed.smi

> <i_m_source_file_index>
3185

> <i_lp_mmshare_version>
43012

> <i_f3d_flags>
0

> <s_epik_input>
TiNDW0NIMl1bQ0gyXVtDSDJdW05IXVtDQEBIXTFbQ0gyXVtDSDJdW0NIMl1bQ0gyXVtDQEhdMW4yW2NIXVtjSF1bY0hdbjI=

> <s_epik_cmdline>
J2VwaWtfcHl0aG9uJywgJy1waCcsICc3LjAnLCAnLXRuJywgJzgnLCAnLW1hJywgJzIwMCcsICctbWV0YWxfYmluZGluZycsICctaW1hZScsICc8aW5maWxlLm1hZT4nLCAnLW9tYWUnLCAnPG91dGZpbGUubWFlPic=

> <r_lp_tautomer_probability>
1

> <r_epik_Ionization_Penalty>
2.21326

> <r_epik_Ionization_Penalty_Charging>
0

> <r_epik_Ionization_Penalty_Neutral>
2.21326

> <r_epik_State_Penalty>
2.35651

> <r_epik_Charging_Adjusted_Penalty>
2.35651

> <i_epik_Tot_Q>
0

> <i_epik_Tot_abs_Q>
0

> <r_epik_Metal_State_Penalty>
2.3555

> <b_epik_Metal_Only>
0

> <s_lp_Force_Field>
OPLS_2005

> <r_lp_Energy>
16.6477

> <b_lp_Chiralities_Consistent>
1

> <s_lp_Variant>
AV-unprocessed.smi:3185-8

> <Gold.Version>
5.8.1

> <Gold.Id.Protein>
6NUR|6NUR_protein|mol2

> <Gold.PLP.Fitness>
44.6562

> <Gold.PLP.PLP>
-39.4225

> <Gold.PLP.part.hbond>
-2.0000

> <Gold.PLP.part.metal>
0.0000

> <Gold.PLP.part.buried>
-2.9911

> <Gold.PLP.part.nonpolar>
-34.2497

> <Gold.PLP.part.repulsive>
0.1436

> <Gold.PLP.ligand.clash>
0.0000

> <Gold.PLP.ligand.torsion>
0.1603

> <Gold.PLP.Chemscore.Hbond>
1.8360

> <Gold.PLP.Chemscore.CHOScore>
0.0000

> <Gold.PLP.Chemscore.Metal>
0.0000

> <Gold.Chemscore.Hbonds>
donor molecule, donor type, donor heavy atom, donor atom, acceptor molecule, acceptor atom, score
      P1  H  7997  8009       L1     6  0.80
      P1  H 10752 10765       L1     1  0.35

> <Gold.PLP.Chemscore.Internal.Correction>
0.0463

> <Gold.Rescore>
     Score         DG    S(hbond)    S(metal)    S(lipo)     H(rot)  DE(clash)    DE(int)     intcor
     14.16     -15.88       1.00        0.00      99.90       1.81       0.00       1.72       ----

> <Gold.Chemscore.Fitness>
14.1565

> <Gold.Chemscore.DG>
-15.8792

> <Gold.Chemscore.ZeroCoef>
-5.4800

> <Gold.Chemscore.Hbond>
1.0022

> <Gold.Chemscore.Metal>
0.0000

> <Gold.Chemscore.Lipo>
99.8975

> <Gold.Chemscore.Internal_Hbond>
0.0000

> <Gold.Chemscore.DEClash>
0.0009

> <Gold.Chemscore.DEInternal>
1.7218

> <Gold.Chemscore.Rot>
1.8110

> <Gold.Chemscore.Internal.Correction>
   9.000000E+99

> <Gold.Chemscore.Hbonds>
donor molecule, donor type, donor heavy atom, donor atom, acceptor molecule, acceptor atom, score
      P1  H  7997  8009       L1     6  0.12
      P1  H 10752 10765       L1     1  0.27

> <Gold.Chemscore.Hbond.Weighted>
-3.3474

> <Gold.Chemscore.Metal.Weighted>
-0.0000

> <Gold.Chemscore.Lipo.Weighted>
-11.6880

> <Gold.Chemscore.Internal_Hbond.Weighted>
0.0000

> <Gold.Chemscore.DEClash.Weighted>
0.0009

> <Gold.Chemscore.DEInternal.Weighted>
1.7218

> <Gold.Chemscore.Rot.Weighted>
4.6362

> <Gold.Chemscore.Internal.Correction.Weighted>
   9.000000E+99

> <Gold.Protein.RotatedTorsions>
[ 6907 6896 6895 6894 ] final   67.38 input  -60.11 | X-H torsion
[ 7974 7965 7964 7962 ] final -107.87 input  175.53 | X-H torsion
[ 8008 7997 7996 7995 ] final  155.57 input   59.86 | X-H torsion
[ 10167 10162 10161 10158 ] final -104.13 input  -65.29 | X-H torsion
[ 10718 10713 10712 10709 ] final  -74.86 input   66.30 | X-H torsion
[ 10763 10752 10751 10750 ] final -161.51 input  -60.55 | X-H torsion
[ 11005 11000 10999 10996 ] final  135.02 input  -57.11 | X-H torsion

> <Gold.Protein.ActiveResidues>
 VAL166  LYS551  ARG553  GLY616  TRP617  ASP618  TYR619  PRO620  LYS621  CYS622 
 ASP623  PHE694  ASN695  SER759  ASP760  ASP761  ALA762  ILE779  LEU786  VAL792 
 PHE793  MET794  SER795  GLU796  ALA797  LYS798  CYS799  TRP800  GLU811  SER814 

> <Gold.Protein.RotatedAtoms>
  152.4548  134.5316  159.9812 H   0  0  0  0  0  0  0  0  0  0  0  0  # atno 6907 bound_to 6896
  151.5380  133.3432  159.2938 H   0  0  0  0  0  0  0  0  0  0  0  0  # atno 6908 bound_to 6896
  150.8488  134.7837  159.7055 H   0  0  0  0  0  0  0  0  0  0  0  0  # atno 6909 bound_to 6896
  145.1999  140.9051  143.3375 H   0  0  0  0  0  0  0  0  0  0  0  0  # atno 7974 bound_to 7965
  156.2471  140.1936  156.6822 H   0  0  0  0  0  0  0  0  0  0  0  0  # atno 8008 bound_to 7997
  154.6314  140.0595  156.9762 H   0  0  0  0  0  0  0  0  0  0  0  0  # atno 8009 bound_to 7997
  155.1705  140.3268  155.4396 H   0  0  0  0  0  0  0  0  0  0  0  0  # atno 8010 bound_to 7997
  140.2126  143.3735  152.1038 H   0  0  0  0  0  0  0  0  0  0  0  0  # atno 10167 bound_to 10162
  156.0228  130.4427  150.2955 H   0  0  0  0  0  0  0  0  0  0  0  0  # atno 10718 bound_to 10713
  154.7297  135.3044  154.8912 H   0  0  0  0  0  0  0  0  0  0  0  0  # atno 10763 bound_to 10752
  153.9758  135.6736  153.4752 H   0  0  0  0  0  0  0  0  0  0  0  0  # atno 10764 bound_to 10752
  153.0907  135.4961  154.8605 H   0  0  0  0  0  0  0  0  0  0  0  0  # atno 10765 bound_to 10752
  139.9953  134.9500  156.9949 H   0  0  0  0  0  0  0  0  0  0  0  0  # atno 11005 bound_to 11000
  144.9958  139.3645  143.6192 LP  0  0  0  0  0  0  0  0  0  0  0  0  # atno 17320 bound_to 7965
  146.3420  139.9160  142.8773 LP  0  0  0  0  0  0  0  0  0  0  0  0  # atno 17321 bound_to 7965
  139.5174  144.6991  151.5544 LP  0  0  0  0  0  0  0  0  0  0  0  0  # atno 17342 bound_to 10162
  140.6313  143.9071  150.6608 LP  0  0  0  0  0  0  0  0  0  0  0  0  # atno 17343 bound_to 10162
  157.1059  131.0208  151.3067 LP  0  0  0  0  0  0  0  0  0  0  0  0  # atno 17370 bound_to 10713
  157.4743  130.7727  149.7353 LP  0  0  0  0  0  0  0  0  0  0  0  0  # atno 17371 bound_to 10713
  140.4831  134.1269  155.7220 LP  0  0  0  0  0  0  0  0  0  0  0  0  # atno 17394 bound_to 11000
  141.1599  133.8813  157.1876 LP  0  0  0  0  0  0  0  0  0  0  0  0  # atno 17395 bound_to 11000

$$$$
