AV-unprocessed.smi:2515|AV-procd|sdf|9897|dock5
  -GOLD-   2272013533D 1   1.00000     0.00000
 Structure written by MMmdl.
 36 37  0  0  0  0  0  0  0  0  1 V2000
  152.7091  139.5489  155.1651 N   0  0  0  0  0  0  0  0  0  0  0  0
  152.0932  138.5708  155.2143 C   0  0  0  0  0  0  0  0  0  0  0  0
  151.3319  137.3691  155.2772 C   0  0  0  0  0  0  0  0  0  0  0  0
  151.8661  136.1821  155.7760 N   0  0  0  0  0  0  0  0  0  0  0  0
  150.8802  135.2934  155.6836 C   0  0  0  0  0  0  0  0  0  0  0  0
  150.9739  133.9685  156.0834 N   0  0  0  0  0  0  0  0  0  0  0  0
  149.7377  135.7822  155.1618 N   0  0  0  0  0  0  0  0  0  0  0  0
  148.4781  135.0861  154.9291 C   0  0  0  0  0  0  0  0  0  0  0  0
  148.6682  133.8790  153.9955 C   0  0  0  0  0  0  0  0  0  0  0  0
  147.9454  134.0559  152.7424 N   0  0  0  0  0  0  0  0  0  0  0  0
  147.0026  133.2207  152.2786 C   0  0  0  0  0  0  0  0  0  0  0  0
  146.6553  132.2030  152.8794 O   0  0  0  0  0  0  0  0  0  0  0  0
  146.3527  133.6014  150.9368 C   0  0  0  0  0  0  0  0  0  0  0  0
  144.8316  133.7822  151.0567 C   0  0  0  0  0  0  0  0  0  0  0  0
  144.2038  132.4095  150.7750 C   0  0  0  0  0  0  0  0  0  0  0  0
  145.2797  131.5712  150.0699 C   0  0  0  0  0  0  0  0  0  0  0  0
  146.4922  132.4916  149.8844 C   0  0  0  0  0  0  0  0  0  0  0  0
  150.0278  137.1197  154.9066 C   0  0  0  0  0  0  0  0  0  0  0  0
  149.1164  138.0503  154.3634 C   0  0  0  0  0  0  0  0  0  0  0  0
  148.3693  138.8136  153.9195 N   0  0  0  0  0  0  0  0  0  0  0  0
  151.8265  133.5991  156.4790 H   0  0  0  0  0  0  0  0  0  0  0  0
  150.1995  133.3284  155.9826 H   0  0  0  0  0  0  0  0  0  0  0  0
  148.0725  134.7707  155.8910 H   0  0  0  0  0  0  0  0  0  0  0  0
  147.7507  135.7824  154.5109 H   0  0  0  0  0  0  0  0  0  0  0  0
  149.7261  133.7475  153.7670 H   0  0  0  0  0  0  0  0  0  0  0  0
  148.3410  132.9594  154.4843 H   0  0  0  0  0  0  0  0  0  0  0  0
  148.1752  134.8693  152.1899 H   0  0  0  0  0  0  0  0  0  0  0  0
  146.8131  134.5224  150.5750 H   0  0  0  0  0  0  0  0  0  0  0  0
  144.5236  134.1773  152.0262 H   0  0  0  0  0  0  0  0  0  0  0  0
  144.4962  134.4963  150.3034 H   0  0  0  0  0  0  0  0  0  0  0  0
  143.9106  131.9265  151.7082 H   0  0  0  0  0  0  0  0  0  0  0  0
  143.3053  132.5076  150.1648 H   0  0  0  0  0  0  0  0  0  0  0  0
  145.5494  130.7195  150.6956 H   0  0  0  0  0  0  0  0  0  0  0  0
  144.9295  131.1741  149.1164 H   0  0  0  0  0  0  0  0  0  0  0  0
  146.4612  132.9368  148.8891 H   0  0  0  0  0  0  0  0  0  0  0  0
  147.4337  131.9452  149.9599 H   0  0  0  0  0  0  0  0  0  0  0  0
  1  2  3  0  0  0  0
  2  3  1  0  0  0  0
  3 18  2  0  0  0  0
  3  4  1  0  0  0  0
  4  5  2  0  0  0  0
  5  6  1  0  0  0  0
  5  7  1  0  0  0  0
  6 21  1  0  0  0  0
  6 22  1  0  0  0  0
  7  8  1  0  0  0  0
  7 18  1  0  0  0  0
  8  9  1  0  0  0  0
  8 23  1  0  0  0  0
  8 24  1  0  0  0  0
  9 10  1  0  0  0  0
  9 25  1  0  0  0  0
  9 26  1  0  0  0  0
 10 11  1  0  0  0  0
 10 27  1  0  0  0  0
 11 12  2  0  0  0  0
 11 13  1  0  0  0  0
 13 17  1  0  0  0  0
 13 14  1  0  0  0  0
 13 28  1  0  0  0  0
 14 15  1  0  0  0  0
 14 29  1  0  0  0  0
 14 30  1  0  0  0  0
 15 16  1  0  0  0  0
 15 31  1  0  0  0  0
 15 32  1  0  0  0  0
 16 17  1  0  0  0  0
 16 33  1  0  0  0  0
 16 34  1  0  0  0  0
 17 35  1  0  0  0  0
 17 36  1  0  0  0  0
 18 19  1  0  0  0  0
 19 20  3  0  0  0  0
M  END
> <s_m_source_file>
AV-unprocessed.smi

> <i_m_source_file_index>
2515

> <i_lp_mmshare_version>
43012

> <i_f3d_flags>
0

> <s_epik_input>
TiNDYzFuYyhbTkgyXSluKGMxQyNOKVtDSDJdW0NIMl1bTkhdQyg9TylbQ0hdMltDSDJdW0NIMl1bQ0gyXVtDSDJdMg==

> <s_epik_cmdline>
J2VwaWtfcHl0aG9uJywgJy1waCcsICc3LjAnLCAnLXRuJywgJzgnLCAnLW1hJywgJzIwMCcsICctbWV0YWxfYmluZGluZycsICctaW1hZScsICc8aW5maWxlLm1hZT4nLCAnLW9tYWUnLCAnPG91dGZpbGUubWFlPic=

> <r_lp_tautomer_probability>
1

> <r_epik_Ionization_Penalty>
0.000275801

> <r_epik_Ionization_Penalty_Charging>
2.18328e-09

> <r_epik_Ionization_Penalty_Neutral>
0.000275798

> <r_epik_State_Penalty>
-0

> <r_epik_Charging_Adjusted_Penalty>
2.18328e-09

> <i_epik_Tot_Q>
0

> <i_epik_Tot_abs_Q>
0

> <r_epik_Metal_State_Penalty>
-0

> <b_epik_Metal_Only>
0

> <s_lp_Force_Field>
OPLS_2005

> <r_lp_Energy>
23.1048

> <b_lp_Chiralities_Consistent>
1

> <s_lp_Variant>
AV-unprocessed.smi:2515-1

> <Gold.Version>
5.8.1

> <Gold.Id.Protein>
6NUR|6NUR_protein|mol2

> <Gold.PLP.Fitness>
41.6973

> <Gold.PLP.PLP>
-32.3727

> <Gold.PLP.part.hbond>
-3.9849

> <Gold.PLP.part.metal>
0.0000

> <Gold.PLP.part.buried>
-3.5669

> <Gold.PLP.part.nonpolar>
-25.4673

> <Gold.PLP.part.repulsive>
0.5101

> <Gold.PLP.ligand.clash>
0.0000

> <Gold.PLP.ligand.torsion>
0.3862

> <Gold.PLP.Chemscore.Hbond>
3.3578

> <Gold.PLP.Chemscore.CHOScore>
0.0000

> <Gold.PLP.Chemscore.Metal>
0.0000

> <Gold.Chemscore.Hbonds>
donor molecule, donor type, donor heavy atom, donor atom, acceptor molecule, acceptor atom, score
      L1  H    10    27       P1  7948  1.00
      P1  H  7989  7998       L1     1  0.12
      P1  H  7997  8010       L1     1  1.00
      P1  H 10752 10765       L1     4  0.99

> <Gold.PLP.Chemscore.Internal.Correction>
0.0238

> <Gold.Rescore>
     Score         DG    S(hbond)    S(metal)    S(lipo)     H(rot)  DE(clash)    DE(int)     intcor
     13.89     -14.29       2.31        0.00      58.05       2.23       0.01       0.39       ----

> <Gold.Chemscore.Fitness>
13.8913

> <Gold.Chemscore.DG>
-14.2910

> <Gold.Chemscore.ZeroCoef>
-5.4800

> <Gold.Chemscore.Hbond>
2.3113

> <Gold.Chemscore.Metal>
0.0000

> <Gold.Chemscore.Lipo>
58.0488

> <Gold.Chemscore.Internal_Hbond>
0.0000

> <Gold.Chemscore.DEClash>
0.0081

> <Gold.Chemscore.DEInternal>
0.3916

> <Gold.Chemscore.Rot>
2.2267

> <Gold.Chemscore.Internal.Correction>
   9.000000E+99

> <Gold.Chemscore.Hbonds>
donor molecule, donor type, donor heavy atom, donor atom, acceptor molecule, acceptor atom, score
      L1  H    10    27       P1  7948  0.33
      P1  H  7989  7998       L1     1  0.06
      P1  H  7997  8010       L1     1  0.97
      P1  H 10752 10765       L1     4  0.17

> <Gold.Chemscore.Hbond.Weighted>
-7.7197

> <Gold.Chemscore.Metal.Weighted>
-0.0000

> <Gold.Chemscore.Lipo.Weighted>
-6.7917

> <Gold.Chemscore.Internal_Hbond.Weighted>
0.0000

> <Gold.Chemscore.DEClash.Weighted>
0.0081

> <Gold.Chemscore.DEInternal.Weighted>
0.3916

> <Gold.Chemscore.Rot.Weighted>
5.7004

> <Gold.Chemscore.Internal.Correction.Weighted>
   9.000000E+99

> <Gold.Protein.RotatedTorsions>
[ 6907 6896 6895 6894 ] final   28.48 input  -60.11 | X-H torsion
[ 7974 7965 7964 7962 ] final   27.13 input  175.53 | X-H torsion
[ 8008 7997 7996 7995 ] final   95.28 input   59.86 | X-H torsion
[ 10167 10162 10161 10158 ] final -110.41 input  -65.29 | X-H torsion
[ 10718 10713 10712 10709 ] final   23.56 input   66.30 | X-H torsion
[ 10763 10752 10751 10750 ] final  179.59 input  -60.55 | X-H torsion
[ 11005 11000 10999 10996 ] final -149.92 input  -57.11 | X-H torsion

> <Gold.Protein.ActiveResidues>
 VAL166  LYS551  ARG553  GLY616  TRP617  ASP618  TYR619  PRO620  LYS621  CYS622 
 ASP623  PHE694  ASN695  SER759  ASP760  ASP761  ALA762  ILE779  LEU786  VAL792 
 PHE793  MET794  SER795  GLU796  ALA797  LYS798  CYS799  TRP800  GLU811  SER814 

> <Gold.Protein.RotatedAtoms>
  152.0176  134.9841  160.0569 H   0  0  0  0  0  0  0  0  0  0  0  0  # atno 6907 bound_to 6896
  152.1369  133.4436  159.4756 H   0  0  0  0  0  0  0  0  0  0  0  0  # atno 6908 bound_to 6896
  150.6861  134.2271  159.4463 H   0  0  0  0  0  0  0  0  0  0  0  0  # atno 6909 bound_to 6896
  146.1800  139.7233  142.8907 H   0  0  0  0  0  0  0  0  0  0  0  0  # atno 7974 bound_to 7965
  156.0672  140.3288  155.7532 H   0  0  0  0  0  0  0  0  0  0  0  0  # atno 8008 bound_to 7997
  155.5363  140.0597  157.2896 H   0  0  0  0  0  0  0  0  0  0  0  0  # atno 8009 bound_to 7997
  154.4511  140.1918  156.0534 H   0  0  0  0  0  0  0  0  0  0  0  0  # atno 8010 bound_to 7997
  140.1447  143.4249  152.1537 H   0  0  0  0  0  0  0  0  0  0  0  0  # atno 10167 bound_to 10162
  157.1677  130.6745  149.6066 H   0  0  0  0  0  0  0  0  0  0  0  0  # atno 10718 bound_to 10713
  154.5226  135.2795  155.1249 H   0  0  0  0  0  0  0  0  0  0  0  0  # atno 10763 bound_to 10752
  154.2800  135.6287  153.5347 H   0  0  0  0  0  0  0  0  0  0  0  0  # atno 10764 bound_to 10752
  152.9940  135.5649  154.5719 H   0  0  0  0  0  0  0  0  0  0  0  0  # atno 10765 bound_to 10752
  140.7456  134.3464  157.5137 H   0  0  0  0  0  0  0  0  0  0  0  0  # atno 11005 bound_to 11000
  145.4102  141.0395  143.3021 LP  0  0  0  0  0  0  0  0  0  0  0  0  # atno 17320 bound_to 7965
  144.8300  139.5645  143.6948 LP  0  0  0  0  0  0  0  0  0  0  0  0  # atno 17321 bound_to 7965
  139.5455  144.7294  151.4598 LP  0  0  0  0  0  0  0  0  0  0  0  0  # atno 17342 bound_to 10162
  140.6739  143.8233  150.7034 LP  0  0  0  0  0  0  0  0  0  0  0  0  # atno 17343 bound_to 10162
  155.9743  130.4689  150.6378 LP  0  0  0  0  0  0  0  0  0  0  0  0  # atno 17370 bound_to 10713
  157.4072  131.0818  151.1254 LP  0  0  0  0  0  0  0  0  0  0  0  0  # atno 17371 bound_to 10713
  139.8797  134.9109  156.3025 LP  0  0  0  0  0  0  0  0  0  0  0  0  # atno 17394 bound_to 11000
  140.9797  133.7275  156.0654 LP  0  0  0  0  0  0  0  0  0  0  0  0  # atno 17395 bound_to 11000

$$$$
