#       Name:                AV-unprocessed.smi:1419
#       Creating user name   scv26
#       Creation time:       Fri Mar 27 05:43:10 2020


#       File generated by GOLD software.
#

@<TRIPOS>MOLECULE
AV-unprocessed.smi:1419
    46    47     1
SMALL
NO_CHARGES


@<TRIPOS>ATOM
      1 ****        -2.8153  -0.5174  -1.4251 C.3            1 S1                 0.0000
      2 ****        -2.0502   0.2161  -0.3114 C.3            1 S1                 0.0000
      3 ****        -2.1022  -0.5185   1.0466 C.3            1 S1                 0.0000
      4 ****        -3.4577  -0.7473   1.5098 N.pl3          1 S1                 0.0000
      5 ****        -4.1465  -1.9530   1.5305 C.2            1 S1                 0.0000
      6 ****        -5.3913  -1.6851   2.0536 C.2            1 S1                 0.0000
      7 ****        -5.4880  -0.3306   2.3641 N.2            1 S1                 0.0000
      8 ****        -4.3045   0.1588   2.0175 C.2            1 S1                 0.0000
      9 ****        -0.6646   0.4016  -0.7310 N.am           1 S1                 0.0000
     10 ****         0.1735   1.3479  -0.2747 C.2            1 S1                 0.0000
     11 ****        -0.1709   2.1777   0.5680 O.2            1 S1                 0.0000
     12 ****         1.4184   1.3082  -0.8112 N.am           1 S1                 0.0000
     13 ****         1.9472   0.3095  -1.7497 C.3            1 S1                 0.0000
     14 ****         2.9941  -0.5425  -1.0069 C.3            1 S1                 0.0000
     15 ****         3.6563  -1.5732  -1.9276 C.3            1 S1                 0.0000
     16 ****         4.0199   0.3080  -0.4874 O.3            1 S1                 0.0000
     17 ****         3.5744   1.3775   0.3535 C.3            1 S1                 0.0000
     18 ****         3.1356   0.8593   1.7355 C.3            1 S1                 0.0000
     19 ****         2.4946   2.2028  -0.3787 C.3            1 S1                 0.0000
     20 ****        -3.8785  -0.5950  -1.1968 H              1 S1                 0.0000
     21 ****        -2.4310  -1.5274  -1.5704 H              1 S1                 0.0000
     22 ****        -2.7279   0.0120  -2.3745 H              1 S1                 0.0000
     23 ****        -2.5090   1.1998  -0.1945 H              1 S1                 0.0000
     24 ****        -1.5943  -1.4814   0.9755 H              1 S1                 0.0000
     25 ****        -1.5779   0.0539   1.8133 H              1 S1                 0.0000
     26 ****        -3.7078  -2.8751   1.1785 H              1 S1                 0.0000
     27 ****        -6.2176  -2.3577   2.2302 H              1 S1                 0.0000
     28 ****        -4.0478   1.2018   2.1327 H              1 S1                 0.0000
     29 ****        -0.3107  -0.2436  -1.4222 H              1 S1                 0.0000
     30 ****         1.1839  -0.3348  -2.1858 H              1 S1                 0.0000
     31 ****         2.4110   0.8227  -2.5937 H              1 S1                 0.0000
     32 ****         2.5144  -1.0783  -0.1872 H              1 S1                 0.0000
     33 ****         2.9188  -2.2596  -2.3440 H              1 S1                 0.0000
     34 ****         4.3910  -2.1659  -1.3822 H              1 S1                 0.0000
     35 ****         4.1699  -1.0886  -2.7585 H              1 S1                 0.0000
     36 ****         4.4386   2.0230   0.5127 H              1 S1                 0.0000
     37 ****         2.8859   1.6890   2.3973 H              1 S1                 0.0000
     38 ****         3.9364   0.2904   2.2080 H              1 S1                 0.0000
     39 ****         2.2588   0.2149   1.6801 H              1 S1                 0.0000
     40 ****         2.9285   2.6857  -1.2554 H              1 S1                 0.0000
     41 ****         2.1439   3.0142   0.2607 H              1 S1                 0.0000
     42 ****        -6.2671   0.1584   2.7564 LP             1 S1                 0.0000
     43 ****        -1.1009   2.1610   0.9352 LP             1 S1                 0.0000
     44 ****         0.4795   2.8680   0.8849 LP             1 S1                 0.0000
     45 ****         4.5075   0.7096  -1.2626 LP             1 S1                 0.0000
     46 ****         4.6488  -0.2591   0.0444 LP             1 S1                 0.0000
@<TRIPOS>BOND
    1    1    2 1     
    2    1   20 1     
    3    1   21 1     
    4    1   22 1     
    5    2    3 1     
    6    2    9 1     
    7    2   23 1     
    8    3    4 1     
    9    3   24 1     
   10    3   25 1     
   11    4    8 1     
   12    4    5 1     
   13    5    6 2     
   14    5   26 1     
   15    6    7 1     
   16    6   27 1     
   17    7    8 2     
   18    8   28 1     
   19    9   10 am    
   20    9   29 1     
   21   10   11 2     
   22   10   12 am    
   23   12   19 1     
   24   12   13 1     
   25   13   14 1     
   26   13   30 1     
   27   13   31 1     
   28   14   15 1     
   29   14   16 1     
   30   14   32 1     
   31   15   33 1     
   32   15   34 1     
   33   15   35 1     
   34   16   17 1     
   35   17   18 1     
   36   17   19 1     
   37   17   36 1     
   38   18   37 1     
   39   18   38 1     
   40   18   39 1     
   41   19   40 1     
   42   19   41 1     
   43    7   42 1     
   44   11   43 1     
   45   11   44 1     
   46   16   45 1     
   47   16   46 1     
@<TRIPOS>SUBSTRUCTURE
      1 S1             1
@<TRIPOS>SET
LONE_PAIRS      STATIC     ATOMS    <user>   **** ""
5 42 43 44 45 46
DONOR_HYDROGENS      STATIC     ATOMS    <user>   **** ""
1 29
ATOM$BLUE        STATIC     ATOMS    COLORGROUP SYSTEM
5 42 43 44 45 46
ATOM$RED        STATIC     ATOMS    COLORGROUP SYSTEM
1 29
