AV-unprocessed.smi:1973|AV-procd|sdf|7979|dock3
  -GOLD-   2272010153D 1   1.00000     0.00000
 Structure written by MMmdl.
 48 50  0  0  0  0  0  0  0  0  2 V2000
  152.8390  140.1373  160.3950 C   0  0  0  0  0  0  0  0  0  0  0  0
  151.8453  140.6641  159.5332 O   0  0  0  0  0  0  0  0  0  0  0  0
  151.5484  139.7960  158.4528 C   0  0  0  0  0  0  0  0  0  0  0  0
  150.8319  140.5950  157.3536 C   0  0  0  0  0  0  0  0  0  0  0  0
  150.6095  139.7815  156.1539 N   0  0  0  0  0  0  0  0  0  0  0  0
  149.2843  139.7090  155.7568 N   0  0  0  0  0  0  0  0  0  0  0  0
  148.9556  139.0186  154.7127 C   0  0  0  0  0  0  0  0  0  0  0  0
  147.5429  138.9148  154.2516 C   0  0  0  0  0  0  0  0  0  0  0  0
  146.5985  139.2558  154.9656 O   0  0  0  0  0  0  0  0  0  0  0  0
  147.3749  138.4248  153.0101 N   0  0  0  0  0  0  0  0  0  0  0  0
  146.0885  138.2449  152.3448 C   0  0  0  0  0  0  0  0  0  0  0  0
  145.7793  136.7609  152.0707 C   0  0  1  0  0  0  0  0  0  0  0  0
  144.4105  136.3083  152.5704 C   0  0  0  0  0  0  0  0  0  0  0  0
  144.1742  135.0302  151.7712 C   0  0  0  0  0  0  0  0  0  0  0  0
  144.7600  135.2877  150.4383 N   0  3  2  0  0  0  0  0  0  0  0  0
  145.2763  134.0765  149.7663 C   0  0  0  0  0  0  0  0  0  0  0  0
  144.9780  134.0348  148.2864 C   0  0  0  0  0  0  0  0  0  0  0  0
  144.1902  133.1669  149.2440 C   0  0  0  0  0  0  0  0  0  0  0  0
  145.7587  136.3727  150.5842 C   0  0  0  0  0  0  0  0  0  0  0  0
  149.9634  138.3102  153.9414 C   0  0  0  0  0  0  0  0  0  0  0  0
  151.2504  138.3844  154.3456 C   0  0  0  0  0  0  0  0  0  0  0  0
  151.6488  139.1540  155.5249 C   0  0  0  0  0  0  0  0  0  0  0  0
  152.8123  139.2277  155.9187 O   0  0  0  0  0  0  0  0  0  0  0  0
  153.0252  140.8360  161.2107 H   0  0  0  0  0  0  0  0  0  0  0  0
  153.7792  139.9826  159.8640 H   0  0  0  0  0  0  0  0  0  0  0  0
  152.5224  139.1885  160.8301 H   0  0  0  0  0  0  0  0  0  0  0  0
  152.4692  139.3577  158.0646 H   0  0  0  0  0  0  0  0  0  0  0  0
  150.9133  138.9781  158.7971 H   0  0  0  0  0  0  0  0  0  0  0  0
  149.8781  140.9628  157.7359 H   0  0  0  0  0  0  0  0  0  0  0  0
  151.4080  141.4885  157.1059 H   0  0  0  0  0  0  0  0  0  0  0  0
  148.2015  138.1744  152.4863 H   0  0  0  0  0  0  0  0  0  0  0  0
  145.2951  138.6914  152.9463 H   0  0  0  0  0  0  0  0  0  0  0  0
  146.1131  138.8019  151.4076 H   0  0  0  0  0  0  0  0  0  0  0  0
  146.5280  136.1426  152.5694 H   0  0  0  0  0  0  0  0  0  0  0  0
  144.3853  136.1428  153.6478 H   0  0  0  0  0  0  0  0  0  0  0  0
  143.6491  137.0493  152.3225 H   0  0  0  0  0  0  0  0  0  0  0  0
  144.6963  134.2010  152.2521 H   0  0  0  0  0  0  0  0  0  0  0  0
  143.1186  134.7666  151.7010 H   0  0  0  0  0  0  0  0  0  0  0  0
  146.2063  133.6644  150.1542 H   0  0  0  0  0  0  0  0  0  0  0  0
  144.4656  134.8852  147.8398 H   0  0  0  0  0  0  0  0  0  0  0  0
  145.6994  133.5367  147.6419 H   0  0  0  0  0  0  0  0  0  0  0  0
  144.3943  132.0981  149.2302 H   0  0  0  0  0  0  0  0  0  0  0  0
  143.1536  133.4400  149.4331 H   0  0  0  0  0  0  0  0  0  0  0  0
  145.4341  137.2100  149.9654 H   0  0  0  0  0  0  0  0  0  0  0  0
  146.7513  136.0774  150.2398 H   0  0  0  0  0  0  0  0  0  0  0  0
  149.6983  137.7337  153.0670 H   0  0  0  0  0  0  0  0  0  0  0  0
  152.0096  137.8610  153.7833 H   0  0  0  0  0  0  0  0  0  0  0  0
  144.0192  135.6610  149.8620 H   0  0  0  0  0  0  0  0  0  0  0  0
  1  2  1  0  0  0  0
  1 24  1  0  0  0  0
  1 25  1  0  0  0  0
  1 26  1  0  0  0  0
  2  3  1  0  0  0  0
  3  4  1  0  0  0  0
  3 27  1  0  0  0  0
  3 28  1  0  0  0  0
  4  5  1  0  0  0  0
  4 29  1  0  0  0  0
  4 30  1  0  0  0  0
  5 22  1  0  0  0  0
  5  6  1  0  0  0  0
  6  7  2  0  0  0  0
  7  8  1  0  0  0  0
  7 20  1  0  0  0  0
  8  9  2  0  0  0  0
  8 10  1  0  0  0  0
 10 11  1  0  0  0  0
 10 31  1  0  0  0  0
 11 12  1  0  0  0  0
 11 32  1  0  0  0  0
 11 33  1  0  0  0  0
 12 19  1  0  0  0  0
 12 13  1  0  0  0  0
 12 34  1  0  0  0  0
 13 14  1  0  0  0  0
 13 35  1  0  0  0  0
 13 36  1  0  0  0  0
 14 15  1  0  0  0  0
 14 37  1  0  0  0  0
 14 38  1  0  0  0  0
 15 16  1  0  0  0  0
 15 19  1  0  0  0  0
 15 48  1  0  0  0  0
 16 18  1  0  0  0  0
 16 17  1  0  0  0  0
 16 39  1  0  0  0  0
 17 18  1  0  0  0  0
 17 40  1  0  0  0  0
 17 41  1  0  0  0  0
 18 42  1  0  0  0  0
 18 43  1  0  0  0  0
 19 44  1  0  0  0  0
 19 45  1  0  0  0  0
 20 21  2  0  0  0  0
 20 46  1  0  0  0  0
 21 22  1  0  0  0  0
 21 47  1  0  0  0  0
 22 23  2  0  0  0  0
M  CHG  1  15   1
M  END
> <s_m_source_file>
AV-unprocessed.smi

> <i_m_source_file_index>
1973

> <i_lp_mmshare_version>
43012

> <i_f3d_flags>
0

> <s_epik_input>
W0NIM11PW0NIMl1bQ0gyXW4xbmMoW2NIXVtjSF1jMT1PKUMoPU8pW05IXVtDSDJdW0NAQEhdMltDSDJdW0NIMl1OKFtDSDJdMilbQ0hdM1tDSDJdW0NIMl0z

> <s_epik_cmdline>
J2VwaWtfcHl0aG9uJywgJy1waCcsICc3LjAnLCAnLXRuJywgJzgnLCAnLW1hJywgJzIwMCcsICctbWV0YWxfYmluZGluZycsICctaW1hZScsICc8aW5maWxlLm1hZT4nLCAnLW9tYWUnLCAnPG91dGZpbGUubWFlPic=

> <r_lp_tautomer_probability>
1

> <r_epik_Ionization_Penalty>
0.000225706

> <r_epik_Ionization_Penalty_Charging>
0.000223776

> <r_epik_Ionization_Penalty_Neutral>
1.93004e-06

> <r_epik_State_Penalty>
-0

> <r_epik_Charging_Adjusted_Penalty>
0.000223776

> <i_epik_Tot_Q>
1

> <i_epik_Tot_abs_Q>
1

> <r_epik_Metal_State_Penalty>
-0

> <b_epik_Metal_Only>
0

> <s_lp_Force_Field>
OPLS_2005

> <r_lp_Energy>
57.1885

> <b_lp_Chiralities_Consistent>
1

> <s_lp_Variant>
AV-unprocessed.smi:1973-4

> <Gold.Version>
5.8.1

> <Gold.Id.Protein>
6NUR|6NUR_protein|mol2

> <Gold.PLP.Fitness>
50.3951

> <Gold.PLP.PLP>
-46.0798

> <Gold.PLP.part.hbond>
-2.8198

> <Gold.PLP.part.metal>
0.0000

> <Gold.PLP.part.buried>
-7.0606

> <Gold.PLP.part.nonpolar>
-39.1872

> <Gold.PLP.part.repulsive>
0.2835

> <Gold.PLP.ligand.clash>
0.0000

> <Gold.PLP.ligand.torsion>
1.5724

> <Gold.PLP.Chemscore.Hbond>
2.0000

> <Gold.PLP.Chemscore.CHOScore>
0.0000

> <Gold.PLP.Chemscore.Metal>
0.0000

> <Gold.Chemscore.Hbonds>
donor molecule, donor type, donor heavy atom, donor atom, acceptor molecule, acceptor atom, score
      L1  H    10    31       P1  7948  0.45
      P1  H  7997  8009       L1    23  1.00

> <Gold.PLP.Chemscore.Internal.Correction>
1.4602

> <Gold.Rescore>
     Score         DG    S(hbond)    S(metal)    S(lipo)     H(rot)  DE(clash)    DE(int)     intcor
     16.09     -18.25       1.99        0.00      95.58       1.97       0.28       1.88       ----

> <Gold.Chemscore.Fitness>
16.0910

> <Gold.Chemscore.DG>
-18.2526

> <Gold.Chemscore.ZeroCoef>
-5.4800

> <Gold.Chemscore.Hbond>
1.9868

> <Gold.Chemscore.Metal>
0.0000

> <Gold.Chemscore.Lipo>
95.5783

> <Gold.Chemscore.Internal_Hbond>
0.0000

> <Gold.Chemscore.DEClash>
0.2840

> <Gold.Chemscore.DEInternal>
1.8777

> <Gold.Chemscore.Rot>
1.9711

> <Gold.Chemscore.Internal.Correction>
   9.000000E+99

> <Gold.Chemscore.Hbonds>
donor molecule, donor type, donor heavy atom, donor atom, acceptor molecule, acceptor atom, score
      L1  H    10    31       P1  7948  0.45
      P1  H  7997  8009       L1    23  1.00

> <Gold.Chemscore.Hbond.Weighted>
-6.6360

> <Gold.Chemscore.Metal.Weighted>
-0.0000

> <Gold.Chemscore.Lipo.Weighted>
-11.1827

> <Gold.Chemscore.Internal_Hbond.Weighted>
0.0000

> <Gold.Chemscore.DEClash.Weighted>
0.2840

> <Gold.Chemscore.DEInternal.Weighted>
1.8777

> <Gold.Chemscore.Rot.Weighted>
5.0460

> <Gold.Chemscore.Internal.Correction.Weighted>
   9.000000E+99

> <Gold.Protein.RotatedTorsions>
[ 6907 6896 6895 6894 ] final -140.97 input  -60.11 | X-H torsion
[ 7974 7965 7964 7962 ] final  -25.11 input  175.53 | X-H torsion
[ 8008 7997 7996 7995 ] final -144.76 input   59.86 | X-H torsion
[ 10167 10162 10161 10158 ] final  110.55 input  -65.29 | X-H torsion
[ 10718 10713 10712 10709 ] final   20.71 input   66.30 | X-H torsion
[ 10763 10752 10751 10750 ] final   29.72 input  -60.55 | X-H torsion
[ 11005 11000 10999 10996 ] final -132.67 input  -57.11 | X-H torsion

> <Gold.Protein.ActiveResidues>
 VAL166  LYS551  ARG553  GLY616  TRP617  ASP618  TYR619  PRO620  LYS621  CYS622 
 ASP623  PHE694  ASN695  SER759  ASP760  ASP761  ALA762  ILE779  LEU786  VAL792 
 PHE793  MET794  SER795  GLU796  ALA797  LYS798  CYS799  TRP800  GLU811  SER814 

> <Gold.Protein.RotatedAtoms>
  151.0676  133.5492  159.2629 H   0  0  0  0  0  0  0  0  0  0  0  0  # atno 6907 bound_to 6896
  151.2444  135.0599  159.9047 H   0  0  0  0  0  0  0  0  0  0  0  0  # atno 6908 bound_to 6896
  152.5407  134.0446  159.8137 H   0  0  0  0  0  0  0  0  0  0  0  0  # atno 6909 bound_to 6896
  146.1512  140.4842  142.8610 H   0  0  0  0  0  0  0  0  0  0  0  0  # atno 7974 bound_to 7965
  155.5322  140.0600  157.2887 H   0  0  0  0  0  0  0  0  0  0  0  0  # atno 8008 bound_to 7997
  154.4480  140.1934  156.0550 H   0  0  0  0  0  0  0  0  0  0  0  0  # atno 8009 bound_to 7997
  156.0644  140.3268  155.7504 H   0  0  0  0  0  0  0  0  0  0  0  0  # atno 8010 bound_to 7997
  139.6680  144.7126  151.1741 H   0  0  0  0  0  0  0  0  0  0  0  0  # atno 10167 bound_to 10162
  157.1283  130.6580  149.5944 H   0  0  0  0  0  0  0  0  0  0  0  0  # atno 10718 bound_to 10713
  153.0414  135.6482  154.0934 H   0  0  0  0  0  0  0  0  0  0  0  0  # atno 10763 bound_to 10752
  154.0640  135.2886  155.3321 H   0  0  0  0  0  0  0  0  0  0  0  0  # atno 10764 bound_to 10752
  154.6639  135.5381  153.8117 H   0  0  0  0  0  0  0  0  0  0  0  0  # atno 10765 bound_to 10752
  140.9149  134.1520  157.4360 H   0  0  0  0  0  0  0  0  0  0  0  0  # atno 11005 bound_to 11000
  144.7907  140.6025  143.6544 LP  0  0  0  0  0  0  0  0  0  0  0  0  # atno 17320 bound_to 7965
  145.4818  139.1495  143.3758 LP  0  0  0  0  0  0  0  0  0  0  0  0  # atno 17321 bound_to 7965
  140.7607  143.5889  150.8817 LP  0  0  0  0  0  0  0  0  0  0  0  0  # atno 17342 bound_to 10162
  139.9552  143.6226  152.3018 LP  0  0  0  0  0  0  0  0  0  0  0  0  # atno 17343 bound_to 10162
  155.9813  130.4820  150.6822 LP  0  0  0  0  0  0  0  0  0  0  0  0  # atno 17370 bound_to 10713
  157.4415  131.0862  151.0939 LP  0  0  0  0  0  0  0  0  0  0  0  0  # atno 17371 bound_to 10713
  139.8764  134.9950  156.5720 LP  0  0  0  0  0  0  0  0  0  0  0  0  # atno 17394 bound_to 11000
  140.8062  133.8465  155.8770 LP  0  0  0  0  0  0  0  0  0  0  0  0  # atno 17395 bound_to 11000

$$$$
