#       Name:                AV-unprocessed.smi:541
#       Creating user name   scv26
#       Creation time:       Thu Mar 26 23:36:28 2020


#       File generated by GOLD software.
#

@<TRIPOS>MOLECULE
AV-unprocessed.smi:541
    50    52     1
SMALL
NO_CHARGES


@<TRIPOS>ATOM
      1 ****        -2.6103   2.7638   4.2947 C.3            1 S1                 0.0000
      2 ****        -2.3714   1.5344   3.4152 C.3            1 S1                 0.0000
      3 ****        -1.1727   1.7196   2.6815 O.3            1 S1                 0.0000
      4 ****        -0.8792   0.6260   1.8292 C.3            1 S1                 0.0000
      5 ****         0.4457   0.9044   1.1056 C.3            1 S1                 0.0000
      6 ****         0.7823  -0.1570   0.1615 N.pl3          1 S1                 0.0000
      7 ****         0.5562  -0.2499  -1.1848 C.2            1 S1                 0.0000
      8 ****        -0.1110   0.7159  -1.9564 N.pl3          1 S1                 0.0000
      9 ****        -0.8466   1.9221  -1.5735 C.3            1 S1                 0.0000
     10 ****        -1.6905   2.3671  -2.7635 C.3            1 S1                 0.0000
     11 ****        -0.8283   1.9389  -3.9294 C.3            1 S1                 0.0000
     12 ****        -0.2339   0.6324  -3.4128 C.3            1 S1                 0.0000
     13 ****         1.0324  -1.3728  -1.7350 N.2            1 S1                 0.0000
     14 ****         1.5858  -2.0564  -0.6673 C.2            1 S1                 0.0000
     15 ****         1.4380  -1.3504   0.4801 C.2            1 S1                 0.0000
     16 ****         1.9192  -1.8535   1.7763 C.2            1 S1                 0.0000
     17 ****         1.7906  -1.2418   2.8344 O.2            1 S1                 0.0000
     18 ****         2.5128  -3.0687   1.6896 N.am           1 S1                 0.0000
     19 ****         2.6927  -3.8281   0.5668 C.2            1 S1                 0.0000
     20 ****         3.2458  -4.9248   0.6480 O.2            1 S1                 0.0000
     21 ****         2.2358  -3.3227  -0.6232 N.am           1 S1                 0.0000
     22 ****         2.3970  -4.0917  -1.8587 C.3            1 S1                 0.0000
     23 ****         2.8576  -3.4605   2.5538 H              1 S1                 0.0000
     24 ****        -3.5251   2.6541   4.8772 H              1 S1                 0.0000
     25 ****        -2.7047   3.6658   3.6896 H              1 S1                 0.0000
     26 ****        -1.7856   2.9121   4.9922 H              1 S1                 0.0000
     27 ****        -2.2973   0.6415   4.0374 H              1 S1                 0.0000
     28 ****        -3.2126   1.3949   2.7345 H              1 S1                 0.0000
     29 ****        -0.8020  -0.2920   2.4134 H              1 S1                 0.0000
     30 ****        -1.6882   0.4837   1.1120 H              1 S1                 0.0000
     31 ****         0.4321   1.8669   0.6046 H              1 S1                 0.0000
     32 ****         1.2523   1.0003   1.8310 H              1 S1                 0.0000
     33 ****        -1.4819   1.7536  -0.7062 H              1 S1                 0.0000
     34 ****        -0.1284   2.7045  -1.3273 H              1 S1                 0.0000
     35 ****        -2.6370   1.8249  -2.7779 H              1 S1                 0.0000
     36 ****        -1.9068   3.4356  -2.7576 H              1 S1                 0.0000
     37 ****        -1.3883   1.8157  -4.8569 H              1 S1                 0.0000
     38 ****        -0.0377   2.6712  -4.0995 H              1 S1                 0.0000
     39 ****         0.7318   0.4316  -3.8775 H              1 S1                 0.0000
     40 ****        -0.8946  -0.2014  -3.6533 H              1 S1                 0.0000
     41 ****         3.4267  -4.4326  -1.9761 H              1 S1                 0.0000
     42 ****         2.1510  -3.5098  -2.7467 H              1 S1                 0.0000
     43 ****         1.7471  -4.9673  -1.8462 H              1 S1                 0.0000
     44 ****        -0.4172   1.8344   3.3265 LP             1 S1                 0.0000
     45 ****        -1.2631   2.5447   2.1238 LP             1 S1                 0.0000
     46 ****         0.9966  -1.6526  -2.6944 LP             1 S1                 0.0000
     47 ****         1.3377  -0.3503   2.8447 LP             1 S1                 0.0000
     48 ****         2.1389  -1.6356   3.6851 LP             1 S1                 0.0000
     49 ****         3.5635  -5.2601   1.5350 LP             1 S1                 0.0000
     50 ****         3.3775  -5.4804  -0.1729 LP             1 S1                 0.0000
@<TRIPOS>BOND
    1    1    2 1     
    2    1   24 1     
    3    1   25 1     
    4    1   26 1     
    5    2    3 1     
    6    2   27 1     
    7    2   28 1     
    8    3    4 1     
    9    4    5 1     
   10    4   29 1     
   11    4   30 1     
   12    5    6 1     
   13    5   31 1     
   14    5   32 1     
   15    6   15 1     
   16    6    7 1     
   17    7    8 1     
   18    7   13 2     
   19    8   12 1     
   20    8    9 1     
   21    9   10 1     
   22    9   33 1     
   23    9   34 1     
   24   10   11 1     
   25   10   35 1     
   26   10   36 1     
   27   11   12 1     
   28   11   37 1     
   29   11   38 1     
   30   12   39 1     
   31   12   40 1     
   32   13   14 1     
   33   14   21 1     
   34   14   15 2     
   35   15   16 1     
   36   16   17 2     
   37   16   18 1     
   38   18   23 1     
   39   18   19 1     
   40   19   20 2     
   41   19   21 1     
   42   21   22 1     
   43   22   41 1     
   44   22   42 1     
   45   22   43 1     
   46    3   44 1     
   47    3   45 1     
   48   13   46 1     
   49   17   47 1     
   50   17   48 1     
   51   20   49 1     
   52   20   50 1     
@<TRIPOS>SUBSTRUCTURE
      1 S1             1
@<TRIPOS>SET
LONE_PAIRS      STATIC     ATOMS    <user>   **** ""
7 44 45 46 47 48 49 50
DONOR_HYDROGENS      STATIC     ATOMS    <user>   **** ""
1 23
ATOM$BLUE        STATIC     ATOMS    COLORGROUP SYSTEM
7 44 45 46 47 48 49 50
ATOM$RED        STATIC     ATOMS    COLORGROUP SYSTEM
1 23
