AV-unprocessed.smi:3187|AV-procd|sdf|12176|dock7
  -GOLD-   2272018 13D 1   1.00000     0.00000
 Structure written by MMmdl.
 41 42  0  0  0  0  0  0  0  0  2 V2000
  151.5894  145.6004  160.1133 C   0  0  0  0  0  0  0  0  0  0  0  0
  151.9656  144.1509  160.3746 C   0  0  0  0  0  0  0  0  0  0  0  0
  152.5119  143.8059  161.5563 C   0  0  0  0  0  0  0  0  0  0  0  0
  152.9955  142.4156  161.8978 C   0  0  0  0  0  0  0  0  0  0  0  0
  153.2648  141.6024  160.6298 C   0  0  0  0  0  0  0  0  0  0  0  0
  152.0749  141.6668  159.6581 C   0  0  2  0  0  0  0  0  0  0  0  0
  152.3574  140.7618  158.4430 C   0  0  0  0  0  0  0  0  0  0  0  0
  151.7234  143.1296  159.2439 C   0  0  1  0  0  0  0  0  0  0  0  0
  150.2791  143.1885  158.6790 C   0  0  0  0  0  0  0  0  0  0  0  0
  150.2261  143.0039  157.2147 N   0  3  0  0  0  0  0  0  0  0  0  0
  149.9011  141.6280  156.7881 C   0  0  0  0  0  0  0  0  0  0  0  0
  150.1825  141.4201  155.2919 C   0  0  0  0  0  0  0  0  0  0  0  0
  150.7142  140.0993  155.0143 N   0  0  0  0  0  0  0  0  0  0  0  0
  150.2237  139.1740  154.1021 C   0  0  0  0  0  0  0  0  0  0  0  0
  151.0392  138.0681  154.1872 C   0  0  0  0  0  0  0  0  0  0  0  0
  152.0324  138.2905  155.1383 N   0  0  0  0  0  0  0  0  0  0  0  0
  151.7794  139.5150  155.5809 C   0  0  0  0  0  0  0  0  0  0  0  0
  152.0088  145.9396  159.1659 H   0  0  0  0  0  0  0  0  0  0  0  0
  151.9725  146.2558  160.8964 H   0  0  0  0  0  0  0  0  0  0  0  0
  150.5070  145.7239  160.0885 H   0  0  0  0  0  0  0  0  0  0  0  0
  152.6427  144.5503  162.3285 H   0  0  0  0  0  0  0  0  0  0  0  0
  153.9091  142.4896  162.4887 H   0  0  0  0  0  0  0  0  0  0  0  0
  152.2471  141.9273  162.5228 H   0  0  0  0  0  0  0  0  0  0  0  0
  154.1600  141.9842  160.1363 H   0  0  0  0  0  0  0  0  0  0  0  0
  153.4812  140.5688  160.9028 H   0  0  0  0  0  0  0  0  0  0  0  0
  151.2157  141.2504  160.1869 H   0  0  0  0  0  0  0  0  0  0  0  0
  153.2046  141.1310  157.8639 H   0  0  0  0  0  0  0  0  0  0  0  0
  151.5046  140.6879  157.7703 H   0  0  0  0  0  0  0  0  0  0  0  0
  152.5963  139.7465  158.7609 H   0  0  0  0  0  0  0  0  0  0  0  0
  152.4136  143.4123  158.4473 H   0  0  0  0  0  0  0  0  0  0  0  0
  149.6549  142.4118  159.1178 H   0  0  0  0  0  0  0  0  0  0  0  0
  149.8167  144.1399  158.9462 H   0  0  0  0  0  0  0  0  0  0  0  0
  149.5264  143.6292  156.8407 H   0  0  0  0  0  0  0  0  0  0  0  0
  150.4742  140.9153  157.3830 H   0  0  0  0  0  0  0  0  0  0  0  0
  148.8465  141.4361  156.9890 H   0  0  0  0  0  0  0  0  0  0  0  0
  149.2622  141.5421  154.7194 H   0  0  0  0  0  0  0  0  0  0  0  0
  150.8831  142.1714  154.9240 H   0  0  0  0  0  0  0  0  0  0  0  0
  149.3590  139.3716  153.4856 H   0  0  0  0  0  0  0  0  0  0  0  0
  150.9880  137.1374  153.6411 H   0  0  0  0  0  0  0  0  0  0  0  0
  152.3793  139.9949  156.3405 H   0  0  0  0  0  0  0  0  0  0  0  0
  151.1245  143.2564  156.8278 H   0  0  0  0  0  0  0  0  0  0  0  0
  1  2  1  0  0  0  0
  1 18  1  0  0  0  0
  1 19  1  0  0  0  0
  1 20  1  0  0  0  0
  2  8  1  0  0  0  0
  2  3  2  0  0  0  0
  3  4  1  0  0  0  0
  3 21  1  0  0  0  0
  4  5  1  0  0  0  0
  4 22  1  0  0  0  0
  4 23  1  0  0  0  0
  5  6  1  0  0  0  0
  5 24  1  0  0  0  0
  5 25  1  0  0  0  0
  6  7  1  0  0  0  0
  6  8  1  0  0  0  0
  6 26  1  0  0  0  0
  7 27  1  0  0  0  0
  7 28  1  0  0  0  0
  7 29  1  0  0  0  0
  8  9  1  0  0  0  0
  8 30  1  0  0  0  0
  9 10  1  0  0  0  0
  9 31  1  0  0  0  0
  9 32  1  0  0  0  0
 10 11  1  0  0  0  0
 10 33  1  0  0  0  0
 10 41  1  0  0  0  0
 11 12  1  0  0  0  0
 11 34  1  0  0  0  0
 11 35  1  0  0  0  0
 12 13  1  0  0  0  0
 12 36  1  0  0  0  0
 12 37  1  0  0  0  0
 13 17  1  0  0  0  0
 13 14  1  0  0  0  0
 14 15  2  0  0  0  0
 14 38  1  0  0  0  0
 15 16  1  0  0  0  0
 15 39  1  0  0  0  0
 16 17  2  0  0  0  0
 17 40  1  0  0  0  0
M  CHG  1  10   1
M  END
> <s_m_source_file>
AV-unprocessed.smi

> <i_m_source_file_index>
3187

> <i_lp_mmshare_version>
43012

> <i_f3d_flags>
0

> <s_epik_input>
W0NIM11DMT1bQ0hdW0NIMl1bQ0gyXVtDQEBIXShbQ0gzXSlbQ0BIXTFbQ0gyXVtOSF1bQ0gyXVtDSDJdbjJbY0hdW2NIXW5bY0hdMg==

> <s_epik_cmdline>
J2VwaWtfcHl0aG9uJywgJy1waCcsICc3LjAnLCAnLXRuJywgJzgnLCAnLW1hJywgJzIwMCcsICctbWV0YWxfYmluZGluZycsICctaW1hZScsICc8aW5maWxlLm1hZT4nLCAnLW9tYWUnLCAnPG91dGZpbGUubWFlPic=

> <r_lp_tautomer_probability>
1

> <r_epik_Ionization_Penalty>
0.0501625

> <r_epik_Ionization_Penalty_Charging>
0.0501625

> <r_epik_Ionization_Penalty_Neutral>
0

> <r_epik_State_Penalty>
0.0972392

> <r_epik_Charging_Adjusted_Penalty>
0.147402

> <i_epik_Tot_Q>
1

> <i_epik_Tot_abs_Q>
1

> <r_epik_Metal_State_Penalty>
0.000104376

> <b_epik_Metal_Only>
0

> <s_lp_Force_Field>
OPLS_2005

> <r_lp_Energy>
17.5131

> <b_lp_Chiralities_Consistent>
1

> <s_lp_Variant>
AV-unprocessed.smi:3187-2

> <Gold.Version>
5.8.1

> <Gold.Id.Protein>
6NUR|6NUR_protein|mol2

> <Gold.PLP.Fitness>
54.7034

> <Gold.PLP.PLP>
-45.1343

> <Gold.PLP.part.hbond>
-1.0000

> <Gold.PLP.part.metal>
0.0000

> <Gold.PLP.part.buried>
-2.9246

> <Gold.PLP.part.nonpolar>
-40.3422

> <Gold.PLP.part.repulsive>
0.0350

> <Gold.PLP.ligand.clash>
0.0000

> <Gold.PLP.ligand.torsion>
1.0740

> <Gold.PLP.Chemscore.Hbond>
2.0000

> <Gold.PLP.Chemscore.CHOScore>
1.8779

> <Gold.PLP.Chemscore.Metal>
0.0000

> <Gold.Chemscore.Hbonds>
donor molecule, donor type, donor heavy atom, donor atom, acceptor molecule, acceptor atom, score
      L1  H    10    33       P1  8028  2.00
      L1  C    14    38       P1  7957  0.81
      L1  C    15    39       P1  7948  0.08
      L1  C    15    39       P1  7949  1.00

> <Gold.PLP.Chemscore.Internal.Correction>
0.0834

> <Gold.Rescore>
     Score         DG    S(hbond)    S(metal)    S(lipo)     H(rot)  DE(clash)    DE(int)     intcor
     17.20     -18.43       0.99        0.00     123.67       1.89       0.17       1.07       ----

> <Gold.Chemscore.Fitness>
17.1955

> <Gold.Chemscore.DG>
-18.4323

> <Gold.Chemscore.ZeroCoef>
-5.4800

> <Gold.Chemscore.Hbond>
0.9909

> <Gold.Chemscore.Metal>
0.0000

> <Gold.Chemscore.Lipo>
123.6653

> <Gold.Chemscore.Internal_Hbond>
0.0000

> <Gold.Chemscore.DEClash>
0.1695

> <Gold.Chemscore.DEInternal>
1.0673

> <Gold.Chemscore.Rot>
1.8853

> <Gold.Chemscore.Internal.Correction>
   9.000000E+99

> <Gold.Chemscore.Hbonds>
donor molecule, donor type, donor heavy atom, donor atom, acceptor molecule, acceptor atom, score
      L1  H    10    33       P1  8028  0.95

> <Gold.Chemscore.Hbond.Weighted>
-3.3097

> <Gold.Chemscore.Metal.Weighted>
-0.0000

> <Gold.Chemscore.Lipo.Weighted>
-14.4688

> <Gold.Chemscore.Internal_Hbond.Weighted>
0.0000

> <Gold.Chemscore.DEClash.Weighted>
0.1695

> <Gold.Chemscore.DEInternal.Weighted>
1.0673

> <Gold.Chemscore.Rot.Weighted>
4.8263

> <Gold.Chemscore.Internal.Correction.Weighted>
   9.000000E+99

> <Gold.Protein.RotatedTorsions>
[ 6907 6896 6895 6894 ] final   58.03 input  -60.11 | X-H torsion
[ 7974 7965 7964 7962 ] final -157.95 input  175.53 | X-H torsion
[ 8008 7997 7996 7995 ] final   69.47 input   59.86 | X-H torsion
[ 10167 10162 10161 10158 ] final  -75.69 input  -65.29 | X-H torsion
[ 10718 10713 10712 10709 ] final   18.87 input   66.30 | X-H torsion
[ 10763 10752 10751 10750 ] final  -72.90 input  -60.55 | X-H torsion
[ 11005 11000 10999 10996 ] final   46.75 input  -57.11 | X-H torsion

> <Gold.Protein.ActiveResidues>
 VAL166  LYS551  ARG553  GLY616  TRP617  ASP618  TYR619  PRO620  LYS621  CYS622 
 ASP623  PHE694  ASN695  SER759  ASP760  ASP761  ALA762  ILE779  LEU786  VAL792 
 PHE793  MET794  SER795  GLU796  ALA797  LYS798  CYS799  TRP800  GLU811  SER814 

> <Gold.Protein.RotatedAtoms>
  152.3787  134.6624  160.0150 H   0  0  0  0  0  0  0  0  0  0  0  0  # atno 6907 bound_to 6896
  151.6894  133.3305  159.3247 H   0  0  0  0  0  0  0  0  0  0  0  0  # atno 6908 bound_to 6896
  150.7730  134.6647  159.6403 H   0  0  0  0  0  0  0  0  0  0  0  0  # atno 6909 bound_to 6896
  144.7526  140.3897  143.6036 H   0  0  0  0  0  0  0  0  0  0  0  0  # atno 7974 bound_to 7965
  155.7240  140.3493  155.5029 H   0  0  0  0  0  0  0  0  0  0  0  0  # atno 8008 bound_to 7997
  155.9243  140.1073  157.1204 H   0  0  0  0  0  0  0  0  0  0  0  0  # atno 8009 bound_to 7997
  154.4075  140.1243  156.4707 H   0  0  0  0  0  0  0  0  0  0  0  0  # atno 8010 bound_to 7997
  140.4921  143.2378  151.7890 H   0  0  0  0  0  0  0  0  0  0  0  0  # atno 10167 bound_to 10162
  157.1024  130.6473  149.5876 H   0  0  0  0  0  0  0  0  0  0  0  0  # atno 10718 bound_to 10713
  154.4521  135.5915  153.6198 H   0  0  0  0  0  0  0  0  0  0  0  0  # atno 10763 bound_to 10752
  152.9814  135.6023  154.3592 H   0  0  0  0  0  0  0  0  0  0  0  0  # atno 10764 bound_to 10752
  154.3454  135.2841  155.2379 H   0  0  0  0  0  0  0  0  0  0  0  0  # atno 10765 bound_to 10752
  140.1341  134.4668  155.8499 H   0  0  0  0  0  0  0  0  0  0  0  0  # atno 11005 bound_to 11000
  145.6889  139.1635  143.2658 LP  0  0  0  0  0  0  0  0  0  0  0  0  # atno 17320 bound_to 7965
  146.1497  140.6943  142.9328 LP  0  0  0  0  0  0  0  0  0  0  0  0  # atno 17321 bound_to 7965
  139.4853  144.4635  151.9512 LP  0  0  0  0  0  0  0  0  0  0  0  0  # atno 17342 bound_to 10162
  140.3722  144.2841  150.5918 LP  0  0  0  0  0  0  0  0  0  0  0  0  # atno 17343 bound_to 10162
  155.9870  130.4908  150.7106 LP  0  0  0  0  0  0  0  0  0  0  0  0  # atno 17370 bound_to 10713
  157.4629  131.0885  151.0726 LP  0  0  0  0  0  0  0  0  0  0  0  0  # atno 17371 bound_to 10713
  141.2175  133.6807  156.7124 LP  0  0  0  0  0  0  0  0  0  0  0  0  # atno 17394 bound_to 11000
  140.2805  134.8320  157.3929 LP  0  0  0  0  0  0  0  0  0  0  0  0  # atno 17395 bound_to 11000

$$$$
