#       Name:                AV-unprocessed.smi:937
#       Creating user name   scv26
#       Creation time:       Fri Mar 27 02:11:59 2020


#       File generated by GOLD software.
#

@<TRIPOS>MOLECULE
AV-unprocessed.smi:937
    48    49     1
SMALL
NO_CHARGES


@<TRIPOS>ATOM
      1 ****        -2.9943   7.4451  -0.3650 C.3            1 S1                 0.0000
      2 ****        -2.5079   6.0111  -0.3699 C.ar           1 S1                 0.0000
      3 ****        -2.4287   5.2783  -1.5728 C.ar           1 S1                 0.0000
      4 ****        -1.9723   3.9475  -1.5179 C.ar           1 S1                 0.0000
      5 ****        -1.6144   3.4017  -0.2681 C.ar           1 S1                 0.0000
      6 ****        -1.1158   1.9740  -0.1604 C.3            1 S1                 0.0000
      7 ****         0.3646   1.8479  -0.5433 C.3            1 S1                 0.0000
      8 ****         0.8029   0.4631  -0.4449 N.am           1 S1                 0.0000
      9 ****         1.9962   0.0130  -0.8643 C.2            1 S1                 0.0000
     10 ****         2.8454   0.7341  -1.3846 O.2            1 S1                 0.0000
     11 ****         2.2038  -1.3028  -0.6739 N.am           1 S1                 0.0000
     12 ****         3.3852  -2.0983  -1.0147 C.3            1 S1                 0.0000
     13 ****         3.3800  -2.4674  -2.5122 C.3            1 S1                 0.0000
     14 ****         4.5665  -3.3746  -2.8670 C.3            1 S1                 0.0000
     15 ****         4.5824  -4.6381  -1.9933 C.3            1 S1                 0.0000
     16 ****         4.6022  -4.2896  -0.4900 C.3            1 S1                 0.0000
     17 ****         4.6332  -5.5530   0.3951 C.3            1 S1                 0.0000
     18 ****         3.5388  -6.2912   0.2073 F              1 S1                 0.0000
     19 ****         5.7049  -6.2899   0.1025 F              1 S1                 0.0000
     20 ****         4.7046  -5.2079   1.6808 F              1 S1                 0.0000
     21 ****         3.4114  -3.3693  -0.1433 C.3            1 S1                 0.0000
     22 ****        -1.7303   4.2199   0.8755 C.ar           1 S1                 0.0000
     23 ****        -2.1676   5.4970   0.8326 N.ar           1 S1                 0.0000
     24 ****        -3.1219   7.8220  -1.3801 H              1 S1                 0.0000
     25 ****        -2.2797   8.0889   0.1485 H              1 S1                 0.0000
     26 ****        -3.9533   7.5163   0.1485 H              1 S1                 0.0000
     27 ****        -2.7099   5.7225  -2.5163 H              1 S1                 0.0000
     28 ****        -1.8974   3.3577  -2.4198 H              1 S1                 0.0000
     29 ****        -1.2719   1.6140   0.8577 H              1 S1                 0.0000
     30 ****        -1.7255   1.3425  -0.8082 H              1 S1                 0.0000
     31 ****         0.5187   2.2078  -1.5622 H              1 S1                 0.0000
     32 ****         0.9785   2.4652   0.1146 H              1 S1                 0.0000
     33 ****         0.1613  -0.1957  -0.0283 H              1 S1                 0.0000
     34 ****         1.4441  -1.8141  -0.2480 H              1 S1                 0.0000
     35 ****         4.2861  -1.5243  -0.7902 H              1 S1                 0.0000
     36 ****         2.4485  -2.9766  -2.7637 H              1 S1                 0.0000
     37 ****         3.4149  -1.5683  -3.1280 H              1 S1                 0.0000
     38 ****         4.5187  -3.6522  -3.9203 H              1 S1                 0.0000
     39 ****         5.4993  -2.8252  -2.7343 H              1 S1                 0.0000
     40 ****         3.7062  -5.2465  -2.2204 H              1 S1                 0.0000
     41 ****         5.4518  -5.2437  -2.2504 H              1 S1                 0.0000
     42 ****         5.5194  -3.7324  -0.2921 H              1 S1                 0.0000
     43 ****         3.4586  -3.0861   0.9089 H              1 S1                 0.0000
     44 ****         2.4781  -3.9202  -0.2701 H              1 S1                 0.0000
     45 ****        -1.4651   3.8422   1.8520 H              1 S1                 0.0000
     46 ****         2.6628   1.7088  -1.5134 LP             1 S1                 0.0000
     47 ****         3.7187   0.3459  -1.6790 LP             1 S1                 0.0000
     48 ****        -2.2374   6.0457   1.6657 LP             1 S1                 0.0000
@<TRIPOS>BOND
    1    1    2 1     
    2    1   24 1     
    3    1   25 1     
    4    1   26 1     
    5    2   23 ar    
    6    2    3 ar    
    7    3    4 ar    
    8    3   27 1     
    9    4    5 ar    
   10    4   28 1     
   11    5    6 1     
   12    5   22 ar    
   13    6    7 1     
   14    6   29 1     
   15    6   30 1     
   16    7    8 1     
   17    7   31 1     
   18    7   32 1     
   19    8    9 am    
   20    8   33 1     
   21    9   10 2     
   22    9   11 am    
   23   11   12 1     
   24   11   34 1     
   25   12   21 1     
   26   12   13 1     
   27   12   35 1     
   28   13   14 1     
   29   13   36 1     
   30   13   37 1     
   31   14   15 1     
   32   14   38 1     
   33   14   39 1     
   34   15   16 1     
   35   15   40 1     
   36   15   41 1     
   37   16   17 1     
   38   16   21 1     
   39   16   42 1     
   40   17   18 1     
   41   17   19 1     
   42   17   20 1     
   43   21   43 1     
   44   21   44 1     
   45   22   23 ar    
   46   22   45 1     
   47   10   46 1     
   48   10   47 1     
   49   23   48 1     
@<TRIPOS>SUBSTRUCTURE
      1 S1             1
@<TRIPOS>SET
LONE_PAIRS      STATIC     ATOMS    <user>   **** ""
3 46 47 48
DONOR_HYDROGENS      STATIC     ATOMS    <user>   **** ""
2 33 34
ATOM$BLUE        STATIC     ATOMS    COLORGROUP SYSTEM
3 46 47 48
ATOM$RED        STATIC     ATOMS    COLORGROUP SYSTEM
2 33 34
