AV-unprocessed.smi:306|AV-procd|sdf|2283|dock8
  -GOLD-   2262022183D 1   1.00000     0.00000
 Structure written by MMmdl.
 46 48  0  0  0  0  0  0  0  0  2 V2000
  152.5777  138.9154  154.7761 C   0  0  0  0  0  0  0  0  0  0  0  0
  151.9126  138.6433  156.1302 C   0  0  0  0  0  0  0  0  0  0  0  0
  151.9757  139.8391  157.0374 C   0  0  0  0  0  0  0  0  0  0  0  0
  151.4769  141.1505  156.8000 C   0  0  0  0  0  0  0  0  0  0  0  0
  151.8048  141.8466  157.9294 C   0  0  0  0  0  0  0  0  0  0  0  0
  151.5476  143.2765  158.2880 C   0  0  0  0  0  0  0  0  0  0  0  0
  152.8301  144.0955  158.4721 C   0  0  0  0  0  0  0  0  0  0  0  0
  152.4645  140.9625  158.7643 N   0  0  0  0  0  0  0  0  0  0  0  0
  153.0109  141.2034  160.0402 C   0  0  0  0  0  0  0  0  0  0  0  0
  152.6992  142.2589  160.7930 N   0  0  0  0  0  0  0  0  0  0  0  0
  153.4749  142.0574  161.9261 C   0  0  0  0  0  0  0  0  0  0  0  0
  154.2102  140.9156  161.8286 C   0  0  0  0  0  0  0  0  0  0  0  0
  155.1245  140.4319  162.8866 C   0  0  0  0  0  0  0  0  0  0  0  0
  155.7562  139.3860  162.7532 O   0  0  0  0  0  0  0  0  0  0  0  0
  155.1559  141.2754  163.9667 N   0  5  0  0  0  0  0  0  0  0  0  0
  154.4351  142.4422  164.1055 C   0  0  0  0  0  0  0  0  0  0  0  0
  154.5262  143.1464  165.1119 O   0  0  0  0  0  0  0  0  0  0  0  0
  153.5904  142.8445  163.1042 N   0  0  0  0  0  0  0  0  0  0  0  0
  152.8107  144.0797  163.2257 C   0  0  0  0  0  0  0  0  0  0  0  0
  153.9108  140.3489  160.5861 N   0  0  0  0  0  0  0  0  0  0  0  0
  154.4240  139.1168  159.9923 C   0  0  0  0  0  0  0  0  0  0  0  0
  155.9591  139.0702  159.9866 C   0  0  0  0  0  0  0  0  0  0  0  0
  156.4776  140.1358  159.2083 O   0  0  0  0  0  0  0  0  0  0  0  0
  157.8446  140.3908  159.4752 C   0  0  0  0  0  0  0  0  0  0  0  0
  152.5590  139.7319  158.2199 N   0  0  0  0  0  0  0  0  0  0  0  0
  152.5164  138.0394  154.1301 H   0  0  0  0  0  0  0  0  0  0  0  0
  153.6319  139.1664  154.8974 H   0  0  0  0  0  0  0  0  0  0  0  0
  152.0932  139.7448  154.2602 H   0  0  0  0  0  0  0  0  0  0  0  0
  150.8733  138.3551  155.9699 H   0  0  0  0  0  0  0  0  0  0  0  0
  152.3923  137.7874  156.6063 H   0  0  0  0  0  0  0  0  0  0  0  0
  150.9575  141.5243  155.9302 H   0  0  0  0  0  0  0  0  0  0  0  0
  150.9272  143.7435  157.5225 H   0  0  0  0  0  0  0  0  0  0  0  0
  150.9644  143.3162  159.2084 H   0  0  0  0  0  0  0  0  0  0  0  0
  152.5972  145.1251  158.7440 H   0  0  0  0  0  0  0  0  0  0  0  0
  153.4208  144.1205  157.5563 H   0  0  0  0  0  0  0  0  0  0  0  0
  153.4540  143.6749  159.2612 H   0  0  0  0  0  0  0  0  0  0  0  0
  152.1861  144.0533  164.1198 H   0  0  0  0  0  0  0  0  0  0  0  0
  152.1499  144.2464  162.3754 H   0  0  0  0  0  0  0  0  0  0  0  0
  153.4745  144.9421  163.2988 H   0  0  0  0  0  0  0  0  0  0  0  0
  154.0337  138.2639  160.5470 H   0  0  0  0  0  0  0  0  0  0  0  0
  154.0320  139.0041  158.9836 H   0  0  0  0  0  0  0  0  0  0  0  0
  156.3367  139.1405  161.0075 H   0  0  0  0  0  0  0  0  0  0  0  0
  156.2961  138.1148  159.5827 H   0  0  0  0  0  0  0  0  0  0  0  0
  158.1921  141.2123  158.8489 H   0  0  0  0  0  0  0  0  0  0  0  0
  158.4594  139.5168  159.2568 H   0  0  0  0  0  0  0  0  0  0  0  0
  157.9954  140.6745  160.5175 H   0  0  0  0  0  0  0  0  0  0  0  0
  1  2  1  0  0  0  0
  1 26  1  0  0  0  0
  1 27  1  0  0  0  0
  1 28  1  0  0  0  0
  2  3  1  0  0  0  0
  2 29  1  0  0  0  0
  2 30  1  0  0  0  0
  3 25  2  0  0  0  0
  3  4  1  0  0  0  0
  4  5  2  0  0  0  0
  4 31  1  0  0  0  0
  5  6  1  0  0  0  0
  5  8  1  0  0  0  0
  6  7  1  0  0  0  0
  6 32  1  0  0  0  0
  6 33  1  0  0  0  0
  7 34  1  0  0  0  0
  7 35  1  0  0  0  0
  7 36  1  0  0  0  0
  8  9  1  0  0  0  0
  8 25  1  0  0  0  0
  9 20  1  0  0  0  0
  9 10  2  0  0  0  0
 10 11  1  0  0  0  0
 11 18  1  0  0  0  0
 11 12  2  0  0  0  0
 12 13  1  0  0  0  0
 12 20  1  0  0  0  0
 13 14  2  0  0  0  0
 13 15  1  0  0  0  0
 15 16  1  0  0  0  0
 16 17  2  0  0  0  0
 16 18  1  0  0  0  0
 18 19  1  0  0  0  0
 19 37  1  0  0  0  0
 19 38  1  0  0  0  0
 19 39  1  0  0  0  0
 20 21  1  0  0  0  0
 21 22  1  0  0  0  0
 21 40  1  0  0  0  0
 21 41  1  0  0  0  0
 22 23  1  0  0  0  0
 22 42  1  0  0  0  0
 22 43  1  0  0  0  0
 23 24  1  0  0  0  0
 24 44  1  0  0  0  0
 24 45  1  0  0  0  0
 24 46  1  0  0  0  0
M  CHG  1  15  -1
M  END
> <s_m_source_file>
AV-unprocessed.smi

> <i_m_source_file_index>
306

> <i_lp_mmshare_version>
43012

> <i_f3d_flags>
0

> <s_epik_input>
W0NIM11bQ0gyXWMxW2NIXWMoW0NIMl1bQ0gzXSluKG4xKS1jKG4yKW4oW0NIMl1bQ0gyXU9bQ0gzXSljKGMyMyljKD1PKVtuSF1jKD1PKW4zW0NIM10=

> <s_epik_cmdline>
J2VwaWtfcHl0aG9uJywgJy1waCcsICc3LjAnLCAnLXRuJywgJzgnLCAnLW1hJywgJzIwMCcsICctbWV0YWxfYmluZGluZycsICctaW1hZScsICc8aW5maWxlLm1hZT4nLCAnLW9tYWUnLCAnPG91dGZpbGUubWFlPic=

> <r_lp_tautomer_probability>
1

> <r_epik_Ionization_Penalty>
3.98741

> <r_epik_Ionization_Penalty_Charging>
0.0180637

> <r_epik_Ionization_Penalty_Neutral>
3.96934

> <r_epik_State_Penalty>
3.96767

> <r_epik_Charging_Adjusted_Penalty>
3.98573

> <i_epik_Tot_Q>
-1

> <i_epik_Tot_abs_Q>
1

> <r_epik_Metal_State_Penalty>
0.612217

> <b_epik_Metal_Only>
1

> <s_lp_Force_Field>
OPLS_2005

> <r_lp_Energy>
26.8748

> <b_lp_Chiralities_Consistent>
1

> <s_lp_Variant>
AV-unprocessed.smi:306-2

> <Gold.Version>
5.8.1

> <Gold.Id.Protein>
6NUR|6NUR_protein|mol2

> <Gold.PLP.Fitness>
49.7960

> <Gold.PLP.PLP>
-50.2172

> <Gold.PLP.part.hbond>
-2.2904

> <Gold.PLP.part.metal>
0.0000

> <Gold.PLP.part.buried>
-2.1944

> <Gold.PLP.part.nonpolar>
-44.2389

> <Gold.PLP.part.repulsive>
0.0805

> <Gold.PLP.ligand.clash>
3.7321

> <Gold.PLP.ligand.torsion>
0.2726

> <Gold.PLP.Chemscore.Hbond>
0.9920

> <Gold.PLP.Chemscore.CHOScore>
0.0000

> <Gold.PLP.Chemscore.Metal>
0.0000

> <Gold.Chemscore.Hbonds>
donor molecule, donor type, donor heavy atom, donor atom, acceptor molecule, acceptor atom, score
      P1  H  7997  8008       L1    23  0.96

> <Gold.PLP.Chemscore.Internal.Correction>
0.8801

> <Gold.Rescore>
     Score         DG    S(hbond)    S(metal)    S(lipo)     H(rot)  DE(clash)    DE(int)     intcor
     10.44     -15.53       0.95        0.00      98.45       1.81       0.33       4.76       ----

> <Gold.Chemscore.Fitness>
10.4423

> <Gold.Chemscore.DG>
-15.5319

> <Gold.Chemscore.ZeroCoef>
-5.4800

> <Gold.Chemscore.Hbond>
0.9507

> <Gold.Chemscore.Metal>
0.0000

> <Gold.Chemscore.Lipo>
98.4544

> <Gold.Chemscore.Internal_Hbond>
0.0000

> <Gold.Chemscore.DEClash>
0.3345

> <Gold.Chemscore.DEInternal>
4.7552

> <Gold.Chemscore.Rot>
1.8136

> <Gold.Chemscore.Internal.Correction>
   9.000000E+99

> <Gold.Chemscore.Hbonds>
donor molecule, donor type, donor heavy atom, donor atom, acceptor molecule, acceptor atom, score
      P1  H  7997  8008       L1    23  0.65

> <Gold.Chemscore.Hbond.Weighted>
-3.1755

> <Gold.Chemscore.Metal.Weighted>
-0.0000

> <Gold.Chemscore.Lipo.Weighted>
-11.5192

> <Gold.Chemscore.Internal_Hbond.Weighted>
0.0000

> <Gold.Chemscore.DEClash.Weighted>
0.3345

> <Gold.Chemscore.DEInternal.Weighted>
4.7552

> <Gold.Chemscore.Rot.Weighted>
4.6427

> <Gold.Chemscore.Internal.Correction.Weighted>
   9.000000E+99

> <Gold.Protein.RotatedTorsions>
[ 6907 6896 6895 6894 ] final  -99.75 input  -60.11 | X-H torsion
[ 7974 7965 7964 7962 ] final   30.46 input  175.53 | X-H torsion
[ 8008 7997 7996 7995 ] final -153.23 input   59.86 | X-H torsion
[ 10167 10162 10161 10158 ] final  -25.24 input  -65.29 | X-H torsion
[ 10718 10713 10712 10709 ] final    5.55 input   66.30 | X-H torsion
[ 10763 10752 10751 10750 ] final  138.65 input  -60.55 | X-H torsion
[ 11005 11000 10999 10996 ] final   83.63 input  -57.11 | X-H torsion

> <Gold.Protein.ActiveResidues>
 VAL166  LYS551  ARG553  GLY616  TRP617  ASP618  TYR619  PRO620  LYS621  CYS622 
 ASP623  PHE694  ASN695  SER759  ASP760  ASP761  ALA762  ILE779  LEU786  VAL792 
 PHE793  MET794  SER795  GLU796  ALA797  LYS798  CYS799  TRP800  GLU811  SER814 

> <Gold.Protein.RotatedAtoms>
  150.7091  134.0992  159.3959 H   0  0  0  0  0  0  0  0  0  0  0  0  # atno 6907 bound_to 6896
  151.8978  135.0388  160.0513 H   0  0  0  0  0  0  0  0  0  0  0  0  # atno 6908 bound_to 6896
  152.2439  133.5123  159.5322 H   0  0  0  0  0  0  0  0  0  0  0  0  # atno 6909 bound_to 6896
  146.1610  139.6786  142.9033 H   0  0  0  0  0  0  0  0  0  0  0  0  # atno 7974 bound_to 7965
  155.6675  140.0729  157.2532 H   0  0  0  0  0  0  0  0  0  0  0  0  # atno 8008 bound_to 7997
  154.4130  140.1705  156.1894 H   0  0  0  0  0  0  0  0  0  0  0  0  # atno 8009 bound_to 7997
  155.9645  140.3367  155.6523 H   0  0  0  0  0  0  0  0  0  0  0  0  # atno 8010 bound_to 7997
  140.7287  143.4282  151.0844 H   0  0  0  0  0  0  0  0  0  0  0  0  # atno 10167 bound_to 10162
  156.9090  130.5749  149.5647 H   0  0  0  0  0  0  0  0  0  0  0  0  # atno 10718 bound_to 10713
  153.8931  135.3031  155.3447 H   0  0  0  0  0  0  0  0  0  0  0  0  # atno 10763 bound_to 10752
  154.7707  135.4887  153.9646 H   0  0  0  0  0  0  0  0  0  0  0  0  # atno 10764 bound_to 10752
  153.1287  135.6799  153.9313 H   0  0  0  0  0  0  0  0  0  0  0  0  # atno 10765 bound_to 10752
  139.9025  134.8159  156.2336 H   0  0  0  0  0  0  0  0  0  0  0  0  # atno 11005 bound_to 11000
  145.4587  141.0432  143.2764 LP  0  0  0  0  0  0  0  0  0  0  0  0  # atno 17320 bound_to 7965
  144.8027  139.6109  143.7064 LP  0  0  0  0  0  0  0  0  0  0  0  0  # atno 17321 bound_to 7965
  139.7936  143.8184  152.3155 LP  0  0  0  0  0  0  0  0  0  0  0  0  # atno 17342 bound_to 10162
  139.8176  144.7309  150.9615 LP  0  0  0  0  0  0  0  0  0  0  0  0  # atno 17343 bound_to 10162
  156.0545  130.5609  150.9061 LP  0  0  0  0  0  0  0  0  0  0  0  0  # atno 17370 bound_to 10713
  157.5979  131.0942  150.9010 LP  0  0  0  0  0  0  0  0  0  0  0  0  # atno 17371 bound_to 10713
  141.0330  133.6978  156.1463 LP  0  0  0  0  0  0  0  0  0  0  0  0  # atno 17394 bound_to 11000
  140.7069  134.4504  157.5583 LP  0  0  0  0  0  0  0  0  0  0  0  0  # atno 17395 bound_to 11000

$$$$
