AV-unprocessed.smi:2591|AV-procd|sdf|10155|dock2
  -GOLD-   2272014163D 1   1.00000     0.00000
 Structure written by MMmdl.
 35 36  0  0  0  0  0  0  0  0  2 V2000
  147.9849  139.0855  155.3983 C   0  0  0  0  0  0  0  0  0  0  0  0
  149.3436  138.5204  155.5378 N   0  3  1  0  0  0  0  0  0  0  0  0
  149.3645  137.0445  155.4266 C   0  0  0  0  0  0  0  0  0  0  0  0
  150.7881  136.5120  155.6551 C   0  0  0  0  0  0  0  0  0  0  0  0
  151.6880  137.1291  154.7342 O   0  0  0  0  0  0  0  0  0  0  0  0
  151.7386  138.5573  154.8132 C   0  0  2  0  0  0  0  0  0  0  0  0
  152.4317  139.0066  156.1143 C   0  0  0  0  0  0  0  0  0  0  0  0
  153.5207  138.5280  156.4342 O   0  0  0  0  0  0  0  0  0  0  0  0
  151.7628  139.9288  156.8322 N   0  0  0  0  0  0  0  0  0  0  0  0
  152.1460  140.5402  158.0553 C   0  0  0  0  0  0  0  0  0  0  0  0
  151.5387  141.7886  158.3162 C   0  0  0  0  0  0  0  0  0  0  0  0
  151.8527  142.4855  159.5027 C   0  0  0  0  0  0  0  0  0  0  0  0
  151.2013  143.8270  159.8016 C   0  0  0  0  0  0  0  0  0  0  0  0
  151.5246  144.2664  161.0184 F   0  0  0  0  0  0  0  0  0  0  0  0
  151.5936  144.7364  158.9090 F   0  0  0  0  0  0  0  0  0  0  0  0
  149.8770  143.6978  159.7302 F   0  0  0  0  0  0  0  0  0  0  0  0
  152.7679  141.8979  160.4001 C   0  0  0  0  0  0  0  0  0  0  0  0
  153.3264  140.6514  160.0637 C   0  0  0  0  0  0  0  0  0  0  0  0
  153.0283  139.9908  158.9255 N   0  0  0  0  0  0  0  0  0  0  0  0
  150.3170  139.1325  154.6021 C   0  0  0  0  0  0  0  0  0  0  0  0
  147.5737  138.8800  154.4092 H   0  0  0  0  0  0  0  0  0  0  0  0
  148.0019  140.1660  155.5449 H   0  0  0  0  0  0  0  0  0  0  0  0
  147.3133  138.6589  156.1441 H   0  0  0  0  0  0  0  0  0  0  0  0
  148.6845  136.6084  156.1596 H   0  0  0  0  0  0  0  0  0  0  0  0
  149.0076  136.7458  154.4396 H   0  0  0  0  0  0  0  0  0  0  0  0
  151.1045  136.6788  156.6855 H   0  0  0  0  0  0  0  0  0  0  0  0
  150.8123  135.4341  155.4950 H   0  0  0  0  0  0  0  0  0  0  0  0
  152.3680  138.9029  153.9919 H   0  0  0  0  0  0  0  0  0  0  0  0
  150.8767  140.2321  156.4548 H   0  0  0  0  0  0  0  0  0  0  0  0
  150.8344  142.2123  157.6149 H   0  0  0  0  0  0  0  0  0  0  0  0
  153.0387  142.3829  161.3264 H   0  0  0  0  0  0  0  0  0  0  0  0
  154.0306  140.1706  160.7266 H   0  0  0  0  0  0  0  0  0  0  0  0
  149.9962  138.9428  153.5767 H   0  0  0  0  0  0  0  0  0  0  0  0
  150.3210  140.2163  154.7286 H   0  0  0  0  0  0  0  0  0  0  0  0
  149.6572  138.7485  156.4710 H   0  0  0  0  0  0  0  0  0  0  0  0
  1  2  1  0  0  0  0
  1 21  1  0  0  0  0
  1 22  1  0  0  0  0
  1 23  1  0  0  0  0
  2 20  1  0  0  0  0
  2  3  1  0  0  0  0
  2 35  1  0  0  0  0
  3  4  1  0  0  0  0
  3 24  1  0  0  0  0
  3 25  1  0  0  0  0
  4  5  1  0  0  0  0
  4 26  1  0  0  0  0
  4 27  1  0  0  0  0
  5  6  1  0  0  0  0
  6  7  1  0  0  0  0
  6 20  1  0  0  0  0
  6 28  1  0  0  0  0
  7  8  2  0  0  0  0
  7  9  1  0  0  0  0
  9 10  1  0  0  0  0
  9 29  1  0  0  0  0
 10 19  1  0  0  0  0
 10 11  2  0  0  0  0
 11 12  1  0  0  0  0
 11 30  1  0  0  0  0
 12 13  1  0  0  0  0
 12 17  2  0  0  0  0
 13 14  1  0  0  0  0
 13 15  1  0  0  0  0
 13 16  1  0  0  0  0
 17 18  1  0  0  0  0
 17 31  1  0  0  0  0
 18 19  2  0  0  0  0
 18 32  1  0  0  0  0
 20 33  1  0  0  0  0
 20 34  1  0  0  0  0
M  CHG  1   2   1
M  END
> <s_m_source_file>
AV-unprocessed.smi

> <i_m_source_file_index>
2591

> <i_lp_mmshare_version>
43012

> <i_f3d_flags>
0

> <s_epik_input>
W0NIM11OMVtDSDJdW0NIMl1PW0NASF0oW0NIMl0xKUMoPU8pW05IXWMyW2NIXWMoQyhGKShGKUYpW2NIXVtjSF1uMg==

> <s_epik_cmdline>
J2VwaWtfcHl0aG9uJywgJy1waCcsICc3LjAnLCAnLXRuJywgJzgnLCAnLW1hJywgJzIwMCcsICctbWV0YWxfYmluZGluZycsICctaW1hZScsICc8aW5maWxlLm1hZT4nLCAnLW9tYWUnLCAnPG91dGZpbGUubWFlPic=

> <r_epik_Ionization_Penalty>
0.314028

> <r_epik_Ionization_Penalty_Charging>
0.314023

> <r_epik_Ionization_Penalty_Neutral>
5.2303e-06

> <r_epik_State_Penalty>
0.308208

> <r_epik_Charging_Adjusted_Penalty>
0.62223

> <i_epik_Tot_Q>
1

> <i_epik_Tot_abs_Q>
1

> <r_epik_Metal_State_Penalty>
0.308209

> <b_epik_Metal_Only>
0

> <s_lp_Force_Field>
OPLS_2005

> <r_lp_Energy>
16.4571

> <b_lp_Chiralities_Consistent>
1

> <s_lp_Variant>
AV-unprocessed.smi:2591-3

> <Gold.Version>
5.8.1

> <Gold.Id.Protein>
6NUR|6NUR_protein|mol2

> <Gold.PLP.Fitness>
45.3981

> <Gold.PLP.PLP>
-41.4824

> <Gold.PLP.part.hbond>
-2.1556

> <Gold.PLP.part.metal>
0.0000

> <Gold.PLP.part.buried>
-5.3563

> <Gold.PLP.part.nonpolar>
-33.5184

> <Gold.PLP.part.repulsive>
0.2896

> <Gold.PLP.ligand.clash>
0.1616

> <Gold.PLP.ligand.torsion>
0.3355

> <Gold.PLP.Chemscore.Hbond>
1.4952

> <Gold.PLP.Chemscore.CHOScore>
0.0000

> <Gold.PLP.Chemscore.Metal>
0.0000

> <Gold.Chemscore.Hbonds>
donor molecule, donor type, donor heavy atom, donor atom, acceptor molecule, acceptor atom, score
      P1  H  7997  8008       L1     8  0.50
      P1  H 10752 10763       L1     5  0.98

> <Gold.PLP.Chemscore.Internal.Correction>
0.2627

> <Gold.Rescore>
     Score         DG    S(hbond)    S(metal)    S(lipo)     H(rot)  DE(clash)    DE(int)     intcor
     11.94     -14.77       0.91        0.00      75.38       1.00       0.20       2.63       ----

> <Gold.Chemscore.Fitness>
11.9433

> <Gold.Chemscore.DG>
-14.7655

> <Gold.Chemscore.ZeroCoef>
-5.4800

> <Gold.Chemscore.Hbond>
0.9061

> <Gold.Chemscore.Metal>
0.0000

> <Gold.Chemscore.Lipo>
75.3782

> <Gold.Chemscore.Internal_Hbond>
0.0000

> <Gold.Chemscore.DEClash>
0.1957

> <Gold.Chemscore.DEInternal>
2.6264

> <Gold.Chemscore.Rot>
1.0000

> <Gold.Chemscore.Internal.Correction>
   9.000000E+99

> <Gold.Chemscore.Hbonds>
donor molecule, donor type, donor heavy atom, donor atom, acceptor molecule, acceptor atom, score
      P1  H  7997  8008       L1     8  0.27
      P1  H 10752 10763       L1     5  0.45

> <Gold.Chemscore.Hbond.Weighted>
-3.0262

> <Gold.Chemscore.Metal.Weighted>
-0.0000

> <Gold.Chemscore.Lipo.Weighted>
-8.8193

> <Gold.Chemscore.Internal_Hbond.Weighted>
0.0000

> <Gold.Chemscore.DEClash.Weighted>
0.1957

> <Gold.Chemscore.DEInternal.Weighted>
2.6264

> <Gold.Chemscore.Rot.Weighted>
2.5600

> <Gold.Chemscore.Internal.Correction.Weighted>
   9.000000E+99

> <Gold.Protein.RotatedTorsions>
[ 6907 6896 6895 6894 ] final  165.55 input  -60.11 | X-H torsion
[ 7974 7965 7964 7962 ] final  156.60 input  175.53 | X-H torsion
[ 8008 7997 7996 7995 ] final  -87.39 input   59.86 | X-H torsion
[ 10167 10162 10161 10158 ] final -137.28 input  -65.29 | X-H torsion
[ 10718 10713 10712 10709 ] final -152.85 input   66.30 | X-H torsion
[ 10763 10752 10751 10750 ] final   36.26 input  -60.55 | X-H torsion
[ 11005 11000 10999 10996 ] final  -10.34 input  -57.11 | X-H torsion

> <Gold.Protein.ActiveResidues>
 VAL166  LYS551  ARG553  GLY616  TRP617  ASP618  TYR619  PRO620  LYS621  CYS622 
 ASP623  PHE694  ASN695  SER759  ASP760  ASP761  ALA762  ILE779  LEU786  VAL792 
 PHE793  MET794  SER795  GLU796  ALA797  LYS798  CYS799  TRP800  GLU811  SER814 

> <Gold.Protein.RotatedAtoms>
  151.8927  133.3520  159.3803 H   0  0  0  0  0  0  0  0  0  0  0  0  # atno 6907 bound_to 6896
  150.7099  134.4907  159.5523 H   0  0  0  0  0  0  0  0  0  0  0  0  # atno 6908 bound_to 6896
  152.2480  134.8161  160.0501 H   0  0  0  0  0  0  0  0  0  0  0  0  # atno 6909 bound_to 6896
  144.7953  139.7226  143.6204 H   0  0  0  0  0  0  0  0  0  0  0  0  # atno 7974 bound_to 7965
  154.6627  140.0566  157.0079 H   0  0  0  0  0  0  0  0  0  0  0  0  # atno 8008 bound_to 7997
  155.1205  140.3247  155.4480 H   0  0  0  0  0  0  0  0  0  0  0  0  # atno 8009 bound_to 7997
  156.2625  140.1998  156.6327 H   0  0  0  0  0  0  0  0  0  0  0  0  # atno 8010 bound_to 7997
  139.8593  143.7098  152.2651 H   0  0  0  0  0  0  0  0  0  0  0  0  # atno 10167 bound_to 10162
  156.4779  130.8289  151.2517 H   0  0  0  0  0  0  0  0  0  0  0  0  # atno 10718 bound_to 10713
  153.0084  135.6310  154.1957 H   0  0  0  0  0  0  0  0  0  0  0  0  # atno 10763 bound_to 10752
  154.1700  135.2819  155.3085 H   0  0  0  0  0  0  0  0  0  0  0  0  # atno 10764 bound_to 10752
  154.5916  135.5616  153.7344 H   0  0  0  0  0  0  0  0  0  0  0  0  # atno 10765 bound_to 10752
  140.7437  133.8649  155.8988 H   0  0  0  0  0  0  0  0  0  0  0  0  # atno 11005 bound_to 11000
  146.2219  139.5651  142.9613 LP  0  0  0  0  0  0  0  0  0  0  0  0  # atno 17320 bound_to 7965
  145.5689  141.0396  143.2185 LP  0  0  0  0  0  0  0  0  0  0  0  0  # atno 17321 bound_to 7965
  139.7389  144.7564  151.0683 LP  0  0  0  0  0  0  0  0  0  0  0  0  # atno 17342 bound_to 10162
  140.7777  143.4996  150.9788 LP  0  0  0  0  0  0  0  0  0  0  0  0  # atno 17343 bound_to 10162
  157.7486  131.0054  150.3114 LP  0  0  0  0  0  0  0  0  0  0  0  0  # atno 17370 bound_to 10713
  156.3551  130.3837  149.7297 LP  0  0  0  0  0  0  0  0  0  0  0  0  # atno 17371 bound_to 10713
  140.9813  134.1401  157.4491 LP  0  0  0  0  0  0  0  0  0  0  0  0  # atno 17394 bound_to 11000
  139.8801  135.0011  156.6051 LP  0  0  0  0  0  0  0  0  0  0  0  0  # atno 17395 bound_to 11000

$$$$
