AV-unprocessed.smi:1667|AV-procd|sdf|6674|dock6
  -GOLD-   22720 7383D 1   1.00000     0.00000
 Structure written by MMmdl.
 45 47  0  0  0  0  0  0  0  0  1 V2000
  148.8644  136.3965  158.4875 C   0  0  0  0  0  0  0  0  0  0  0  0
  150.2581  137.0079  158.5779 C   0  0  0  0  0  0  0  0  0  0  0  0
  150.8110  137.1103  159.6719 O   0  0  0  0  0  0  0  0  0  0  0  0
  150.7991  137.4068  157.4134 N   0  0  0  0  0  0  0  0  0  0  0  0
  152.1085  138.0237  157.1659 C   0  0  2  0  0  0  0  0  0  0  0  0
  153.3082  137.1077  157.4702 C   0  0  0  0  0  0  0  0  0  0  0  0
  152.2025  139.3658  157.8561 C   0  0  0  0  0  0  0  0  0  0  0  0
  153.2484  139.7145  158.6112 N   0  0  0  0  0  0  0  0  0  0  0  0
  152.9277  140.9911  159.0230 C   0  0  0  0  0  0  0  0  0  0  0  0
  153.6302  141.8925  159.8542 C   0  0  0  0  0  0  0  0  0  0  0  0
  153.0945  143.1656  160.1393 C   0  0  0  0  0  0  0  0  0  0  0  0
  151.8521  143.5544  159.5973 C   0  0  0  0  0  0  0  0  0  0  0  0
  151.1373  142.6709  158.7659 C   0  0  0  0  0  0  0  0  0  0  0  0
  151.6768  141.4008  158.4855 C   0  0  0  0  0  0  0  0  0  0  0  0
  151.2427  140.3212  157.7230 N   0  0  0  0  0  0  0  0  0  0  0  0
  150.0022  140.2788  156.9581 C   0  0  0  0  0  0  0  0  0  0  0  0
  150.2159  139.8083  155.5050 C   0  0  2  0  0  0  0  0  0  0  0  0
  151.3937  140.3797  154.9669 O   0  0  0  0  0  0  0  0  0  0  0  0
  148.9927  140.0962  154.6486 C   0  0  0  0  0  0  0  0  0  0  0  0
  148.3805  139.0533  153.9206 C   0  0  0  0  0  0  0  0  0  0  0  0
  147.2421  139.3111  153.1319 C   0  0  0  0  0  0  0  0  0  0  0  0
  146.7086  140.6127  153.0679 C   0  0  0  0  0  0  0  0  0  0  0  0
  147.3122  141.6563  153.7950 C   0  0  0  0  0  0  0  0  0  0  0  0
  146.7981  142.9074  153.7367 F   0  0  0  0  0  0  0  0  0  0  0  0
  148.4496  141.3988  154.5848 C   0  0  0  0  0  0  0  0  0  0  0  0
  152.1009  138.1806  156.0896 H   0  0  0  0  0  0  0  0  0  0  0  0
  148.8945  135.4649  157.9217 H   0  0  0  0  0  0  0  0  0  0  0  0
  148.1782  137.0825  157.9901 H   0  0  0  0  0  0  0  0  0  0  0  0
  148.4696  136.1809  159.4808 H   0  0  0  0  0  0  0  0  0  0  0  0
  150.2307  137.2711  156.5901 H   0  0  0  0  0  0  0  0  0  0  0  0
  154.2339  137.5573  157.1103 H   0  0  0  0  0  0  0  0  0  0  0  0
  153.2004  136.1400  156.9797 H   0  0  0  0  0  0  0  0  0  0  0  0
  153.4319  136.9336  158.5390 H   0  0  0  0  0  0  0  0  0  0  0  0
  154.5827  141.6031  160.2730 H   0  0  0  0  0  0  0  0  0  0  0  0
  153.6394  143.8466  160.7765 H   0  0  0  0  0  0  0  0  0  0  0  0
  151.4487  144.5313  159.8199 H   0  0  0  0  0  0  0  0  0  0  0  0
  150.1857  142.9659  158.3493 H   0  0  0  0  0  0  0  0  0  0  0  0
  149.3203  139.5945  157.4647 H   0  0  0  0  0  0  0  0  0  0  0  0
  149.5114  141.2507  156.9930 H   0  0  0  0  0  0  0  0  0  0  0  0
  150.3775  138.7295  155.5115 H   0  0  0  0  0  0  0  0  0  0  0  0
  152.1307  140.0814  155.4780 H   0  0  0  0  0  0  0  0  0  0  0  0
  148.7807  138.0510  153.9657 H   0  0  0  0  0  0  0  0  0  0  0  0
  146.7772  138.5103  152.5760 H   0  0  0  0  0  0  0  0  0  0  0  0
  145.8358  140.8100  152.4631 H   0  0  0  0  0  0  0  0  0  0  0  0
  148.9024  142.2049  155.1432 H   0  0  0  0  0  0  0  0  0  0  0  0
  1  2  1  0  0  0  0
  1 27  1  0  0  0  0
  1 28  1  0  0  0  0
  1 29  1  0  0  0  0
  2  3  2  0  0  0  0
  2  4  1  0  0  0  0
  4  5  1  0  0  0  0
  4 30  1  0  0  0  0
  5 26  1  0  0  0  0
  5  6  1  0  0  0  0
  5  7  1  0  0  0  0
  6 31  1  0  0  0  0
  6 32  1  0  0  0  0
  6 33  1  0  0  0  0
  7 15  1  0  0  0  0
  7  8  2  0  0  0  0
  8  9  1  0  0  0  0
  9 14  2  0  0  0  0
  9 10  1  0  0  0  0
 10 11  2  0  0  0  0
 10 34  1  0  0  0  0
 11 12  1  0  0  0  0
 11 35  1  0  0  0  0
 12 13  2  0  0  0  0
 12 36  1  0  0  0  0
 13 14  1  0  0  0  0
 13 37  1  0  0  0  0
 14 15  1  0  0  0  0
 15 16  1  0  0  0  0
 16 17  1  0  0  0  0
 16 38  1  0  0  0  0
 16 39  1  0  0  0  0
 17 18  1  0  0  0  0
 17 19  1  0  0  0  0
 17 40  1  0  0  0  0
 18 41  1  0  0  0  0
 19 25  1  0  0  0  0
 19 20  2  0  0  0  0
 20 21  1  0  0  0  0
 20 42  1  0  0  0  0
 21 22  2  0  0  0  0
 21 43  1  0  0  0  0
 22 23  1  0  0  0  0
 22 44  1  0  0  0  0
 23 24  1  0  0  0  0
 23 25  2  0  0  0  0
 25 45  1  0  0  0  0
M  END
> <s_m_source_file>
AV-unprocessed.smi

> <i_m_source_file_index>
1667

> <i_lp_mmshare_version>
43012

> <i_f3d_flags>
0

> <s_epik_input>
W0NIM11DKD1PKVtOSF1bQ0BASF0oW0NIM10pYyhuMSluKGMoYzEyKVtjSF1bY0hdW2NIXVtjSF0yKVtDSDJdW0NASF0oW09IXSljM1tjSF1bY0hdW2NIXWMoRilbY0hdMw==

> <s_epik_cmdline>
J2VwaWtfcHl0aG9uJywgJy1waCcsICc3LjAnLCAnLXRuJywgJzgnLCAnLW1hJywgJzIwMCcsICctbWV0YWxfYmluZGluZycsICctaW1hZScsICc8aW5maWxlLm1hZT4nLCAnLW9tYWUnLCAnPG91dGZpbGUubWFlPic=

> <r_epik_Ionization_Penalty>
0.133011

> <r_epik_Ionization_Penalty_Charging>
0

> <r_epik_Ionization_Penalty_Neutral>
0.133011

> <r_epik_State_Penalty>
0.122384

> <r_epik_Charging_Adjusted_Penalty>
0.122384

> <i_epik_Tot_Q>
0

> <i_epik_Tot_abs_Q>
0

> <r_epik_Metal_State_Penalty>
0.0997374

> <b_epik_Metal_Only>
0

> <s_lp_Force_Field>
OPLS_2005

> <r_lp_Energy>
10.1709

> <b_lp_Chiralities_Consistent>
1

> <s_lp_Variant>
AV-unprocessed.smi:1667-2

> <Gold.Version>
5.8.1

> <Gold.Id.Protein>
6NUR|6NUR_protein|mol2

> <Gold.PLP.Fitness>
52.2202

> <Gold.PLP.PLP>
-44.0524

> <Gold.PLP.part.hbond>
-2.7900

> <Gold.PLP.part.metal>
0.0000

> <Gold.PLP.part.buried>
-3.5754

> <Gold.PLP.part.nonpolar>
-38.1291

> <Gold.PLP.part.repulsive>
0.0519

> <Gold.PLP.ligand.clash>
0.0000

> <Gold.PLP.ligand.torsion>
0.4977

> <Gold.PLP.Chemscore.Hbond>
2.9833

> <Gold.PLP.Chemscore.CHOScore>
0.0000

> <Gold.PLP.Chemscore.Metal>
0.0000

> <Gold.Chemscore.Hbonds>
donor molecule, donor type, donor heavy atom, donor atom, acceptor molecule, acceptor atom, score
      P1  H  6896  6909       L1     3  0.89
      P1  H  7989  7998       L1    18  1.00
      P1  H  7997  8010       L1     8  0.84

> <Gold.PLP.Chemscore.Internal.Correction>
0.2134

> <Gold.Rescore>
     Score         DG    S(hbond)    S(metal)    S(lipo)     H(rot)  DE(clash)    DE(int)     intcor
     17.38     -19.70       1.95        0.00     120.04       2.48       1.17       1.14       ----

> <Gold.Chemscore.Fitness>
17.3822

> <Gold.Chemscore.DG>
-19.7004

> <Gold.Chemscore.ZeroCoef>
-5.4800

> <Gold.Chemscore.Hbond>
1.9504

> <Gold.Chemscore.Metal>
0.0000

> <Gold.Chemscore.Lipo>
120.0388

> <Gold.Chemscore.Internal_Hbond>
0.0000

> <Gold.Chemscore.DEClash>
1.1744

> <Gold.Chemscore.DEInternal>
1.1438

> <Gold.Chemscore.Rot>
2.4760

> <Gold.Chemscore.Internal.Correction>
   9.000000E+99

> <Gold.Chemscore.Hbonds>
donor molecule, donor type, donor heavy atom, donor atom, acceptor molecule, acceptor atom, score
      P1  H  6896  6909       L1     3  0.30
      P1  H  7989  7998       L1    18  0.87
      P1  H  7997  8010       L1     8  0.08

> <Gold.Chemscore.Hbond.Weighted>
-6.5143

> <Gold.Chemscore.Metal.Weighted>
-0.0000

> <Gold.Chemscore.Lipo.Weighted>
-14.0445

> <Gold.Chemscore.Internal_Hbond.Weighted>
0.0000

> <Gold.Chemscore.DEClash.Weighted>
1.1744

> <Gold.Chemscore.DEInternal.Weighted>
1.1438

> <Gold.Chemscore.Rot.Weighted>
6.3385

> <Gold.Chemscore.Internal.Correction.Weighted>
   9.000000E+99

> <Gold.Protein.RotatedTorsions>
[ 6907 6896 6895 6894 ] final  116.15 input  -60.11 | X-H torsion
[ 7974 7965 7964 7962 ] final   93.92 input  175.53 | X-H torsion
[ 8008 7997 7996 7995 ] final   26.40 input   59.86 | X-H torsion
[ 10167 10162 10161 10158 ] final -143.75 input  -65.29 | X-H torsion
[ 10718 10713 10712 10709 ] final  -70.34 input   66.30 | X-H torsion
[ 10763 10752 10751 10750 ] final  -21.01 input  -60.55 | X-H torsion
[ 11005 11000 10999 10996 ] final  103.21 input  -57.11 | X-H torsion

> <Gold.Protein.ActiveResidues>
 VAL166  LYS551  ARG553  GLY616  TRP617  ASP618  TYR619  PRO620  LYS621  CYS622 
 ASP623  PHE694  ASN695  SER759  ASP760  ASP761  ALA762  ILE779  LEU786  VAL792 
 PHE793  MET794  SER795  GLU796  ALA797  LYS798  CYS799  TRP800  GLU811  SER814 

> <Gold.Protein.RotatedAtoms>
  152.4696  133.8001  159.6947 H   0  0  0  0  0  0  0  0  0  0  0  0  # atno 6907 bound_to 6896
  150.8679  133.7538  159.2977 H   0  0  0  0  0  0  0  0  0  0  0  0  # atno 6908 bound_to 6896
  151.5083  135.1067  159.9899 H   0  0  0  0  0  0  0  0  0  0  0  0  # atno 6909 bound_to 6896
  145.4725  139.2281  143.2927 H   0  0  0  0  0  0  0  0  0  0  0  0  # atno 7974 bound_to 7965
  155.0267  140.3154  155.4773 H   0  0  0  0  0  0  0  0  0  0  0  0  # atno 8008 bound_to 7997
  156.2882  140.2187  156.5329 H   0  0  0  0  0  0  0  0  0  0  0  0  # atno 8009 bound_to 7997
  154.7405  140.0474  157.0795 H   0  0  0  0  0  0  0  0  0  0  0  0  # atno 8010 bound_to 7997
  139.7964  143.7894  152.2654 H   0  0  0  0  0  0  0  0  0  0  0  0  # atno 10167 bound_to 10162
  156.0412  130.4329  150.2281 H   0  0  0  0  0  0  0  0  0  0  0  0  # atno 10718 bound_to 10713
  153.6294  135.6989  153.5281 H   0  0  0  0  0  0  0  0  0  0  0  0  # atno 10763 bound_to 10752
  153.2872  135.4168  155.1133 H   0  0  0  0  0  0  0  0  0  0  0  0  # atno 10764 bound_to 10752
  154.8525  135.3616  154.5836 H   0  0  0  0  0  0  0  0  0  0  0  0  # atno 10765 bound_to 10752
  139.8782  134.9254  156.5175 H   0  0  0  0  0  0  0  0  0  0  0  0  # atno 11005 bound_to 11000
  146.2388  140.5504  142.8943 LP  0  0  0  0  0  0  0  0  0  0  0  0  # atno 17320 bound_to 7965
  144.7937  140.6081  143.6524 LP  0  0  0  0  0  0  0  0  0  0  0  0  # atno 17321 bound_to 7965
  139.8001  144.7377  150.9836 LP  0  0  0  0  0  0  0  0  0  0  0  0  # atno 17342 bound_to 10162
  140.7820  143.4354  151.0632 LP  0  0  0  0  0  0  0  0  0  0  0  0  # atno 17343 bound_to 10162
  157.0375  131.0025  151.3293 LP  0  0  0  0  0  0  0  0  0  0  0  0  # atno 17370 bound_to 10713
  157.5233  130.8012  149.7833 LP  0  0  0  0  0  0  0  0  0  0  0  0  # atno 17371 bound_to 10713
  140.8475  133.8158  155.9135 LP  0  0  0  0  0  0  0  0  0  0  0  0  # atno 17394 bound_to 11000
  140.9177  134.2180  157.4946 LP  0  0  0  0  0  0  0  0  0  0  0  0  # atno 17395 bound_to 11000

$$$$
