AV-unprocessed.smi:1303|AV-procd|sdf|5428|dock6
  -GOLD-   22720 4583D 1   1.00000     0.00000
 Structure written by MMmdl.
 40 41  0  0  0  0  0  0  0  0  1 V2000
  145.6564  134.4080  151.2785 C   0  0  0  0  0  0  0  0  0  0  0  0
  146.1460  135.2680  152.4555 C   0  0  0  0  0  0  0  0  0  0  0  0
  145.5797  134.7612  153.7922 C   0  0  0  0  0  0  0  0  0  0  0  0
  145.7822  136.7431  152.2441 C   0  0  0  0  0  0  0  0  0  0  0  0
  144.6031  137.0987  152.2466 O   0  0  0  0  0  0  0  0  0  0  0  0
  146.8057  137.5948  152.0763 N   0  0  0  0  0  0  0  0  0  0  0  0
  146.6722  139.0405  151.9239 C   0  0  0  0  0  0  0  0  0  0  0  0
  147.4402  139.8582  152.9549 C   0  0  0  0  0  0  0  0  0  0  0  0
  147.0051  141.1574  153.2813 C   0  0  0  0  0  0  0  0  0  0  0  0
  147.7365  141.8906  154.2338 C   0  0  0  0  0  0  0  0  0  0  0  0
  148.8350  141.4110  154.8532 N   0  0  0  0  0  0  0  0  0  0  0  0
  149.2650  140.1614  154.5498 C   0  0  0  0  0  0  0  0  0  0  0  0
  150.4088  139.6654  155.2123 N   0  0  0  0  0  0  0  0  0  0  0  0
  151.3947  138.9318  154.4209 C   0  0  0  0  0  0  0  0  0  0  0  0
  152.4104  138.2355  155.3423 C   0  0  0  0  0  0  0  0  0  0  0  0
  153.0064  139.1939  156.2101 O   0  0  0  0  0  0  0  0  0  0  0  0
  152.0417  139.8197  157.0498 C   0  0  0  0  0  0  0  0  0  0  0  0
  151.0100  140.5697  156.1900 C   0  0  0  0  0  0  0  0  0  0  0  0
  148.5980  139.3598  153.5934 C   0  0  0  0  0  0  0  0  0  0  0  0
  146.0446  134.7773  150.3285 H   0  0  0  0  0  0  0  0  0  0  0  0
  144.5677  134.3985  151.2131 H   0  0  0  0  0  0  0  0  0  0  0  0
  145.9885  133.3754  151.3873 H   0  0  0  0  0  0  0  0  0  0  0  0
  147.2334  135.1858  152.4989 H   0  0  0  0  0  0  0  0  0  0  0  0
  145.9204  135.3762  154.6266 H   0  0  0  0  0  0  0  0  0  0  0  0
  145.9017  133.7383  153.9885 H   0  0  0  0  0  0  0  0  0  0  0  0
  144.4889  134.7702  153.7960 H   0  0  0  0  0  0  0  0  0  0  0  0
  147.7434  137.2209  152.0868 H   0  0  0  0  0  0  0  0  0  0  0  0
  147.0358  139.3126  150.9331 H   0  0  0  0  0  0  0  0  0  0  0  0
  145.6160  139.3138  151.9515 H   0  0  0  0  0  0  0  0  0  0  0  0
  146.1300  141.5851  152.8146 H   0  0  0  0  0  0  0  0  0  0  0  0
  147.4300  142.8893  154.5077 H   0  0  0  0  0  0  0  0  0  0  0  0
  150.8996  138.1850  153.7992 H   0  0  0  0  0  0  0  0  0  0  0  0
  151.9101  139.6236  153.7533 H   0  0  0  0  0  0  0  0  0  0  0  0
  151.9306  137.4482  155.9258 H   0  0  0  0  0  0  0  0  0  0  0  0
  153.1910  137.7601  154.7481 H   0  0  0  0  0  0  0  0  0  0  0  0
  151.5540  139.0744  157.6803 H   0  0  0  0  0  0  0  0  0  0  0  0
  152.5502  140.5160  157.7164 H   0  0  0  0  0  0  0  0  0  0  0  0
  151.4944  141.3896  155.6584 H   0  0  0  0  0  0  0  0  0  0  0  0
  150.2623  141.0156  156.8442 H   0  0  0  0  0  0  0  0  0  0  0  0
  148.9727  138.3783  153.3453 H   0  0  0  0  0  0  0  0  0  0  0  0
  1  2  1  0  0  0  0
  1 20  1  0  0  0  0
  1 21  1  0  0  0  0
  1 22  1  0  0  0  0
  2  3  1  0  0  0  0
  2  4  1  0  0  0  0
  2 23  1  0  0  0  0
  3 24  1  0  0  0  0
  3 25  1  0  0  0  0
  3 26  1  0  0  0  0
  4  5  2  0  0  0  0
  4  6  1  0  0  0  0
  6  7  1  0  0  0  0
  6 27  1  0  0  0  0
  7  8  1  0  0  0  0
  7 28  1  0  0  0  0
  7 29  1  0  0  0  0
  8 19  1  0  0  0  0
  8  9  2  0  0  0  0
  9 10  1  0  0  0  0
  9 30  1  0  0  0  0
 10 11  2  0  0  0  0
 10 31  1  0  0  0  0
 11 12  1  0  0  0  0
 12 13  1  0  0  0  0
 12 19  2  0  0  0  0
 13 18  1  0  0  0  0
 13 14  1  0  0  0  0
 14 15  1  0  0  0  0
 14 32  1  0  0  0  0
 14 33  1  0  0  0  0
 15 16  1  0  0  0  0
 15 34  1  0  0  0  0
 15 35  1  0  0  0  0
 16 17  1  0  0  0  0
 17 18  1  0  0  0  0
 17 36  1  0  0  0  0
 17 37  1  0  0  0  0
 18 38  1  0  0  0  0
 18 39  1  0  0  0  0
 19 40  1  0  0  0  0
M  END
> <s_m_source_file>
AV-unprocessed.smi

> <i_m_source_file_index>
1303

> <i_lp_mmshare_version>
43012

> <i_f3d_flags>
0

> <s_epik_input>
W0NIM11bQ0hdKFtDSDNdKUMoPU8pW05IXVtDSDJdYzFbY0hdW2NIXW5jKFtjSF0xKU4yW0NIMl1bQ0gyXU9bQ0gyXVtDSDJdMg==

> <s_epik_cmdline>
J2VwaWtfcHl0aG9uJywgJy1waCcsICc3LjAnLCAnLXRuJywgJzgnLCAnLW1hJywgJzIwMCcsICctbWV0YWxfYmluZGluZycsICctaW1hZScsICc8aW5maWxlLm1hZT4nLCAnLW9tYWUnLCAnPG91dGZpbGUubWFlPic=

> <r_lp_tautomer_probability>
1

> <r_epik_Ionization_Penalty>
0.00576177

> <r_epik_Ionization_Penalty_Charging>
0

> <r_epik_Ionization_Penalty_Neutral>
0.00576177

> <r_epik_State_Penalty>
0.00422935

> <r_epik_Charging_Adjusted_Penalty>
0.00422935

> <i_epik_Tot_Q>
0

> <i_epik_Tot_abs_Q>
0

> <r_epik_Metal_State_Penalty>
-0

> <b_epik_Metal_Only>
0

> <s_lp_Force_Field>
OPLS_2005

> <r_lp_Energy>
14.5519

> <b_lp_Chiralities_Consistent>
1

> <s_lp_Variant>
AV-unprocessed.smi:1303-1

> <Gold.Version>
5.8.1

> <Gold.Id.Protein>
6NUR|6NUR_protein|mol2

> <Gold.PLP.Fitness>
38.8872

> <Gold.PLP.PLP>
-30.8552

> <Gold.PLP.part.hbond>
-2.0000

> <Gold.PLP.part.metal>
0.0000

> <Gold.PLP.part.buried>
-0.1037

> <Gold.PLP.part.nonpolar>
-29.1519

> <Gold.PLP.part.repulsive>
0.4444

> <Gold.PLP.ligand.clash>
0.0000

> <Gold.PLP.ligand.torsion>
0.6492

> <Gold.PLP.Chemscore.Hbond>
2.0000

> <Gold.PLP.Chemscore.CHOScore>
0.9957

> <Gold.PLP.Chemscore.Metal>
0.0000

> <Gold.Chemscore.Hbonds>
donor molecule, donor type, donor heavy atom, donor atom, acceptor molecule, acceptor atom, score
      L1  H     6    27       P1  7948  1.00
      P1  H  7997  8009       L1    16  1.00
      L1  C    10    31       P1  8028  0.89

> <Gold.PLP.Chemscore.Internal.Correction>
0.3431

> <Gold.Rescore>
     Score         DG    S(hbond)    S(metal)    S(lipo)     H(rot)  DE(clash)    DE(int)     intcor
     15.49     -16.31       1.97        0.00      70.58       1.56       0.29       0.54       ----

> <Gold.Chemscore.Fitness>
15.4877

> <Gold.Chemscore.DG>
-16.3118

> <Gold.Chemscore.ZeroCoef>
-5.4800

> <Gold.Chemscore.Hbond>
1.9650

> <Gold.Chemscore.Metal>
0.0000

> <Gold.Chemscore.Lipo>
70.5826

> <Gold.Chemscore.Internal_Hbond>
0.0000

> <Gold.Chemscore.DEClash>
0.2871

> <Gold.Chemscore.DEInternal>
0.5369

> <Gold.Chemscore.Rot>
1.5584

> <Gold.Chemscore.Internal.Correction>
   9.000000E+99

> <Gold.Chemscore.Hbonds>
donor molecule, donor type, donor heavy atom, donor atom, acceptor molecule, acceptor atom, score
      L1  H     6    27       P1  7948  0.96
      P1  H  7997  8009       L1    16  0.44

> <Gold.Chemscore.Hbond.Weighted>
-6.5631

> <Gold.Chemscore.Metal.Weighted>
-0.0000

> <Gold.Chemscore.Lipo.Weighted>
-8.2582

> <Gold.Chemscore.Internal_Hbond.Weighted>
0.0000

> <Gold.Chemscore.DEClash.Weighted>
0.2871

> <Gold.Chemscore.DEInternal.Weighted>
0.5369

> <Gold.Chemscore.Rot.Weighted>
3.9895

> <Gold.Chemscore.Internal.Correction.Weighted>
   9.000000E+99

> <Gold.Protein.RotatedTorsions>
[ 6907 6896 6895 6894 ] final -177.63 input  -60.11 | X-H torsion
[ 7974 7965 7964 7962 ] final -160.17 input  175.53 | X-H torsion
[ 8008 7997 7996 7995 ] final -166.77 input   59.86 | X-H torsion
[ 10167 10162 10161 10158 ] final  117.11 input  -65.29 | X-H torsion
[ 10718 10713 10712 10709 ] final   84.53 input   66.30 | X-H torsion
[ 10763 10752 10751 10750 ] final  -26.26 input  -60.55 | X-H torsion
[ 11005 11000 10999 10996 ] final -135.60 input  -57.11 | X-H torsion

> <Gold.Protein.ActiveResidues>
 VAL166  LYS551  ARG553  GLY616  TRP617  ASP618  TYR619  PRO620  LYS621  CYS622 
 ASP623  PHE694  ASN695  SER759  ASP760  ASP761  ALA762  ILE779  LEU786  VAL792 
 PHE793  MET794  SER795  GLU796  ALA797  LYS798  CYS799  TRP800  GLU811  SER814 

> <Gold.Protein.RotatedAtoms>
  151.6242  133.3337  159.3094 H   0  0  0  0  0  0  0  0  0  0  0  0  # atno 6907 bound_to 6896
  150.8090  134.7237  159.6682 H   0  0  0  0  0  0  0  0  0  0  0  0  # atno 6908 bound_to 6896
  152.4186  134.6001  160.0049 H   0  0  0  0  0  0  0  0  0  0  0  0  # atno 6909 bound_to 6896
  144.7437  140.3580  143.6102 H   0  0  0  0  0  0  0  0  0  0  0  0  # atno 7974 bound_to 7965
  155.8685  140.0989  157.1566 H   0  0  0  0  0  0  0  0  0  0  0  0  # atno 8008 bound_to 7997
  154.3995  140.1351  156.4111 H   0  0  0  0  0  0  0  0  0  0  0  0  # atno 8009 bound_to 7997
  155.7778  140.3459  155.5283 H   0  0  0  0  0  0  0  0  0  0  0  0  # atno 8010 bound_to 7997
  139.6201  144.7099  151.2653 H   0  0  0  0  0  0  0  0  0  0  0  0  # atno 10167 bound_to 10162
  157.6899  131.0137  150.2687 H   0  0  0  0  0  0  0  0  0  0  0  0  # atno 10718 bound_to 10713
  153.7132  135.6949  153.5032 H   0  0  0  0  0  0  0  0  0  0  0  0  # atno 10763 bound_to 10752
  153.2258  135.4354  155.0539 H   0  0  0  0  0  0  0  0  0  0  0  0  # atno 10764 bound_to 10752
  154.8308  135.3472  154.6668 H   0  0  0  0  0  0  0  0  0  0  0  0  # atno 10765 bound_to 10752
  140.8883  134.1844  157.4545 H   0  0  0  0  0  0  0  0  0  0  0  0  # atno 11005 bound_to 11000
  145.7207  139.1709  143.2486 LP  0  0  0  0  0  0  0  0  0  0  0  0  # atno 17320 bound_to 7965
  146.1279  140.7223  142.9426 LP  0  0  0  0  0  0  0  0  0  0  0  0  # atno 17321 bound_to 7965
  140.7376  143.6672  150.8113 LP  0  0  0  0  0  0  0  0  0  0  0  0  # atno 17342 bound_to 10162
  140.0281  143.5472  152.2772 LP  0  0  0  0  0  0  0  0  0  0  0  0  # atno 17343 bound_to 10162
  156.3253  130.3792  149.7538 LP  0  0  0  0  0  0  0  0  0  0  0  0  # atno 17370 bound_to 10713
  156.5095  130.8166  151.3163 LP  0  0  0  0  0  0  0  0  0  0  0  0  # atno 17371 bound_to 10713
  139.8727  134.9847  156.5253 LP  0  0  0  0  0  0  0  0  0  0  0  0  # atno 17394 bound_to 11000
  140.8377  133.8229  155.9045 LP  0  0  0  0  0  0  0  0  0  0  0  0  # atno 17395 bound_to 11000

$$$$
