AV-unprocessed.smi:3116|AV-procd|sdf|11866|dock4
  -GOLD-   2272017243D 1   1.00000     0.00000
 Structure written by MMmdl.
 34 34  0  0  0  0  0  0  0  0  2 V2000
  146.5652  138.1328  150.5366 C   0  0  0  0  0  0  0  0  0  0  0  0
  146.5000  138.5664  152.0113 C   0  0  2  0  0  0  0  0  0  0  0  0
  147.8447  138.9351  152.5117 N   0  3  0  0  0  0  0  0  0  0  0  0
  147.8909  139.5582  153.8564 C   0  0  2  0  0  0  0  0  0  0  0  0
  146.7142  140.5412  153.9746 C   0  0  0  0  0  0  0  0  0  0  0  0
  149.2664  140.2418  154.0923 C   0  0  1  0  0  0  0  0  0  0  0  0
  149.2278  141.3265  155.1870 C   0  0  0  0  0  0  0  0  0  0  0  0
  150.3064  139.2650  154.3964 N   0  0  0  0  0  0  0  0  0  0  0  0
  150.2088  137.8884  154.3985 C   0  0  0  0  0  0  0  0  0  0  0  0
  151.4257  137.3923  154.7689 C   0  0  0  0  0  0  0  0  0  0  0  0
  152.2178  138.5560  154.9726 C   0  0  0  0  0  0  0  0  0  0  0  0
  151.5448  139.6742  154.7551 N   0  0  0  0  0  0  0  0  0  0  0  0
  145.8984  137.4495  152.8724 C   0  0  0  0  0  0  0  0  0  0  0  0
  146.5622  136.2914  152.9167 N   0  0  0  0  0  0  0  0  0  0  0  0
  144.8538  137.6274  153.4965 O   0  0  0  0  0  0  0  0  0  0  0  0
  145.5783  137.8619  150.1596 H   0  0  0  0  0  0  0  0  0  0  0  0
  147.2208  137.2713  150.4016 H   0  0  0  0  0  0  0  0  0  0  0  0
  146.9413  138.9356  149.9023 H   0  0  0  0  0  0  0  0  0  0  0  0
  145.8428  139.4319  152.0976 H   0  0  0  0  0  0  0  0  0  0  0  0
  148.4038  138.0948  152.5468 H   0  0  0  0  0  0  0  0  0  0  0  0
  147.7458  138.7886  154.6162 H   0  0  0  0  0  0  0  0  0  0  0  0
  146.6271  140.9499  154.9809 H   0  0  0  0  0  0  0  0  0  0  0  0
  145.7686  140.0454  153.7527 H   0  0  0  0  0  0  0  0  0  0  0  0
  146.8214  141.3757  153.2807 H   0  0  0  0  0  0  0  0  0  0  0  0
  149.5614  140.7332  153.1636 H   0  0  0  0  0  0  0  0  0  0  0  0
  148.6036  142.1710  154.8963 H   0  0  0  0  0  0  0  0  0  0  0  0
  150.2257  141.7227  155.3789 H   0  0  0  0  0  0  0  0  0  0  0  0
  148.8413  140.9344  156.1282 H   0  0  0  0  0  0  0  0  0  0  0  0
  149.2910  137.3800  154.1415 H   0  0  0  0  0  0  0  0  0  0  0  0
  151.7083  136.3554  154.8757 H   0  0  0  0  0  0  0  0  0  0  0  0
  153.2533  138.6211  155.2732 H   0  0  0  0  0  0  0  0  0  0  0  0
  146.2070  135.5217  153.4659 H   0  0  0  0  0  0  0  0  0  0  0  0
  147.4206  136.1870  152.3944 H   0  0  0  0  0  0  0  0  0  0  0  0
  148.2651  139.5625  151.8412 H   0  0  0  0  0  0  0  0  0  0  0  0
  1  2  1  0  0  0  0
  1 16  1  0  0  0  0
  1 17  1  0  0  0  0
  1 18  1  0  0  0  0
  2  3  1  0  0  0  0
  2 13  1  0  0  0  0
  2 19  1  0  0  0  0
  3  4  1  0  0  0  0
  3 20  1  0  0  0  0
  3 34  1  0  0  0  0
  4  5  1  0  0  0  0
  4  6  1  0  0  0  0
  4 21  1  0  0  0  0
  5 22  1  0  0  0  0
  5 23  1  0  0  0  0
  5 24  1  0  0  0  0
  6  7  1  0  0  0  0
  6  8  1  0  0  0  0
  6 25  1  0  0  0  0
  7 26  1  0  0  0  0
  7 27  1  0  0  0  0
  7 28  1  0  0  0  0
  8 12  1  0  0  0  0
  8  9  1  0  0  0  0
  9 10  2  0  0  0  0
  9 29  1  0  0  0  0
 10 11  1  0  0  0  0
 10 30  1  0  0  0  0
 11 12  2  0  0  0  0
 11 31  1  0  0  0  0
 13 14  1  0  0  0  0
 13 15  2  0  0  0  0
 14 32  1  0  0  0  0
 14 33  1  0  0  0  0
M  CHG  1   3   1
M  END
> <s_m_source_file>
AV-unprocessed.smi

> <i_m_source_file_index>
3116

> <i_lp_mmshare_version>
43012

> <i_f3d_flags>
0

> <s_epik_input>
W05IMl1DKD1PKVtDQEhdKFtDSDNdKVtOSF1bQ0BIXShbQ0gzXSlbQ0BIXShbQ0gzXSluMVtjSF1bY0hdW2NIXW4x

> <s_epik_cmdline>
J2VwaWtfcHl0aG9uJywgJy1waCcsICc3LjAnLCAnLXRuJywgJzgnLCAnLW1hJywgJzIwMCcsICctbWV0YWxfYmluZGluZycsICctaW1hZScsICc8aW5maWxlLm1hZT4nLCAnLW9tYWUnLCAnPG91dGZpbGUubWFlPic=

> <r_lp_tautomer_probability>
1

> <r_epik_Ionization_Penalty>
0.15658

> <r_epik_Ionization_Penalty_Charging>
0.156568

> <r_epik_Ionization_Penalty_Neutral>
1.19778e-05

> <r_epik_State_Penalty>
0.145866

> <r_epik_Charging_Adjusted_Penalty>
0.302434

> <i_epik_Tot_Q>
1

> <i_epik_Tot_abs_Q>
1

> <r_epik_Metal_State_Penalty>
0.146064

> <b_epik_Metal_Only>
0

> <s_lp_Force_Field>
OPLS_2005

> <r_lp_Energy>
9.52806

> <b_lp_Chiralities_Consistent>
1

> <s_lp_Variant>
AV-unprocessed.smi:3116-5

> <Gold.Version>
5.8.1

> <Gold.Id.Protein>
6NUR|6NUR_protein|mol2

> <Gold.PLP.Fitness>
41.7205

> <Gold.PLP.PLP>
-26.5106

> <Gold.PLP.part.hbond>
-3.7706

> <Gold.PLP.part.metal>
0.0000

> <Gold.PLP.part.buried>
5.5772

> <Gold.PLP.part.nonpolar>
-29.6550

> <Gold.PLP.part.repulsive>
0.3120

> <Gold.PLP.ligand.clash>
0.0000

> <Gold.PLP.ligand.torsion>
0.7112

> <Gold.PLP.Chemscore.Hbond>
4.6780

> <Gold.PLP.Chemscore.CHOScore>
0.8207

> <Gold.PLP.Chemscore.Metal>
0.0000

> <Gold.Chemscore.Hbonds>
donor molecule, donor type, donor heavy atom, donor atom, acceptor molecule, acceptor atom, score
      L1  H     3    20       P1  7948  1.98
      L1  H     3    34       P1  7957  0.94
      L1  H    14    33       P1  7948  1.00
      P1  H  7989  7998       L1    12  0.70
      L1  C     9    29       P1  7948  0.77

> <Gold.PLP.Chemscore.Internal.Correction>
0.1362

> <Gold.Rescore>
     Score         DG    S(hbond)    S(metal)    S(lipo)     H(rot)  DE(clash)    DE(int)     intcor
     16.56     -18.86       3.61        0.00      64.94       2.45       1.87       0.43       ----

> <Gold.Chemscore.Fitness>
16.5589

> <Gold.Chemscore.DG>
-18.8590

> <Gold.Chemscore.ZeroCoef>
-5.4800

> <Gold.Chemscore.Hbond>
3.6062

> <Gold.Chemscore.Metal>
0.0000

> <Gold.Chemscore.Lipo>
64.9360

> <Gold.Chemscore.Internal_Hbond>
0.0000

> <Gold.Chemscore.DEClash>
1.8672

> <Gold.Chemscore.DEInternal>
0.4329

> <Gold.Chemscore.Rot>
2.4465

> <Gold.Chemscore.Internal.Correction>
   9.000000E+99

> <Gold.Chemscore.Hbonds>
donor molecule, donor type, donor heavy atom, donor atom, acceptor molecule, acceptor atom, score
      L1  H     3    20       P1  7948  0.89
      L1  H     3    34       P1  7957  0.87
      L1  H    14    33       P1  7948  0.99
      P1  H  7989  7998       L1    12  0.07

> <Gold.Chemscore.Hbond.Weighted>
-12.0446

> <Gold.Chemscore.Metal.Weighted>
-0.0000

> <Gold.Chemscore.Lipo.Weighted>
-7.5975

> <Gold.Chemscore.Internal_Hbond.Weighted>
0.0000

> <Gold.Chemscore.DEClash.Weighted>
1.8672

> <Gold.Chemscore.DEInternal.Weighted>
0.4329

> <Gold.Chemscore.Rot.Weighted>
6.2631

> <Gold.Chemscore.Internal.Correction.Weighted>
   9.000000E+99

> <Gold.Protein.RotatedTorsions>
[ 6907 6896 6895 6894 ] final  -59.90 input  -60.11 | X-H torsion
[ 7974 7965 7964 7962 ] final   72.20 input  175.53 | X-H torsion
[ 8008 7997 7996 7995 ] final -153.35 input   59.86 | X-H torsion
[ 10167 10162 10161 10158 ] final  -42.05 input  -65.29 | X-H torsion
[ 10718 10713 10712 10709 ] final  149.37 input   66.30 | X-H torsion
[ 10763 10752 10751 10750 ] final -129.40 input  -60.55 | X-H torsion
[ 11005 11000 10999 10996 ] final -162.51 input  -57.11 | X-H torsion

> <Gold.Protein.ActiveResidues>
 VAL166  LYS551  ARG553  GLY616  TRP617  ASP618  TYR619  PRO620  LYS621  CYS622 
 ASP623  PHE694  ASN695  SER759  ASP760  ASP761  ALA762  ILE779  LEU786  VAL792 
 PHE793  MET794  SER795  GLU796  ALA797  LYS798  CYS799  TRP800  GLU811  SER814 

> <Gold.Protein.RotatedAtoms>
  150.7896  134.6908  159.6495 H   0  0  0  0  0  0  0  0  0  0  0  0  # atno 6907 bound_to 6896
  152.3999  134.6301  160.0083 H   0  0  0  0  0  0  0  0  0  0  0  0  # atno 6908 bound_to 6896
  151.6575  133.3281  159.3202 H   0  0  0  0  0  0  0  0  0  0  0  0  # atno 6909 bound_to 6896
  145.7563  139.2781  143.1402 H   0  0  0  0  0  0  0  0  0  0  0  0  # atno 7974 bound_to 7965
  155.6695  140.0731  157.2525 H   0  0  0  0  0  0  0  0  0  0  0  0  # atno 8008 bound_to 7997
  154.4126  140.1701  156.1915 H   0  0  0  0  0  0  0  0  0  0  0  0  # atno 8009 bound_to 7997
  155.9629  140.3368  155.6509 H   0  0  0  0  0  0  0  0  0  0  0  0  # atno 8010 bound_to 7997
  140.6982  143.3059  151.3154 H   0  0  0  0  0  0  0  0  0  0  0  0  # atno 10167 bound_to 10162
  157.2969  131.0863  151.1420 H   0  0  0  0  0  0  0  0  0  0  0  0  # atno 10718 bound_to 10713
  154.8757  135.3897  154.3913 H   0  0  0  0  0  0  0  0  0  0  0  0  # atno 10763 bound_to 10752
  153.4649  135.7029  153.6033 H   0  0  0  0  0  0  0  0  0  0  0  0  # atno 10764 bound_to 10752
  153.4516  135.3832  155.2255 H   0  0  0  0  0  0  0  0  0  0  0  0  # atno 10765 bound_to 10752
  140.6085  134.4874  157.5213 H   0  0  0  0  0  0  0  0  0  0  0  0  # atno 11005 bound_to 11000
  146.0308  140.8260  142.9877 LP  0  0  0  0  0  0  0  0  0  0  0  0  # atno 17320 bound_to 7965
  144.6839  140.2766  143.7298 LP  0  0  0  0  0  0  0  0  0  0  0  0  # atno 17321 bound_to 7965
  139.6465  144.0442  152.2594 LP  0  0  0  0  0  0  0  0  0  0  0  0  # atno 17342 bound_to 10162
  139.9964  144.6325  150.7768 LP  0  0  0  0  0  0  0  0  0  0  0  0  # atno 17343 bound_to 10162
  157.2794  130.6743  149.6058 LP  0  0  0  0  0  0  0  0  0  0  0  0  # atno 17370 bound_to 10713
  155.9669  130.4454  150.5501 LP  0  0  0  0  0  0  0  0  0  0  0  0  # atno 17371 bound_to 10713
  139.9202  134.8164  156.1235 LP  0  0  0  0  0  0  0  0  0  0  0  0  # atno 17394 bound_to 11000
  141.0824  133.6748  156.2365 LP  0  0  0  0  0  0  0  0  0  0  0  0  # atno 17395 bound_to 11000

$$$$
