AV-unprocessed.smi:160|AV-procd|sdf|1353|dock10
  -GOLD-   2262019 63D 1   1.00000     0.00000
 Structure written by MMmdl.
 29 30  0  0  0  0  0  0  0  0  1 V2000
  145.2759  128.4668  153.3517 N   0  0  0  0  0  0  0  0  0  0  0  0
  146.2389  128.8855  152.5238 C   0  0  0  0  0  0  0  0  0  0  0  0
  146.9619  128.1055  151.9058 O   0  0  0  0  0  0  0  0  0  0  0  0
  146.3937  130.3749  152.3852 C   0  0  0  0  0  0  0  0  0  0  0  0
  146.8788  131.1328  153.4129 N   0  0  0  0  0  0  0  0  0  0  0  0
  146.8280  132.3255  152.8343 C   0  0  0  0  0  0  0  0  0  0  0  0
  146.3659  132.3072  151.5800 N   0  0  0  0  0  0  0  0  0  0  0  0
  146.1673  133.4403  150.6168 C   0  0  2  0  0  0  0  0  0  0  0  0
  146.5400  134.6286  151.2483 O   0  0  0  0  0  0  0  0  0  0  0  0
  145.3775  135.3467  151.6479 C   0  0  1  0  0  0  0  0  0  0  0  0
  145.6947  136.8330  151.8885 C   0  0  0  0  0  0  0  0  0  0  0  0
  146.3648  137.3737  150.7696 O   0  0  0  0  0  0  0  0  0  0  0  0
  144.3958  135.0538  150.5045 C   0  0  1  0  0  0  0  0  0  0  0  0
  144.6434  135.8959  149.3927 O   0  0  0  0  0  0  0  0  0  0  0  0
  144.7005  133.6028  150.1468 C   0  0  2  0  0  0  0  0  0  0  0  0
  143.7784  132.7377  150.7875 O   0  0  0  0  0  0  0  0  0  0  0  0
  146.0696  131.0210  151.2640 N   0  0  0  0  0  0  0  0  0  0  0  0
  146.8581  133.2246  149.8009 H   0  0  0  0  0  0  0  0  0  0  0  0
  144.9764  134.9014  152.5599 H   0  0  0  0  0  0  0  0  0  0  0  0
  143.3598  135.2023  150.8125 H   0  0  0  0  0  0  0  0  0  0  0  0
  144.6419  133.4254  149.0720 H   0  0  0  0  0  0  0  0  0  0  0  0
  145.1228  127.4783  153.4874 H   0  0  0  0  0  0  0  0  0  0  0  0
  144.7070  129.1456  153.8371 H   0  0  0  0  0  0  0  0  0  0  0  0
  147.1375  133.2315  153.3341 H   0  0  0  0  0  0  0  0  0  0  0  0
  144.7904  137.4050  152.0996 H   0  0  0  0  0  0  0  0  0  0  0  0
  146.3579  136.9411  152.7471 H   0  0  0  0  0  0  0  0  0  0  0  0
  145.7310  137.8106  150.2214 H   0  0  0  0  0  0  0  0  0  0  0  0
  145.1708  135.4220  148.7680 H   0  0  0  0  0  0  0  0  0  0  0  0
  143.9097  132.7959  151.7215 H   0  0  0  0  0  0  0  0  0  0  0  0
  1  2  1  0  0  0  0
  1 22  1  0  0  0  0
  1 23  1  0  0  0  0
  2  3  2  0  0  0  0
  2  4  1  0  0  0  0
  4 17  2  0  0  0  0
  4  5  1  0  0  0  0
  5  6  2  0  0  0  0
  6  7  1  0  0  0  0
  6 24  1  0  0  0  0
  7  8  1  0  0  0  0
  7 17  1  0  0  0  0
  8 18  1  0  0  0  0
  8 15  1  0  0  0  0
  8  9  1  0  0  0  0
  9 10  1  0  0  0  0
 10 19  1  0  0  0  0
 10 11  1  0  0  0  0
 10 13  1  0  0  0  0
 11 12  1  0  0  0  0
 11 25  1  0  0  0  0
 11 26  1  0  0  0  0
 12 27  1  0  0  0  0
 13 20  1  0  0  0  0
 13 14  1  0  0  0  0
 13 15  1  0  0  0  0
 14 28  1  0  0  0  0
 15 21  1  0  0  0  0
 15 16  1  0  0  0  0
 16 29  1  0  0  0  0
M  END
> <s_m_source_file>
AV-unprocessed.smi

> <i_m_source_file_index>
160

> <i_lp_mmshare_version>
43012

> <i_f3d_flags>
0

> <s_epik_input>
W05IMl1DKD1PKWMxbltjSF1uKG4xKVtDQEBIXTJPW0NASF0oW0NIMl1bT0hdKVtDQEBIXShbT0hdKVtDQEhdMltPSF0=

> <s_epik_cmdline>
J2VwaWtfcHl0aG9uJywgJy1waCcsICc3LjAnLCAnLXRuJywgJzgnLCAnLW1hJywgJzIwMCcsICctbWV0YWxfYmluZGluZycsICctaW1hZScsICc8aW5maWxlLm1hZT4nLCAnLW9tYWUnLCAnPG91dGZpbGUubWFlPic=

> <r_lp_tautomer_probability>
1

> <r_epik_Ionization_Penalty>
1.06932e-05

> <r_epik_Ionization_Penalty_Charging>
0

> <r_epik_Ionization_Penalty_Neutral>
1.06932e-05

> <r_epik_State_Penalty>
-0

> <r_epik_Charging_Adjusted_Penalty>
0

> <i_epik_Tot_Q>
0

> <i_epik_Tot_abs_Q>
0

> <r_epik_Metal_State_Penalty>
0.0142097

> <b_epik_Metal_Only>
0

> <s_epik_Chemistry_Notes>
This compound contains an acetal/aminal-like group ( X-CH(R)-Y where X, Y are N, S, or O) that may be acid/base labile, releasing an aldehyde.

> <s_lp_Force_Field>
OPLS_2005

> <r_lp_Energy>
42.6693

> <b_lp_Chiralities_Consistent>
1

> <s_lp_Variant>
AV-unprocessed.smi:160-11

> <Gold.Version>
5.8.1

> <Gold.Id.Protein>
6NUR|6NUR_protein|mol2

> <Gold.PLP.Fitness>
37.2512

> <Gold.PLP.PLP>
-28.1371

> <Gold.PLP.part.hbond>
-6.0000

> <Gold.PLP.part.metal>
0.0000

> <Gold.PLP.part.buried>
-4.7553

> <Gold.PLP.part.nonpolar>
-19.3104

> <Gold.PLP.part.repulsive>
2.3721

> <Gold.PLP.ligand.clash>
0.0000

> <Gold.PLP.ligand.torsion>
1.3466

> <Gold.PLP.Chemscore.Hbond>
3.9345

> <Gold.PLP.Chemscore.CHOScore>
0.0000

> <Gold.PLP.Chemscore.Metal>
0.0000

> <Gold.Chemscore.Hbonds>
donor molecule, donor type, donor heavy atom, donor atom, acceptor molecule, acceptor atom, score
      L1  H     1    23       P1 10956  1.00
      L1  H    12    27       P1 10171  0.98
      L1  H    14    28       P1  7921  1.00
      P1  H  7954  7966       L1    12  0.94

> <Gold.PLP.Chemscore.Internal.Correction>
0.0038

> <Gold.Rescore>
     Score         DG    S(hbond)    S(metal)    S(lipo)     H(rot)  DE(clash)    DE(int)     intcor
      6.71      -9.71       3.50        0.00      25.00       4.06       0.44       2.57       ----

> <Gold.Chemscore.Fitness>
6.7051

> <Gold.Chemscore.DG>
-9.7085

> <Gold.Chemscore.ZeroCoef>
-5.4800

> <Gold.Chemscore.Hbond>
3.5021

> <Gold.Chemscore.Metal>
0.0000

> <Gold.Chemscore.Lipo>
25.0017

> <Gold.Chemscore.Internal_Hbond>
0.0000

> <Gold.Chemscore.DEClash>
0.4380

> <Gold.Chemscore.DEInternal>
2.5654

> <Gold.Chemscore.Rot>
4.0600

> <Gold.Chemscore.Internal.Correction>
   9.000000E+99

> <Gold.Chemscore.Hbonds>
donor molecule, donor type, donor heavy atom, donor atom, acceptor molecule, acceptor atom, score
      L1  H     1    23       P1 10956  0.88
      L1  H    12    27       P1 10171  0.89
      L1  H    14    28       P1  7921  0.98
      P1  H  7954  7966       L1    12  0.34

> <Gold.Chemscore.Hbond.Weighted>
-11.6969

> <Gold.Chemscore.Metal.Weighted>
-0.0000

> <Gold.Chemscore.Lipo.Weighted>
-2.9252

> <Gold.Chemscore.Internal_Hbond.Weighted>
0.0000

> <Gold.Chemscore.DEClash.Weighted>
0.4380

> <Gold.Chemscore.DEInternal.Weighted>
2.5654

> <Gold.Chemscore.Rot.Weighted>
10.3936

> <Gold.Chemscore.Internal.Correction.Weighted>
   9.000000E+99

> <Gold.Protein.RotatedTorsions>
[ 6907 6896 6895 6894 ] final  161.46 input  -60.11 | X-H torsion
[ 7974 7965 7964 7962 ] final -148.65 input  175.53 | X-H torsion
[ 8008 7997 7996 7995 ] final  132.67 input   59.86 | X-H torsion
[ 10167 10162 10161 10158 ] final -103.88 input  -65.29 | X-H torsion
[ 10718 10713 10712 10709 ] final -122.09 input   66.30 | X-H torsion
[ 10763 10752 10751 10750 ] final -104.03 input  -60.55 | X-H torsion
[ 11005 11000 10999 10996 ] final   79.80 input  -57.11 | X-H torsion

> <Gold.Protein.ActiveResidues>
 VAL166  LYS551  ARG553  GLY616  TRP617  ASP618  TYR619  PRO620  LYS621  CYS622 
 ASP623  PHE694  ASN695  SER759  ASP760  ASP761  ALA762  ILE779  LEU786  VAL792 
 PHE793  MET794  SER795  GLU796  ALA797  LYS798  CYS799  TRP800  GLU811  SER814 

> <Gold.Protein.RotatedAtoms>
  151.9552  133.3678  159.4014 H   0  0  0  0  0  0  0  0  0  0  0  0  # atno 6907 bound_to 6896
  150.6973  134.4298  159.5252 H   0  0  0  0  0  0  0  0  0  0  0  0  # atno 6908 bound_to 6896
  152.1978  134.8615  160.0562 H   0  0  0  0  0  0  0  0  0  0  0  0  # atno 6909 bound_to 6896
  144.8016  140.5169  143.5703 H   0  0  0  0  0  0  0  0  0  0  0  0  # atno 7974 bound_to 7965
  156.2985  140.2540  156.3128 H   0  0  0  0  0  0  0  0  0  0  0  0  # atno 8008 bound_to 7997
  154.9310  140.0398  157.2067 H   0  0  0  0  0  0  0  0  0  0  0  0  # atno 8009 bound_to 7997
  154.8218  140.2861  155.5786 H   0  0  0  0  0  0  0  0  0  0  0  0  # atno 8010 bound_to 7997
  140.2153  143.3716  152.1016 H   0  0  0  0  0  0  0  0  0  0  0  0  # atno 10167 bound_to 10162
  156.1390  130.6452  150.9742 H   0  0  0  0  0  0  0  0  0  0  0  0  # atno 10718 bound_to 10713
  154.7849  135.4801  153.9925 H   0  0  0  0  0  0  0  0  0  0  0  0  # atno 10763 bound_to 10752
  153.1546  135.6797  153.8838 H   0  0  0  0  0  0  0  0  0  0  0  0  # atno 10764 bound_to 10752
  153.8471  135.3172  155.3408 H   0  0  0  0  0  0  0  0  0  0  0  0  # atno 10765 bound_to 10752
  139.9158  134.7871  156.1827 H   0  0  0  0  0  0  0  0  0  0  0  0  # atno 11005 bound_to 11000
  145.5539  139.1477  143.3379 LP  0  0  0  0  0  0  0  0  0  0  0  0  # atno 17320 bound_to 7965
  146.2299  140.5676  142.8980 LP  0  0  0  0  0  0  0  0  0  0  0  0  # atno 17321 bound_to 7965
  139.5164  144.6977  151.5582 LP  0  0  0  0  0  0  0  0  0  0  0  0  # atno 17342 bound_to 10162
  140.6294  143.9105  150.6592 LP  0  0  0  0  0  0  0  0  0  0  0  0  # atno 17343 bound_to 10162
  157.6559  131.0889  150.7949 LP  0  0  0  0  0  0  0  0  0  0  0  0  # atno 17370 bound_to 10713
  156.8026  130.4926  149.5367 LP  0  0  0  0  0  0  0  0  0  0  0  0  # atno 17371 bound_to 10713
  141.0632  133.6831  156.1994 LP  0  0  0  0  0  0  0  0  0  0  0  0  # atno 17394 bound_to 11000
  140.6626  134.4951  157.5584 LP  0  0  0  0  0  0  0  0  0  0  0  0  # atno 17395 bound_to 11000

$$$$
