AV-unprocessed.smi:702|AV-procd|sdf|3424|dock4
  -GOLD-   22720 0403D 1   1.00000     0.00000
 Structure written by MMmdl.
 50 52  0  0  0  0  0  0  0  0  4 V2000
  146.5387  135.9820  153.2113 C   0  0  0  0  0  0  0  0  0  0  0  0
  146.2096  137.2185  154.0708 C   0  0  2  0  0  0  0  0  0  0  0  0
  144.9395  137.7898  153.5984 N   0  5  0  0  0  0  0  0  0  0  0  0
  143.7025  137.3107  153.8983 C   0  0  0  0  0  0  0  0  0  0  0  0
  143.4246  136.2729  154.5095 O   0  0  0  0  0  0  0  0  0  0  0  0
  142.7252  138.1279  153.4675 N   0  0  0  0  0  0  0  0  0  0  0  0
  141.3178  137.9680  153.5754 C   0  0  0  0  0  0  0  0  0  0  0  0
  140.4991  139.0355  153.1458 C   0  0  0  0  0  0  0  0  0  0  0  0
  139.0972  138.9078  153.2187 C   0  0  0  0  0  0  0  0  0  0  0  0
  138.5492  137.7647  153.6844 N   0  3  0  0  0  0  0  0  0  0  0  0
  139.2908  136.7108  154.0880 C   0  0  0  0  0  0  0  0  0  0  0  0
  140.6977  136.7801  154.0385 C   0  0  0  0  0  0  0  0  0  0  0  0
  147.3725  138.3068  154.0726 C   0  0  0  0  0  0  0  0  0  0  0  0
  148.7420  137.6427  154.2204 N   0  3  0  0  0  0  0  0  0  0  0  0
  149.9195  138.5612  154.2979 C   0  0  0  0  0  0  0  0  0  0  0  0
  151.2270  137.7766  154.1118 C   0  0  0  0  0  0  0  0  0  0  0  0
  151.3429  136.8070  155.1422 O   0  0  0  0  0  0  0  0  0  0  0  0
  150.2711  135.8766  155.1089 C   0  0  0  0  0  0  0  0  0  0  0  0
  148.9300  136.6080  155.2953 C   0  0  0  0  0  0  0  0  0  0  0  0
  147.3151  139.1501  152.7408 C   0  0  0  0  0  0  0  0  0  0  0  0
  147.2588  140.6389  153.1148 C   0  0  0  0  0  0  0  0  0  0  0  0
  147.6025  140.7343  154.5967 C   0  0  0  0  0  0  0  0  0  0  0  0
  147.1833  139.3870  155.1914 C   0  0  0  0  0  0  0  0  0  0  0  0
  147.4492  135.4885  153.5502 H   0  0  0  0  0  0  0  0  0  0  0  0
  146.6730  136.2392  152.1604 H   0  0  0  0  0  0  0  0  0  0  0  0
  145.7380  135.2437  153.2675 H   0  0  0  0  0  0  0  0  0  0  0  0
  146.0979  136.8686  155.0962 H   0  0  0  0  0  0  0  0  0  0  0  0
  143.0373  139.0053  153.0773 H   0  0  0  0  0  0  0  0  0  0  0  0
  140.9397  139.9483  152.7715 H   0  0  0  0  0  0  0  0  0  0  0  0
  138.4032  139.6794  152.9195 H   0  0  0  0  0  0  0  0  0  0  0  0
  138.7407  135.8464  154.4300 H   0  0  0  0  0  0  0  0  0  0  0  0
  141.2775  135.9220  154.3436 H   0  0  0  0  0  0  0  0  0  0  0  0
  149.9048  139.3580  153.5596 H   0  0  0  0  0  0  0  0  0  0  0  0
  149.9425  139.0455  155.2742 H   0  0  0  0  0  0  0  0  0  0  0  0
  151.2630  137.2993  153.1312 H   0  0  0  0  0  0  0  0  0  0  0  0
  152.0811  138.4514  154.1711 H   0  0  0  0  0  0  0  0  0  0  0  0
  150.2832  135.3231  154.1685 H   0  0  0  0  0  0  0  0  0  0  0  0
  150.4154  135.1487  155.9075 H   0  0  0  0  0  0  0  0  0  0  0  0
  148.9040  137.0737  156.2804 H   0  0  0  0  0  0  0  0  0  0  0  0
  148.1665  135.8335  155.3021 H   0  0  0  0  0  0  0  0  0  0  0  0
  148.1488  138.9363  152.0744 H   0  0  0  0  0  0  0  0  0  0  0  0
  146.4535  138.9628  152.0951 H   0  0  0  0  0  0  0  0  0  0  0  0
  147.9231  141.2459  152.4994 H   0  0  0  0  0  0  0  0  0  0  0  0
  146.2443  141.0087  152.9591 H   0  0  0  0  0  0  0  0  0  0  0  0
  148.6709  140.9004  154.7205 H   0  0  0  0  0  0  0  0  0  0  0  0
  147.0964  141.5704  155.0800 H   0  0  0  0  0  0  0  0  0  0  0  0
  146.1443  139.5061  155.5056 H   0  0  0  0  0  0  0  0  0  0  0  0
  147.7322  139.1718  156.1071 H   0  0  0  0  0  0  0  0  0  0  0  0
  148.8540  137.1404  153.3516 H   0  0  0  0  0  0  0  0  0  0  0  0
  137.5325  137.6922  153.7277 H   0  0  0  0  0  0  0  0  0  0  0  0
  1  2  1  0  0  0  0
  1 24  1  0  0  0  0
  1 25  1  0  0  0  0
  1 26  1  0  0  0  0
  2  3  1  0  0  0  0
  2 13  1  0  0  0  0
  2 27  1  0  0  0  0
  3  4  1  0  0  0  0
  4  5  2  0  0  0  0
  4  6  1  0  0  0  0
  6  7  1  0  0  0  0
  6 28  1  0  0  0  0
  7 12  1  0  0  0  0
  7  8  2  0  0  0  0
  8  9  1  0  0  0  0
  8 29  1  0  0  0  0
  9 10  2  0  0  0  0
  9 30  1  0  0  0  0
 10 11  1  0  0  0  0
 10 50  1  0  0  0  0
 11 12  2  0  0  0  0
 11 31  1  0  0  0  0
 12 32  1  0  0  0  0
 13 23  1  0  0  0  0
 13 14  1  0  0  0  0
 13 20  1  0  0  0  0
 14 19  1  0  0  0  0
 14 15  1  0  0  0  0
 14 49  1  0  0  0  0
 15 16  1  0  0  0  0
 15 33  1  0  0  0  0
 15 34  1  0  0  0  0
 16 17  1  0  0  0  0
 16 35  1  0  0  0  0
 16 36  1  0  0  0  0
 17 18  1  0  0  0  0
 18 19  1  0  0  0  0
 18 37  1  0  0  0  0
 18 38  1  0  0  0  0
 19 39  1  0  0  0  0
 19 40  1  0  0  0  0
 20 21  1  0  0  0  0
 20 41  1  0  0  0  0
 20 42  1  0  0  0  0
 21 22  1  0  0  0  0
 21 43  1  0  0  0  0
 21 44  1  0  0  0  0
 22 23  1  0  0  0  0
 22 45  1  0  0  0  0
 22 46  1  0  0  0  0
 23 47  1  0  0  0  0
 23 48  1  0  0  0  0
M  CHG  1   3  -1
M  CHG  1  10   1
M  CHG  1  14   1
M  END
> <s_m_source_file>
AV-unprocessed.smi

> <i_m_source_file_index>
702

> <i_lp_mmshare_version>
43012

> <i_f3d_flags>
0

> <s_epik_input>
W0NIMl0xW0NIMl1PW0NIMl1bQ0gyXU4xQzIoW0NIMl1bQ0gyXVtDSDJdW0NIMl0yKVtDQEhdKFtDSDNdKVtOSF1DKD1PKVtOSF1jM1tjSF1bY0hdbltjSF1bY0hdMw==

> <s_epik_cmdline>
J2VwaWtfcHl0aG9uJywgJy1waCcsICc3LjAnLCAnLXRuJywgJzgnLCAnLW1hJywgJzIwMCcsICctbWV0YWxfYmluZGluZycsICctaW1hZScsICc8aW5maWxlLm1hZT4nLCAnLW9tYWUnLCAnPG91dGZpbGUubWFlPic=

> <r_epik_Ionization_Penalty>
8.33674

> <r_epik_Ionization_Penalty_Charging>
8.33674

> <r_epik_Ionization_Penalty_Neutral>
3.60854e-06

> <r_epik_State_Penalty>
8.24268

> <r_epik_Charging_Adjusted_Penalty>
16.5794

> <i_epik_Tot_Q>
1

> <i_epik_Tot_abs_Q>
3

> <r_epik_Metal_State_Penalty>
4.24853

> <b_epik_Metal_Only>
1

> <s_lp_Force_Field>
OPLS_2005

> <r_lp_Energy>
64.6776

> <b_lp_Chiralities_Consistent>
1

> <s_lp_Variant>
AV-unprocessed.smi:702-9

> <Gold.Version>
5.8.1

> <Gold.Id.Protein>
6NUR|6NUR_protein|mol2

> <Gold.PLP.Fitness>
39.9156

> <Gold.PLP.PLP>
-29.2504

> <Gold.PLP.part.hbond>
-2.9817

> <Gold.PLP.part.metal>
0.0000

> <Gold.PLP.part.buried>
2.5287

> <Gold.PLP.part.nonpolar>
-29.0067

> <Gold.PLP.part.repulsive>
0.3494

> <Gold.PLP.ligand.clash>
0.0000

> <Gold.PLP.ligand.torsion>
0.8147

> <Gold.PLP.Chemscore.Hbond>
3.9913

> <Gold.PLP.Chemscore.CHOScore>
0.0000

> <Gold.PLP.Chemscore.Metal>
0.0000

> <Gold.Chemscore.Hbonds>
donor molecule, donor type, donor heavy atom, donor atom, acceptor molecule, acceptor atom, score
      L1  H     6    28       P1 10175  1.00
      L1  H    14    49       P1  7948  2.00
      P1  H 10752 10765       L1    17  0.89

> <Gold.PLP.Chemscore.Internal.Correction>
0.3209

> <Gold.Rescore>
     Score         DG    S(hbond)    S(metal)    S(lipo)     H(rot)  DE(clash)    DE(int)     intcor
     16.16     -20.39       2.75        0.00      80.61       1.45       2.12       2.12       ----

> <Gold.Chemscore.Fitness>
16.1571

> <Gold.Chemscore.DG>
-20.3932

> <Gold.Chemscore.ZeroCoef>
-5.4800

> <Gold.Chemscore.Hbond>
2.7530

> <Gold.Chemscore.Metal>
0.0000

> <Gold.Chemscore.Lipo>
80.6079

> <Gold.Chemscore.Internal_Hbond>
0.0000

> <Gold.Chemscore.DEClash>
2.1200

> <Gold.Chemscore.DEInternal>
2.1161

> <Gold.Chemscore.Rot>
1.4504

> <Gold.Chemscore.Internal.Correction>
   9.000000E+99

> <Gold.Chemscore.Hbonds>
donor molecule, donor type, donor heavy atom, donor atom, acceptor molecule, acceptor atom, score
      L1  H     6    28       P1 10175  1.00
      L1  H    14    49       P1  7948  1.00
      P1  H 10752 10765       L1    17  0.15

> <Gold.Chemscore.Hbond.Weighted>
-9.1950

> <Gold.Chemscore.Metal.Weighted>
-0.0000

> <Gold.Chemscore.Lipo.Weighted>
-9.4311

> <Gold.Chemscore.Internal_Hbond.Weighted>
0.0000

> <Gold.Chemscore.DEClash.Weighted>
2.1200

> <Gold.Chemscore.DEInternal.Weighted>
2.1161

> <Gold.Chemscore.Rot.Weighted>
3.7129

> <Gold.Chemscore.Internal.Correction.Weighted>
   9.000000E+99

> <Gold.Protein.RotatedTorsions>
[ 6907 6896 6895 6894 ] final  -20.63 input  -60.11 | X-H torsion
[ 7974 7965 7964 7962 ] final  113.38 input  175.53 | X-H torsion
[ 8008 7997 7996 7995 ] final -164.41 input   59.86 | X-H torsion
[ 10167 10162 10161 10158 ] final  148.03 input  -65.29 | X-H torsion
[ 10718 10713 10712 10709 ] final  -28.72 input   66.30 | X-H torsion
[ 10763 10752 10751 10750 ] final -176.57 input  -60.55 | X-H torsion
[ 11005 11000 10999 10996 ] final   36.10 input  -57.11 | X-H torsion

> <Gold.Protein.ActiveResidues>
 VAL166  LYS551  ARG553  GLY616  TRP617  ASP618  TYR619  PRO620  LYS621  CYS622 
 ASP623  PHE694  ASN695  SER759  ASP760  ASP761  ALA762  ILE779  LEU786  VAL792 
 PHE793  MET794  SER795  GLU796  ALA797  LYS798  CYS799  TRP800  GLU811  SER814 

> <Gold.Protein.RotatedAtoms>
  151.2453  135.0603  159.9040 H   0  0  0  0  0  0  0  0  0  0  0  0  # atno 6907 bound_to 6896
  152.5387  134.0390  159.8069 H   0  0  0  0  0  0  0  0  0  0  0  0  # atno 6908 bound_to 6896
  151.0590  133.5511  159.2667 H   0  0  0  0  0  0  0  0  0  0  0  0  # atno 6909 bound_to 6896
  145.2176  139.2877  143.4235 H   0  0  0  0  0  0  0  0  0  0  0  0  # atno 7974 bound_to 7965
  155.8352  140.0940  157.1768 H   0  0  0  0  0  0  0  0  0  0  0  0  # atno 8008 bound_to 7997
  154.3980  140.1411  156.3723 H   0  0  0  0  0  0  0  0  0  0  0  0  # atno 8009 bound_to 7997
  155.8123  140.3449  155.5467 H   0  0  0  0  0  0  0  0  0  0  0  0  # atno 8010 bound_to 7997
  139.4881  144.5710  151.7054 H   0  0  0  0  0  0  0  0  0  0  0  0  # atno 10167 bound_to 10162
  156.4217  130.4427  149.7179 H   0  0  0  0  0  0  0  0  0  0  0  0  # atno 10718 bound_to 10713
  154.5707  135.2827  155.0830 H   0  0  0  0  0  0  0  0  0  0  0  0  # atno 10763 bound_to 10752
  154.2204  135.6392  153.5146 H   0  0  0  0  0  0  0  0  0  0  0  0  # atno 10764 bound_to 10752
  153.0056  135.5513  154.6329 H   0  0  0  0  0  0  0  0  0  0  0  0  # atno 10765 bound_to 10752
  140.2360  134.3471  155.7944 H   0  0  0  0  0  0  0  0  0  0  0  0  # atno 11005 bound_to 11000
  146.3383  140.2472  142.8597 LP  0  0  0  0  0  0  0  0  0  0  0  0  # atno 17320 bound_to 7965
  144.9796  140.8446  143.5405 LP  0  0  0  0  0  0  0  0  0  0  0  0  # atno 17321 bound_to 7965
  140.5297  144.0749  150.6049 LP  0  0  0  0  0  0  0  0  0  0  0  0  # atno 17342 bound_to 10162
  140.3735  143.2841  152.0251 LP  0  0  0  0  0  0  0  0  0  0  0  0  # atno 17343 bound_to 10162
  156.4117  130.7725  151.2739 LP  0  0  0  0  0  0  0  0  0  0  0  0  # atno 17370 bound_to 10713
  157.7508  131.0209  150.3729 LP  0  0  0  0  0  0  0  0  0  0  0  0  # atno 17371 bound_to 10713
  141.2214  133.7272  156.8808 LP  0  0  0  0  0  0  0  0  0  0  0  0  # atno 17394 bound_to 11000
  140.1702  134.9105  157.2823 LP  0  0  0  0  0  0  0  0  0  0  0  0  # atno 17395 bound_to 11000

$$$$
