AV-unprocessed.smi:1184|AV-procd|sdf|4972|dock9
  -GOLD-   22720 3563D 1   1.00000     0.00000
 Structure written by MMmdl.
 43 44  0  0  0  0  0  0  0  0  2 V2000
  144.4637  131.6762  150.6989 C   0  0  0  0  0  0  0  0  0  0  0  0
  143.4477  132.7890  150.9956 C   0  0  0  0  0  0  0  0  0  0  0  0
  143.6761  133.4180  152.3175 N   0  3  2  0  0  0  0  0  0  0  0  0
  142.8940  134.6544  152.5565 C   0  0  0  0  0  0  0  0  0  0  0  0
  143.8417  135.6612  153.2261 C   0  0  0  0  0  0  0  0  0  0  0  0
  145.0315  134.8223  153.6896 C   0  0  2  0  0  0  0  0  0  0  0  0
  146.3382  135.6183  153.8777 C   0  0  0  0  0  0  0  0  0  0  0  0
  147.4863  134.8284  153.4467 N   0  0  0  0  0  0  0  0  0  0  0  0
  147.8580  133.6538  153.9794 C   0  0  0  0  0  0  0  0  0  0  0  0
  147.1660  133.0130  154.7700 O   0  0  0  0  0  0  0  0  0  0  0  0
  149.2637  133.1707  153.6309 C   0  0  0  0  0  0  0  0  0  0  0  0
  149.9582  132.7792  154.9115 C   0  0  0  0  0  0  0  0  0  0  0  0
  150.1440  133.5651  156.0850 C   0  0  0  0  0  0  0  0  0  0  0  0
  149.7194  134.9834  156.3374 C   0  0  0  0  0  0  0  0  0  0  0  0
  150.7632  132.8899  157.0386 N   0  0  0  0  0  0  0  0  0  0  0  0
  151.0103  131.6191  156.5109 O   0  0  0  0  0  0  0  0  0  0  0  0
  150.5238  131.5784  155.2447 C   0  0  0  0  0  0  0  0  0  0  0  0
  150.6728  130.2867  154.5146 C   0  0  0  0  0  0  0  0  0  0  0  0
  145.0864  133.7263  152.6239 C   0  0  0  0  0  0  0  0  0  0  0  0
  144.2291  131.1830  149.7552 H   0  0  0  0  0  0  0  0  0  0  0  0
  144.4568  130.9156  151.4804 H   0  0  0  0  0  0  0  0  0  0  0  0
  145.4787  132.0665  150.6188 H   0  0  0  0  0  0  0  0  0  0  0  0
  143.4774  133.5474  150.2121 H   0  0  0  0  0  0  0  0  0  0  0  0
  142.4443  132.3618  150.9825 H   0  0  0  0  0  0  0  0  0  0  0  0
  142.4906  135.0688  151.6312 H   0  0  0  0  0  0  0  0  0  0  0  0
  142.0517  134.4153  153.2062 H   0  0  0  0  0  0  0  0  0  0  0  0
  144.1670  136.3971  152.4892 H   0  0  0  0  0  0  0  0  0  0  0  0
  143.3679  136.2023  154.0458 H   0  0  0  0  0  0  0  0  0  0  0  0
  144.7671  134.3538  154.6393 H   0  0  0  0  0  0  0  0  0  0  0  0
  146.2921  136.5684  153.3427 H   0  0  0  0  0  0  0  0  0  0  0  0
  146.4703  135.8666  154.9311 H   0  0  0  0  0  0  0  0  0  0  0  0
  148.1157  135.2659  152.7892 H   0  0  0  0  0  0  0  0  0  0  0  0
  149.1950  132.3303  152.9394 H   0  0  0  0  0  0  0  0  0  0  0  0
  149.8006  133.9594  153.1026 H   0  0  0  0  0  0  0  0  0  0  0  0
  148.7050  135.1583  155.9790 H   0  0  0  0  0  0  0  0  0  0  0  0
  150.3785  135.6833  155.8239 H   0  0  0  0  0  0  0  0  0  0  0  0
  149.7382  135.2277  157.4000 H   0  0  0  0  0  0  0  0  0  0  0  0
  150.7235  130.4510  153.4381 H   0  0  0  0  0  0  0  0  0  0  0  0
  149.8248  129.6322  154.7161 H   0  0  0  0  0  0  0  0  0  0  0  0
  151.5821  129.7681  154.8190 H   0  0  0  0  0  0  0  0  0  0  0  0
  145.6184  132.8384  152.9659 H   0  0  0  0  0  0  0  0  0  0  0  0
  145.5871  134.0997  151.7287 H   0  0  0  0  0  0  0  0  0  0  0  0
  143.3708  132.7590  153.0196 H   0  0  0  0  0  0  0  0  0  0  0  0
  1  2  1  0  0  0  0
  1 20  1  0  0  0  0
  1 21  1  0  0  0  0
  1 22  1  0  0  0  0
  2  3  1  0  0  0  0
  2 23  1  0  0  0  0
  2 24  1  0  0  0  0
  3 19  1  0  0  0  0
  3  4  1  0  0  0  0
  3 43  1  0  0  0  0
  4  5  1  0  0  0  0
  4 25  1  0  0  0  0
  4 26  1  0  0  0  0
  5  6  1  0  0  0  0
  5 27  1  0  0  0  0
  5 28  1  0  0  0  0
  6  7  1  0  0  0  0
  6 19  1  0  0  0  0
  6 29  1  0  0  0  0
  7  8  1  0  0  0  0
  7 30  1  0  0  0  0
  7 31  1  0  0  0  0
  8  9  1  0  0  0  0
  8 32  1  0  0  0  0
  9 10  2  0  0  0  0
  9 11  1  0  0  0  0
 11 12  1  0  0  0  0
 11 33  1  0  0  0  0
 11 34  1  0  0  0  0
 12 17  2  0  0  0  0
 12 13  1  0  0  0  0
 13 14  1  0  0  0  0
 13 15  2  0  0  0  0
 14 35  1  0  0  0  0
 14 36  1  0  0  0  0
 14 37  1  0  0  0  0
 15 16  1  0  0  0  0
 16 17  1  0  0  0  0
 17 18  1  0  0  0  0
 18 38  1  0  0  0  0
 18 39  1  0  0  0  0
 18 40  1  0  0  0  0
 19 41  1  0  0  0  0
 19 42  1  0  0  0  0
M  CHG  1   3   1
M  END
> <s_m_source_file>
AV-unprocessed.smi

> <i_m_source_file_index>
1184

> <i_lp_mmshare_version>
43012

> <i_f3d_flags>
0

> <s_epik_input>
W0NIM11bQ0gyXU4xW0NIMl1bQ0gyXVtDQEhdKFtDSDJdMSlbQ0gyXVtOSF1DKD1PKVtDSDJdYzJjKFtDSDNdKW5vYzJbQ0gzXQ==

> <s_epik_cmdline>
J2VwaWtfcHl0aG9uJywgJy1waCcsICc3LjAnLCAnLXRuJywgJzgnLCAnLW1hJywgJzIwMCcsICctbWV0YWxfYmluZGluZycsICctaW1hZScsICc8aW5maWxlLm1hZT4nLCAnLW9tYWUnLCAnPG91dGZpbGUubWFlPic=

> <r_epik_Ionization_Penalty>
0.000590726

> <r_epik_Ionization_Penalty_Charging>
0.000590692

> <r_epik_Ionization_Penalty_Neutral>
3.44741e-08

> <r_epik_State_Penalty>
0.000371644

> <r_epik_Charging_Adjusted_Penalty>
0.000962336

> <i_epik_Tot_Q>
1

> <i_epik_Tot_abs_Q>
1

> <r_epik_Metal_State_Penalty>
-0

> <b_epik_Metal_Only>
0

> <s_lp_Force_Field>
OPLS_2005

> <r_lp_Energy>
20.136

> <b_lp_Chiralities_Consistent>
1

> <s_lp_Variant>
AV-unprocessed.smi:1184-4

> <Gold.Version>
5.8.1

> <Gold.Id.Protein>
6NUR|6NUR_protein|mol2

> <Gold.PLP.Fitness>
39.4779

> <Gold.PLP.PLP>
-29.0371

> <Gold.PLP.part.hbond>
-3.0000

> <Gold.PLP.part.metal>
0.0000

> <Gold.PLP.part.buried>
-5.5493

> <Gold.PLP.part.nonpolar>
-21.9018

> <Gold.PLP.part.repulsive>
0.0309

> <Gold.PLP.ligand.clash>
0.0000

> <Gold.PLP.ligand.torsion>
0.7513

> <Gold.PLP.Chemscore.Hbond>
3.9675

> <Gold.PLP.Chemscore.CHOScore>
0.0000

> <Gold.PLP.Chemscore.Metal>
0.0000

> <Gold.Chemscore.Hbonds>
donor molecule, donor type, donor heavy atom, donor atom, acceptor molecule, acceptor atom, score
      L1  H     3    43       P1 10957  1.50
      L1  H     8    32       P1  7948  1.00
      P1  H  6896  6909       L1    15  0.41

> <Gold.PLP.Chemscore.Internal.Correction>
0.0410

> <Gold.Rescore>
     Score         DG    S(hbond)    S(metal)    S(lipo)     H(rot)  DE(clash)    DE(int)     intcor
     15.70     -17.69       2.86        0.00      59.30       1.67       0.01       1.97       ----

> <Gold.Chemscore.Fitness>
15.7017

> <Gold.Chemscore.DG>
-17.6881

> <Gold.Chemscore.ZeroCoef>
-5.4800

> <Gold.Chemscore.Hbond>
2.8566

> <Gold.Chemscore.Metal>
0.0000

> <Gold.Chemscore.Lipo>
59.3021

> <Gold.Chemscore.Internal_Hbond>
0.0000

> <Gold.Chemscore.DEClash>
0.0126

> <Gold.Chemscore.DEInternal>
1.9737

> <Gold.Chemscore.Rot>
1.6684

> <Gold.Chemscore.Internal.Correction>
   9.000000E+99

> <Gold.Chemscore.Hbonds>
donor molecule, donor type, donor heavy atom, donor atom, acceptor molecule, acceptor atom, score
      L1  H     3    43       P1 10957  0.22
      L1  H     8    32       P1  7948  0.94
      P1  H  6896  6909       L1    15  0.40

> <Gold.Chemscore.Hbond.Weighted>
-9.5410

> <Gold.Chemscore.Metal.Weighted>
-0.0000

> <Gold.Chemscore.Lipo.Weighted>
-6.9383

> <Gold.Chemscore.Internal_Hbond.Weighted>
0.0000

> <Gold.Chemscore.DEClash.Weighted>
0.0126

> <Gold.Chemscore.DEInternal.Weighted>
1.9737

> <Gold.Chemscore.Rot.Weighted>
4.2712

> <Gold.Chemscore.Internal.Correction.Weighted>
   9.000000E+99

> <Gold.Protein.RotatedTorsions>
[ 6907 6896 6895 6894 ] final  -24.87 input  -60.11 | X-H torsion
[ 7974 7965 7964 7962 ] final -156.57 input  175.53 | X-H torsion
[ 8008 7997 7996 7995 ] final -131.19 input   59.86 | X-H torsion
[ 10167 10162 10161 10158 ] final   50.29 input  -65.29 | X-H torsion
[ 10718 10713 10712 10709 ] final  139.45 input   66.30 | X-H torsion
[ 10763 10752 10751 10750 ] final  -36.38 input  -60.55 | X-H torsion
[ 11005 11000 10999 10996 ] final   32.58 input  -57.11 | X-H torsion

> <Gold.Protein.ActiveResidues>
 VAL166  LYS551  ARG553  GLY616  TRP617  ASP618  TYR619  PRO620  LYS621  CYS622 
 ASP623  PHE694  ASN695  SER759  ASP760  ASP761  ALA762  ILE779  LEU786  VAL792 
 PHE793  MET794  SER795  GLU796  ALA797  LYS798  CYS799  TRP800  GLU811  SER814 

> <Gold.Protein.RotatedAtoms>
  151.1832  135.0370  159.8801 H   0  0  0  0  0  0  0  0  0  0  0  0  # atno 6907 bound_to 6896
  152.5443  134.1039  159.8339 H   0  0  0  0  0  0  0  0  0  0  0  0  # atno 6908 bound_to 6896
  151.1158  133.5092  159.2636 H   0  0  0  0  0  0  0  0  0  0  0  0  # atno 6909 bound_to 6896
  144.7587  140.4091  143.5993 H   0  0  0  0  0  0  0  0  0  0  0  0  # atno 7974 bound_to 7965
  155.3082  140.0456  157.3033 H   0  0  0  0  0  0  0  0  0  0  0  0  # atno 8008 bound_to 7997
  154.5448  140.2299  155.8548 H   0  0  0  0  0  0  0  0  0  0  0  0  # atno 8009 bound_to 7997
  156.1914  140.3049  155.9346 H   0  0  0  0  0  0  0  0  0  0  0  0  # atno 8010 bound_to 7997
  140.2740  144.3233  150.6282 H   0  0  0  0  0  0  0  0  0  0  0  0  # atno 10167 bound_to 10162
  157.4142  131.1031  151.0422 H   0  0  0  0  0  0  0  0  0  0  0  0  # atno 10718 bound_to 10713
  153.8787  135.6824  153.4768 H   0  0  0  0  0  0  0  0  0  0  0  0  # atno 10763 bound_to 10752
  153.1246  135.4725  154.9249 H   0  0  0  0  0  0  0  0  0  0  0  0  # atno 10764 bound_to 10752
  154.7679  135.3230  154.8200 H   0  0  0  0  0  0  0  0  0  0  0  0  # atno 10765 bound_to 10752
  140.2720  134.3071  155.7825 H   0  0  0  0  0  0  0  0  0  0  0  0  # atno 11005 bound_to 11000
  145.6692  139.1596  143.2764 LP  0  0  0  0  0  0  0  0  0  0  0  0  # atno 17320 bound_to 7965
  146.1626  140.6765  142.9270 LP  0  0  0  0  0  0  0  0  0  0  0  0  # atno 17321 bound_to 7965
  140.5867  143.2169  151.7329 LP  0  0  0  0  0  0  0  0  0  0  0  0  # atno 17342 bound_to 10162
  139.4981  144.4001  152.0190 LP  0  0  0  0  0  0  0  0  0  0  0  0  # atno 17343 bound_to 10162
  157.1375  130.6129  149.5546 LP  0  0  0  0  0  0  0  0  0  0  0  0  # atno 17370 bound_to 10713
  155.9860  130.4893  150.7058 LP  0  0  0  0  0  0  0  0  0  0  0  0  # atno 17371 bound_to 10713
  141.2176  133.7473  156.9350 LP  0  0  0  0  0  0  0  0  0  0  0  0  # atno 17394 bound_to 11000
  140.1364  134.9322  157.2407 LP  0  0  0  0  0  0  0  0  0  0  0  0  # atno 17395 bound_to 11000

$$$$
