#       Name:                AV-unprocessed.smi:1552
#       Creating user name   scv26
#       Creation time:       Fri Mar 27 06:41:34 2020


#       File generated by GOLD software.
#

@<TRIPOS>MOLECULE
AV-unprocessed.smi:1552
    56    57     1
SMALL
NO_CHARGES


@<TRIPOS>ATOM
      1 ****        -3.0387  -0.1247   3.8990 C.3            1 S1                 0.0000
      2 ****        -3.0967  -0.6263   2.5031 N.4            1 S1                 1.0000
      3 ****        -3.8276   0.3152   1.6238 C.3            1 S1                 0.0000
      4 ****        -1.8016  -1.0882   1.9098 C.3            1 S1                 0.0000
      5 ****        -0.5718  -0.2795   2.3984 C.3            1 S1                 0.0000
      6 ****         0.6456  -0.6804   1.7027 N.am           1 S1                 0.0000
      7 ****         1.9141  -0.3683   2.0168 C.2            1 S1                 0.0000
      8 ****         2.1559   0.3140   3.0101 O.2            1 S1                 0.0000
      9 ****         3.0831  -0.8875   1.1577 C.3            1 S1                 0.0000
     10 ****         3.8997   0.2183   0.6395 N.am           1 S1                 0.0000
     11 ****         3.5562   0.8191  -0.5634 C.2            1 S1                 0.0000
     12 ****         4.2437   1.8514  -1.1064 C.2            1 S1                 0.0000
     13 ****         5.4145   2.3963  -0.4281 C.2            1 S1                 0.0000
     14 ****         6.1031   3.3272  -0.8398 O.2            1 S1                 0.0000
     15 ****         5.7269   1.7684   0.7805 N.am           1 S1                 0.0000
     16 ****         5.0214   0.7054   1.3468 C.2            1 S1                 0.0000
     17 ****         5.3823   0.2303   2.4227 O.2            1 S1                 0.0000
     18 ****        -1.6367  -2.6329   2.0169 C.3            1 S1                 0.0000
     19 ****        -2.7711  -3.3975   1.2987 C.3            1 S1                 0.0000
     20 ****        -2.5186  -4.9146   1.3018 C.3            1 S1                 0.0000
     21 ****        -2.3172  -5.4469   2.7291 C.3            1 S1                 0.0000
     22 ****        -1.1927  -4.6885   3.4509 C.3            1 S1                 0.0000
     23 ****        -1.4565  -3.1744   3.4533 C.3            1 S1                 0.0000
     24 ****         6.5283   2.1136   1.2884 H              1 S1                 0.0000
     25 ****        -2.5423   0.8448   3.9541 H              1 S1                 0.0000
     26 ****        -2.5150  -0.8117   4.5611 H              1 S1                 0.0000
     27 ****        -4.0475  -0.0010   4.2941 H              1 S1                 0.0000
     28 ****        -3.2635   1.2384   1.4849 H              1 S1                 0.0000
     29 ****        -4.7985   0.5689   2.0505 H              1 S1                 0.0000
     30 ****        -4.0085  -0.1288   0.6441 H              1 S1                 0.0000
     31 ****        -1.8617  -0.8961   0.8368 H              1 S1                 0.0000
     32 ****        -0.7311   0.7866   2.2311 H              1 S1                 0.0000
     33 ****        -0.4287  -0.4241   3.4689 H              1 S1                 0.0000
     34 ****         0.5193  -1.2958   0.9118 H              1 S1                 0.0000
     35 ****         3.6792  -1.5594   1.7772 H              1 S1                 0.0000
     36 ****         2.7624  -1.5143   0.3271 H              1 S1                 0.0000
     37 ****         2.6928   0.4490  -1.0980 H              1 S1                 0.0000
     38 ****         3.9252   2.2770  -2.0471 H              1 S1                 0.0000
     39 ****        -0.7247  -2.8884   1.4759 H              1 S1                 0.0000
     40 ****        -3.7277  -3.1937   1.7812 H              1 S1                 0.0000
     41 ****        -2.8649  -3.0504   0.2692 H              1 S1                 0.0000
     42 ****        -3.3531  -5.4315   0.8273 H              1 S1                 0.0000
     43 ****        -1.6360  -5.1392   0.7013 H              1 S1                 0.0000
     44 ****        -3.2460  -5.3467   3.2921 H              1 S1                 0.0000
     45 ****        -2.0876  -6.5127   2.6997 H              1 S1                 0.0000
     46 ****        -1.0989  -5.0510   4.4751 H              1 S1                 0.0000
     47 ****        -0.2392  -4.8941   2.9626 H              1 S1                 0.0000
     48 ****        -0.6302  -2.6711   3.9548 H              1 S1                 0.0000
     49 ****        -2.3515  -2.9807   4.0437 H              1 S1                 0.0000
     50 ****        -3.6764  -1.4530   2.5343 H              1 S1                 0.0000
     51 ****         1.4071   0.6390   3.5878 LP             1 S1                 0.0000
     52 ****         3.1013   0.5442   3.2405 LP             1 S1                 0.0000
     53 ****         5.8750   3.7732  -1.7053 LP             1 S1                 0.0000
     54 ****         6.8915   3.6386  -0.3093 LP             1 S1                 0.0000
     55 ****         4.8754  -0.5302   2.8286 LP             1 S1                 0.0000
     56 ****         6.1825   0.6046   2.8913 LP             1 S1                 0.0000
@<TRIPOS>BOND
    1    1    2 1     
    2    1   25 1     
    3    1   26 1     
    4    1   27 1     
    5    2    3 1     
    6    2    4 1     
    7    2   50 1     
    8    3   28 1     
    9    3   29 1     
   10    3   30 1     
   11    4    5 1     
   12    4   18 1     
   13    4   31 1     
   14    5    6 1     
   15    5   32 1     
   16    5   33 1     
   17    6    7 am    
   18    6   34 1     
   19    7    8 2     
   20    7    9 1     
   21    9   10 1     
   22    9   35 1     
   23    9   36 1     
   24   10   16 1     
   25   10   11 1     
   26   11   12 2     
   27   11   37 1     
   28   12   13 1     
   29   12   38 1     
   30   13   14 2     
   31   13   15 1     
   32   15   24 1     
   33   15   16 1     
   34   16   17 2     
   35   18   23 1     
   36   18   19 1     
   37   18   39 1     
   38   19   20 1     
   39   19   40 1     
   40   19   41 1     
   41   20   21 1     
   42   20   42 1     
   43   20   43 1     
   44   21   22 1     
   45   21   44 1     
   46   21   45 1     
   47   22   23 1     
   48   22   46 1     
   49   22   47 1     
   50   23   48 1     
   51   23   49 1     
   52    8   51 1     
   53    8   52 1     
   54   14   53 1     
   55   14   54 1     
   56   17   55 1     
   57   17   56 1     
@<TRIPOS>SUBSTRUCTURE
      1 S1             1
@<TRIPOS>SET
LONE_PAIRS      STATIC     ATOMS    <user>   **** ""
6 51 52 53 54 55 56
DONOR_HYDROGENS      STATIC     ATOMS    <user>   **** ""
3 50 34 24
ATOM$BLUE        STATIC     ATOMS    COLORGROUP SYSTEM
6 51 52 53 54 55 56
ATOM$RED        STATIC     ATOMS    COLORGROUP SYSTEM
3 50 34 24
