AV-unprocessed.smi:244|AV-procd|sdf|1873|dock7
  -GOLD-   2262020513D 1   1.00000     0.00000
 Structure written by MMmdl.
 56 60  0  0  0  0  0  0  0  0  1 V2000
  151.0350  144.4227  159.5928 C   0  0  0  0  0  0  0  0  0  0  0  0
  151.7517  143.2311  160.0233 N   0  0  0  0  0  0  0  0  0  0  0  0
  152.2165  143.4119  161.3980 C   0  0  0  0  0  0  0  0  0  0  0  0
  152.8863  142.1210  161.8929 C   0  0  0  0  0  0  0  0  0  0  0  0
  154.0786  141.7549  160.9901 C   0  0  1  0  0  0  0  0  0  0  0  0
  154.7302  140.5465  161.3890 O   0  0  0  0  0  0  0  0  0  0  0  0
  153.9871  139.3577  161.1320 C   0  0  0  0  0  0  0  0  0  0  0  0
  153.6404  139.2709  159.6396 C   0  0  0  0  0  0  0  0  0  0  0  0
  152.9195  140.4664  159.2224 N   0  0  0  0  0  0  0  0  0  0  0  0
  152.4193  140.3504  157.9734 C   0  0  0  0  0  0  0  0  0  0  0  0
  153.0590  139.5035  157.1303 N   0  0  0  0  0  0  0  0  0  0  0  0
  152.6038  139.3314  155.8857 C   0  0  0  0  0  0  0  0  0  0  0  0
  151.5512  139.9014  155.2950 N   0  0  0  0  0  0  0  0  0  0  0  0
  150.9114  140.7595  156.1408 C   0  0  0  0  0  0  0  0  0  0  0  0
  151.2739  141.0412  157.4876 C   0  0  0  0  0  0  0  0  0  0  0  0
  150.3884  141.9618  158.0350 N   0  0  0  0  0  0  0  0  0  0  0  0
  149.5540  142.2155  157.0638 C   0  0  0  0  0  0  0  0  0  0  0  0
  149.7974  141.5405  155.8888 N   0  0  0  0  0  0  0  0  0  0  0  0
  149.0325  141.6358  154.6552 C   0  0  0  0  0  0  0  0  0  0  0  0
  148.5387  140.2697  154.1180 C   0  0  0  0  0  0  0  0  0  0  0  0
  149.6498  139.6084  153.5367 O   0  0  0  0  0  0  0  0  0  0  0  0
  147.9579  139.3679  155.2298 C   0  0  0  0  0  0  0  0  0  0  0  0
  147.2782  138.1092  154.6623 C   0  0  0  0  0  0  0  0  0  0  0  0
  146.2856  138.4739  153.7110 O   0  0  0  0  0  0  0  0  0  0  0  0
  146.8269  139.1509  152.5835 C   0  0  0  0  0  0  0  0  0  0  0  0
  147.4711  140.4770  153.0252 C   0  0  0  0  0  0  0  0  0  0  0  0
  153.6553  141.7029  159.5049 C   0  0  1  0  0  0  0  0  0  0  0  0
  152.8808  142.9915  159.1212 C   0  0  0  0  0  0  0  0  0  0  0  0
  150.1736  144.6037  160.2365 H   0  0  0  0  0  0  0  0  0  0  0  0
  150.6660  144.2997  158.5738 H   0  0  0  0  0  0  0  0  0  0  0  0
  151.6758  145.3050  159.6214 H   0  0  0  0  0  0  0  0  0  0  0  0
  152.9112  144.2514  161.4568 H   0  0  0  0  0  0  0  0  0  0  0  0
  151.3691  143.6496  162.0422 H   0  0  0  0  0  0  0  0  0  0  0  0
  153.2249  142.2481  162.9213 H   0  0  0  0  0  0  0  0  0  0  0  0
  152.1419  141.3251  161.9068 H   0  0  0  0  0  0  0  0  0  0  0  0
  154.8203  142.5472  161.0985 H   0  0  0  0  0  0  0  0  0  0  0  0
  154.5924  138.4994  161.4234 H   0  0  0  0  0  0  0  0  0  0  0  0
  153.0864  139.3213  161.7441 H   0  0  0  0  0  0  0  0  0  0  0  0
  154.5553  139.1671  159.0548 H   0  0  0  0  0  0  0  0  0  0  0  0
  153.0348  138.3833  159.4504 H   0  0  0  0  0  0  0  0  0  0  0  0
  153.1633  138.6371  155.2762 H   0  0  0  0  0  0  0  0  0  0  0  0
  148.7348  142.9112  157.1754 H   0  0  0  0  0  0  0  0  0  0  0  0
  148.1828  142.2955  154.8355 H   0  0  0  0  0  0  0  0  0  0  0  0
  149.6505  142.1369  153.9087 H   0  0  0  0  0  0  0  0  0  0  0  0
  149.4941  139.5192  152.6089 H   0  0  0  0  0  0  0  0  0  0  0  0
  148.7325  139.0763  155.9401 H   0  0  0  0  0  0  0  0  0  0  0  0
  147.2176  139.9323  155.7984 H   0  0  0  0  0  0  0  0  0  0  0  0
  148.0085  137.4401  154.2049 H   0  0  0  0  0  0  0  0  0  0  0  0
  146.8014  137.5502  155.4677 H   0  0  0  0  0  0  0  0  0  0  0  0
  147.5488  138.5117  152.0727 H   0  0  0  0  0  0  0  0  0  0  0  0
  146.0228  139.3472  151.8741 H   0  0  0  0  0  0  0  0  0  0  0  0
  146.6852  141.1293  153.4084 H   0  0  0  0  0  0  0  0  0  0  0  0
  147.8996  140.9906  152.1635 H   0  0  0  0  0  0  0  0  0  0  0  0
  154.5665  141.6731  158.9064 H   0  0  0  0  0  0  0  0  0  0  0  0
  152.5314  142.9441  158.0894 H   0  0  0  0  0  0  0  0  0  0  0  0
  153.5596  143.8443  159.1705 H   0  0  0  0  0  0  0  0  0  0  0  0
  1  2  1  0  0  0  0
  1 29  1  0  0  0  0
  1 30  1  0  0  0  0
  1 31  1  0  0  0  0
  2 28  1  0  0  0  0
  2  3  1  0  0  0  0
  3  4  1  0  0  0  0
  3 32  1  0  0  0  0
  3 33  1  0  0  0  0
  4  5  1  0  0  0  0
  4 34  1  0  0  0  0
  4 35  1  0  0  0  0
  5 27  1  0  0  0  0
  5  6  1  0  0  0  0
  5 36  1  0  0  0  0
  6  7  1  0  0  0  0
  7  8  1  0  0  0  0
  7 37  1  0  0  0  0
  7 38  1  0  0  0  0
  8  9  1  0  0  0  0
  8 39  1  0  0  0  0
  8 40  1  0  0  0  0
  9 10  1  0  0  0  0
  9 27  1  0  0  0  0
 10 15  1  0  0  0  0
 10 11  2  0  0  0  0
 11 12  1  0  0  0  0
 12 13  2  0  0  0  0
 12 41  1  0  0  0  0
 13 14  1  0  0  0  0
 14 18  1  0  0  0  0
 14 15  2  0  0  0  0
 15 16  1  0  0  0  0
 16 17  2  0  0  0  0
 17 18  1  0  0  0  0
 17 42  1  0  0  0  0
 18 19  1  0  0  0  0
 19 20  1  0  0  0  0
 19 43  1  0  0  0  0
 19 44  1  0  0  0  0
 20 26  1  0  0  0  0
 20 21  1  0  0  0  0
 20 22  1  0  0  0  0
 21 45  1  0  0  0  0
 22 23  1  0  0  0  0
 22 46  1  0  0  0  0
 22 47  1  0  0  0  0
 23 24  1  0  0  0  0
 23 48  1  0  0  0  0
 23 49  1  0  0  0  0
 24 25  1  0  0  0  0
 25 26  1  0  0  0  0
 25 50  1  0  0  0  0
 25 51  1  0  0  0  0
 26 52  1  0  0  0  0
 26 53  1  0  0  0  0
 27 28  1  0  0  0  0
 27 54  1  0  0  0  0
 28 55  1  0  0  0  0
 28 56  1  0  0  0  0
M  END
> <s_m_source_file>
AV-unprocessed.smi

> <i_m_source_file_index>
244

> <i_lp_mmshare_version>
43012

> <i_f3d_flags>
0

> <s_epik_input>
W0NIMl0xW0NIMl1OKFtDSDNdKVtDSDJdW0NAQEhdKFtDQEhdMTIpTihbQ0gyXVtDSDJdTzIpYyhuW2NIXW4zKWMoYzM0KW5bY0hdbjRbQ0gyXUM1KFtPSF0pW0NIMl1bQ0gyXU9bQ0gyXVtDSDJdNQ==

> <s_epik_cmdline>
J2VwaWtfcHl0aG9uJywgJy1waCcsICc3LjAnLCAnLXRuJywgJzgnLCAnLW1hJywgJzIwMCcsICctbWV0YWxfYmluZGluZycsICctaW1hZScsICc8aW5maWxlLm1hZT4nLCAnLW9tYWUnLCAnPG91dGZpbGUubWFlPic=

> <r_lp_tautomer_probability>
1

> <r_epik_Ionization_Penalty>
2.27765

> <r_epik_Ionization_Penalty_Charging>
0

> <r_epik_Ionization_Penalty_Neutral>
2.27765

> <r_epik_State_Penalty>
2.4114

> <r_epik_Charging_Adjusted_Penalty>
2.4114

> <i_epik_Tot_Q>
0

> <i_epik_Tot_abs_Q>
0

> <r_epik_Metal_State_Penalty>
2.39769

> <b_epik_Metal_Only>
0

> <s_lp_Force_Field>
OPLS_2005

> <r_lp_Energy>
50.0311

> <b_lp_Chiralities_Consistent>
1

> <s_lp_Variant>
AV-unprocessed.smi:244-10

> <Gold.Version>
5.8.1

> <Gold.Id.Protein>
6NUR|6NUR_protein|mol2

> <Gold.PLP.Fitness>
58.1940

> <Gold.PLP.PLP>
-48.6287

> <Gold.PLP.part.hbond>
-3.2790

> <Gold.PLP.part.metal>
0.0000

> <Gold.PLP.part.buried>
0.5885

> <Gold.PLP.part.nonpolar>
-44.8296

> <Gold.PLP.part.repulsive>
0.2882

> <Gold.PLP.ligand.clash>
0.0000

> <Gold.PLP.ligand.torsion>
0.7500

> <Gold.PLP.Chemscore.Hbond>
2.9913

> <Gold.PLP.Chemscore.CHOScore>
0.6515

> <Gold.PLP.Chemscore.Metal>
0.0000

> <Gold.Chemscore.Hbonds>
donor molecule, donor type, donor heavy atom, donor atom, acceptor molecule, acceptor atom, score
      L1  H    21    45       P1  7957  1.00
      P1  H  7989  7998       L1    13  0.99
      P1  H  7997  8010       L1    11  1.00
      L1  C    17    42       P1  8028  0.66

> <Gold.PLP.Chemscore.Internal.Correction>
0.1370

> <Gold.Rescore>
     Score         DG    S(hbond)    S(metal)    S(lipo)     H(rot)  DE(clash)    DE(int)     intcor
     18.56     -21.39       2.12        0.00     120.58       2.06       1.20       1.63       ----

> <Gold.Chemscore.Fitness>
18.5619

> <Gold.Chemscore.DG>
-21.3885

> <Gold.Chemscore.ZeroCoef>
-5.4800

> <Gold.Chemscore.Hbond>
2.1189

> <Gold.Chemscore.Metal>
0.0000

> <Gold.Chemscore.Lipo>
120.5806

> <Gold.Chemscore.Internal_Hbond>
0.0000

> <Gold.Chemscore.DEClash>
1.1981

> <Gold.Chemscore.DEInternal>
1.6284

> <Gold.Chemscore.Rot>
2.0611

> <Gold.Chemscore.Internal.Correction>
   9.000000E+99

> <Gold.Chemscore.Hbonds>
donor molecule, donor type, donor heavy atom, donor atom, acceptor molecule, acceptor atom, score
      L1  H    21    45       P1  7957  0.91
      P1  H  7989  7998       L1    13  0.49
      P1  H  7997  8010       L1    11  0.25

> <Gold.Chemscore.Hbond.Weighted>
-7.0771

> <Gold.Chemscore.Metal.Weighted>
-0.0000

> <Gold.Chemscore.Lipo.Weighted>
-14.1079

> <Gold.Chemscore.Internal_Hbond.Weighted>
0.0000

> <Gold.Chemscore.DEClash.Weighted>
1.1981

> <Gold.Chemscore.DEInternal.Weighted>
1.6284

> <Gold.Chemscore.Rot.Weighted>
5.2765

> <Gold.Chemscore.Internal.Correction.Weighted>
   9.000000E+99

> <Gold.Protein.RotatedTorsions>
[ 6907 6896 6895 6894 ] final  130.68 input  -60.11 | X-H torsion
[ 7974 7965 7964 7962 ] final  -30.12 input  175.53 | X-H torsion
[ 8008 7997 7996 7995 ] final   42.48 input   59.86 | X-H torsion
[ 10167 10162 10161 10158 ] final -103.70 input  -65.29 | X-H torsion
[ 10718 10713 10712 10709 ] final  120.21 input   66.30 | X-H torsion
[ 10763 10752 10751 10750 ] final   97.05 input  -60.55 | X-H torsion
[ 11005 11000 10999 10996 ] final  -32.44 input  -57.11 | X-H torsion

> <Gold.Protein.ActiveResidues>
 VAL166  LYS551  ARG553  GLY616  TRP617  ASP618  TYR619  PRO620  LYS621  CYS622 
 ASP623  PHE694  ASN695  SER759  ASP760  ASP761  ALA762  ILE779  LEU786  VAL792 
 PHE793  MET794  SER795  GLU796  ALA797  LYS798  CYS799  TRP800  GLU811  SER814 

> <Gold.Protein.RotatedAtoms>
  152.3502  133.6171  159.5939 H   0  0  0  0  0  0  0  0  0  0  0  0  # atno 6907 bound_to 6896
  150.7533  133.9585  159.3517 H   0  0  0  0  0  0  0  0  0  0  0  0  # atno 6908 bound_to 6896
  151.7438  135.0849  160.0371 H   0  0  0  0  0  0  0  0  0  0  0  0  # atno 6909 bound_to 6896
  146.1166  140.5500  142.8754 H   0  0  0  0  0  0  0  0  0  0  0  0  # atno 7974 bound_to 7965
  155.2869  140.3376  155.4255 H   0  0  0  0  0  0  0  0  0  0  0  0  # atno 8008 bound_to 7997
  156.2064  140.1752  156.7831 H   0  0  0  0  0  0  0  0  0  0  0  0  # atno 8009 bound_to 7997
  154.5626  140.0684  156.8827 H   0  0  0  0  0  0  0  0  0  0  0  0  # atno 8010 bound_to 7997
  140.2171  143.3703  152.1001 H   0  0  0  0  0  0  0  0  0  0  0  0  # atno 10167 bound_to 10162
  157.5907  131.1064  150.8004 H   0  0  0  0  0  0  0  0  0  0  0  0  # atno 10718 bound_to 10713
  153.2723  135.4197  155.0999 H   0  0  0  0  0  0  0  0  0  0  0  0  # atno 10763 bound_to 10752
  154.8460  135.3475  154.6227 H   0  0  0  0  0  0  0  0  0  0  0  0  # atno 10764 bound_to 10752
  153.6647  135.7046  153.5223 H   0  0  0  0  0  0  0  0  0  0  0  0  # atno 10765 bound_to 10752
  140.9553  133.7197  156.1283 H   0  0  0  0  0  0  0  0  0  0  0  0  # atno 11005 bound_to 11000
  144.7558  140.5305  143.6769 LP  0  0  0  0  0  0  0  0  0  0  0  0  # atno 17320 bound_to 7965
  145.5554  139.1478  143.3371 LP  0  0  0  0  0  0  0  0  0  0  0  0  # atno 17321 bound_to 7965
  139.5158  144.6968  151.5608 LP  0  0  0  0  0  0  0  0  0  0  0  0  # atno 17342 bound_to 10162
  140.6282  143.9128  150.6582 LP  0  0  0  0  0  0  0  0  0  0  0  0  # atno 17343 bound_to 10162
  156.8427  130.5053  149.5319 LP  0  0  0  0  0  0  0  0  0  0  0  0  # atno 17370 bound_to 10713
  156.0961  130.5933  150.9816 LP  0  0  0  0  0  0  0  0  0  0  0  0  # atno 17371 bound_to 10713
  140.7545  134.4008  157.5536 LP  0  0  0  0  0  0  0  0  0  0  0  0  # atno 17394 bound_to 11000
  139.8860  134.8921  156.2610 LP  0  0  0  0  0  0  0  0  0  0  0  0  # atno 17395 bound_to 11000

$$$$
