AV-unprocessed.smi:3233|AV-procd|sdf|12347|dock3
  -GOLD-   2272018213D 1   1.00000     0.00000
 Structure written by MMmdl.
 36 37  0  0  0  0  0  0  0  0  1 V2000
  152.2270  145.0487  159.3143 C   0  0  0  0  0  0  0  0  0  0  0  0
  152.2980  143.5861  159.2673 N   0  0  0  0  0  0  0  0  0  0  0  0
  152.9195  142.9306  160.3435 C   0  0  0  0  0  0  0  0  0  0  0  0
  153.0268  141.5955  160.3860 C   0  0  0  0  0  0  0  0  0  0  0  0
  152.4847  140.8277  159.2908 C   0  0  0  0  0  0  0  0  0  0  0  0
  151.8847  141.4401  158.2387 C   0  0  0  0  0  0  0  0  0  0  0  0
  151.3231  140.7764  157.1333 N   0  0  0  0  0  0  0  0  0  0  0  0
  151.8530  139.8381  156.3226 C   0  0  0  0  0  0  0  0  0  0  0  0
  152.9927  139.3830  156.4053 O   0  0  0  0  0  0  0  0  0  0  0  0
  150.9259  139.3187  155.2243 C   0  0  0  0  0  0  0  0  0  0  0  0
  150.2693  140.4187  154.6089 O   0  0  0  0  0  0  0  0  0  0  0  0
  148.8637  140.4312  154.8104 C   0  0  0  0  0  0  0  0  0  0  0  0
  148.1285  139.3404  154.0248 C   0  0  0  0  0  0  0  0  0  0  0  0
  146.7075  139.8808  153.8161 C   0  0  0  0  0  0  0  0  0  0  0  0
  146.7774  141.3958  154.0654 C   0  0  0  0  0  0  0  0  0  0  0  0
  148.2593  141.7233  154.2653 C   0  0  0  0  0  0  0  0  0  0  0  0
  151.7657  142.9114  158.2050 C   0  0  0  0  0  0  0  0  0  0  0  0
  151.2191  143.5132  157.2772 O   0  0  0  0  0  0  0  0  0  0  0  0
  152.7291  145.4679  160.1868 H   0  0  0  0  0  0  0  0  0  0  0  0
  151.1877  145.3788  159.3461 H   0  0  0  0  0  0  0  0  0  0  0  0
  152.6959  145.4860  158.4316 H   0  0  0  0  0  0  0  0  0  0  0  0
  153.2986  143.5740  161.1240 H   0  0  0  0  0  0  0  0  0  0  0  0
  153.5072  141.1052  161.2200 H   0  0  0  0  0  0  0  0  0  0  0  0
  152.5702  139.7561  159.3584 H   0  0  0  0  0  0  0  0  0  0  0  0
  150.3860  141.0745  156.9017 H   0  0  0  0  0  0  0  0  0  0  0  0
  151.5069  138.7571  154.4915 H   0  0  0  0  0  0  0  0  0  0  0  0
  150.1986  138.6376  155.6682 H   0  0  0  0  0  0  0  0  0  0  0  0
  148.6261  140.3536  155.8732 H   0  0  0  0  0  0  0  0  0  0  0  0
  148.6077  139.2033  153.0543 H   0  0  0  0  0  0  0  0  0  0  0  0
  148.1365  138.3766  154.5352 H   0  0  0  0  0  0  0  0  0  0  0  0
  146.3499  139.6551  152.8109 H   0  0  0  0  0  0  0  0  0  0  0  0
  146.0136  139.4187  154.5191 H   0  0  0  0  0  0  0  0  0  0  0  0
  146.3418  141.9702  153.2473 H   0  0  0  0  0  0  0  0  0  0  0  0
  146.2206  141.6425  154.9702 H   0  0  0  0  0  0  0  0  0  0  0  0
  148.4178  142.5746  154.9279 H   0  0  0  0  0  0  0  0  0  0  0  0
  148.7114  141.9641  153.3018 H   0  0  0  0  0  0  0  0  0  0  0  0
  1  2  1  0  0  0  0
  1 19  1  0  0  0  0
  1 20  1  0  0  0  0
  1 21  1  0  0  0  0
  2 17  1  0  0  0  0
  2  3  1  0  0  0  0
  3  4  2  0  0  0  0
  3 22  1  0  0  0  0
  4  5  1  0  0  0  0
  4 23  1  0  0  0  0
  5  6  2  0  0  0  0
  5 24  1  0  0  0  0
  6  7  1  0  0  0  0
  6 17  1  0  0  0  0
  7  8  1  0  0  0  0
  7 25  1  0  0  0  0
  8  9  2  0  0  0  0
  8 10  1  0  0  0  0
 10 11  1  0  0  0  0
 10 26  1  0  0  0  0
 10 27  1  0  0  0  0
 11 12  1  0  0  0  0
 12 16  1  0  0  0  0
 12 13  1  0  0  0  0
 12 28  1  0  0  0  0
 13 14  1  0  0  0  0
 13 29  1  0  0  0  0
 13 30  1  0  0  0  0
 14 15  1  0  0  0  0
 14 31  1  0  0  0  0
 14 32  1  0  0  0  0
 15 16  1  0  0  0  0
 15 33  1  0  0  0  0
 15 34  1  0  0  0  0
 16 35  1  0  0  0  0
 16 36  1  0  0  0  0
 17 18  2  0  0  0  0
M  END
> <s_m_source_file>
AV-unprocessed.smi

> <i_m_source_file_index>
3233

> <i_lp_mmshare_version>
43012

> <i_f3d_flags>
0

> <s_epik_input>
W0NIM11uMVtjSF1bY0hdW2NIXWMoYzE9TylbTkhdQyg9TylbQ0gyXU9bQ0hdMltDSDJdW0NIMl1bQ0gyXVtDSDJdMg==

> <s_epik_cmdline>
J2VwaWtfcHl0aG9uJywgJy1waCcsICc3LjAnLCAnLXRuJywgJzgnLCAnLW1hJywgJzIwMCcsICctbWV0YWxfYmluZGluZycsICctaW1hZScsICc8aW5maWxlLm1hZT4nLCAnLW9tYWUnLCAnPG91dGZpbGUubWFlPic=

> <r_lp_tautomer_probability>
1

> <r_epik_Ionization_Penalty>
8.96518e-07

> <r_epik_Ionization_Penalty_Charging>
8.5061e-07

> <r_epik_Ionization_Penalty_Neutral>
4.59088e-08

> <r_epik_State_Penalty>
-0

> <r_epik_Charging_Adjusted_Penalty>
8.5061e-07

> <i_epik_Tot_Q>
0

> <i_epik_Tot_abs_Q>
0

> <r_epik_Metal_State_Penalty>
-0

> <b_epik_Metal_Only>
0

> <s_lp_Force_Field>
OPLS_2005

> <r_lp_Energy>
37.0761

> <b_lp_Chiralities_Consistent>
1

> <s_lp_Variant>
AV-unprocessed.smi:3233-1

> <Gold.Version>
5.8.1

> <Gold.Id.Protein>
6NUR|6NUR_protein|mol2

> <Gold.PLP.Fitness>
46.0512

> <Gold.PLP.PLP>
-42.1227

> <Gold.PLP.part.hbond>
-1.9512

> <Gold.PLP.part.metal>
0.0000

> <Gold.PLP.part.buried>
-3.9112

> <Gold.PLP.part.nonpolar>
-37.0526

> <Gold.PLP.part.repulsive>
0.8451

> <Gold.PLP.ligand.clash>
0.0000

> <Gold.PLP.ligand.torsion>
1.0530

> <Gold.PLP.Chemscore.Hbond>
2.0000

> <Gold.PLP.Chemscore.CHOScore>
0.0000

> <Gold.PLP.Chemscore.Metal>
0.0000

> <Gold.Chemscore.Hbonds>
donor molecule, donor type, donor heavy atom, donor atom, acceptor molecule, acceptor atom, score
      P1  H  7989  7998       L1    11  0.84
      P1  H  7997  8009       L1     9  1.00

> <Gold.PLP.Chemscore.Internal.Correction>
0.0345

> <Gold.Rescore>
     Score         DG    S(hbond)    S(metal)    S(lipo)     H(rot)  DE(clash)    DE(int)     intcor
     17.49     -19.03       1.98        0.00      90.14       1.40       0.53       1.01       ----

> <Gold.Chemscore.Fitness>
17.4879

> <Gold.Chemscore.DG>
-19.0333

> <Gold.Chemscore.ZeroCoef>
-5.4800

> <Gold.Chemscore.Hbond>
1.9754

> <Gold.Chemscore.Metal>
0.0000

> <Gold.Chemscore.Lipo>
90.1391

> <Gold.Chemscore.Internal_Hbond>
0.0000

> <Gold.Chemscore.DEClash>
0.5327

> <Gold.Chemscore.DEInternal>
1.0128

> <Gold.Chemscore.Rot>
1.4027

> <Gold.Chemscore.Internal.Correction>
   9.000000E+99

> <Gold.Chemscore.Hbonds>
donor molecule, donor type, donor heavy atom, donor atom, acceptor molecule, acceptor atom, score
      P1  H  7989  7998       L1    11  0.14
      P1  H  7997  8009       L1     9  0.96

> <Gold.Chemscore.Hbond.Weighted>
-6.5980

> <Gold.Chemscore.Metal.Weighted>
-0.0000

> <Gold.Chemscore.Lipo.Weighted>
-10.5463

> <Gold.Chemscore.Internal_Hbond.Weighted>
0.0000

> <Gold.Chemscore.DEClash.Weighted>
0.5327

> <Gold.Chemscore.DEInternal.Weighted>
1.0128

> <Gold.Chemscore.Rot.Weighted>
3.5909

> <Gold.Chemscore.Internal.Correction.Weighted>
   9.000000E+99

> <Gold.Protein.RotatedTorsions>
[ 6907 6896 6895 6894 ] final -142.45 input  -60.11 | X-H torsion
[ 7974 7965 7964 7962 ] final  107.26 input  175.53 | X-H torsion
[ 8008 7997 7996 7995 ] final  176.91 input   59.86 | X-H torsion
[ 10167 10162 10161 10158 ] final  -12.82 input  -65.29 | X-H torsion
[ 10718 10713 10712 10709 ] final  160.83 input   66.30 | X-H torsion
[ 10763 10752 10751 10750 ] final   -9.29 input  -60.55 | X-H torsion
[ 11005 11000 10999 10996 ] final -134.18 input  -57.11 | X-H torsion

> <Gold.Protein.ActiveResidues>
 VAL166  LYS551  ARG553  GLY616  TRP617  ASP618  TYR619  PRO620  LYS621  CYS622 
 ASP623  PHE694  ASN695  SER759  ASP760  ASP761  ALA762  ILE779  LEU786  VAL792 
 PHE793  MET794  SER795  GLU796  ALA797  LYS798  CYS799  TRP800  GLU811  SER814 

> <Gold.Protein.RotatedAtoms>
  151.0872  133.5344  159.2616 H   0  0  0  0  0  0  0  0  0  0  0  0  # atno 6907 bound_to 6896
  151.2225  135.0523  159.8965 H   0  0  0  0  0  0  0  0  0  0  0  0  # atno 6908 bound_to 6896
  152.5430  134.0672  159.8232 H   0  0  0  0  0  0  0  0  0  0  0  0  # atno 6909 bound_to 6896
  145.2959  139.2585  143.3840 H   0  0  0  0  0  0  0  0  0  0  0  0  # atno 7974 bound_to 7965
  156.0713  140.1371  156.9824 H   0  0  0  0  0  0  0  0  0  0  0  0  # atno 8008 bound_to 7997
  154.4533  140.0971  156.6736 H   0  0  0  0  0  0  0  0  0  0  0  0  # atno 8009 bound_to 7997
  155.5223  140.3456  155.4411 H   0  0  0  0  0  0  0  0  0  0  0  0  # atno 8010 bound_to 7997
  140.7169  143.5492  150.9320 H   0  0  0  0  0  0  0  0  0  0  0  0  # atno 10167 bound_to 10162
  157.1450  131.0550  151.2308 H   0  0  0  0  0  0  0  0  0  0  0  0  # atno 10718 bound_to 10713
  153.4527  135.7015  153.6099 H   0  0  0  0  0  0  0  0  0  0  0  0  # atno 10763 bound_to 10752
  153.4427  135.3776  155.2237 H   0  0  0  0  0  0  0  0  0  0  0  0  # atno 10764 bound_to 10752
  154.8728  135.3978  154.3941 H   0  0  0  0  0  0  0  0  0  0  0  0  # atno 10765 bound_to 10752
  140.9013  134.1686  157.4458 H   0  0  0  0  0  0  0  0  0  0  0  0  # atno 11005 bound_to 11000
  146.3169  140.3461  142.8652 LP  0  0  0  0  0  0  0  0  0  0  0  0  # atno 17320 bound_to 7965
  144.9134  140.7784  143.5793 LP  0  0  0  0  0  0  0  0  0  0  0  0  # atno 17321 bound_to 7965
  139.9216  143.6599  152.3095 LP  0  0  0  0  0  0  0  0  0  0  0  0  # atno 17342 bound_to 10162
  139.7018  144.7634  151.1260 LP  0  0  0  0  0  0  0  0  0  0  0  0  # atno 17343 bound_to 10162
  157.4273  130.7470  149.6961 LP  0  0  0  0  0  0  0  0  0  0  0  0  # atno 17370 bound_to 10713
  155.9781  130.4055  150.3669 LP  0  0  0  0  0  0  0  0  0  0  0  0  # atno 17371 bound_to 10713
  139.8743  134.9899  156.5479 LP  0  0  0  0  0  0  0  0  0  0  0  0  # atno 17394 bound_to 11000
  140.8226  133.8342  155.8910 LP  0  0  0  0  0  0  0  0  0  0  0  0  # atno 17395 bound_to 11000

$$$$
