#       Name:                AV-unprocessed.smi:1976
#       Creating user name   scv26
#       Creation time:       Fri Mar 27 10:16:40 2020


#       File generated by GOLD software.
#

@<TRIPOS>MOLECULE
AV-unprocessed.smi:1976
    49    51     1
SMALL
NO_CHARGES


@<TRIPOS>ATOM
      1 ****         0.3005   1.1789   1.4704 O.2            1 S1                 0.0000
      2 ****         0.9887   0.1597   1.4043 C.2            1 S1                 0.0000
      3 ****         2.5211   0.2432   1.3739 C.3            1 S1                 0.0000
      4 ****         3.0155   1.5138   0.8185 N.am           1 S1                 0.0000
      5 ****         3.1840   1.5694  -0.5788 C.2            1 S1                 0.0000
      6 ****         3.6062   2.6734  -1.2236 C.2            1 S1                 0.0000
      7 ****         3.8168   2.6825  -2.7297 C.3            1 S1                 0.0000
      8 ****         4.6882   3.6247  -3.0908 F              1 S1                 0.0000
      9 ****         4.2734   1.5039  -3.1548 F              1 S1                 0.0000
     10 ****         2.6612   2.9246  -3.3470 F              1 S1                 0.0000
     11 ****         3.9219   3.8219  -0.3971 C.2            1 S1                 0.0000
     12 ****         3.7692   3.7847   0.9412 C.2            1 S1                 0.0000
     13 ****         3.2809   2.5849   1.6249 C.2            1 S1                 0.0000
     14 ****         3.1197   2.5458   2.8447 O.2            1 S1                 0.0000
     15 ****         0.4658  -1.0753   1.3624 N.am           1 S1                 0.0000
     16 ****        -0.9609  -1.3854   1.3579 C.3            1 S1                 0.0000
     17 ****        -1.2741  -2.7719   1.9083 C.3            1 S1                 0.0000
     18 ****        -2.6762  -3.0314   1.3533 C.3            1 S1                 0.0000
     19 ****        -2.7269  -2.3558   0.0358 N.4            1 S1                 1.0000
     20 ****        -4.0390  -1.7466  -0.2925 C.3            1 S1                 0.0000
     21 ****        -4.0078  -1.0953  -1.6882 C.3            1 S1                 0.0000
     22 ****        -2.7792  -0.1886  -1.9081 C.3            1 S1                 0.0000
     23 ****        -1.9190  -0.0542  -0.6430 C.3            1 S1                 0.0000
     24 ****        -1.5549  -1.4397  -0.0607 C.3            1 S1                 0.0000
     25 ****         2.8974   0.0794   2.3850 H              1 S1                 0.0000
     26 ****         2.9151  -0.5886   0.7875 H              1 S1                 0.0000
     27 ****         2.9397   0.6529  -1.0965 H              1 S1                 0.0000
     28 ****         4.2828   4.7300  -0.8570 H              1 S1                 0.0000
     29 ****         4.0112   4.6603   1.5257 H              1 S1                 0.0000
     30 ****         1.1042  -1.8568   1.3225 H              1 S1                 0.0000
     31 ****        -1.5070  -0.6561   1.9605 H              1 S1                 0.0000
     32 ****        -0.5736  -3.5088   1.5117 H              1 S1                 0.0000
     33 ****        -1.2351  -2.8180   2.9972 H              1 S1                 0.0000
     34 ****        -2.8998  -4.0947   1.2639 H              1 S1                 0.0000
     35 ****        -3.4145  -2.5920   2.0263 H              1 S1                 0.0000
     36 ****        -4.8158  -2.5112  -0.2559 H              1 S1                 0.0000
     37 ****        -4.2959  -1.0023   0.4631 H              1 S1                 0.0000
     38 ****        -4.0146  -1.8745  -2.4512 H              1 S1                 0.0000
     39 ****        -4.9231  -0.5220  -1.8384 H              1 S1                 0.0000
     40 ****        -2.1671  -0.6041  -2.7096 H              1 S1                 0.0000
     41 ****        -3.0945   0.7974  -2.2508 H              1 S1                 0.0000
     42 ****        -1.0131   0.5067  -0.8739 H              1 S1                 0.0000
     43 ****        -2.4587   0.5361   0.0987 H              1 S1                 0.0000
     44 ****        -0.8464  -1.9299  -0.7306 H              1 S1                 0.0000
     45 ****        -2.5673  -3.0699  -0.6604 H              1 S1                 0.0000
     46 ****         0.7391   2.0769   1.5051 LP             1 S1                 0.0000
     47 ****        -0.6968   1.1084   1.4894 LP             1 S1                 0.0000
     48 ****         2.7836   1.7096   3.2781 LP             1 S1                 0.0000
     49 ****         3.3249   3.3502   3.4022 LP             1 S1                 0.0000
@<TRIPOS>BOND
    1    1    2 2     
    2    2    3 1     
    3    2   15 am    
    4    3    4 1     
    5    3   25 1     
    6    3   26 1     
    7    4   13 am    
    8    4    5 1     
    9    5    6 2     
   10    5   27 1     
   11    6    7 1     
   12    6   11 1     
   13    7    8 1     
   14    7    9 1     
   15    7   10 1     
   16   11   12 2     
   17   11   28 1     
   18   12   13 1     
   19   12   29 1     
   20   13   14 2     
   21   15   16 1     
   22   15   30 1     
   23   16   24 1     
   24   16   17 1     
   25   16   31 1     
   26   17   18 1     
   27   17   32 1     
   28   17   33 1     
   29   18   19 1     
   30   18   34 1     
   31   18   35 1     
   32   19   24 1     
   33   19   20 1     
   34   19   45 1     
   35   20   21 1     
   36   20   36 1     
   37   20   37 1     
   38   21   22 1     
   39   21   38 1     
   40   21   39 1     
   41   22   23 1     
   42   22   40 1     
   43   22   41 1     
   44   23   24 1     
   45   23   42 1     
   46   23   43 1     
   47   24   44 1     
   48    1   46 1     
   49    1   47 1     
   50   14   48 1     
   51   14   49 1     
@<TRIPOS>SUBSTRUCTURE
      1 S1             1
@<TRIPOS>SET
LONE_PAIRS      STATIC     ATOMS    <user>   **** ""
4 46 47 48 49
DONOR_HYDROGENS      STATIC     ATOMS    <user>   **** ""
2 30 45
ATOM$BLUE        STATIC     ATOMS    COLORGROUP SYSTEM
4 46 47 48 49
ATOM$RED        STATIC     ATOMS    COLORGROUP SYSTEM
2 30 45
