AV-unprocessed.smi:1547|AV-procd|sdf|6220|dock3
  -GOLD-   22720 6393D 1   1.00000     0.00000
 Structure written by MMmdl.
 40 41  0  0  0  0  0  0  0  0  2 V2000
  151.5317  141.9490  157.6967 C   0  0  0  0  0  0  0  0  0  0  0  0
  151.2314  140.9355  156.6322 C   0  0  0  0  0  0  0  0  0  0  0  0
  149.9897  140.6952  155.9752 C   0  0  0  0  0  0  0  0  0  0  0  0
  150.2965  139.6766  155.1147 C   0  0  0  0  0  0  0  0  0  0  0  0
  149.4917  139.0381  154.2238 N   0  0  0  0  0  0  0  0  0  0  0  0
  148.3442  139.4688  153.6711 C   0  0  0  0  0  0  0  0  0  0  0  0
  147.7946  140.5447  153.9088 O   0  0  0  0  0  0  0  0  0  0  0  0
  147.8519  138.5694  152.8069 N   0  0  0  0  0  0  0  0  0  0  0  0
  146.6181  138.7370  152.0477 C   0  0  0  0  0  0  0  0  0  0  0  0
  145.6381  137.5743  152.2931 C   0  0  0  0  0  0  0  0  0  0  0  0
  146.2183  136.2680  151.9046 N   0  3  0  0  0  0  0  0  0  0  0  0
  146.1770  135.2224  152.9568 C   0  0  0  0  0  0  0  0  0  0  0  0
  145.7139  133.9254  152.2806 C   0  0  0  0  0  0  0  0  0  0  0  0
  145.8861  134.1891  150.7885 C   0  0  0  0  0  0  0  0  0  0  0  0
  145.6291  135.6883  150.6803 C   0  0  0  0  0  0  0  0  0  0  0  0
  151.6268  139.3535  155.2643 N   0  0  0  0  0  0  0  0  0  0  0  0
  152.4132  138.3457  154.5797 C   0  0  0  0  0  0  0  0  0  0  0  0
  152.2006  140.1337  156.2057 N   0  0  0  0  0  0  0  0  0  0  0  0
  150.6550  142.5572  157.9203 H   0  0  0  0  0  0  0  0  0  0  0  0
  152.3309  142.6219  157.3848 H   0  0  0  0  0  0  0  0  0  0  0  0
  151.8439  141.4648  158.6223 H   0  0  0  0  0  0  0  0  0  0  0  0
  149.0466  141.1988  156.1252 H   0  0  0  0  0  0  0  0  0  0  0  0
  149.8074  138.1222  153.9405 H   0  0  0  0  0  0  0  0  0  0  0  0
  148.3616  137.7083  152.6700 H   0  0  0  0  0  0  0  0  0  0  0  0
  146.1594  139.6792  152.3486 H   0  0  0  0  0  0  0  0  0  0  0  0
  146.8571  138.8339  150.9874 H   0  0  0  0  0  0  0  0  0  0  0  0
  145.3283  137.5341  153.3386 H   0  0  0  0  0  0  0  0  0  0  0  0
  144.7343  137.7435  151.7059 H   0  0  0  0  0  0  0  0  0  0  0  0
  147.1775  135.1101  153.3756 H   0  0  0  0  0  0  0  0  0  0  0  0
  145.5048  135.4849  153.7754 H   0  0  0  0  0  0  0  0  0  0  0  0
  146.2695  133.0507  152.6205 H   0  0  0  0  0  0  0  0  0  0  0  0
  144.6593  133.7545  152.5010 H   0  0  0  0  0  0  0  0  0  0  0  0
  146.9093  133.9629  150.4852 H   0  0  0  0  0  0  0  0  0  0  0  0
  145.2105  133.5964  150.1709 H   0  0  0  0  0  0  0  0  0  0  0  0
  144.5535  135.8737  150.6639 H   0  0  0  0  0  0  0  0  0  0  0  0
  146.0609  136.1251  149.7793 H   0  0  0  0  0  0  0  0  0  0  0  0
  152.2973  138.4589  153.5016 H   0  0  0  0  0  0  0  0  0  0  0  0
  152.0706  137.3535  154.8737 H   0  0  0  0  0  0  0  0  0  0  0  0
  153.4697  138.4455  154.8322 H   0  0  0  0  0  0  0  0  0  0  0  0
  147.1943  136.4220  151.6957 H   0  0  0  0  0  0  0  0  0  0  0  0
  1  2  1  0  0  0  0
  1 19  1  0  0  0  0
  1 20  1  0  0  0  0
  1 21  1  0  0  0  0
  2 18  2  0  0  0  0
  2  3  1  0  0  0  0
  3  4  2  0  0  0  0
  3 22  1  0  0  0  0
  4  5  1  0  0  0  0
  4 16  1  0  0  0  0
  5  6  1  0  0  0  0
  5 23  1  0  0  0  0
  6  7  2  0  0  0  0
  6  8  1  0  0  0  0
  8  9  1  0  0  0  0
  8 24  1  0  0  0  0
  9 10  1  0  0  0  0
  9 25  1  0  0  0  0
  9 26  1  0  0  0  0
 10 11  1  0  0  0  0
 10 27  1  0  0  0  0
 10 28  1  0  0  0  0
 11 15  1  0  0  0  0
 11 12  1  0  0  0  0
 11 40  1  0  0  0  0
 12 13  1  0  0  0  0
 12 29  1  0  0  0  0
 12 30  1  0  0  0  0
 13 14  1  0  0  0  0
 13 31  1  0  0  0  0
 13 32  1  0  0  0  0
 14 15  1  0  0  0  0
 14 33  1  0  0  0  0
 14 34  1  0  0  0  0
 15 35  1  0  0  0  0
 15 36  1  0  0  0  0
 16 17  1  0  0  0  0
 16 18  1  0  0  0  0
 17 37  1  0  0  0  0
 17 38  1  0  0  0  0
 17 39  1  0  0  0  0
M  CHG  1  11   1
M  END
> <s_m_source_file>
AV-unprocessed.smi

> <i_m_source_file_index>
1547

> <i_lp_mmshare_version>
43012

> <i_f3d_flags>
0

> <s_epik_input>
W0NIM11jMVtjSF1jKG4objEpW0NIM10pW05IXUMoPU8pW05IXVtDSDJdW0NIMl1OMltDSDJdW0NIMl1bQ0gyXVtDSDJdMg==

> <s_epik_cmdline>
J2VwaWtfcHl0aG9uJywgJy1waCcsICc3LjAnLCAnLXRuJywgJzgnLCAnLW1hJywgJzIwMCcsICctbWV0YWxfYmluZGluZycsICctaW1hZScsICc8aW5maWxlLm1hZT4nLCAnLW9tYWUnLCAnPG91dGZpbGUubWFlPic=

> <r_lp_tautomer_probability>
1

> <r_epik_Ionization_Penalty>
0.00226577

> <r_epik_Ionization_Penalty_Charging>
0.00218899

> <r_epik_Ionization_Penalty_Neutral>
7.67743e-05

> <r_epik_State_Penalty>
0.00150446

> <r_epik_Charging_Adjusted_Penalty>
0.00369345

> <i_epik_Tot_Q>
1

> <i_epik_Tot_abs_Q>
1

> <r_epik_Metal_State_Penalty>
-0

> <b_epik_Metal_Only>
0

> <s_lp_Force_Field>
OPLS_2005

> <r_lp_Energy>
27.1917

> <b_lp_Chiralities_Consistent>
1

> <s_lp_Variant>
AV-unprocessed.smi:1547-1

> <Gold.Version>
5.8.1

> <Gold.Id.Protein>
6NUR|6NUR_protein|mol2

> <Gold.PLP.Fitness>
43.6471

> <Gold.PLP.PLP>
-33.5637

> <Gold.PLP.part.hbond>
-4.5083

> <Gold.PLP.part.metal>
0.0000

> <Gold.PLP.part.buried>
-0.4459

> <Gold.PLP.part.nonpolar>
-28.2543

> <Gold.PLP.part.repulsive>
0.3139

> <Gold.PLP.ligand.clash>
0.0000

> <Gold.PLP.ligand.torsion>
0.8194

> <Gold.PLP.Chemscore.Hbond>
3.8938

> <Gold.PLP.Chemscore.CHOScore>
0.0000

> <Gold.PLP.Chemscore.Metal>
0.0000

> <Gold.Chemscore.Hbonds>
donor molecule, donor type, donor heavy atom, donor atom, acceptor molecule, acceptor atom, score
      L1  H     8    24       P1  7948  1.00
      L1  H    11    40       P1  7948  2.00
      P1  H  7997  8009       L1    18  0.73

> <Gold.PLP.Chemscore.Internal.Correction>
0.0408

> <Gold.Rescore>
     Score         DG    S(hbond)    S(metal)    S(lipo)     H(rot)  DE(clash)    DE(int)     intcor
     16.84     -18.67       2.96        0.00      61.41       1.52       0.05       1.78       ----

> <Gold.Chemscore.Fitness>
16.8444

> <Gold.Chemscore.DG>
-18.6728

> <Gold.Chemscore.ZeroCoef>
-5.4800

> <Gold.Chemscore.Hbond>
2.9608

> <Gold.Chemscore.Metal>
0.0000

> <Gold.Chemscore.Lipo>
61.4080

> <Gold.Chemscore.Internal_Hbond>
0.0000

> <Gold.Chemscore.DEClash>
0.0497

> <Gold.Chemscore.DEInternal>
1.7787

> <Gold.Chemscore.Rot>
1.5160

> <Gold.Chemscore.Internal.Correction>
   9.000000E+99

> <Gold.Chemscore.Hbonds>
donor molecule, donor type, donor heavy atom, donor atom, acceptor molecule, acceptor atom, score
      L1  H     8    24       P1  7948  0.99
      L1  H    11    40       P1  7948  0.99
      P1  H  7997  8009       L1    18  0.66

> <Gold.Chemscore.Hbond.Weighted>
-9.8890

> <Gold.Chemscore.Metal.Weighted>
-0.0000

> <Gold.Chemscore.Lipo.Weighted>
-7.1847

> <Gold.Chemscore.Internal_Hbond.Weighted>
0.0000

> <Gold.Chemscore.DEClash.Weighted>
0.0497

> <Gold.Chemscore.DEInternal.Weighted>
1.7787

> <Gold.Chemscore.Rot.Weighted>
3.8809

> <Gold.Chemscore.Internal.Correction.Weighted>
   9.000000E+99

> <Gold.Protein.RotatedTorsions>
[ 6907 6896 6895 6894 ] final  -67.30 input  -60.11 | X-H torsion
[ 7974 7965 7964 7962 ] final  -99.36 input  175.53 | X-H torsion
[ 8008 7997 7996 7995 ] final -154.22 input   59.86 | X-H torsion
[ 10167 10162 10161 10158 ] final   22.42 input  -65.29 | X-H torsion
[ 10718 10713 10712 10709 ] final -123.60 input   66.30 | X-H torsion
[ 10763 10752 10751 10750 ] final -122.92 input  -60.55 | X-H torsion
[ 11005 11000 10999 10996 ] final   66.89 input  -57.11 | X-H torsion

> <Gold.Protein.ActiveResidues>
 VAL166  LYS551  ARG553  GLY616  TRP617  ASP618  TYR619  PRO620  LYS621  CYS622 
 ASP623  PHE694  ASN695  SER759  ASP760  ASP761  ALA762  ILE779  LEU786  VAL792 
 PHE793  MET794  SER795  GLU796  ALA797  LYS798  CYS799  TRP800  GLU811  SER814 

> <Gold.Protein.RotatedAtoms>
  150.7417  134.5900  159.5982 H   0  0  0  0  0  0  0  0  0  0  0  0  # atno 6907 bound_to 6896
  152.3291  134.7280  160.0303 H   0  0  0  0  0  0  0  0  0  0  0  0  # atno 6908 bound_to 6896
  151.7770  133.3310  159.3497 H   0  0  0  0  0  0  0  0  0  0  0  0  # atno 6909 bound_to 6896
  145.3086  140.9395  143.2783 H   0  0  0  0  0  0  0  0  0  0  0  0  # atno 7974 bound_to 7965
  155.6830  140.0746  157.2477 H   0  0  0  0  0  0  0  0  0  0  0  0  # atno 8008 bound_to 7997
  154.4102  140.1678  156.2055 H   0  0  0  0  0  0  0  0  0  0  0  0  # atno 8009 bound_to 7997
  155.9518  140.3376  155.6417 H   0  0  0  0  0  0  0  0  0  0  0  0  # atno 8010 bound_to 7997
  140.5350  143.9777  150.6486 H   0  0  0  0  0  0  0  0  0  0  0  0  # atno 10167 bound_to 10162
  156.1516  130.6538  150.9921 H   0  0  0  0  0  0  0  0  0  0  0  0  # atno 10718 bound_to 10713
  154.8698  135.4116  154.2859 H   0  0  0  0  0  0  0  0  0  0  0  0  # atno 10763 bound_to 10752
  153.3743  135.7009  153.6619 H   0  0  0  0  0  0  0  0  0  0  0  0  # atno 10764 bound_to 10752
  153.5467  135.3637  155.2714 H   0  0  0  0  0  0  0  0  0  0  0  0  # atno 10765 bound_to 10752
  139.9804  134.6753  156.0273 H   0  0  0  0  0  0  0  0  0  0  0  0  # atno 11005 bound_to 11000
  144.9035  139.4619  143.6621 LP  0  0  0  0  0  0  0  0  0  0  0  0  # atno 17320 bound_to 7965
  146.3126  139.7802  142.9008 LP  0  0  0  0  0  0  0  0  0  0  0  0  # atno 17321 bound_to 7965
  140.3162  143.3166  152.0830 LP  0  0  0  0  0  0  0  0  0  0  0  0  # atno 17342 bound_to 10162
  139.4967  144.6604  151.6478 LP  0  0  0  0  0  0  0  0  0  0  0  0  # atno 17343 bound_to 10162
  157.6661  131.0871  150.7724 LP  0  0  0  0  0  0  0  0  0  0  0  0  # atno 17370 bound_to 10713
  156.7792  130.4854  149.5404 LP  0  0  0  0  0  0  0  0  0  0  0  0  # atno 17371 bound_to 10713
  141.1477  133.6553  156.3916 LP  0  0  0  0  0  0  0  0  0  0  0  0  # atno 17394 bound_to 11000
  140.5108  134.6397  157.5283 LP  0  0  0  0  0  0  0  0  0  0  0  0  # atno 17395 bound_to 11000

$$$$
