AV-unprocessed.smi:193|AV-procd|sdf|1511|dock7
  -GOLD-   2262019343D 1   1.00000     0.00000
 Structure written by MMmdl.
 62 66  0  0  0  0  0  0  0  0  2 V2000
  146.7167  140.0776  152.0093 C   0  0  0  0  0  0  0  0  0  0  0  0
  147.0502  138.7388  152.6876 C   0  0  1  0  0  0  0  0  0  0  0  0
  147.3177  138.9761  154.1880 C   0  0  0  0  0  0  0  0  0  0  0  0
  148.1354  137.9408  154.8239 N   0  0  0  0  0  0  0  0  0  0  0  0
  148.8119  138.2653  155.9571 C   0  0  0  0  0  0  0  0  0  0  0  0
  148.6000  137.5305  157.0814 N   0  0  0  0  0  0  0  0  0  0  0  0
  149.2534  137.8164  158.2112 C   0  0  0  0  0  0  0  0  0  0  0  0
  150.1467  138.7809  158.4358 N   0  0  0  0  0  0  0  0  0  0  0  0
  150.3587  139.5294  157.3161 C   0  0  0  0  0  0  0  0  0  0  0  0
  149.7392  139.3443  156.0472 C   0  0  0  0  0  0  0  0  0  0  0  0
  150.1937  140.3117  155.1575 N   0  0  0  0  0  0  0  0  0  0  0  0
  151.0416  141.0170  155.8555 C   0  0  0  0  0  0  0  0  0  0  0  0
  151.2069  140.6116  157.1601 N   0  0  0  0  0  0  0  0  0  0  0  0
  152.0825  141.2128  158.1545 C   0  0  0  0  0  0  0  0  0  0  0  0
  151.5572  142.5538  158.7244 C   0  0  0  0  0  0  0  0  0  0  0  0
  150.2295  142.3406  159.1721 O   0  0  0  0  0  0  0  0  0  0  0  0
  152.4114  142.9958  159.9295 C   0  0  0  0  0  0  0  0  0  0  0  0
  152.0350  144.4040  160.4237 C   0  0  0  0  0  0  0  0  0  0  0  0
  152.1281  145.3366  159.3540 O   0  0  0  0  0  0  0  0  0  0  0  0
  151.2199  145.0536  158.2968 C   0  0  0  0  0  0  0  0  0  0  0  0
  151.5430  143.6845  157.6723 C   0  0  0  0  0  0  0  0  0  0  0  0
  148.0449  136.5283  154.4557 C   0  0  0  0  0  0  0  0  0  0  0  0
  146.6157  136.0672  154.1389 C   0  0  0  0  0  0  0  0  0  0  0  0
  146.2620  136.3288  152.7234 N   0  3  1  0  0  0  0  0  0  0  0  0
  145.2148  135.3996  152.2413 C   0  0  1  0  0  0  0  0  0  0  0  0
  144.9649  135.4894  150.7533 C   0  0  0  0  0  0  0  0  0  0  0  0
  145.7346  134.3165  151.3209 C   0  0  2  0  0  0  0  0  0  0  0  0
  145.1186  132.9347  151.3283 C   0  0  0  0  0  0  0  0  0  0  0  0
  145.8945  137.7411  152.4570 C   0  0  0  0  0  0  0  0  0  0  0  0
  145.8178  140.5257  152.4341 H   0  0  0  0  0  0  0  0  0  0  0  0
  146.5515  139.9498  150.9389 H   0  0  0  0  0  0  0  0  0  0  0  0
  147.5315  140.7928  152.1266 H   0  0  0  0  0  0  0  0  0  0  0  0
  147.9569  138.3628  152.2109 H   0  0  0  0  0  0  0  0  0  0  0  0
  147.8489  139.9236  154.2943 H   0  0  0  0  0  0  0  0  0  0  0  0
  146.3791  139.0895  154.7319 H   0  0  0  0  0  0  0  0  0  0  0  0
  149.0289  137.1813  159.0553 H   0  0  0  0  0  0  0  0  0  0  0  0
  151.5766  141.8565  155.4353 H   0  0  0  0  0  0  0  0  0  0  0  0
  152.2303  140.4908  158.9588 H   0  0  0  0  0  0  0  0  0  0  0  0
  153.0619  141.3591  157.6975 H   0  0  0  0  0  0  0  0  0  0  0  0
  149.6398  142.5170  158.4551 H   0  0  0  0  0  0  0  0  0  0  0  0
  152.3242  142.2768  160.7452 H   0  0  0  0  0  0  0  0  0  0  0  0
  153.4634  143.0034  159.6414 H   0  0  0  0  0  0  0  0  0  0  0  0
  151.0301  144.4181  160.8483 H   0  0  0  0  0  0  0  0  0  0  0  0
  152.7160  144.7131  161.2168 H   0  0  0  0  0  0  0  0  0  0  0  0
  150.1937  145.0854  158.6657 H   0  0  0  0  0  0  0  0  0  0  0  0
  151.3066  145.8357  157.5425 H   0  0  0  0  0  0  0  0  0  0  0  0
  152.5228  143.7446  157.1968 H   0  0  0  0  0  0  0  0  0  0  0  0
  150.8290  143.4682  156.8767 H   0  0  0  0  0  0  0  0  0  0  0  0
  148.7176  136.3187  153.6233 H   0  0  0  0  0  0  0  0  0  0  0  0
  148.3944  135.9187  155.2895 H   0  0  0  0  0  0  0  0  0  0  0  0
  146.5850  134.9888  154.3013 H   0  0  0  0  0  0  0  0  0  0  0  0
  145.8823  136.4956  154.8241 H   0  0  0  0  0  0  0  0  0  0  0  0
  144.3925  135.2011  152.9267 H   0  0  0  0  0  0  0  0  0  0  0  0
  143.9504  135.3052  150.4049 H   0  0  0  0  0  0  0  0  0  0  0  0
  145.5255  136.2238  150.1777 H   0  0  0  0  0  0  0  0  0  0  0  0
  146.8059  134.3126  151.1256 H   0  0  0  0  0  0  0  0  0  0  0  0
  144.0476  132.9887  151.5269 H   0  0  0  0  0  0  0  0  0  0  0  0
  145.5845  132.3216  152.0998 H   0  0  0  0  0  0  0  0  0  0  0  0
  145.2695  132.4527  150.3622 H   0  0  0  0  0  0  0  0  0  0  0  0
  145.0210  138.0174  153.0500 H   0  0  0  0  0  0  0  0  0  0  0  0
  145.5840  137.8078  151.4134 H   0  0  0  0  0  0  0  0  0  0  0  0
  147.0862  136.1283  152.1754 H   0  0  0  0  0  0  0  0  0  0  0  0
  1  2  1  0  0  0  0
  1 30  1  0  0  0  0
  1 31  1  0  0  0  0
  1 32  1  0  0  0  0
  2 29  1  0  0  0  0
  2  3  1  0  0  0  0
  2 33  1  0  0  0  0
  3  4  1  0  0  0  0
  3 34  1  0  0  0  0
  3 35  1  0  0  0  0
  4  5  1  0  0  0  0
  4 22  1  0  0  0  0
  5 10  1  0  0  0  0
  5  6  2  0  0  0  0
  6  7  1  0  0  0  0
  7  8  2  0  0  0  0
  7 36  1  0  0  0  0
  8  9  1  0  0  0  0
  9 13  1  0  0  0  0
  9 10  2  0  0  0  0
 10 11  1  0  0  0  0
 11 12  2  0  0  0  0
 12 13  1  0  0  0  0
 12 37  1  0  0  0  0
 13 14  1  0  0  0  0
 14 15  1  0  0  0  0
 14 38  1  0  0  0  0
 14 39  1  0  0  0  0
 15 21  1  0  0  0  0
 15 16  1  0  0  0  0
 15 17  1  0  0  0  0
 16 40  1  0  0  0  0
 17 18  1  0  0  0  0
 17 41  1  0  0  0  0
 17 42  1  0  0  0  0
 18 19  1  0  0  0  0
 18 43  1  0  0  0  0
 18 44  1  0  0  0  0
 19 20  1  0  0  0  0
 20 21  1  0  0  0  0
 20 45  1  0  0  0  0
 20 46  1  0  0  0  0
 21 47  1  0  0  0  0
 21 48  1  0  0  0  0
 22 23  1  0  0  0  0
 22 49  1  0  0  0  0
 22 50  1  0  0  0  0
 23 24  1  0  0  0  0
 23 51  1  0  0  0  0
 23 52  1  0  0  0  0
 24 25  1  0  0  0  0
 24 29  1  0  0  0  0
 24 62  1  0  0  0  0
 25 27  1  0  0  0  0
 25 26  1  0  0  0  0
 25 53  1  0  0  0  0
 26 27  1  0  0  0  0
 26 54  1  0  0  0  0
 26 55  1  0  0  0  0
 27 28  1  0  0  0  0
 27 56  1  0  0  0  0
 28 57  1  0  0  0  0
 28 58  1  0  0  0  0
 28 59  1  0  0  0  0
 29 60  1  0  0  0  0
 29 61  1  0  0  0  0
M  CHG  1  24   1
M  END
> <s_m_source_file>
AV-unprocessed.smi

> <i_m_source_file_index>
193

> <i_lp_mmshare_version>
43012

> <i_f3d_flags>
0

> <s_epik_input>
W0NIM11bQ0BASF0xW0NIMl1bQ0BIXTFOKFtDSDJdMilbQ0gyXVtDSDJdTihbQ0gyXVtDQEhdMltDSDNdKWMobltjSF1uMyljKGMzNCluW2NIXW40W0NIMl1DNShbT0hdKVtDSDJdW0NIMl1PW0NIMl1bQ0gyXTU=

> <s_epik_cmdline>
J2VwaWtfcHl0aG9uJywgJy1waCcsICc3LjAnLCAnLXRuJywgJzgnLCAnLW1hJywgJzIwMCcsICctbWV0YWxfYmluZGluZycsICctaW1hZScsICc8aW5maWxlLm1hZT4nLCAnLW9tYWUnLCAnPG91dGZpbGUubWFlPic=

> <r_lp_tautomer_probability>
1

> <r_epik_Ionization_Penalty>
0.0540825

> <r_epik_Ionization_Penalty_Charging>
0.0538476

> <r_epik_Ionization_Penalty_Neutral>
0.000234891

> <r_epik_State_Penalty>
0.0200719

> <r_epik_Charging_Adjusted_Penalty>
0.0739194

> <i_epik_Tot_Q>
1

> <i_epik_Tot_abs_Q>
1

> <r_epik_Metal_State_Penalty>
0.0199414

> <b_epik_Metal_Only>
0

> <s_lp_Force_Field>
OPLS_2005

> <r_lp_Energy>
53.3477

> <b_lp_Chiralities_Consistent>
1

> <s_lp_Variant>
AV-unprocessed.smi:193-16

> <Gold.Version>
5.8.1

> <Gold.Id.Protein>
6NUR|6NUR_protein|mol2

> <Gold.PLP.Fitness>
46.6047

> <Gold.PLP.PLP>
-42.8379

> <Gold.PLP.part.hbond>
-2.2860

> <Gold.PLP.part.metal>
0.0000

> <Gold.PLP.part.buried>
-0.8984

> <Gold.PLP.part.nonpolar>
-39.7235

> <Gold.PLP.part.repulsive>
0.1426

> <Gold.PLP.ligand.clash>
0.0000

> <Gold.PLP.ligand.torsion>
1.8351

> <Gold.PLP.Chemscore.Hbond>
2.0463

> <Gold.PLP.Chemscore.CHOScore>
0.0000

> <Gold.PLP.Chemscore.Metal>
0.0000

> <Gold.Chemscore.Hbonds>
donor molecule, donor type, donor heavy atom, donor atom, acceptor molecule, acceptor atom, score
      L1  H    24    62       P1  7948  2.00
      P1  H  7989  7998       L1    11  0.02

> <Gold.PLP.Chemscore.Internal.Correction>
1.2981

> <Gold.Rescore>
     Score         DG    S(hbond)    S(metal)    S(lipo)     H(rot)  DE(clash)    DE(int)     intcor
     14.68     -17.69       1.00        0.00     118.09       1.93       1.14       1.87       ----

> <Gold.Chemscore.Fitness>
14.6754

> <Gold.Chemscore.DG>
-17.6852

> <Gold.Chemscore.ZeroCoef>
-5.4800

> <Gold.Chemscore.Hbond>
0.9959

> <Gold.Chemscore.Metal>
0.0000

> <Gold.Chemscore.Lipo>
118.0949

> <Gold.Chemscore.Internal_Hbond>
0.0000

> <Gold.Chemscore.DEClash>
1.1393

> <Gold.Chemscore.DEInternal>
1.8705

> <Gold.Chemscore.Rot>
1.9290

> <Gold.Chemscore.Internal.Correction>
   9.000000E+99

> <Gold.Chemscore.Hbonds>
donor molecule, donor type, donor heavy atom, donor atom, acceptor molecule, acceptor atom, score
      L1  H    24    62       P1  7948  0.97

> <Gold.Chemscore.Hbond.Weighted>
-3.3264

> <Gold.Chemscore.Metal.Weighted>
-0.0000

> <Gold.Chemscore.Lipo.Weighted>
-13.8171

> <Gold.Chemscore.Internal_Hbond.Weighted>
0.0000

> <Gold.Chemscore.DEClash.Weighted>
1.1393

> <Gold.Chemscore.DEInternal.Weighted>
1.8705

> <Gold.Chemscore.Rot.Weighted>
4.9383

> <Gold.Chemscore.Internal.Correction.Weighted>
   9.000000E+99

> <Gold.Protein.RotatedTorsions>
[ 6907 6896 6895 6894 ] final -151.61 input  -60.11 | X-H torsion
[ 7974 7965 7964 7962 ] final  119.40 input  175.53 | X-H torsion
[ 8008 7997 7996 7995 ] final   72.22 input   59.86 | X-H torsion
[ 10167 10162 10161 10158 ] final  148.34 input  -65.29 | X-H torsion
[ 10718 10713 10712 10709 ] final -121.71 input   66.30 | X-H torsion
[ 10763 10752 10751 10750 ] final -136.55 input  -60.55 | X-H torsion
[ 11005 11000 10999 10996 ] final  119.75 input  -57.11 | X-H torsion

> <Gold.Protein.ActiveResidues>
 VAL166  LYS551  ARG553  GLY616  TRP617  ASP618  TYR619  PRO620  LYS621  CYS622 
 ASP623  PHE694  ASN695  SER759  ASP760  ASP761  ALA762  ILE779  LEU786  VAL792 
 PHE793  MET794  SER795  GLU796  ALA797  LYS798  CYS799  TRP800  GLU811  SER814 

> <Gold.Protein.RotatedAtoms>
  151.2157  133.4531  159.2599 H   0  0  0  0  0  0  0  0  0  0  0  0  # atno 6907 bound_to 6896
  151.0933  134.9929  159.8423 H   0  0  0  0  0  0  0  0  0  0  0  0  # atno 6908 bound_to 6896
  152.5437  134.2089  159.8795 H   0  0  0  0  0  0  0  0  0  0  0  0  # atno 6909 bound_to 6896
  145.1436  139.3253  143.4603 H   0  0  0  0  0  0  0  0  0  0  0  0  # atno 7974 bound_to 7965
  155.7656  140.3485  155.5220 H   0  0  0  0  0  0  0  0  0  0  0  0  # atno 8008 bound_to 7997
  155.8871  140.1012  157.1465 H   0  0  0  0  0  0  0  0  0  0  0  0  # atno 8009 bound_to 7997
  154.4030  140.1311  156.4256 H   0  0  0  0  0  0  0  0  0  0  0  0  # atno 8010 bound_to 7997
  139.4876  144.5686  151.7097 H   0  0  0  0  0  0  0  0  0  0  0  0  # atno 10167 bound_to 10162
  156.1359  130.6430  150.9695 H   0  0  0  0  0  0  0  0  0  0  0  0  # atno 10718 bound_to 10713
  154.8681  135.3669  154.5079 H   0  0  0  0  0  0  0  0  0  0  0  0  # atno 10763 bound_to 10752
  153.5716  135.7020  153.5507 H   0  0  0  0  0  0  0  0  0  0  0  0  # atno 10764 bound_to 10752
  153.3537  135.4065  155.1628 H   0  0  0  0  0  0  0  0  0  0  0  0  # atno 10765 bound_to 10752
  139.9158  134.9630  156.7702 H   0  0  0  0  0  0  0  0  0  0  0  0  # atno 11005 bound_to 11000
  146.3502  140.1482  142.8593 LP  0  0  0  0  0  0  0  0  0  0  0  0  # atno 17320 bound_to 7965
  145.0506  140.9015  143.4998 LP  0  0  0  0  0  0  0  0  0  0  0  0  # atno 17321 bound_to 7965
  140.5269  144.0791  150.6040 LP  0  0  0  0  0  0  0  0  0  0  0  0  # atno 17342 bound_to 10162
  140.3768  143.2824  152.0216 LP  0  0  0  0  0  0  0  0  0  0  0  0  # atno 17343 bound_to 10162
  157.6531  131.0894  150.8006 LP  0  0  0  0  0  0  0  0  0  0  0  0  # atno 17370 bound_to 10713
  156.8086  130.4945  149.5359 LP  0  0  0  0  0  0  0  0  0  0  0  0  # atno 17371 bound_to 10713
  140.6627  133.9631  155.7813 LP  0  0  0  0  0  0  0  0  0  0  0  0  # atno 17394 bound_to 11000
  141.0632  134.0315  157.3629 LP  0  0  0  0  0  0  0  0  0  0  0  0  # atno 17395 bound_to 11000

$$$$
