AV-unprocessed.smi:1644|AV-procd|sdf|6590|dock1
  -GOLD-   22720 7283D 1   1.00000     0.00000
 Structure written by MMmdl.
 50 52  0  0  0  0  0  0  0  0  2 V2000
  147.2103  135.7592  162.9511 C   0  0  0  0  0  0  0  0  0  0  0  0
  146.6662  134.5538  162.1773 C   0  0  0  0  0  0  0  0  0  0  0  0
  147.4539  134.2869  160.8783 C   0  0  0  0  0  0  0  0  0  0  0  0
  147.3240  135.3646  159.7777 C   0  0  2  0  0  0  0  0  0  0  0  0
  147.7504  134.9042  158.4712 N   0  0  0  0  0  0  0  0  0  0  0  0
  148.7299  135.6594  157.9567 C   0  0  0  0  0  0  0  0  0  0  0  0
  149.2504  135.4920  156.8546 O   0  0  0  0  0  0  0  0  0  0  0  0
  149.0337  136.6245  158.8444 N   0  0  0  0  0  0  0  0  0  0  0  0
  150.0595  137.6496  158.6306 C   0  0  0  0  0  0  0  0  0  0  0  0
  149.7805  138.4801  157.3617 C   0  0  1  0  0  0  0  0  0  0  0  0
  148.7964  139.4520  157.6578 O   0  0  0  0  0  0  0  0  0  0  0  0
  151.0446  139.2107  156.8688 C   0  0  0  0  0  0  0  0  0  0  0  0
  150.8624  140.6652  156.7898 N   0  0  0  0  0  0  0  0  0  0  0  0
  150.2777  141.4259  155.8254 C   0  0  0  0  0  0  0  0  0  0  0  0
  150.3665  142.7266  156.2202 N   0  3  0  0  0  0  0  0  0  0  0  0
  151.0181  142.7959  157.4540 C   0  0  0  0  0  0  0  0  0  0  0  0
  151.3450  143.8846  158.2538 C   0  0  0  0  0  0  0  0  0  0  0  0
  152.0192  143.6151  159.4666 C   0  0  0  0  0  0  0  0  0  0  0  0
  152.3917  144.7826  160.3646 C   0  0  0  0  0  0  0  0  0  0  0  0
  152.3444  142.2854  159.8419 C   0  0  0  0  0  0  0  0  0  0  0  0
  153.0725  142.0070  161.1459 C   0  0  0  0  0  0  0  0  0  0  0  0
  152.0015  141.1916  159.0158 C   0  0  0  0  0  0  0  0  0  0  0  0
  151.3381  141.4759  157.8248 C   0  0  0  0  0  0  0  0  0  0  0  0
  148.2683  136.5418  159.9399 C   0  0  0  0  0  0  0  0  0  0  0  0
  148.2919  137.2779  160.9260 O   0  0  0  0  0  0  0  0  0  0  0  0
  146.6369  135.9265  163.8631 H   0  0  0  0  0  0  0  0  0  0  0  0
  147.1567  136.6690  162.3527 H   0  0  0  0  0  0  0  0  0  0  0  0
  148.2515  135.6055  163.2364 H   0  0  0  0  0  0  0  0  0  0  0  0
  146.6994  133.6775  162.8251 H   0  0  0  0  0  0  0  0  0  0  0  0
  145.6147  134.7277  161.9469 H   0  0  0  0  0  0  0  0  0  0  0  0
  148.5101  134.1771  161.1272 H   0  0  0  0  0  0  0  0  0  0  0  0
  147.1485  133.3240  160.4664 H   0  0  0  0  0  0  0  0  0  0  0  0
  146.2981  135.7303  159.7180 H   0  0  0  0  0  0  0  0  0  0  0  0
  147.3345  134.1106  158.0053 H   0  0  0  0  0  0  0  0  0  0  0  0
  150.1719  138.2934  159.5053 H   0  0  0  0  0  0  0  0  0  0  0  0
  151.0197  137.1403  158.5306 H   0  0  0  0  0  0  0  0  0  0  0  0
  149.4066  137.8370  156.5643 H   0  0  0  0  0  0  0  0  0  0  0  0
  149.0715  139.9358  158.4219 H   0  0  0  0  0  0  0  0  0  0  0  0
  151.8850  139.0159  157.5369 H   0  0  0  0  0  0  0  0  0  0  0  0
  151.3433  138.8531  155.8827 H   0  0  0  0  0  0  0  0  0  0  0  0
  149.8289  141.0631  154.9117 H   0  0  0  0  0  0  0  0  0  0  0  0
  151.0956  144.8940  157.9607 H   0  0  0  0  0  0  0  0  0  0  0  0
  151.9258  144.6766  161.3446 H   0  0  0  0  0  0  0  0  0  0  0  0
  152.0635  145.7327  159.9417 H   0  0  0  0  0  0  0  0  0  0  0  0
  153.4724  144.8327  160.4980 H   0  0  0  0  0  0  0  0  0  0  0  0
  153.2524  140.9402  161.2828 H   0  0  0  0  0  0  0  0  0  0  0  0
  152.4851  142.3573  161.9948 H   0  0  0  0  0  0  0  0  0  0  0  0
  154.0391  142.5114  161.1604 H   0  0  0  0  0  0  0  0  0  0  0  0
  152.2489  140.1789  159.2995 H   0  0  0  0  0  0  0  0  0  0  0  0
  150.0094  143.5070  155.6840 H   0  0  0  0  0  0  0  0  0  0  0  0
  1  2  1  0  0  0  0
  1 26  1  0  0  0  0
  1 27  1  0  0  0  0
  1 28  1  0  0  0  0
  2  3  1  0  0  0  0
  2 29  1  0  0  0  0
  2 30  1  0  0  0  0
  3  4  1  0  0  0  0
  3 31  1  0  0  0  0
  3 32  1  0  0  0  0
  4 24  1  0  0  0  0
  4  5  1  0  0  0  0
  4 33  1  0  0  0  0
  5  6  1  0  0  0  0
  5 34  1  0  0  0  0
  6  7  2  0  0  0  0
  6  8  1  0  0  0  0
  8  9  1  0  0  0  0
  8 24  1  0  0  0  0
  9 10  1  0  0  0  0
  9 35  1  0  0  0  0
  9 36  1  0  0  0  0
 10 11  1  0  0  0  0
 10 12  1  0  0  0  0
 10 37  1  0  0  0  0
 11 38  1  0  0  0  0
 12 13  1  0  0  0  0
 12 39  1  0  0  0  0
 12 40  1  0  0  0  0
 13 23  1  0  0  0  0
 13 14  1  0  0  0  0
 14 15  2  0  0  0  0
 14 41  1  0  0  0  0
 15 16  1  0  0  0  0
 15 50  1  0  0  0  0
 16 23  2  0  0  0  0
 16 17  1  0  0  0  0
 17 18  2  0  0  0  0
 17 42  1  0  0  0  0
 18 19  1  0  0  0  0
 18 20  1  0  0  0  0
 19 43  1  0  0  0  0
 19 44  1  0  0  0  0
 19 45  1  0  0  0  0
 20 21  1  0  0  0  0
 20 22  2  0  0  0  0
 21 46  1  0  0  0  0
 21 47  1  0  0  0  0
 21 48  1  0  0  0  0
 22 23  1  0  0  0  0
 22 49  1  0  0  0  0
 24 25  2  0  0  0  0
M  CHG  1  15   1
M  END
> <s_m_source_file>
AV-unprocessed.smi

> <i_m_source_file_index>
1644

> <i_lp_mmshare_version>
43012

> <i_f3d_flags>
0

> <s_epik_input>
W0NIM11bQ0gyXVtDSDJdW0NAQEhdMVtOSF1DKD1PKU4oQzE9TylbQ0gyXVtDQEhdKFtPSF0pW0NIMl1uKFtjSF1uMiljKGMyMylbY0hdYyhbQ0gzXSljKFtjSF0zKVtDSDNd

> <s_epik_cmdline>
J2VwaWtfcHl0aG9uJywgJy1waCcsICc3LjAnLCAnLXRuJywgJzgnLCAnLW1hJywgJzIwMCcsICctbWV0YWxfYmluZGluZycsICctaW1hZScsICc8aW5maWxlLm1hZT4nLCAnLW9tYWUnLCAnPG91dGZpbGUubWFlPic=

> <r_lp_tautomer_probability>
1

> <r_epik_Ionization_Penalty>
1.06742

> <r_epik_Ionization_Penalty_Charging>
1.06736

> <r_epik_Ionization_Penalty_Neutral>
5.56132e-05

> <r_epik_State_Penalty>
1.12163

> <r_epik_Charging_Adjusted_Penalty>
2.18899

> <i_epik_Tot_Q>
1

> <i_epik_Tot_abs_Q>
1

> <r_epik_Metal_State_Penalty>
1.26636

> <b_epik_Metal_Only>
0

> <s_lp_Force_Field>
OPLS_2005

> <r_lp_Energy>
29.5634

> <b_lp_Chiralities_Consistent>
1

> <s_lp_Variant>
AV-unprocessed.smi:1644-7

> <Gold.Version>
5.8.1

> <Gold.Id.Protein>
6NUR|6NUR_protein|mol2

> <Gold.PLP.Fitness>
57.4138

> <Gold.PLP.PLP>
-50.3568

> <Gold.PLP.part.hbond>
-2.7226

> <Gold.PLP.part.metal>
0.0000

> <Gold.PLP.part.buried>
-6.5230

> <Gold.PLP.part.nonpolar>
-42.5200

> <Gold.PLP.part.repulsive>
0.1633

> <Gold.PLP.ligand.clash>
0.0000

> <Gold.PLP.ligand.torsion>
1.4366

> <Gold.PLP.Chemscore.Hbond>
3.2767

> <Gold.PLP.Chemscore.CHOScore>
0.0000

> <Gold.PLP.Chemscore.Metal>
0.0000

> <Gold.Chemscore.Hbonds>
donor molecule, donor type, donor heavy atom, donor atom, acceptor molecule, acceptor atom, score
      L1  H    15    50       P1  8028  1.82
      P1  H  6931  6943       L1    25  0.90
      P1  H  6934  6947       L1    25  0.53

> <Gold.PLP.Chemscore.Internal.Correction>
0.1001

> <Gold.Rescore>
     Score         DG    S(hbond)    S(metal)    S(lipo)     H(rot)  DE(clash)    DE(int)     intcor
     16.78     -19.65       2.45        0.00     112.41       2.80       0.01       2.86       ----

> <Gold.Chemscore.Fitness>
16.7799

> <Gold.Chemscore.DG>
-19.6505

> <Gold.Chemscore.ZeroCoef>
-5.4800

> <Gold.Chemscore.Hbond>
2.4481

> <Gold.Chemscore.Metal>
0.0000

> <Gold.Chemscore.Lipo>
112.4078

> <Gold.Chemscore.Internal_Hbond>
0.0000

> <Gold.Chemscore.DEClash>
0.0089

> <Gold.Chemscore.DEInternal>
2.8617

> <Gold.Chemscore.Rot>
2.7961

> <Gold.Chemscore.Internal.Correction>
   9.000000E+99

> <Gold.Chemscore.Hbonds>
donor molecule, donor type, donor heavy atom, donor atom, acceptor molecule, acceptor atom, score
      L1  H    15    50       P1  8028  0.88
      P1  H  6931  6943       L1    25  0.85
      P1  H  6934  6947       L1    25  0.50

> <Gold.Chemscore.Hbond.Weighted>
-8.1768

> <Gold.Chemscore.Metal.Weighted>
-0.0000

> <Gold.Chemscore.Lipo.Weighted>
-13.1517

> <Gold.Chemscore.Internal_Hbond.Weighted>
0.0000

> <Gold.Chemscore.DEClash.Weighted>
0.0089

> <Gold.Chemscore.DEInternal.Weighted>
2.8617

> <Gold.Chemscore.Rot.Weighted>
7.1580

> <Gold.Chemscore.Internal.Correction.Weighted>
   9.000000E+99

> <Gold.Protein.RotatedTorsions>
[ 6907 6896 6895 6894 ] final   50.88 input  -60.11 | X-H torsion
[ 7974 7965 7964 7962 ] final -160.62 input  175.53 | X-H torsion
[ 8008 7997 7996 7995 ] final   83.59 input   59.86 | X-H torsion
[ 10167 10162 10161 10158 ] final   -1.94 input  -65.29 | X-H torsion
[ 10718 10713 10712 10709 ] final -117.97 input   66.30 | X-H torsion
[ 10763 10752 10751 10750 ] final  -51.01 input  -60.55 | X-H torsion
[ 11005 11000 10999 10996 ] final   69.55 input  -57.11 | X-H torsion

> <Gold.Protein.ActiveResidues>
 VAL166  LYS551  ARG553  GLY616  TRP617  ASP618  TYR619  PRO620  LYS621  CYS622 
 ASP623  PHE694  ASN695  SER759  ASP760  ASP761  ALA762  ILE779  LEU786  VAL792 
 PHE793  MET794  SER795  GLU796  ALA797  LYS798  CYS799  TRP800  GLU811  SER814 

> <Gold.Protein.RotatedAtoms>
  152.3066  134.7548  160.0345 H   0  0  0  0  0  0  0  0  0  0  0  0  # atno 6907 bound_to 6896
  151.8043  133.3368  159.3544 H   0  0  0  0  0  0  0  0  0  0  0  0  # atno 6908 bound_to 6896
  150.7299  134.5654  159.5908 H   0  0  0  0  0  0  0  0  0  0  0  0  # atno 6909 bound_to 6896
  144.7420  140.3515  143.6114 H   0  0  0  0  0  0  0  0  0  0  0  0  # atno 7974 bound_to 7965
  155.9259  140.3418  155.6210 H   0  0  0  0  0  0  0  0  0  0  0  0  # atno 8008 bound_to 7997
  155.7216  140.0784  157.2347 H   0  0  0  0  0  0  0  0  0  0  0  0  # atno 8009 bound_to 7997
  154.4077  140.1604  156.2396 H   0  0  0  0  0  0  0  0  0  0  0  0  # atno 8010 bound_to 7997
  140.6831  143.6716  150.8180 H   0  0  0  0  0  0  0  0  0  0  0  0  # atno 10167 bound_to 10162
  156.1072  130.6220  150.9232 H   0  0  0  0  0  0  0  0  0  0  0  0  # atno 10718 bound_to 10713
  154.1197  135.6536  153.4900 H   0  0  0  0  0  0  0  0  0  0  0  0  # atno 10763 bound_to 10752
  153.0229  135.5267  154.7110 H   0  0  0  0  0  0  0  0  0  0  0  0  # atno 10764 bound_to 10752
  154.6313  135.2976  155.0183 H   0  0  0  0  0  0  0  0  0  0  0  0  # atno 10765 bound_to 10752
  139.9648  134.7000  156.0570 H   0  0  0  0  0  0  0  0  0  0  0  0  # atno 11005 bound_to 11000
  145.7271  139.1725  143.2451 LP  0  0  0  0  0  0  0  0  0  0  0  0  # atno 17320 bound_to 7965
  146.1234  140.7279  142.9446 LP  0  0  0  0  0  0  0  0  0  0  0  0  # atno 17321 bound_to 7965
  140.0419  143.5337  152.2714 LP  0  0  0  0  0  0  0  0  0  0  0  0  # atno 17342 bound_to 10162
  139.6168  144.7621  151.2829 LP  0  0  0  0  0  0  0  0  0  0  0  0  # atno 17343 bound_to 10162
  157.6250  131.0926  150.8550 LP  0  0  0  0  0  0  0  0  0  0  0  0  # atno 17370 bound_to 10713
  156.8667  130.5132  149.5299 LP  0  0  0  0  0  0  0  0  0  0  0  0  # atno 17371 bound_to 10713
  141.1327  133.6582  156.3508 LP  0  0  0  0  0  0  0  0  0  0  0  0  # atno 17394 bound_to 11000
  140.5421  134.6110  157.5383 LP  0  0  0  0  0  0  0  0  0  0  0  0  # atno 17395 bound_to 11000

$$$$
