AV-unprocessed.smi:1419|AV-procd|sdf|5774|dock1
  -GOLD-   22720 5413D 1   1.00000     0.00000
 Structure written by MMmdl.
 42 43  0  0  0  0  0  0  0  0  2 V2000
  152.0322  139.7852  157.3857 C   0  0  0  0  0  0  0  0  0  0  0  0
  151.5161  141.2293  157.4353 C   0  0  2  0  0  0  0  0  0  0  0  0
  151.3738  141.7254  158.8910 C   0  0  0  0  0  0  0  0  0  0  0  0
  151.1705  143.1753  158.9859 N   0  0  0  0  0  0  0  0  0  0  0  0
  151.9431  144.0806  159.6680 C   0  0  0  0  0  0  0  0  0  0  0  0
  151.3567  145.3070  159.4898 C   0  0  0  0  0  0  0  0  0  0  0  0
  150.2563  145.0996  158.7016 N   0  3  0  0  0  0  0  0  0  0  0  0
  150.1479  143.8035  158.3920 C   0  0  0  0  0  0  0  0  0  0  0  0
  150.2330  141.3003  156.7379 N   0  0  0  0  0  0  0  0  0  0  0  0
  149.9934  140.8832  155.4821 C   0  0  0  0  0  0  0  0  0  0  0  0
  150.8462  140.3024  154.8090 O   0  0  0  0  0  0  0  0  0  0  0  0
  148.7470  141.1561  155.0245 N   0  0  0  0  0  0  0  0  0  0  0  0
  148.2342  140.8811  153.6756 C   0  0  0  0  0  0  0  0  0  0  0  0
  147.3435  139.6250  153.7550 C   0  0  2  0  0  0  0  0  0  0  0  0
  146.7158  139.2714  152.4028 C   0  0  0  0  0  0  0  0  0  0  0  0
  146.2897  139.8592  154.6895 O   0  0  0  0  0  0  0  0  0  0  0  0
  146.7399  140.1920  156.0032 C   0  0  2  0  0  0  0  0  0  0  0  0
  145.5108  140.4063  156.8922 C   0  0  0  0  0  0  0  0  0  0  0  0
  147.6316  141.4481  155.9266 C   0  0  0  0  0  0  0  0  0  0  0  0
  152.9983  139.6966  157.8838 H   0  0  0  0  0  0  0  0  0  0  0  0
  152.1628  139.4500  156.3562 H   0  0  0  0  0  0  0  0  0  0  0  0
  151.3414  139.0980  157.8754 H   0  0  0  0  0  0  0  0  0  0  0  0
  152.2521  141.8502  156.9214 H   0  0  0  0  0  0  0  0  0  0  0  0
  150.5353  141.2337  159.3863 H   0  0  0  0  0  0  0  0  0  0  0  0
  152.2679  141.4823  159.4669 H   0  0  0  0  0  0  0  0  0  0  0  0
  152.8241  143.7913  160.2222 H   0  0  0  0  0  0  0  0  0  0  0  0
  151.6319  146.2854  159.8556 H   0  0  0  0  0  0  0  0  0  0  0  0
  149.3778  143.3518  157.7923 H   0  0  0  0  0  0  0  0  0  0  0  0
  149.4742  141.7458  157.2334 H   0  0  0  0  0  0  0  0  0  0  0  0
  147.6504  141.7362  153.3312 H   0  0  0  0  0  0  0  0  0  0  0  0
  149.0142  140.7417  152.9270 H   0  0  0  0  0  0  0  0  0  0  0  0
  147.9367  138.7750  154.0966 H   0  0  0  0  0  0  0  0  0  0  0  0
  147.4826  139.0661  151.6555 H   0  0  0  0  0  0  0  0  0  0  0  0
  146.0948  140.0868  152.0308 H   0  0  0  0  0  0  0  0  0  0  0  0
  146.0866  138.3849  152.4848 H   0  0  0  0  0  0  0  0  0  0  0  0
  147.3168  139.3553  156.4019 H   0  0  0  0  0  0  0  0  0  0  0  0
  145.8029  140.6454  157.9150 H   0  0  0  0  0  0  0  0  0  0  0  0
  144.8924  139.5091  156.9246 H   0  0  0  0  0  0  0  0  0  0  0  0
  144.8925  141.2239  156.5205 H   0  0  0  0  0  0  0  0  0  0  0  0
  147.9644  141.7399  156.9240 H   0  0  0  0  0  0  0  0  0  0  0  0
  147.0628  142.2959  155.5421 H   0  0  0  0  0  0  0  0  0  0  0  0
  149.6136  145.8203  158.3983 H   0  0  0  0  0  0  0  0  0  0  0  0
  1  2  1  0  0  0  0
  1 20  1  0  0  0  0
  1 21  1  0  0  0  0
  1 22  1  0  0  0  0
  2  3  1  0  0  0  0
  2  9  1  0  0  0  0
  2 23  1  0  0  0  0
  3  4  1  0  0  0  0
  3 24  1  0  0  0  0
  3 25  1  0  0  0  0
  4  8  1  0  0  0  0
  4  5  1  0  0  0  0
  5  6  2  0  0  0  0
  5 26  1  0  0  0  0
  6  7  1  0  0  0  0
  6 27  1  0  0  0  0
  7  8  2  0  0  0  0
  7 42  1  0  0  0  0
  8 28  1  0  0  0  0
  9 10  1  0  0  0  0
  9 29  1  0  0  0  0
 10 11  2  0  0  0  0
 10 12  1  0  0  0  0
 12 19  1  0  0  0  0
 12 13  1  0  0  0  0
 13 14  1  0  0  0  0
 13 30  1  0  0  0  0
 13 31  1  0  0  0  0
 14 15  1  0  0  0  0
 14 16  1  0  0  0  0
 14 32  1  0  0  0  0
 15 33  1  0  0  0  0
 15 34  1  0  0  0  0
 15 35  1  0  0  0  0
 16 17  1  0  0  0  0
 17 18  1  0  0  0  0
 17 19  1  0  0  0  0
 17 36  1  0  0  0  0
 18 37  1  0  0  0  0
 18 38  1  0  0  0  0
 18 39  1  0  0  0  0
 19 40  1  0  0  0  0
 19 41  1  0  0  0  0
M  CHG  1   7   1
M  END
> <s_m_source_file>
AV-unprocessed.smi

> <i_m_source_file_index>
1419

> <i_lp_mmshare_version>
43012

> <i_f3d_flags>
0

> <s_epik_input>
W2NIXTFuW2NIXVtjSF1uMVtDSDJdW0NAQEhdKFtDSDNdKVtOSF1DKD1PKU4yW0NIMl1bQ0BASF0oW0NIM10pT1tDQEBIXShbQ0gzXSlbQ0gyXTI=

> <s_epik_cmdline>
J2VwaWtfcHl0aG9uJywgJy1waCcsICc3LjAnLCAnLXRuJywgJzgnLCAnLW1hJywgJzIwMCcsICctbWV0YWxfYmluZGluZycsICctaW1hZScsICc8aW5maWxlLm1hZT4nLCAnLW9tYWUnLCAnPG91dGZpbGUubWFlPic=

> <r_lp_tautomer_probability>
1

> <r_epik_Ionization_Penalty>
0.253607

> <r_epik_Ionization_Penalty_Charging>
0

> <r_epik_Ionization_Penalty_Neutral>
0.253607

> <r_epik_State_Penalty>
0.245018

> <r_epik_Charging_Adjusted_Penalty>
0.245018

> <i_epik_Tot_Q>
1

> <i_epik_Tot_abs_Q>
1

> <r_epik_Metal_State_Penalty>
0.535379

> <b_epik_Metal_Only>
0

> <s_lp_Force_Field>
OPLS_2005

> <r_lp_Energy>
29.0063

> <b_lp_Chiralities_Consistent>
1

> <s_lp_Variant>
AV-unprocessed.smi:1419-1

> <Gold.Version>
5.8.1

> <Gold.Id.Protein>
6NUR|6NUR_protein|mol2

> <Gold.PLP.Fitness>
39.5406

> <Gold.PLP.PLP>
-30.9594

> <Gold.PLP.part.hbond>
-2.0837

> <Gold.PLP.part.metal>
0.0000

> <Gold.PLP.part.buried>
-0.3523

> <Gold.PLP.part.nonpolar>
-29.1848

> <Gold.PLP.part.repulsive>
0.4235

> <Gold.PLP.ligand.clash>
0.7625

> <Gold.PLP.ligand.torsion>
0.1919

> <Gold.PLP.Chemscore.Hbond>
2.5360

> <Gold.PLP.Chemscore.CHOScore>
0.6466

> <Gold.PLP.Chemscore.Metal>
0.0000

> <Gold.Chemscore.Hbonds>
donor molecule, donor type, donor heavy atom, donor atom, acceptor molecule, acceptor atom, score
      L1  H     7    42       P1  8029  1.52
      P1  H  7989  7998       L1    11  1.00
      L1  C     8    28       P1  8028  0.58

> <Gold.PLP.Chemscore.Internal.Correction>
0.1795

> <Gold.Rescore>
     Score         DG    S(hbond)    S(metal)    S(lipo)     H(rot)  DE(clash)    DE(int)     intcor
     12.77     -15.36       1.76        0.00      69.86       1.63       0.26       2.33       ----

> <Gold.Chemscore.Fitness>
12.7735

> <Gold.Chemscore.DG>
-15.3612

> <Gold.Chemscore.ZeroCoef>
-5.4800

> <Gold.Chemscore.Hbond>
1.7586

> <Gold.Chemscore.Metal>
0.0000

> <Gold.Chemscore.Lipo>
69.8583

> <Gold.Chemscore.Internal_Hbond>
0.0000

> <Gold.Chemscore.DEClash>
0.2588

> <Gold.Chemscore.DEInternal>
2.3289

> <Gold.Chemscore.Rot>
1.6273

> <Gold.Chemscore.Internal.Correction>
   9.000000E+99

> <Gold.Chemscore.Hbonds>
donor molecule, donor type, donor heavy atom, donor atom, acceptor molecule, acceptor atom, score
      L1  H     7    42       P1  8029  0.60
      P1  H  7989  7998       L1    11  0.99

> <Gold.Chemscore.Hbond.Weighted>
-5.8736

> <Gold.Chemscore.Metal.Weighted>
-0.0000

> <Gold.Chemscore.Lipo.Weighted>
-8.1734

> <Gold.Chemscore.Internal_Hbond.Weighted>
0.0000

> <Gold.Chemscore.DEClash.Weighted>
0.2588

> <Gold.Chemscore.DEInternal.Weighted>
2.3289

> <Gold.Chemscore.Rot.Weighted>
4.1658

> <Gold.Chemscore.Internal.Correction.Weighted>
   9.000000E+99

> <Gold.Protein.RotatedTorsions>
[ 6907 6896 6895 6894 ] final  177.32 input  -60.11 | X-H torsion
[ 7974 7965 7964 7962 ] final  129.19 input  175.53 | X-H torsion
[ 8008 7997 7996 7995 ] final -138.89 input   59.86 | X-H torsion
[ 10167 10162 10161 10158 ] final   63.12 input  -65.29 | X-H torsion
[ 10718 10713 10712 10709 ] final  -87.18 input   66.30 | X-H torsion
[ 10763 10752 10751 10750 ] final  122.47 input  -60.55 | X-H torsion
[ 11005 11000 10999 10996 ] final -108.54 input  -57.11 | X-H torsion

> <Gold.Protein.ActiveResidues>
 VAL166  LYS551  ARG553  GLY616  TRP617  ASP618  TYR619  PRO620  LYS621  CYS622 
 ASP623  PHE694  ASN695  SER759  ASP760  ASP761  ALA762  ILE779  LEU786  VAL792 
 PHE793  MET794  SER795  GLU796  ALA797  LYS798  CYS799  TRP800  GLU811  SER814 

> <Gold.Protein.RotatedAtoms>
  151.7059  133.3311  159.3278 H   0  0  0  0  0  0  0  0  0  0  0  0  # atno 6907 bound_to 6896
  150.7715  134.6575  159.6331 H   0  0  0  0  0  0  0  0  0  0  0  0  # atno 6908 bound_to 6896
  152.3741  134.6692  160.0218 H   0  0  0  0  0  0  0  0  0  0  0  0  # atno 6909 bound_to 6896
  145.0314  139.4043  143.5148 H   0  0  0  0  0  0  0  0  0  0  0  0  # atno 7974 bound_to 7965
  155.4358  140.0528  157.3014 H   0  0  0  0  0  0  0  0  0  0  0  0  # atno 8008 bound_to 7997
  154.4840  140.2093  155.9656 H   0  0  0  0  0  0  0  0  0  0  0  0  # atno 8009 bound_to 7997
  156.1247  140.3182  155.8264 H   0  0  0  0  0  0  0  0  0  0  0  0  # atno 8010 bound_to 7997
  140.1365  144.4594  150.6835 H   0  0  0  0  0  0  0  0  0  0  0  0  # atno 10167 bound_to 10162
  155.9986  130.4791  150.4828 H   0  0  0  0  0  0  0  0  0  0  0  0  # atno 10718 bound_to 10713
  153.6302  135.3397  155.3039 H   0  0  0  0  0  0  0  0  0  0  0  0  # atno 10763 bound_to 10752
  154.8582  135.4294  154.2113 H   0  0  0  0  0  0  0  0  0  0  0  0  # atno 10764 bound_to 10752
  153.3007  135.7024  153.7279 H   0  0  0  0  0  0  0  0  0  0  0  0  # atno 10765 bound_to 10752
  141.0896  133.9078  157.2106 H   0  0  0  0  0  0  0  0  0  0  0  0  # atno 11005 bound_to 11000
  146.3499  139.9866  142.8690 LP  0  0  0  0  0  0  0  0  0  0  0  0  # atno 17320 bound_to 7965
  145.1766  140.9747  143.4291 LP  0  0  0  0  0  0  0  0  0  0  0  0  # atno 17321 bound_to 7965
  140.6786  143.2316  151.5443 LP  0  0  0  0  0  0  0  0  0  0  0  0  # atno 17342 bound_to 10162
  139.5493  144.2437  152.1501 LP  0  0  0  0  0  0  0  0  0  0  0  0  # atno 17343 bound_to 10162
  157.2832  131.0611  151.2184 LP  0  0  0  0  0  0  0  0  0  0  0  0  # atno 17370 bound_to 10713
  157.3223  130.6943  149.6276 LP  0  0  0  0  0  0  0  0  0  0  0  0  # atno 17371 bound_to 10713
  139.9719  135.0125  156.9535 LP  0  0  0  0  0  0  0  0  0  0  0  0  # atno 17394 bound_to 11000
  140.5283  134.0839  155.7309 LP  0  0  0  0  0  0  0  0  0  0  0  0  # atno 17395 bound_to 11000

$$$$
