AV-unprocessed.smi:3217|AV-procd|sdf|12291|dock2
  -GOLD-   2272018133D 1   1.00000     0.00000
 Structure written by MMmdl.
 34 35  0  0  0  0  0  0  0  0  1 V2000
  143.7705  136.6634  152.2938 C   0  0  0  0  0  0  0  0  0  0  0  0
  144.9439  135.7032  152.5372 C   0  0  2  0  0  0  0  0  0  0  0  0
  146.1759  136.4830  152.6499 N   0  0  0  0  0  0  0  0  0  0  0  0
  146.3164  137.6436  153.3068 C   0  0  0  0  0  0  0  0  0  0  0  0
  145.4020  138.1966  153.9167 O   0  0  0  0  0  0  0  0  0  0  0  0
  147.5717  138.1102  153.1932 N   0  0  0  0  0  0  0  0  0  0  0  0
  148.1288  139.3127  153.7082 C   0  0  0  0  0  0  0  0  0  0  0  0
  147.4465  140.5524  153.7738 C   0  0  0  0  0  0  0  0  0  0  0  0
  148.1127  141.6671  154.3185 C   0  0  0  0  0  0  0  0  0  0  0  0
  149.4311  141.5021  154.7848 C   0  0  0  0  0  0  0  0  0  0  0  0
  150.0889  140.3246  154.7408 N   0  0  0  0  0  0  0  0  0  0  0  0
  149.4443  139.2605  154.2163 C   0  0  0  0  0  0  0  0  0  0  0  0
  145.0741  134.6539  151.4145 C   0  0  1  0  0  0  0  0  0  0  0  0
  146.1874  133.6236  151.6230 C   0  0  0  0  0  0  0  0  0  0  0  0
  145.6846  132.4554  150.8072 C   0  0  0  0  0  0  0  0  0  0  0  0
  144.1870  132.5078  151.0891 C   0  0  0  0  0  0  0  0  0  0  0  0
  143.8789  133.8816  151.3108 O   0  0  0  0  0  0  0  0  0  0  0  0
  142.8245  136.1239  152.2396 H   0  0  0  0  0  0  0  0  0  0  0  0
  143.8933  137.2143  151.3607 H   0  0  0  0  0  0  0  0  0  0  0  0
  143.6860  137.3910  153.1018 H   0  0  0  0  0  0  0  0  0  0  0  0
  144.7477  135.1756  153.4723 H   0  0  0  0  0  0  0  0  0  0  0  0
  146.9861  136.1095  152.1780 H   0  0  0  0  0  0  0  0  0  0  0  0
  148.1918  137.5652  152.6124 H   0  0  0  0  0  0  0  0  0  0  0  0
  146.4306  140.6726  153.4325 H   0  0  0  0  0  0  0  0  0  0  0  0
  147.6218  142.6271  154.3801 H   0  0  0  0  0  0  0  0  0  0  0  0
  149.9694  142.3365  155.2090 H   0  0  0  0  0  0  0  0  0  0  0  0
  150.0019  138.3353  154.1982 H   0  0  0  0  0  0  0  0  0  0  0  0
  145.2285  135.1488  150.4541 H   0  0  0  0  0  0  0  0  0  0  0  0
  147.1650  133.9809  151.2985 H   0  0  0  0  0  0  0  0  0  0  0  0
  146.2585  133.3399  152.6742 H   0  0  0  0  0  0  0  0  0  0  0  0
  145.8760  132.6273  149.7471 H   0  0  0  0  0  0  0  0  0  0  0  0
  146.1393  131.5055  151.0896 H   0  0  0  0  0  0  0  0  0  0  0  0
  143.5951  132.0924  150.2731 H   0  0  0  0  0  0  0  0  0  0  0  0
  143.9510  131.9503  151.9962 H   0  0  0  0  0  0  0  0  0  0  0  0
  1  2  1  0  0  0  0
  1 18  1  0  0  0  0
  1 19  1  0  0  0  0
  1 20  1  0  0  0  0
  2  3  1  0  0  0  0
  2 13  1  0  0  0  0
  2 21  1  0  0  0  0
  3  4  1  0  0  0  0
  3 22  1  0  0  0  0
  4  5  2  0  0  0  0
  4  6  1  0  0  0  0
  6  7  1  0  0  0  0
  6 23  1  0  0  0  0
  7 12  1  0  0  0  0
  7  8  2  0  0  0  0
  8  9  1  0  0  0  0
  8 24  1  0  0  0  0
  9 10  2  0  0  0  0
  9 25  1  0  0  0  0
 10 11  1  0  0  0  0
 10 26  1  0  0  0  0
 11 12  2  0  0  0  0
 12 27  1  0  0  0  0
 13 17  1  0  0  0  0
 13 14  1  0  0  0  0
 13 28  1  0  0  0  0
 14 15  1  0  0  0  0
 14 29  1  0  0  0  0
 14 30  1  0  0  0  0
 15 16  1  0  0  0  0
 15 31  1  0  0  0  0
 15 32  1  0  0  0  0
 16 17  1  0  0  0  0
 16 33  1  0  0  0  0
 16 34  1  0  0  0  0
M  END
> <s_m_source_file>
AV-unprocessed.smi

> <i_m_source_file_index>
3217

> <i_lp_mmshare_version>
43012

> <i_f3d_flags>
0

> <s_epik_input>
TzFbQ0gyXVtDSDJdW0NIMl1bQ0BIXTFbQ0BIXShbQ0gzXSlbTkhdQyg9TylbTkhdYzJbY0hdW2NIXVtjSF1uW2NIXTI=

> <s_epik_cmdline>
J2VwaWtfcHl0aG9uJywgJy1waCcsICc3LjAnLCAnLXRuJywgJzgnLCAnLW1hJywgJzIwMCcsICctbWV0YWxfYmluZGluZycsICctaW1hZScsICc8aW5maWxlLm1hZT4nLCAnLW9tYWUnLCAnPG91dGZpbGUubWFlPic=

> <r_epik_Ionization_Penalty>
0.00475451

> <r_epik_Ionization_Penalty_Charging>
0

> <r_epik_Ionization_Penalty_Neutral>
0.00475451

> <r_epik_State_Penalty>
0.00341814

> <r_epik_Charging_Adjusted_Penalty>
0.00341814

> <i_epik_Tot_Q>
0

> <i_epik_Tot_abs_Q>
0

> <r_epik_Metal_State_Penalty>
-0

> <b_epik_Metal_Only>
0

> <s_lp_Force_Field>
OPLS_2005

> <r_lp_Energy>
20.7141

> <b_lp_Chiralities_Consistent>
1

> <s_lp_Variant>
AV-unprocessed.smi:3217-3

> <Gold.Version>
5.8.1

> <Gold.Id.Protein>
6NUR|6NUR_protein|mol2

> <Gold.PLP.Fitness>
39.4958

> <Gold.PLP.PLP>
-28.8873

> <Gold.PLP.part.hbond>
-3.0000

> <Gold.PLP.part.metal>
0.0000

> <Gold.PLP.part.buried>
-1.6138

> <Gold.PLP.part.nonpolar>
-24.3060

> <Gold.PLP.part.repulsive>
0.4493

> <Gold.PLP.ligand.clash>
0.0000

> <Gold.PLP.ligand.torsion>
0.5130

> <Gold.PLP.Chemscore.Hbond>
2.9360

> <Gold.PLP.Chemscore.CHOScore>
0.9390

> <Gold.PLP.Chemscore.Metal>
0.0000

> <Gold.Chemscore.Hbonds>
donor molecule, donor type, donor heavy atom, donor atom, acceptor molecule, acceptor atom, score
      L1  H     3    22       P1  7948  0.98
      L1  H     6    23       P1  7948  1.00
      P1  H  7989  7998       L1    11  0.86
      L1  C    10    26       P1  8028  0.61

> <Gold.PLP.Chemscore.Internal.Correction>
0.0095

> <Gold.Rescore>
     Score         DG    S(hbond)    S(metal)    S(lipo)     H(rot)  DE(clash)    DE(int)     intcor
     15.20     -18.15       2.50        0.00      63.82       1.22       0.15       2.80       ----

> <Gold.Chemscore.Fitness>
15.1995

> <Gold.Chemscore.DG>
-18.1505

> <Gold.Chemscore.ZeroCoef>
-5.4800

> <Gold.Chemscore.Hbond>
2.4958

> <Gold.Chemscore.Metal>
0.0000

> <Gold.Chemscore.Lipo>
63.8216

> <Gold.Chemscore.Internal_Hbond>
0.0000

> <Gold.Chemscore.DEClash>
0.1530

> <Gold.Chemscore.DEInternal>
2.7980

> <Gold.Chemscore.Rot>
1.2236

> <Gold.Chemscore.Internal.Correction>
   9.000000E+99

> <Gold.Chemscore.Hbonds>
donor molecule, donor type, donor heavy atom, donor atom, acceptor molecule, acceptor atom, score
      L1  H     3    22       P1  7948  0.91
      L1  H     6    23       P1  7948  1.00
      P1  H  7989  7998       L1    11  0.11

> <Gold.Chemscore.Hbond.Weighted>
-8.3359

> <Gold.Chemscore.Metal.Weighted>
-0.0000

> <Gold.Chemscore.Lipo.Weighted>
-7.4671

> <Gold.Chemscore.Internal_Hbond.Weighted>
0.0000

> <Gold.Chemscore.DEClash.Weighted>
0.1530

> <Gold.Chemscore.DEInternal.Weighted>
2.7980

> <Gold.Chemscore.Rot.Weighted>
3.1325

> <Gold.Chemscore.Internal.Correction.Weighted>
   9.000000E+99

> <Gold.Protein.RotatedTorsions>
[ 6907 6896 6895 6894 ] final   10.45 input  -60.11 | X-H torsion
[ 7974 7965 7964 7962 ] final   28.57 input  175.53 | X-H torsion
[ 8008 7997 7996 7995 ] final -157.40 input   59.86 | X-H torsion
[ 10167 10162 10161 10158 ] final  107.52 input  -65.29 | X-H torsion
[ 10718 10713 10712 10709 ] final -146.65 input   66.30 | X-H torsion
[ 10763 10752 10751 10750 ] final   58.93 input  -60.55 | X-H torsion
[ 11005 11000 10999 10996 ] final   83.60 input  -57.11 | X-H torsion

> <Gold.Protein.ActiveResidues>
 VAL166  LYS551  ARG553  GLY616  TRP617  ASP618  TYR619  PRO620  LYS621  CYS622 
 ASP623  PHE694  ASN695  SER759  ASP760  ASP761  ALA762  ILE779  LEU786  VAL792 
 PHE793  MET794  SER795  GLU796  ALA797  LYS798  CYS799  TRP800  GLU811  SER814 

> <Gold.Protein.RotatedAtoms>
  151.7385  135.0859  160.0311 H   0  0  0  0  0  0  0  0  0  0  0  0  # atno 6907 bound_to 6896
  152.3495  133.6158  159.5943 H   0  0  0  0  0  0  0  0  0  0  0  0  # atno 6908 bound_to 6896
  150.7530  133.9513  159.3528 H   0  0  0  0  0  0  0  0  0  0  0  0  # atno 6909 bound_to 6896
  146.1721  139.7038  142.8960 H   0  0  0  0  0  0  0  0  0  0  0  0  # atno 7974 bound_to 7965
  155.7318  140.0803  157.2285 H   0  0  0  0  0  0  0  0  0  0  0  0  # atno 8008 bound_to 7997
  154.4032  140.1594  156.2572 H   0  0  0  0  0  0  0  0  0  0  0  0  # atno 8009 bound_to 7997
  155.9101  140.3404  155.6095 H   0  0  0  0  0  0  0  0  0  0  0  0  # atno 8010 bound_to 7997
  139.6920  144.7106  151.1331 H   0  0  0  0  0  0  0  0  0  0  0  0  # atno 10167 bound_to 10162
  156.3976  130.7918  151.2125 H   0  0  0  0  0  0  0  0  0  0  0  0  # atno 10718 bound_to 10713
  152.9882  135.5589  154.5631 H   0  0  0  0  0  0  0  0  0  0  0  0  # atno 10763 bound_to 10752
  154.5046  135.2799  155.1394 H   0  0  0  0  0  0  0  0  0  0  0  0  # atno 10764 bound_to 10752
  154.2811  135.6344  153.5400 H   0  0  0  0  0  0  0  0  0  0  0  0  # atno 10765 bound_to 10752
  139.9026  134.8156  156.2331 H   0  0  0  0  0  0  0  0  0  0  0  0  # atno 11005 bound_to 11000
  145.4311  141.0415  143.2910 LP  0  0  0  0  0  0  0  0  0  0  0  0  # atno 17320 bound_to 7965
  144.8179  139.5843  143.7000 LP  0  0  0  0  0  0  0  0  0  0  0  0  # atno 17321 bound_to 7965
  140.7685  143.5545  150.9167 LP  0  0  0  0  0  0  0  0  0  0  0  0  # atno 17342 bound_to 10162
  139.9223  143.6591  152.3094 LP  0  0  0  0  0  0  0  0  0  0  0  0  # atno 17343 bound_to 10162
  157.7502  131.0296  150.4102 LP  0  0  0  0  0  0  0  0  0  0  0  0  # atno 17370 bound_to 10713
  156.4375  130.3985  149.6719 LP  0  0  0  0  0  0  0  0  0  0  0  0  # atno 17371 bound_to 10713
  141.0333  133.6977  156.1468 LP  0  0  0  0  0  0  0  0  0  0  0  0  # atno 17394 bound_to 11000
  140.7065  134.4508  157.5584 LP  0  0  0  0  0  0  0  0  0  0  0  0  # atno 17395 bound_to 11000

$$$$
