AV-unprocessed.smi:437|AV-procd|sdf|2562|dock9
  -GOLD-   2262022533D 1   1.00000     0.00000
 Structure written by MMmdl.
 48 49  0  0  0  0  0  0  0  0  1 V2000
  150.7753  142.1039  157.1514 C   0  0  0  0  0  0  0  0  0  0  0  0
  150.8755  140.6023  157.1610 C   0  0  0  0  0  0  0  0  0  0  0  0
  150.3243  139.9780  156.1726 N   0  0  0  0  0  0  0  0  0  0  0  0
  150.3519  138.5994  156.0869 N   0  0  0  0  0  0  0  0  0  0  0  0
  149.6681  138.0603  154.9019 C   0  0  0  0  0  0  0  0  0  0  0  0
  148.5115  137.1089  155.2463 C   0  0  0  0  0  0  0  0  0  0  0  0
  148.1343  136.9831  156.4146 O   0  0  0  0  0  0  0  0  0  0  0  0
  147.9741  136.4678  154.1889 N   0  0  0  0  0  0  0  0  0  0  0  0
  146.9571  135.5849  154.1930 C   0  0  0  0  0  0  0  0  0  0  0  0
  146.2670  135.2857  155.1700 O   0  0  0  0  0  0  0  0  0  0  0  0
  146.7766  135.0569  152.9735 N   0  0  0  0  0  0  0  0  0  0  0  0
  145.9569  133.8854  152.6693 C   0  0  1  0  0  0  0  0  0  0  0  0
  144.8304  134.2716  151.6863 C   0  0  0  0  0  0  0  0  0  0  0  0
  143.9803  133.0554  151.2917 C   0  0  0  0  0  0  0  0  0  0  0  0
  144.8554  131.9402  150.7046 C   0  0  0  0  0  0  0  0  0  0  0  0
  145.9688  131.5408  151.6845 C   0  0  0  0  0  0  0  0  0  0  0  0
  146.8374  132.7482  152.0927 C   0  0  2  0  0  0  0  0  0  0  0  0
  147.9473  132.3096  153.0648 C   0  0  0  0  0  0  0  0  0  0  0  0
  150.9458  137.7763  156.9982 C   0  0  0  0  0  0  0  0  0  0  0  0
  150.9468  136.5498  156.8812 O   0  0  0  0  0  0  0  0  0  0  0  0
  151.5702  138.4902  158.1142 C   0  0  0  0  0  0  0  0  0  0  0  0
  152.1990  137.6656  159.0950 C   0  0  0  0  0  0  0  0  0  0  0  0
  152.6991  136.9802  159.8825 N   0  0  0  0  0  0  0  0  0  0  0  0
  151.5506  139.8434  158.2089 C   0  0  0  0  0  0  0  0  0  0  0  0
  152.1846  140.6320  159.3467 C   0  0  0  0  0  0  0  0  0  0  0  0
  151.7608  142.5555  157.0357 H   0  0  0  0  0  0  0  0  0  0  0  0
  150.3417  142.4701  158.0823 H   0  0  0  0  0  0  0  0  0  0  0  0
  150.1488  142.4648  156.3340 H   0  0  0  0  0  0  0  0  0  0  0  0
  149.2670  138.8771  154.2990 H   0  0  0  0  0  0  0  0  0  0  0  0
  150.3809  137.5448  154.2552 H   0  0  0  0  0  0  0  0  0  0  0  0
  148.3807  136.6765  153.2891 H   0  0  0  0  0  0  0  0  0  0  0  0
  147.2480  135.4909  152.1935 H   0  0  0  0  0  0  0  0  0  0  0  0
  145.5025  133.5249  153.5945 H   0  0  0  0  0  0  0  0  0  0  0  0
  144.1866  135.0328  152.1287 H   0  0  0  0  0  0  0  0  0  0  0  0
  145.2604  134.7175  150.7881 H   0  0  0  0  0  0  0  0  0  0  0  0
  143.4476  132.6816  152.1670 H   0  0  0  0  0  0  0  0  0  0  0  0
  143.2197  133.3515  150.5687 H   0  0  0  0  0  0  0  0  0  0  0  0
  144.2407  131.0718  150.4664 H   0  0  0  0  0  0  0  0  0  0  0  0
  145.2960  132.2754  149.7648 H   0  0  0  0  0  0  0  0  0  0  0  0
  145.5244  131.0900  152.5728 H   0  0  0  0  0  0  0  0  0  0  0  0
  146.5919  130.7706  151.2285 H   0  0  0  0  0  0  0  0  0  0  0  0
  147.3234  133.1225  151.1900 H   0  0  0  0  0  0  0  0  0  0  0  0
  147.5291  131.9530  154.0066 H   0  0  0  0  0  0  0  0  0  0  0  0
  148.6312  133.1273  153.2929 H   0  0  0  0  0  0  0  0  0  0  0  0
  148.5427  131.5012  152.6395 H   0  0  0  0  0  0  0  0  0  0  0  0
  152.7582  139.9950  160.0195 H   0  0  0  0  0  0  0  0  0  0  0  0
  151.4159  141.1309  159.9377 H   0  0  0  0  0  0  0  0  0  0  0  0
  152.8663  141.3897  158.9590 H   0  0  0  0  0  0  0  0  0  0  0  0
  1  2  1  0  0  0  0
  1 26  1  0  0  0  0
  1 27  1  0  0  0  0
  1 28  1  0  0  0  0
  2 24  1  0  0  0  0
  2  3  2  0  0  0  0
  3  4  1  0  0  0  0
  4  5  1  0  0  0  0
  4 19  1  0  0  0  0
  5  6  1  0  0  0  0
  5 29  1  0  0  0  0
  5 30  1  0  0  0  0
  6  7  2  0  0  0  0
  6  8  1  0  0  0  0
  8  9  1  0  0  0  0
  8 31  1  0  0  0  0
  9 10  2  0  0  0  0
  9 11  1  0  0  0  0
 11 12  1  0  0  0  0
 11 32  1  0  0  0  0
 12 17  1  0  0  0  0
 12 13  1  0  0  0  0
 12 33  1  0  0  0  0
 13 14  1  0  0  0  0
 13 34  1  0  0  0  0
 13 35  1  0  0  0  0
 14 15  1  0  0  0  0
 14 36  1  0  0  0  0
 14 37  1  0  0  0  0
 15 16  1  0  0  0  0
 15 38  1  0  0  0  0
 15 39  1  0  0  0  0
 16 17  1  0  0  0  0
 16 40  1  0  0  0  0
 16 41  1  0  0  0  0
 17 18  1  0  0  0  0
 17 42  1  0  0  0  0
 18 43  1  0  0  0  0
 18 44  1  0  0  0  0
 18 45  1  0  0  0  0
 19 20  2  0  0  0  0
 19 21  1  0  0  0  0
 21 22  1  0  0  0  0
 21 24  2  0  0  0  0
 22 23  3  0  0  0  0
 24 25  1  0  0  0  0
 25 46  1  0  0  0  0
 25 47  1  0  0  0  0
 25 48  1  0  0  0  0
M  END
> <s_m_source_file>
AV-unprocessed.smi

> <i_m_source_file_index>
437

> <i_lp_mmshare_version>
43012

> <i_f3d_flags>
0

> <s_epik_input>
TiNDYyhjMVtDSDNdKWMoPU8pbihuYzFbQ0gzXSlbQ0gyXUMoPU8pW05IXUMoPU8pW05IXVtDQEBIXTJbQ0gyXVtDSDJdW0NIMl1bQ0gyXVtDQEhdMltDSDNd

> <s_epik_cmdline>
J2VwaWtfcHl0aG9uJywgJy1waCcsICc3LjAnLCAnLXRuJywgJzgnLCAnLW1hJywgJzIwMCcsICctbWV0YWxfYmluZGluZycsICctaW1hZScsICc8aW5maWxlLm1hZT4nLCAnLW9tYWUnLCAnPG91dGZpbGUubWFlPic=

> <r_lp_tautomer_probability>
1

> <r_epik_Ionization_Penalty>
3.27035e-05

> <r_epik_Ionization_Penalty_Charging>
1.6965e-11

> <r_epik_Ionization_Penalty_Neutral>
3.27035e-05

> <r_epik_State_Penalty>
-0

> <r_epik_Charging_Adjusted_Penalty>
1.6965e-11

> <i_epik_Tot_Q>
0

> <i_epik_Tot_abs_Q>
0

> <r_epik_Metal_State_Penalty>
-0

> <b_epik_Metal_Only>
0

> <s_lp_Force_Field>
OPLS_2005

> <r_lp_Energy>
26.7465

> <b_lp_Chiralities_Consistent>
1

> <s_lp_Variant>
AV-unprocessed.smi:437-4

> <Gold.Version>
5.8.1

> <Gold.Id.Protein>
6NUR|6NUR_protein|mol2

> <Gold.PLP.Fitness>
40.6216

> <Gold.PLP.PLP>
-32.4418

> <Gold.PLP.part.hbond>
-2.8550

> <Gold.PLP.part.metal>
0.0000

> <Gold.PLP.part.buried>
-5.7166

> <Gold.PLP.part.nonpolar>
-24.9299

> <Gold.PLP.part.repulsive>
0.0493

> <Gold.PLP.ligand.clash>
0.0000

> <Gold.PLP.ligand.torsion>
0.1178

> <Gold.PLP.Chemscore.Hbond>
2.8000

> <Gold.PLP.Chemscore.CHOScore>
0.0000

> <Gold.PLP.Chemscore.Metal>
0.0000

> <Gold.Chemscore.Hbonds>
donor molecule, donor type, donor heavy atom, donor atom, acceptor molecule, acceptor atom, score
      L1  H     8    31       P1  7948  1.00
      L1  H    11    32       P1  7948  0.75
      P1  H  6896  6907       L1    23  0.96

> <Gold.PLP.Chemscore.Internal.Correction>
0.0154

> <Gold.Rescore>
     Score         DG    S(hbond)    S(metal)    S(lipo)     H(rot)  DE(clash)    DE(int)     intcor
     17.78     -19.35       2.81        0.00      72.44       1.57       0.00       1.57       ----

> <Gold.Chemscore.Fitness>
17.7770

> <Gold.Chemscore.DG>
-19.3471

> <Gold.Chemscore.ZeroCoef>
-5.4800

> <Gold.Chemscore.Hbond>
2.8142

> <Gold.Chemscore.Metal>
0.0000

> <Gold.Chemscore.Lipo>
72.4413

> <Gold.Chemscore.Internal_Hbond>
0.0000

> <Gold.Chemscore.DEClash>
0.0000

> <Gold.Chemscore.DEInternal>
1.5701

> <Gold.Chemscore.Rot>
1.5656

> <Gold.Chemscore.Internal.Correction>
   9.000000E+99

> <Gold.Chemscore.Hbonds>
donor molecule, donor type, donor heavy atom, donor atom, acceptor molecule, acceptor atom, score
      L1  H     8    31       P1  7948  0.95
      L1  H    11    32       P1  7948  0.76
      P1  H  6896  6907       L1    23  0.87

> <Gold.Chemscore.Hbond.Weighted>
-9.3993

> <Gold.Chemscore.Metal.Weighted>
-0.0000

> <Gold.Chemscore.Lipo.Weighted>
-8.4756

> <Gold.Chemscore.Internal_Hbond.Weighted>
0.0000

> <Gold.Chemscore.DEClash.Weighted>
0.0000

> <Gold.Chemscore.DEInternal.Weighted>
1.5701

> <Gold.Chemscore.Rot.Weighted>
4.0079

> <Gold.Chemscore.Internal.Correction.Weighted>
   9.000000E+99

> <Gold.Protein.RotatedTorsions>
[ 6907 6896 6895 6894 ] final   27.60 input  -60.11 | X-H torsion
[ 7974 7965 7964 7962 ] final  -76.41 input  175.53 | X-H torsion
[ 8008 7997 7996 7995 ] final  -22.07 input   59.86 | X-H torsion
[ 10167 10162 10161 10158 ] final  164.44 input  -65.29 | X-H torsion
[ 10718 10713 10712 10709 ] final  -99.92 input   66.30 | X-H torsion
[ 10763 10752 10751 10750 ] final   76.01 input  -60.55 | X-H torsion
[ 11005 11000 10999 10996 ] final   50.77 input  -57.11 | X-H torsion

> <Gold.Protein.ActiveResidues>
 VAL166  LYS551  ARG553  GLY616  TRP617  ASP618  TYR619  PRO620  LYS621  CYS622 
 ASP623  PHE694  ASN695  SER759  ASP760  ASP761  ALA762  ILE779  LEU786  VAL792 
 PHE793  MET794  SER795  GLU796  ALA797  LYS798  CYS799  TRP800  GLU811  SER814 

> <Gold.Protein.RotatedAtoms>
  152.0047  134.9909  160.0566 H   0  0  0  0  0  0  0  0  0  0  0  0  # atno 6907 bound_to 6896
  152.1486  133.4503  159.4810 H   0  0  0  0  0  0  0  0  0  0  0  0  # atno 6908 bound_to 6896
  150.6873  134.2135  159.4412 H   0  0  0  0  0  0  0  0  0  0  0  0  # atno 6909 bound_to 6896
  145.6133  140.9381  143.1178 H   0  0  0  0  0  0  0  0  0  0  0  0  # atno 7974 bound_to 7965
  154.4667  140.2018  156.0101 H   0  0  0  0  0  0  0  0  0  0  0  0  # atno 8008 bound_to 7997
  156.0939  140.3254  155.7822 H   0  0  0  0  0  0  0  0  0  0  0  0  # atno 8009 bound_to 7997
  155.4911  140.0546  157.2944 H   0  0  0  0  0  0  0  0  0  0  0  0  # atno 8010 bound_to 7997
  139.4889  144.4234  151.9158 H   0  0  0  0  0  0  0  0  0  0  0  0  # atno 10167 bound_to 10162
  156.0148  130.5304  150.6741 H   0  0  0  0  0  0  0  0  0  0  0  0  # atno 10718 bound_to 10713
  153.0695  135.4967  154.8274 H   0  0  0  0  0  0  0  0  0  0  0  0  # atno 10763 bound_to 10752
  154.7002  135.3000  154.9354 H   0  0  0  0  0  0  0  0  0  0  0  0  # atno 10764 bound_to 10752
  154.0080  135.6758  153.4816 H   0  0  0  0  0  0  0  0  0  0  0  0  # atno 10765 bound_to 10752
  140.0989  134.5108  155.8781 H   0  0  0  0  0  0  0  0  0  0  0  0  # atno 11005 bound_to 11000
  144.7261  139.7872  143.7364 LP  0  0  0  0  0  0  0  0  0  0  0  0  # atno 17320 bound_to 7965
  146.1488  139.4565  143.0062 LP  0  0  0  0  0  0  0  0  0  0  0  0  # atno 17321 bound_to 7965
  140.3679  144.2891  150.5924 LP  0  0  0  0  0  0  0  0  0  0  0  0  # atno 17342 bound_to 10162
  140.5345  143.2236  151.8185 LP  0  0  0  0  0  0  0  0  0  0  0  0  # atno 17343 bound_to 10162
  157.4457  131.0866  151.0898 LP  0  0  0  0  0  0  0  0  0  0  0  0  # atno 17370 bound_to 10713
  157.1429  130.6150  149.5560 LP  0  0  0  0  0  0  0  0  0  0  0  0  # atno 17371 bound_to 10713
  141.2100  133.6690  156.6479 LP  0  0  0  0  0  0  0  0  0  0  0  0  # atno 17394 bound_to 11000
  140.3247  134.7978  157.4280 LP  0  0  0  0  0  0  0  0  0  0  0  0  # atno 17395 bound_to 11000

$$$$
