AV-unprocessed.smi:54|AV-procd|sdf|539|dock8
  -GOLD-   2262016423D 1   1.00000     0.00000
 Structure written by MMmdl.
 44 46  0  0  0  0  0  0  0  0  1 V2000
  151.0109  143.8989  159.9350 C   0  0  0  0  0  0  0  0  0  0  0  0
  152.0512  142.8243  159.5790 C   0  0  0  0  0  0  0  0  0  0  0  0
  153.3542  143.4576  159.0649 C   0  0  0  0  0  0  0  0  0  0  0  0
  151.4846  141.8441  158.5454 C   0  0  0  0  0  0  0  0  0  0  0  0
  150.3471  141.9635  158.0884 O   0  0  0  0  0  0  0  0  0  0  0  0
  152.3827  140.7758  158.1441 N   0  0  0  0  0  0  0  0  0  0  0  0
  152.1393  139.7852  157.2546 C   0  0  0  0  0  0  0  0  0  0  0  0
  150.9556  139.5886  156.6918 N   0  0  0  0  0  0  0  0  0  0  0  0
  150.9084  138.5369  155.8200 C   0  0  0  0  0  0  0  0  0  0  0  0
  151.9467  137.6909  155.4930 C   0  0  0  0  0  0  0  0  0  0  0  0
  151.5182  136.7407  154.5727 N   0  0  0  0  0  0  0  0  0  0  0  0
  150.2640  137.0367  154.3723 C   0  0  0  0  0  0  0  0  0  0  0  0
  149.8176  138.1249  155.0863 N   0  0  0  0  0  0  0  0  0  0  0  0
  148.4608  138.7623  155.1175 C   0  0  2  0  0  0  0  0  0  0  0  0
  147.5622  137.9152  154.4655 O   0  0  0  0  0  0  0  0  0  0  0  0
  147.2901  138.4184  153.1645 C   0  0  1  0  0  0  0  0  0  0  0  0
  146.0035  137.8020  152.5898 C   0  0  0  0  0  0  0  0  0  0  0  0
  145.5753  138.5318  151.4601 O   0  0  0  0  0  0  0  0  0  0  0  0
  147.3056  139.9386  153.3705 C   0  0  1  0  0  0  0  0  0  0  0  0
  146.0764  140.3961  153.9028 O   0  0  0  0  0  0  0  0  0  0  0  0
  148.4285  140.1277  154.3836 C   0  0  2  0  0  0  0  0  0  0  0  0
  149.6329  140.4527  153.7087 O   0  0  0  0  0  0  0  0  0  0  0  0
  153.2323  137.8861  156.0982 C   0  0  0  0  0  0  0  0  0  0  0  0
  154.2610  137.2354  155.9283 O   0  0  0  0  0  0  0  0  0  0  0  0
  153.2408  138.9740  156.9813 N   0  0  0  0  0  0  0  0  0  0  0  0
  148.2123  138.8287  156.1775 H   0  0  0  0  0  0  0  0  0  0  0  0
  148.1303  138.1454  152.5235 H   0  0  0  0  0  0  0  0  0  0  0  0
  147.4860  140.4732  152.4367 H   0  0  0  0  0  0  0  0  0  0  0  0
  148.2106  140.9234  155.0974 H   0  0  0  0  0  0  0  0  0  0  0  0
  150.0829  143.4505  160.2926 H   0  0  0  0  0  0  0  0  0  0  0  0
  150.7691  144.5249  159.0751 H   0  0  0  0  0  0  0  0  0  0  0  0
  151.3825  144.5528  160.7243 H   0  0  0  0  0  0  0  0  0  0  0  0
  152.2827  142.2659  160.4873 H   0  0  0  0  0  0  0  0  0  0  0  0
  154.0932  142.6958  158.8132 H   0  0  0  0  0  0  0  0  0  0  0  0
  153.7976  144.1052  159.8218 H   0  0  0  0  0  0  0  0  0  0  0  0
  153.1821  144.0624  158.1736 H   0  0  0  0  0  0  0  0  0  0  0  0
  153.2972  140.7860  158.5707 H   0  0  0  0  0  0  0  0  0  0  0  0
  149.6401  136.4680  153.6987 H   0  0  0  0  0  0  0  0  0  0  0  0
  146.1925  136.7734  152.2820 H   0  0  0  0  0  0  0  0  0  0  0  0
  145.2052  137.7682  153.3315 H   0  0  0  0  0  0  0  0  0  0  0  0
  145.0946  139.2896  151.7569 H   0  0  0  0  0  0  0  0  0  0  0  0
  145.3911  140.1982  153.2826 H   0  0  0  0  0  0  0  0  0  0  0  0
  149.4876  140.3654  152.7791 H   0  0  0  0  0  0  0  0  0  0  0  0
  154.1162  139.1723  157.4429 H   0  0  0  0  0  0  0  0  0  0  0  0
  1  2  1  0  0  0  0
  1 30  1  0  0  0  0
  1 31  1  0  0  0  0
  1 32  1  0  0  0  0
  2  3  1  0  0  0  0
  2  4  1  0  0  0  0
  2 33  1  0  0  0  0
  3 34  1  0  0  0  0
  3 35  1  0  0  0  0
  3 36  1  0  0  0  0
  4  5  2  0  0  0  0
  4  6  1  0  0  0  0
  6 37  1  0  0  0  0
  6  7  1  0  0  0  0
  7 25  1  0  0  0  0
  7  8  2  0  0  0  0
  8  9  1  0  0  0  0
  9 13  1  0  0  0  0
  9 10  2  0  0  0  0
 10 11  1  0  0  0  0
 10 23  1  0  0  0  0
 11 12  2  0  0  0  0
 12 13  1  0  0  0  0
 12 38  1  0  0  0  0
 13 14  1  0  0  0  0
 14 26  1  0  0  0  0
 14 21  1  0  0  0  0
 14 15  1  0  0  0  0
 15 16  1  0  0  0  0
 16 27  1  0  0  0  0
 16 17  1  0  0  0  0
 16 19  1  0  0  0  0
 17 18  1  0  0  0  0
 17 39  1  0  0  0  0
 17 40  1  0  0  0  0
 18 41  1  0  0  0  0
 19 28  1  0  0  0  0
 19 20  1  0  0  0  0
 19 21  1  0  0  0  0
 20 42  1  0  0  0  0
 21 29  1  0  0  0  0
 21 22  1  0  0  0  0
 22 43  1  0  0  0  0
 23 24  2  0  0  0  0
 23 25  1  0  0  0  0
 25 44  1  0  0  0  0
M  END
> <s_m_source_file>
AV-unprocessed.smi

> <i_m_source_file_index>
54

> <i_lp_mmshare_version>
43012

> <i_f3d_flags>
0

> <s_epik_input>
W0NIM11bQ0hdKFtDSDNdKUMoPU8pW05IXWMobjEpW25IXWMoPU8pYyhjMTIpbltjSF1uMltDQEBIXTNPW0NASF0oW0NIMl1bT0hdKVtDQEBIXShbT0hdKVtDQEhdM1tPSF0=

> <s_epik_cmdline>
J2VwaWtfcHl0aG9uJywgJy1waCcsICc3LjAnLCAnLXRuJywgJzgnLCAnLW1hJywgJzIwMCcsICctbWV0YWxfYmluZGluZycsICctaW1hZScsICc8aW5maWxlLm1hZT4nLCAnLW9tYWUnLCAnPG91dGZpbGUubWFlPic=

> <r_lp_tautomer_probability>
0.85571

> <r_epik_Ionization_Penalty>
0.0316551

> <r_epik_Ionization_Penalty_Charging>
0.0316043

> <r_epik_Ionization_Penalty_Neutral>
5.07097e-05

> <r_epik_State_Penalty>
3.15494e-07

> <r_epik_Charging_Adjusted_Penalty>
0.0316047

> <i_epik_Tot_Q>
0

> <i_epik_Tot_abs_Q>
0

> <r_epik_Metal_State_Penalty>
0.421206

> <b_epik_Metal_Only>
0

> <s_epik_Chemistry_Notes>
This compound contains an acetal/aminal-like group ( X-CH(R)-Y where X, Y are N, S, or O) that may be acid/base labile, releasing an aldehyde.

> <s_lp_Force_Field>
OPLS_2005

> <r_lp_Energy>
38.2372

> <b_lp_Chiralities_Consistent>
1

> <s_lp_Variant>
AV-unprocessed.smi:54-11

> <Gold.Version>
5.8.1

> <Gold.Id.Protein>
6NUR|6NUR_protein|mol2

> <Gold.PLP.Fitness>
48.4627

> <Gold.PLP.PLP>
-31.9436

> <Gold.PLP.part.hbond>
-6.6655

> <Gold.PLP.part.metal>
0.0000

> <Gold.PLP.part.buried>
-4.9985

> <Gold.PLP.part.nonpolar>
-23.3263

> <Gold.PLP.part.repulsive>
2.2841

> <Gold.PLP.ligand.clash>
0.0000

> <Gold.PLP.ligand.torsion>
0.3713

> <Gold.PLP.Chemscore.Hbond>
4.7424

> <Gold.PLP.Chemscore.CHOScore>
1.0000

> <Gold.PLP.Chemscore.Metal>
0.0000

> <Gold.Chemscore.Hbonds>
donor molecule, donor type, donor heavy atom, donor atom, acceptor molecule, acceptor atom, score
      L1  H    18    41       P1 10175  1.00
      L1  H    20    42       P1 10175  1.00
      L1  H    22    43       P1  7957  1.00
      P1  H  7989  7998       L1    22  0.36
      P1  H 10752 10763       L1    11  1.00
      P1  H 10752 10764       L1    24  0.29
      L1  C    12    38       P1  7948  0.78

> <Gold.PLP.Chemscore.Internal.Correction>
0.0344

> <Gold.Rescore>
     Score         DG    S(hbond)    S(metal)    S(lipo)     H(rot)  DE(clash)    DE(int)     intcor
     13.36     -16.21       4.07        0.00      64.06       4.05       0.85       2.00       ----

> <Gold.Chemscore.Fitness>
13.3569

> <Gold.Chemscore.DG>
-16.2051

> <Gold.Chemscore.ZeroCoef>
-5.4800

> <Gold.Chemscore.Hbond>
4.0706

> <Gold.Chemscore.Metal>
0.0000

> <Gold.Chemscore.Lipo>
64.0648

> <Gold.Chemscore.Internal_Hbond>
0.0000

> <Gold.Chemscore.DEClash>
0.8478

> <Gold.Chemscore.DEInternal>
2.0004

> <Gold.Chemscore.Rot>
4.0493

> <Gold.Chemscore.Internal.Correction>
   9.000000E+99

> <Gold.Chemscore.Hbonds>
donor molecule, donor type, donor heavy atom, donor atom, acceptor molecule, acceptor atom, score
      L1  H    18    41       P1 10175  0.92
      L1  H    20    42       P1 10175  0.96
      L1  H    22    43       P1  7957  1.00
      P1  H  7989  7998       L1    22  0.03
      P1  H 10752 10763       L1    11  0.55
      P1  H 10752 10764       L1    24  0.27

> <Gold.Chemscore.Hbond.Weighted>
-13.5957

> <Gold.Chemscore.Metal.Weighted>
-0.0000

> <Gold.Chemscore.Lipo.Weighted>
-7.4956

> <Gold.Chemscore.Internal_Hbond.Weighted>
0.0000

> <Gold.Chemscore.DEClash.Weighted>
0.8478

> <Gold.Chemscore.DEInternal.Weighted>
2.0004

> <Gold.Chemscore.Rot.Weighted>
10.3662

> <Gold.Chemscore.Internal.Correction.Weighted>
   9.000000E+99

> <Gold.Protein.RotatedTorsions>
[ 6907 6896 6895 6894 ] final  -17.34 input  -60.11 | X-H torsion
[ 7974 7965 7964 7962 ] final   -0.53 input  175.53 | X-H torsion
[ 8008 7997 7996 7995 ] final  -93.72 input   59.86 | X-H torsion
[ 10167 10162 10161 10158 ] final  126.34 input  -65.29 | X-H torsion
[ 10718 10713 10712 10709 ] final   80.48 input   66.30 | X-H torsion
[ 10763 10752 10751 10750 ] final   38.54 input  -60.55 | X-H torsion
[ 11005 11000 10999 10996 ] final   38.69 input  -57.11 | X-H torsion

> <Gold.Protein.ActiveResidues>
 VAL166  LYS551  ARG553  GLY616  TRP617  ASP618  TYR619  PRO620  LYS621  CYS622 
 ASP623  PHE694  ASN695  SER759  ASP760  ASP761  ALA762  ILE779  LEU786  VAL792 
 PHE793  MET794  SER795  GLU796  ALA797  LYS798  CYS799  TRP800  GLU811  SER814 

> <Gold.Protein.RotatedAtoms>
  151.2948  135.0752  159.9216 H   0  0  0  0  0  0  0  0  0  0  0  0  # atno 6907 bound_to 6896
  152.5309  133.9895  159.7854 H   0  0  0  0  0  0  0  0  0  0  0  0  # atno 6908 bound_to 6896
  151.0171  133.5860  159.2706 H   0  0  0  0  0  0  0  0  0  0  0  0  # atno 6909 bound_to 6896
  146.2426  140.1283  142.8338 H   0  0  0  0  0  0  0  0  0  0  0  0  # atno 7974 bound_to 7965
  154.7392  140.0496  157.0796 H   0  0  0  0  0  0  0  0  0  0  0  0  # atno 8008 bound_to 7997
  155.0200  140.3146  155.4778 H   0  0  0  0  0  0  0  0  0  0  0  0  # atno 8009 bound_to 7997
  156.2860  140.2169  156.5318 H   0  0  0  0  0  0  0  0  0  0  0  0  # atno 8010 bound_to 7997
  139.5636  144.6897  151.3972 H   0  0  0  0  0  0  0  0  0  0  0  0  # atno 10167 bound_to 10162
  157.6807  130.9961  150.2085 H   0  0  0  0  0  0  0  0  0  0  0  0  # atno 10718 bound_to 10713
  152.9997  135.6246  154.2322 H   0  0  0  0  0  0  0  0  0  0  0  0  # atno 10763 bound_to 10752
  154.2064  135.2802  155.2975 H   0  0  0  0  0  0  0  0  0  0  0  0  # atno 10764 bound_to 10752
  154.5642  135.5696  153.7094 H   0  0  0  0  0  0  0  0  0  0  0  0  # atno 10765 bound_to 10752
  140.2101  134.3766  155.8053 H   0  0  0  0  0  0  0  0  0  0  0  0  # atno 11005 bound_to 11000
  145.0348  140.8899  143.5088 LP  0  0  0  0  0  0  0  0  0  0  0  0  # atno 17320 bound_to 7965
  145.1353  139.2606  143.5518 LP  0  0  0  0  0  0  0  0  0  0  0  0  # atno 17321 bound_to 7965
  140.6918  143.7843  150.7267 LP  0  0  0  0  0  0  0  0  0  0  0  0  # atno 17342 bound_to 10162
  140.1327  143.4511  152.2244 LP  0  0  0  0  0  0  0  0  0  0  0  0  # atno 17343 bound_to 10162
  156.2761  130.3727  149.7982 LP  0  0  0  0  0  0  0  0  0  0  0  0  # atno 17370 bound_to 10713
  156.5684  130.8414  151.3349 LP  0  0  0  0  0  0  0  0  0  0  0  0  # atno 17371 bound_to 10713
  141.2226  133.7138  156.8403 LP  0  0  0  0  0  0  0  0  0  0  0  0  # atno 17394 bound_to 11000
  140.1960  134.8931  157.3115 LP  0  0  0  0  0  0  0  0  0  0  0  0  # atno 17395 bound_to 11000

$$$$
