#       Name:                AV-unprocessed.smi:1972
#       Creating user name   scv26
#       Creation time:       Fri Mar 27 10:15:02 2020


#       File generated by GOLD software.
#

@<TRIPOS>MOLECULE
AV-unprocessed.smi:1972
    50    51     1
SMALL
NO_CHARGES


@<TRIPOS>ATOM
      1 ****        -3.2108   5.8667  -2.8544 C.3            1 S1                 0.0000
      2 ****        -2.7155   4.1603  -2.5025 S.3            1 S1                 0.0000
      3 ****        -2.8597   3.4555  -4.1702 C.3            1 S1                 0.0000
      4 ****        -2.4582   1.9704  -4.2119 C.3            1 S1                 0.0000
      5 ****        -0.9507   1.7512  -4.0502 C.2            1 S1                 0.0000
      6 ****        -0.1544   2.3679  -4.7581 O.2            1 S1                 0.0000
      7 ****        -0.5744   0.8656  -3.1163 N.am           1 S1                 0.0000
      8 ****         0.8079   0.5359  -2.7879 C.3            1 S1                 0.0000
      9 ****         0.9776  -0.0480  -1.3942 C.ar           1 S1                 0.0000
     10 ****         0.1285   0.3035  -0.3237 C.ar           1 S1                 0.0000
     11 ****         0.3522  -0.2692   0.9429 C.ar           1 S1                 0.0000
     12 ****         1.4232  -1.1790   1.1117 C.ar           1 S1                 0.0000
     13 ****         1.6648  -1.7676   2.3723 N.3            1 S1                 0.0000
     14 ****         2.9162  -2.4989   2.5599 C.3            1 S1                 0.0000
     15 ****         3.1369  -2.8077   4.0495 C.3            1 S1                 0.0000
     16 ****         2.0073  -3.5027   4.5668 O.3            1 S1                 0.0000
     17 ****         0.8143  -2.7285   4.4792 C.3            1 S1                 0.0000
     18 ****        -0.3207  -3.5170   5.1411 C.3            1 S1                 0.0000
     19 ****         0.5168  -2.4177   2.9994 C.3            1 S1                 0.0000
     20 ****         2.2460  -1.5018   0.0832 N.ar           1 S1                 0.0000
     21 ****         2.0270  -0.9504  -1.1290 C.ar           1 S1                 0.0000
     22 ****        -3.1873   6.4610  -1.9411 H              1 S1                 0.0000
     23 ****        -4.2221   5.8939  -3.2600 H              1 S1                 0.0000
     24 ****        -2.5323   6.3184  -3.5783 H              1 S1                 0.0000
     25 ****        -3.8951   3.5612  -4.4949 H              1 S1                 0.0000
     26 ****        -2.2560   4.0433  -4.8628 H              1 S1                 0.0000
     27 ****        -3.0097   1.4126  -3.4535 H              1 S1                 0.0000
     28 ****        -2.7485   1.5475  -5.1740 H              1 S1                 0.0000
     29 ****        -1.2950   0.3988  -2.5848 H              1 S1                 0.0000
     30 ****         1.1806  -0.1732  -3.5283 H              1 S1                 0.0000
     31 ****         1.4355   1.4264  -2.8544 H              1 S1                 0.0000
     32 ****        -0.6807   1.0057  -0.4595 H              1 S1                 0.0000
     33 ****        -0.2865   0.0078   1.7682 H              1 S1                 0.0000
     34 ****         2.8814  -3.4272   1.9878 H              1 S1                 0.0000
     35 ****         3.7574  -1.9144   2.1847 H              1 S1                 0.0000
     36 ****         4.0244  -3.4276   4.1764 H              1 S1                 0.0000
     37 ****         3.3055  -1.8906   4.6164 H              1 S1                 0.0000
     38 ****         0.9533  -1.7955   5.0286 H              1 S1                 0.0000
     39 ****        -1.2561  -2.9576   5.1120 H              1 S1                 0.0000
     40 ****        -0.0913  -3.7265   6.1860 H              1 S1                 0.0000
     41 ****        -0.4843  -4.4705   4.6378 H              1 S1                 0.0000
     42 ****        -0.3772  -1.7989   2.9403 H              1 S1                 0.0000
     43 ****         0.2994  -3.3396   2.4582 H              1 S1                 0.0000
     44 ****         2.7120  -1.2420  -1.9116 H              1 S1                 0.0000
     45 ****        -0.4908   3.0151  -5.4422 LP             1 S1                 0.0000
     46 ****         0.8288   2.2216  -4.6491 LP             1 S1                 0.0000
     47 ****         1.8237  -0.9338   2.9009 LP             1 S1                 0.0000
     48 ****         2.1775  -3.7250   5.5268 LP             1 S1                 0.0000
     49 ****         1.8823  -4.3473   4.0462 LP             1 S1                 0.0000
     50 ****         3.0041  -2.1393   0.2210 LP             1 S1                 0.0000
@<TRIPOS>BOND
    1    1    2 1     
    2    1   22 1     
    3    1   23 1     
    4    1   24 1     
    5    2    3 1     
    6    3    4 1     
    7    3   25 1     
    8    3   26 1     
    9    4    5 1     
   10    4   27 1     
   11    4   28 1     
   12    5    6 2     
   13    5    7 am    
   14    7    8 1     
   15    7   29 1     
   16    8    9 1     
   17    8   30 1     
   18    8   31 1     
   19    9   21 ar    
   20    9   10 ar    
   21   10   11 ar    
   22   10   32 1     
   23   11   12 ar    
   24   11   33 1     
   25   12   13 1     
   26   12   20 ar    
   27   13   19 1     
   28   13   14 1     
   29   14   15 1     
   30   14   34 1     
   31   14   35 1     
   32   15   16 1     
   33   15   36 1     
   34   15   37 1     
   35   16   17 1     
   36   17   18 1     
   37   17   19 1     
   38   17   38 1     
   39   18   39 1     
   40   18   40 1     
   41   18   41 1     
   42   19   42 1     
   43   19   43 1     
   44   20   21 ar    
   45   21   44 1     
   46    6   45 1     
   47    6   46 1     
   48   13   47 1     
   49   16   48 1     
   50   16   49 1     
   51   20   50 1     
@<TRIPOS>SUBSTRUCTURE
      1 S1             1
@<TRIPOS>SET
LONE_PAIRS      STATIC     ATOMS    <user>   **** ""
6 45 46 47 48 49 50
DONOR_HYDROGENS      STATIC     ATOMS    <user>   **** ""
1 29
ATOM$BLUE        STATIC     ATOMS    COLORGROUP SYSTEM
6 45 46 47 48 49 50
ATOM$RED        STATIC     ATOMS    COLORGROUP SYSTEM
1 29
