AV-unprocessed.smi:3237|AV-procd|sdf|12373|dock6
  -GOLD-   2272018233D 1   1.00000     0.00000
 Structure written by MMmdl.
 36 38  0  0  0  0  0  0  0  0  3 V2000
  147.3563  135.6152  162.9429 C   0  0  0  0  0  0  0  0  0  0  0  0
  147.6597  135.9701  161.5274 C   0  0  0  0  0  0  0  0  0  0  0  0
  147.9066  135.2175  160.4141 C   0  0  0  0  0  0  0  0  0  0  0  0
  148.1130  136.1953  159.4045 C   0  0  0  0  0  0  0  0  0  0  0  0
  148.4034  135.8071  158.0699 N   0  0  0  0  0  0  0  0  0  0  0  0
  148.3273  134.5850  157.5121 C   0  0  0  0  0  0  0  0  0  0  0  0
  147.9630  133.6123  158.1835 O   0  0  0  0  0  0  0  0  0  0  0  0
  148.6806  134.5958  156.1967 N   0  5  0  0  0  0  0  0  0  0  0  0
  148.1338  133.6953  155.1800 C   0  0  2  0  0  0  0  0  0  0  0  0
  149.2225  133.2054  154.2244 C   0  0  0  0  0  0  0  0  0  0  0  0
  148.4448  132.8854  152.9489 C   0  0  0  0  0  0  0  0  0  0  0  0
  147.3880  133.9161  152.8783 N   0  3  1  0  0  0  0  0  0  0  0  0
  146.1789  133.4931  152.1392 C   0  0  0  0  0  0  0  0  0  0  0  0
  146.3980  133.3516  150.6522 C   0  0  0  0  0  0  0  0  0  0  0  0
  145.6487  134.5479  151.1982 C   0  0  0  0  0  0  0  0  0  0  0  0
  147.1269  134.4021  154.2542 C   0  0  0  0  0  0  0  0  0  0  0  0
  148.0023  137.4337  159.8624 N   0  0  0  0  0  0  0  0  0  0  0  0
  147.7103  137.2955  161.2244 O   0  0  0  0  0  0  0  0  0  0  0  0
  147.8569  134.6893  163.2262 H   0  0  0  0  0  0  0  0  0  0  0  0
  146.2844  135.4777  163.0836 H   0  0  0  0  0  0  0  0  0  0  0  0
  147.6896  136.4000  163.6223 H   0  0  0  0  0  0  0  0  0  0  0  0
  147.9343  134.1407  160.3362 H   0  0  0  0  0  0  0  0  0  0  0  0
  148.7084  136.5488  157.4573 H   0  0  0  0  0  0  0  0  0  0  0  0
  147.6504  132.8184  155.6140 H   0  0  0  0  0  0  0  0  0  0  0  0
  149.9441  133.9985  154.0192 H   0  0  0  0  0  0  0  0  0  0  0  0
  149.7698  132.3454  154.6115 H   0  0  0  0  0  0  0  0  0  0  0  0
  149.0779  132.9108  152.0615 H   0  0  0  0  0  0  0  0  0  0  0  0
  148.0011  131.8876  153.0058 H   0  0  0  0  0  0  0  0  0  0  0  0
  145.4958  132.8286  152.6656 H   0  0  0  0  0  0  0  0  0  0  0  0
  147.3996  133.5209  150.2610 H   0  0  0  0  0  0  0  0  0  0  0  0
  145.8161  132.5955  150.1289 H   0  0  0  0  0  0  0  0  0  0  0  0
  144.5733  134.5801  151.0348 H   0  0  0  0  0  0  0  0  0  0  0  0
  146.1521  135.5127  151.1706 H   0  0  0  0  0  0  0  0  0  0  0  0
  146.1033  134.2003  154.5741 H   0  0  0  0  0  0  0  0  0  0  0  0
  147.2593  135.4850  154.2549 H   0  0  0  0  0  0  0  0  0  0  0  0
  147.7889  134.6998  152.3835 H   0  0  0  0  0  0  0  0  0  0  0  0
  1  2  1  0  0  0  0
  1 19  1  0  0  0  0
  1 20  1  0  0  0  0
  1 21  1  0  0  0  0
  2 18  1  0  0  0  0
  2  3  2  0  0  0  0
  3  4  1  0  0  0  0
  3 22  1  0  0  0  0
  4  5  1  0  0  0  0
  4 17  2  0  0  0  0
  5  6  1  0  0  0  0
  5 23  1  0  0  0  0
  6  7  2  0  0  0  0
  6  8  1  0  0  0  0
  8  9  1  0  0  0  0
  9 16  1  0  0  0  0
  9 10  1  0  0  0  0
  9 24  1  0  0  0  0
 10 11  1  0  0  0  0
 10 25  1  0  0  0  0
 10 26  1  0  0  0  0
 11 12  1  0  0  0  0
 11 27  1  0  0  0  0
 11 28  1  0  0  0  0
 12 13  1  0  0  0  0
 12 16  1  0  0  0  0
 12 36  1  0  0  0  0
 13 15  1  0  0  0  0
 13 14  1  0  0  0  0
 13 29  1  0  0  0  0
 14 15  1  0  0  0  0
 14 30  1  0  0  0  0
 14 31  1  0  0  0  0
 15 32  1  0  0  0  0
 15 33  1  0  0  0  0
 16 34  1  0  0  0  0
 16 35  1  0  0  0  0
 17 18  1  0  0  0  0
M  CHG  1   8  -1
M  CHG  1  12   1
M  END
> <s_m_source_file>
AV-unprocessed.smi

> <i_m_source_file_index>
3237

> <i_lp_mmshare_version>
43012

> <i_f3d_flags>
0

> <s_epik_input>
W0NIM11jMVtjSF1jKG5vMSlbTkhdQyg9TylbTkhdW0NAQEhdMltDSDJdW0NIMl1OKFtDSDJdMilbQ0hdM1tDSDJdW0NIMl0z

> <s_epik_cmdline>
J2VwaWtfcHl0aG9uJywgJy1waCcsICc3LjAnLCAnLXRuJywgJzgnLCAnLW1hJywgJzIwMCcsICctbWV0YWxfYmluZGluZycsICctaW1hZScsICc8aW5maWxlLm1hZT4nLCAnLW9tYWUnLCAnPG91dGZpbGUubWFlPic=

> <r_epik_Ionization_Penalty>
6.76456

> <r_epik_Ionization_Penalty_Charging>
6.76456

> <r_epik_Ionization_Penalty_Neutral>
5.76722e-06

> <r_epik_State_Penalty>
6.78919

> <r_epik_Charging_Adjusted_Penalty>
13.5538

> <i_epik_Tot_Q>
0

> <i_epik_Tot_abs_Q>
2

> <r_epik_Metal_State_Penalty>
2.728

> <b_epik_Metal_Only>
1

> <s_lp_Force_Field>
OPLS_2005

> <r_lp_Energy>
30.8833

> <b_lp_Chiralities_Consistent>
1

> <s_lp_Variant>
AV-unprocessed.smi:3237-11

> <Gold.Version>
5.8.1

> <Gold.Id.Protein>
6NUR|6NUR_protein|mol2

> <Gold.PLP.Fitness>
38.8099

> <Gold.PLP.PLP>
-30.4679

> <Gold.PLP.part.hbond>
-4.7272

> <Gold.PLP.part.metal>
0.0000

> <Gold.PLP.part.buried>
-3.2493

> <Gold.PLP.part.nonpolar>
-22.5255

> <Gold.PLP.part.repulsive>
0.0786

> <Gold.PLP.ligand.clash>
0.0474

> <Gold.PLP.ligand.torsion>
1.1103

> <Gold.PLP.Chemscore.Hbond>
3.1136

> <Gold.PLP.Chemscore.CHOScore>
0.0000

> <Gold.PLP.Chemscore.Metal>
0.0000

> <Gold.Chemscore.Hbonds>
donor molecule, donor type, donor heavy atom, donor atom, acceptor molecule, acceptor atom, score
      L1  H    12    36       P1  7948  2.00
      P1  H  6931  6943       L1    18  0.85

> <Gold.PLP.Chemscore.Internal.Correction>
1.2691

> <Gold.Rescore>
     Score         DG    S(hbond)    S(metal)    S(lipo)     H(rot)  DE(clash)    DE(int)     intcor
     12.07     -14.78       1.69        0.00      58.62       1.25       0.08       2.63       ----

> <Gold.Chemscore.Fitness>
12.0709

> <Gold.Chemscore.DG>
-14.7822

> <Gold.Chemscore.ZeroCoef>
-5.4800

> <Gold.Chemscore.Hbond>
1.6869

> <Gold.Chemscore.Metal>
0.0000

> <Gold.Chemscore.Lipo>
58.6233

> <Gold.Chemscore.Internal_Hbond>
0.0000

> <Gold.Chemscore.DEClash>
0.0833

> <Gold.Chemscore.DEInternal>
2.6280

> <Gold.Chemscore.Rot>
1.2464

> <Gold.Chemscore.Internal.Correction>
   9.000000E+99

> <Gold.Chemscore.Hbonds>
donor molecule, donor type, donor heavy atom, donor atom, acceptor molecule, acceptor atom, score
      L1  H    12    36       P1  7948  0.74
      P1  H  6931  6943       L1    18  0.18

> <Gold.Chemscore.Hbond.Weighted>
-5.6341

> <Gold.Chemscore.Metal.Weighted>
-0.0000

> <Gold.Chemscore.Lipo.Weighted>
-6.8589

> <Gold.Chemscore.Internal_Hbond.Weighted>
0.0000

> <Gold.Chemscore.DEClash.Weighted>
0.0833

> <Gold.Chemscore.DEInternal.Weighted>
2.6280

> <Gold.Chemscore.Rot.Weighted>
3.1909

> <Gold.Chemscore.Internal.Correction.Weighted>
   9.000000E+99

> <Gold.Protein.RotatedTorsions>
[ 6907 6896 6895 6894 ] final  -77.24 input  -60.11 | X-H torsion
[ 7974 7965 7964 7962 ] final -139.98 input  175.53 | X-H torsion
[ 8008 7997 7996 7995 ] final   88.75 input   59.86 | X-H torsion
[ 10167 10162 10161 10158 ] final   64.78 input  -65.29 | X-H torsion
[ 10718 10713 10712 10709 ] final  134.02 input   66.30 | X-H torsion
[ 10763 10752 10751 10750 ] final  -97.55 input  -60.55 | X-H torsion
[ 11005 11000 10999 10996 ] final -166.02 input  -57.11 | X-H torsion

> <Gold.Protein.ActiveResidues>
 VAL166  LYS551  ARG553  GLY616  TRP617  ASP618  TYR619  PRO620  LYS621  CYS622 
 ASP623  PHE694  ASN695  SER759  ASP760  ASP761  ALA762  ILE779  LEU786  VAL792 
 PHE793  MET794  SER795  GLU796  ALA797  LYS798  CYS799  TRP800  GLU811  SER814 

> <Gold.Protein.RotatedAtoms>
  150.7004  134.4452  159.5310 H   0  0  0  0  0  0  0  0  0  0  0  0  # atno 6907 bound_to 6896
  152.2155  134.8459  160.0501 H   0  0  0  0  0  0  0  0  0  0  0  0  # atno 6908 bound_to 6896
  151.9329  133.3581  159.3974 H   0  0  0  0  0  0  0  0  0  0  0  0  # atno 6909 bound_to 6896
  144.8633  140.6254  143.5314 H   0  0  0  0  0  0  0  0  0  0  0  0  # atno 7974 bound_to 7965
  155.9916  140.3368  155.6758 H   0  0  0  0  0  0  0  0  0  0  0  0  # atno 8008 bound_to 7997
  155.6413  140.0695  157.2635 H   0  0  0  0  0  0  0  0  0  0  0  0  # atno 8009 bound_to 7997
  154.4221  140.1742  156.1564 H   0  0  0  0  0  0  0  0  0  0  0  0  # atno 8010 bound_to 7997
  140.1184  144.4754  150.6935 H   0  0  0  0  0  0  0  0  0  0  0  0  # atno 10167 bound_to 10162
  157.4715  131.1080  150.9797 H   0  0  0  0  0  0  0  0  0  0  0  0  # atno 10718 bound_to 10713
  154.7338  135.5042  153.9008 H   0  0  0  0  0  0  0  0  0  0  0  0  # atno 10763 bound_to 10752
  153.0975  135.6676  153.9743 H   0  0  0  0  0  0  0  0  0  0  0  0  # atno 10764 bound_to 10752
  153.9538  135.3055  155.3416 H   0  0  0  0  0  0  0  0  0  0  0  0  # atno 10765 bound_to 10752
  140.5691  134.5256  157.5158 H   0  0  0  0  0  0  0  0  0  0  0  0  # atno 11005 bound_to 11000
  145.4269  139.1555  143.4043 LP  0  0  0  0  0  0  0  0  0  0  0  0  # atno 17320 bound_to 7965
  146.2877  140.4383  142.8751 LP  0  0  0  0  0  0  0  0  0  0  0  0  # atno 17321 bound_to 7965
  140.6886  143.2363  151.5193 LP  0  0  0  0  0  0  0  0  0  0  0  0  # atno 17342 bound_to 10162
  139.5582  144.2223  152.1647 LP  0  0  0  0  0  0  0  0  0  0  0  0  # atno 17343 bound_to 10162
  157.0560  130.5806  149.5378 LP  0  0  0  0  0  0  0  0  0  0  0  0  # atno 17370 bound_to 10713
  156.0075  130.5164  150.7880 LP  0  0  0  0  0  0  0  0  0  0  0  0  # atno 17371 bound_to 10713
  139.9370  134.7856  156.0776 LP  0  0  0  0  0  0  0  0  0  0  0  0  # atno 17394 bound_to 11000
  141.1067  133.6657  156.2881 LP  0  0  0  0  0  0  0  0  0  0  0  0  # atno 17395 bound_to 11000

$$$$
