AV-unprocessed.smi:1835|AV-procd|sdf|7473|dock4
  -GOLD-   22720 9163D 1   1.00000     0.00000
 Structure written by MMmdl.
 41 42  0  0  0  0  0  0  0  0  1 V2000
  146.7725  140.8946  153.4745 C   0  0  0  0  0  0  0  0  0  0  0  0
  147.6918  139.6494  153.5669 C   0  0  2  0  0  0  0  0  0  0  0  0
  146.8094  138.3869  153.7710 C   0  0  0  0  0  0  0  0  0  0  0  0
  146.6017  137.6488  152.5301 N   0  0  0  0  0  0  0  0  0  0  0  0
  146.0000  136.4542  152.4446 C   0  0  0  0  0  0  0  0  0  0  0  0
  145.5631  135.8498  153.4253 O   0  0  0  0  0  0  0  0  0  0  0  0
  145.8977  135.8587  151.0328 C   0  0  0  0  0  0  0  0  0  0  0  0
  145.3819  134.4799  151.0087 N   0  0  0  0  0  0  0  0  0  0  0  0
  146.2362  133.4866  150.4895 C   0  0  0  0  0  0  0  0  0  0  0  0
  145.8663  132.1983  150.4183 C   0  0  0  0  0  0  0  0  0  0  0  0
  144.5502  131.8391  150.8909 C   0  0  0  0  0  0  0  0  0  0  0  0
  143.7273  132.7803  151.3946 C   0  0  0  0  0  0  0  0  0  0  0  0
  144.1294  134.1894  151.4789 C   0  0  0  0  0  0  0  0  0  0  0  0
  143.3858  135.0546  151.9420 O   0  0  0  0  0  0  0  0  0  0  0  0
  148.7532  139.8021  154.5898 N   0  0  0  0  0  0  0  0  0  0  0  0
  149.2062  141.1923  154.7212 C   0  0  0  0  0  0  0  0  0  0  0  0
  150.3274  141.3621  155.7606 C   0  0  0  0  0  0  0  0  0  0  0  0
  151.4233  140.5244  155.4216 O   0  0  0  0  0  0  0  0  0  0  0  0
  151.0479  139.1556  155.3633 C   0  0  0  0  0  0  0  0  0  0  0  0
  149.9300  138.9664  154.3228 C   0  0  0  0  0  0  0  0  0  0  0  0
  145.9611  140.7651  152.7592 H   0  0  0  0  0  0  0  0  0  0  0  0
  147.3078  141.7804  153.1356 H   0  0  0  0  0  0  0  0  0  0  0  0
  146.3217  141.1225  154.4411 H   0  0  0  0  0  0  0  0  0  0  0  0
  148.1775  139.5393  152.5960 H   0  0  0  0  0  0  0  0  0  0  0  0
  147.2741  137.6864  154.4636 H   0  0  0  0  0  0  0  0  0  0  0  0
  145.8431  138.6663  154.1943 H   0  0  0  0  0  0  0  0  0  0  0  0
  146.9349  138.0792  151.6798 H   0  0  0  0  0  0  0  0  0  0  0  0
  145.2706  136.5063  150.4171 H   0  0  0  0  0  0  0  0  0  0  0  0
  146.8861  135.9006  150.5728 H   0  0  0  0  0  0  0  0  0  0  0  0
  147.2047  133.8370  150.1635 H   0  0  0  0  0  0  0  0  0  0  0  0
  146.5366  131.4501  150.0213 H   0  0  0  0  0  0  0  0  0  0  0  0
  144.2243  130.8108  150.8409 H   0  0  0  0  0  0  0  0  0  0  0  0
  142.7468  132.4926  151.7444 H   0  0  0  0  0  0  0  0  0  0  0  0
  149.5525  141.5612  153.7544 H   0  0  0  0  0  0  0  0  0  0  0  0
  148.3859  141.8373  155.0301 H   0  0  0  0  0  0  0  0  0  0  0  0
  150.6666  142.3978  155.7848 H   0  0  0  0  0  0  0  0  0  0  0  0
  149.9671  141.1193  156.7616 H   0  0  0  0  0  0  0  0  0  0  0  0
  151.9197  138.5595  155.0933 H   0  0  0  0  0  0  0  0  0  0  0  0
  150.7214  138.8176  156.3480 H   0  0  0  0  0  0  0  0  0  0  0  0
  149.6639  137.9115  154.3386 H   0  0  0  0  0  0  0  0  0  0  0  0
  150.3204  139.1827  153.3274 H   0  0  0  0  0  0  0  0  0  0  0  0
  1  2  1  0  0  0  0
  1 21  1  0  0  0  0
  1 22  1  0  0  0  0
  1 23  1  0  0  0  0
  2  3  1  0  0  0  0
  2 15  1  0  0  0  0
  2 24  1  0  0  0  0
  3  4  1  0  0  0  0
  3 25  1  0  0  0  0
  3 26  1  0  0  0  0
  4  5  1  0  0  0  0
  4 27  1  0  0  0  0
  5  6  2  0  0  0  0
  5  7  1  0  0  0  0
  7  8  1  0  0  0  0
  7 28  1  0  0  0  0
  7 29  1  0  0  0  0
  8 13  1  0  0  0  0
  8  9  1  0  0  0  0
  9 10  2  0  0  0  0
  9 30  1  0  0  0  0
 10 11  1  0  0  0  0
 10 31  1  0  0  0  0
 11 12  2  0  0  0  0
 11 32  1  0  0  0  0
 12 13  1  0  0  0  0
 12 33  1  0  0  0  0
 13 14  2  0  0  0  0
 15 20  1  0  0  0  0
 15 16  1  0  0  0  0
 16 17  1  0  0  0  0
 16 34  1  0  0  0  0
 16 35  1  0  0  0  0
 17 18  1  0  0  0  0
 17 36  1  0  0  0  0
 17 37  1  0  0  0  0
 18 19  1  0  0  0  0
 19 20  1  0  0  0  0
 19 38  1  0  0  0  0
 19 39  1  0  0  0  0
 20 40  1  0  0  0  0
 20 41  1  0  0  0  0
M  END
> <s_m_source_file>
AV-unprocessed.smi

> <i_m_source_file_index>
1835

> <i_lp_mmshare_version>
43012

> <i_f3d_flags>
0

> <s_epik_input>
W0NIMl0xW0NIMl1PW0NIMl1bQ0gyXU4xW0NASF0oW0NIM10pW0NIMl1bTkhdQyg9TylbQ0gyXW4yW2NIXVtjSF1bY0hdW2NIXWMyPU8=

> <s_epik_cmdline>
J2VwaWtfcHl0aG9uJywgJy1waCcsICc3LjAnLCAnLXRuJywgJzgnLCAnLW1hJywgJzIwMCcsICctbWV0YWxfYmluZGluZycsICctaW1hZScsICc8aW5maWxlLm1hZT4nLCAnLW9tYWUnLCAnPG91dGZpbGUubWFlPic=

> <r_lp_tautomer_probability>
1

> <r_epik_Ionization_Penalty>
0.237383

> <r_epik_Ionization_Penalty_Charging>
3.58805e-07

> <r_epik_Ionization_Penalty_Neutral>
0.237382

> <r_epik_State_Penalty>
0.228245

> <r_epik_Charging_Adjusted_Penalty>
0.228245

> <i_epik_Tot_Q>
0

> <i_epik_Tot_abs_Q>
0

> <r_epik_Metal_State_Penalty>
0.22822

> <b_epik_Metal_Only>
0

> <s_lp_Force_Field>
OPLS_2005

> <r_lp_Energy>
38.378

> <b_lp_Chiralities_Consistent>
1

> <s_lp_Variant>
AV-unprocessed.smi:1835-1

> <Gold.Version>
5.8.1

> <Gold.Id.Protein>
6NUR|6NUR_protein|mol2

> <Gold.PLP.Fitness>
37.8632

> <Gold.PLP.PLP>
-37.4878

> <Gold.PLP.part.hbond>
-2.0000

> <Gold.PLP.part.metal>
0.0000

> <Gold.PLP.part.buried>
-2.6778

> <Gold.PLP.part.nonpolar>
-32.7758

> <Gold.PLP.part.repulsive>
0.4529

> <Gold.PLP.ligand.clash>
0.0000

> <Gold.PLP.ligand.torsion>
1.1914

> <Gold.PLP.Chemscore.Hbond>
0.8800

> <Gold.PLP.Chemscore.CHOScore>
0.0198

> <Gold.PLP.Chemscore.Metal>
0.0000

> <Gold.Chemscore.Hbonds>
donor molecule, donor type, donor heavy atom, donor atom, acceptor molecule, acceptor atom, score
      P1  H  7989  7998       L1    18  0.85

> <Gold.PLP.Chemscore.Internal.Correction>
0.0587

> <Gold.Rescore>
     Score         DG    S(hbond)    S(metal)    S(lipo)     H(rot)  DE(clash)    DE(int)     intcor
      9.61     -11.43       0.21        0.00      86.32       1.89       0.36       1.46       ----

> <Gold.Chemscore.Fitness>
9.6133

> <Gold.Chemscore.DG>
-11.4333

> <Gold.Chemscore.ZeroCoef>
-5.4800

> <Gold.Chemscore.Hbond>
0.2058

> <Gold.Chemscore.Metal>
0.0000

> <Gold.Chemscore.Lipo>
86.3229

> <Gold.Chemscore.Internal_Hbond>
0.0000

> <Gold.Chemscore.DEClash>
0.3568

> <Gold.Chemscore.DEInternal>
1.4632

> <Gold.Chemscore.Rot>
1.8882

> <Gold.Chemscore.Internal.Correction>
   9.000000E+99

> <Gold.Chemscore.Hbonds>
donor molecule, donor type, donor heavy atom, donor atom, acceptor molecule, acceptor atom, score
      P1  H  7989  7998       L1    18  0.07

> <Gold.Chemscore.Hbond.Weighted>
-0.6873

> <Gold.Chemscore.Metal.Weighted>
-0.0000

> <Gold.Chemscore.Lipo.Weighted>
-10.0998

> <Gold.Chemscore.Internal_Hbond.Weighted>
0.0000

> <Gold.Chemscore.DEClash.Weighted>
0.3568

> <Gold.Chemscore.DEInternal.Weighted>
1.4632

> <Gold.Chemscore.Rot.Weighted>
4.8338

> <Gold.Chemscore.Internal.Correction.Weighted>
   9.000000E+99

> <Gold.Protein.RotatedTorsions>
[ 6907 6896 6895 6894 ] final  117.32 input  -60.11 | X-H torsion
[ 7974 7965 7964 7962 ] final -104.75 input  175.53 | X-H torsion
[ 8008 7997 7996 7995 ] final  126.34 input   59.86 | X-H torsion
[ 10167 10162 10161 10158 ] final -170.33 input  -65.29 | X-H torsion
[ 10718 10713 10712 10709 ] final  156.65 input   66.30 | X-H torsion
[ 10763 10752 10751 10750 ] final  120.09 input  -60.55 | X-H torsion
[ 11005 11000 10999 10996 ] final   80.12 input  -57.11 | X-H torsion

> <Gold.Protein.ActiveResidues>
 VAL166  LYS551  ARG553  GLY616  TRP617  ASP618  TYR619  PRO620  LYS621  CYS622 
 ASP623  PHE694  ASN695  SER759  ASP760  ASP761  ALA762  ILE779  LEU786  VAL792 
 PHE793  MET794  SER795  GLU796  ALA797  LYS798  CYS799  TRP800  GLU811  SER814 

> <Gold.Protein.RotatedAtoms>
  152.4619  133.7841  159.6866 H   0  0  0  0  0  0  0  0  0  0  0  0  # atno 6907 bound_to 6896
  150.8567  133.7694  159.3012 H   0  0  0  0  0  0  0  0  0  0  0  0  # atno 6908 bound_to 6896
  151.5273  135.1071  159.9945 H   0  0  0  0  0  0  0  0  0  0  0  0  # atno 6909 bound_to 6896
  145.2392  140.9199  143.3160 H   0  0  0  0  0  0  0  0  0  0  0  0  # atno 7974 bound_to 7965
  156.2861  140.2695  156.2095 H   0  0  0  0  0  0  0  0  0  0  0  0  # atno 8008 bound_to 7997
  155.0279  140.0386  157.2481 H   0  0  0  0  0  0  0  0  0  0  0  0  # atno 8009 bound_to 7997
  154.7379  140.2719  155.6403 H   0  0  0  0  0  0  0  0  0  0  0  0  # atno 8010 bound_to 7997
  139.5868  144.1300  152.1585 H   0  0  0  0  0  0  0  0  0  0  0  0  # atno 10167 bound_to 10162
  157.2022  131.0679  151.2019 H   0  0  0  0  0  0  0  0  0  0  0  0  # atno 10718 bound_to 10713
  153.5932  135.3462  155.2918 H   0  0  0  0  0  0  0  0  0  0  0  0  # atno 10763 bound_to 10752
  154.8649  135.4210  154.2493 H   0  0  0  0  0  0  0  0  0  0  0  0  # atno 10764 bound_to 10752
  153.3305  135.7044  153.7023 H   0  0  0  0  0  0  0  0  0  0  0  0  # atno 10765 bound_to 10752
  139.9146  134.7895  156.1867 H   0  0  0  0  0  0  0  0  0  0  0  0  # atno 11005 bound_to 11000
  144.9605  139.3985  143.6358 LP  0  0  0  0  0  0  0  0  0  0  0  0  # atno 17320 bound_to 7965
  146.3333  139.8655  142.8849 LP  0  0  0  0  0  0  0  0  0  0  0  0  # atno 17321 bound_to 7965
  140.0866  144.5656  150.7084 LP  0  0  0  0  0  0  0  0  0  0  0  0  # atno 17342 bound_to 10162
  140.7138  143.2527  151.4497 LP  0  0  0  0  0  0  0  0  0  0  0  0  # atno 17343 bound_to 10162
  157.3756  130.7204  149.6595 LP  0  0  0  0  0  0  0  0  0  0  0  0  # atno 17370 bound_to 10713
  155.9699  130.4186  150.4338 LP  0  0  0  0  0  0  0  0  0  0  0  0  # atno 17371 bound_to 10713
  141.0609  133.6842  156.1950 LP  0  0  0  0  0  0  0  0  0  0  0  0  # atno 17394 bound_to 11000
  140.6663  134.4915  157.5585 LP  0  0  0  0  0  0  0  0  0  0  0  0  # atno 17395 bound_to 11000

$$$$
