AV-unprocessed.smi:1535|AV-procd|sdf|6174|dock9
  -GOLD-   22720 6323D 1   1.00000     0.00000
 Structure written by MMmdl.
 47 48  0  0  0  0  0  0  0  0  2 V2000
  153.0859  142.9051  161.5005 C   0  0  0  0  0  0  0  0  0  0  0  0
  152.5206  142.4550  160.1642 C   0  0  0  0  0  0  0  0  0  0  0  0
  152.6016  141.0864  159.8238 C   0  0  0  0  0  0  0  0  0  0  0  0
  152.0753  140.7056  158.5954 C   0  0  0  0  0  0  0  0  0  0  0  0
  151.9980  139.4510  157.9893 N   0  3  0  0  0  0  0  0  0  0  0  0
  151.3854  139.5681  156.7800 C   0  0  0  0  0  0  0  0  0  0  0  0
  151.0859  140.8835  156.5930 N   0  0  0  0  0  0  0  0  0  0  0  0
  150.3916  141.5345  155.4680 C   0  0  0  0  0  0  0  0  0  0  0  0
  149.4131  140.5919  154.7405 C   0  0  2  0  0  0  0  0  0  0  0  0
  150.1467  139.7866  153.8371 O   0  0  0  0  0  0  0  0  0  0  0  0
  148.3440  141.3837  153.9631 C   0  0  0  0  0  0  0  0  0  0  0  0
  147.1397  141.7926  154.6984 N   0  0  0  0  0  0  0  0  0  0  0  0
  146.2309  140.6560  154.7887 C   0  0  0  0  0  0  0  0  0  0  0  0
  146.4548  142.9446  154.1015 C   0  0  0  0  0  0  0  0  0  0  0  0
  145.0978  143.2967  154.7431 C   0  0  2  0  0  0  0  0  0  0  0  0
  144.4721  144.5424  154.1010 C   0  0  0  0  0  0  0  0  0  0  0  0
  145.2450  143.4833  156.1949 C   0  0  0  0  0  0  0  0  0  0  0  0
  145.3594  143.6292  157.3369 N   0  0  0  0  0  0  0  0  0  0  0  0
  151.4839  141.6306  157.7110 C   0  0  0  0  0  0  0  0  0  0  0  0
  151.3943  142.9838  158.0359 C   0  0  0  0  0  0  0  0  0  0  0  0
  151.9243  143.3914  159.2811 C   0  0  0  0  0  0  0  0  0  0  0  0
  151.8452  144.8618  159.6556 C   0  0  0  0  0  0  0  0  0  0  0  0
  153.5118  142.0689  162.0556 H   0  0  0  0  0  0  0  0  0  0  0  0
  152.3041  143.3499  162.1168 H   0  0  0  0  0  0  0  0  0  0  0  0
  153.8742  143.6436  161.3534 H   0  0  0  0  0  0  0  0  0  0  0  0
  153.0523  140.3666  160.4915 H   0  0  0  0  0  0  0  0  0  0  0  0
  151.1780  138.7612  156.0919 H   0  0  0  0  0  0  0  0  0  0  0  0
  149.8576  142.3943  155.8746 H   0  0  0  0  0  0  0  0  0  0  0  0
  151.1188  141.9210  154.7558 H   0  0  0  0  0  0  0  0  0  0  0  0
  148.9370  139.9582  155.4871 H   0  0  0  0  0  0  0  0  0  0  0  0
  149.6904  139.7705  153.0097 H   0  0  0  0  0  0  0  0  0  0  0  0
  148.8151  142.2712  153.5371 H   0  0  0  0  0  0  0  0  0  0  0  0
  148.0414  140.7776  153.1078 H   0  0  0  0  0  0  0  0  0  0  0  0
  145.3553  140.9061  155.3890 H   0  0  0  0  0  0  0  0  0  0  0  0
  146.7183  139.8048  155.2651 H   0  0  0  0  0  0  0  0  0  0  0  0
  145.8888  140.3436  153.8009 H   0  0  0  0  0  0  0  0  0  0  0  0
  147.1146  143.8134  154.1260 H   0  0  0  0  0  0  0  0  0  0  0  0
  146.2689  142.7634  153.0415 H   0  0  0  0  0  0  0  0  0  0  0  0
  144.3924  142.4777  154.6313 H   0  0  0  0  0  0  0  0  0  0  0  0
  143.5154  144.7816  154.5661 H   0  0  0  0  0  0  0  0  0  0  0  0
  144.2916  144.3882  153.0367 H   0  0  0  0  0  0  0  0  0  0  0  0
  145.1208  145.4123  154.2079 H   0  0  0  0  0  0  0  0  0  0  0  0
  150.9431  143.7059  157.3724 H   0  0  0  0  0  0  0  0  0  0  0  0
  151.3394  145.4441  158.8846 H   0  0  0  0  0  0  0  0  0  0  0  0
  152.8450  145.2772  159.7841 H   0  0  0  0  0  0  0  0  0  0  0  0
  151.2928  144.9924  160.5864 H   0  0  0  0  0  0  0  0  0  0  0  0
  152.3325  138.5764  158.3729 H   0  0  0  0  0  0  0  0  0  0  0  0
  1  2  1  0  0  0  0
  1 23  1  0  0  0  0
  1 24  1  0  0  0  0
  1 25  1  0  0  0  0
  2 21  1  0  0  0  0
  2  3  2  0  0  0  0
  3  4  1  0  0  0  0
  3 26  1  0  0  0  0
  4 19  2  0  0  0  0
  4  5  1  0  0  0  0
  5  6  2  0  0  0  0
  5 47  1  0  0  0  0
  6  7  1  0  0  0  0
  6 27  1  0  0  0  0
  7  8  1  0  0  0  0
  7 19  1  0  0  0  0
  8  9  1  0  0  0  0
  8 28  1  0  0  0  0
  8 29  1  0  0  0  0
  9 10  1  0  0  0  0
  9 11  1  0  0  0  0
  9 30  1  0  0  0  0
 10 31  1  0  0  0  0
 11 12  1  0  0  0  0
 11 32  1  0  0  0  0
 11 33  1  0  0  0  0
 12 13  1  0  0  0  0
 12 14  1  0  0  0  0
 13 34  1  0  0  0  0
 13 35  1  0  0  0  0
 13 36  1  0  0  0  0
 14 15  1  0  0  0  0
 14 37  1  0  0  0  0
 14 38  1  0  0  0  0
 15 16  1  0  0  0  0
 15 17  1  0  0  0  0
 15 39  1  0  0  0  0
 16 40  1  0  0  0  0
 16 41  1  0  0  0  0
 16 42  1  0  0  0  0
 17 18  3  0  0  0  0
 19 20  1  0  0  0  0
 20 21  2  0  0  0  0
 20 43  1  0  0  0  0
 21 22  1  0  0  0  0
 22 44  1  0  0  0  0
 22 45  1  0  0  0  0
 22 46  1  0  0  0  0
M  CHG  1   5   1
M  END
> <s_m_source_file>
AV-unprocessed.smi

> <i_m_source_file_index>
1535

> <i_lp_mmshare_version>
43012

> <i_f3d_flags>
0

> <s_epik_input>
W0NIM11jKFtjSF0xKWMoW0NIM10pW2NIXWMoYzEyKW4oW2NIXW4yKVtDSDJdW0NASF0oW09IXSlbQ0gyXU4oW0NIM10pW0NIMl1bQ0BIXShbQ0gzXSlDI04=

> <s_epik_cmdline>
J2VwaWtfcHl0aG9uJywgJy1waCcsICc3LjAnLCAnLXRuJywgJzgnLCAnLW1hJywgJzIwMCcsICctbWV0YWxfYmluZGluZycsICctaW1hZScsICc8aW5maWxlLm1hZT4nLCAnLW9tYWUnLCAnPG91dGZpbGUubWFlPic=

> <r_epik_Ionization_Penalty>
1.22846

> <r_epik_Ionization_Penalty_Charging>
1.21333

> <r_epik_Ionization_Penalty_Neutral>
0.0151341

> <r_epik_State_Penalty>
1.27012

> <r_epik_Charging_Adjusted_Penalty>
2.48344

> <i_epik_Tot_Q>
1

> <i_epik_Tot_abs_Q>
1

> <r_epik_Metal_State_Penalty>
5.28751

> <b_epik_Metal_Only>
0

> <s_lp_Force_Field>
OPLS_2005

> <r_lp_Energy>
32.9236

> <b_lp_Chiralities_Consistent>
1

> <s_lp_Variant>
AV-unprocessed.smi:1535-5

> <Gold.Version>
5.8.1

> <Gold.Id.Protein>
6NUR|6NUR_protein|mol2

> <Gold.PLP.Fitness>
52.8661

> <Gold.PLP.PLP>
-49.2337

> <Gold.PLP.part.hbond>
-2.0000

> <Gold.PLP.part.metal>
0.0000

> <Gold.PLP.part.buried>
-5.9264

> <Gold.PLP.part.nonpolar>
-40.9845

> <Gold.PLP.part.repulsive>
0.3496

> <Gold.PLP.ligand.clash>
0.0000

> <Gold.PLP.ligand.torsion>
1.1460

> <Gold.PLP.Chemscore.Hbond>
1.9280

> <Gold.PLP.Chemscore.CHOScore>
0.0000

> <Gold.PLP.Chemscore.Metal>
0.0000

> <Gold.Chemscore.Hbonds>
donor molecule, donor type, donor heavy atom, donor atom, acceptor molecule, acceptor atom, score
      L1  H    10    31       P1  7957  1.00
      P1  H  7989  7998       L1    10  0.93

> <Gold.PLP.Chemscore.Internal.Correction>
0.1403

> <Gold.Rescore>
     Score         DG    S(hbond)    S(metal)    S(lipo)     H(rot)  DE(clash)    DE(int)     intcor
     15.13     -17.06       1.06        0.00     125.54       2.59       0.78       1.15       ----

> <Gold.Chemscore.Fitness>
15.1331

> <Gold.Chemscore.DG>
-17.0611

> <Gold.Chemscore.ZeroCoef>
-5.4800

> <Gold.Chemscore.Hbond>
1.0562

> <Gold.Chemscore.Metal>
0.0000

> <Gold.Chemscore.Lipo>
125.5422

> <Gold.Chemscore.Internal_Hbond>
0.0000

> <Gold.Chemscore.DEClash>
0.7825

> <Gold.Chemscore.DEInternal>
1.1456

> <Gold.Chemscore.Rot>
2.5918

> <Gold.Chemscore.Internal.Correction>
   9.000000E+99

> <Gold.Chemscore.Hbonds>
donor molecule, donor type, donor heavy atom, donor atom, acceptor molecule, acceptor atom, score
      L1  H    10    31       P1  7957  0.96
      P1  H  7989  7998       L1    10  0.11

> <Gold.Chemscore.Hbond.Weighted>
-3.5278

> <Gold.Chemscore.Metal.Weighted>
-0.0000

> <Gold.Chemscore.Lipo.Weighted>
-14.6884

> <Gold.Chemscore.Internal_Hbond.Weighted>
0.0000

> <Gold.Chemscore.DEClash.Weighted>
0.7825

> <Gold.Chemscore.DEInternal.Weighted>
1.1456

> <Gold.Chemscore.Rot.Weighted>
6.6351

> <Gold.Chemscore.Internal.Correction.Weighted>
   9.000000E+99

> <Gold.Protein.RotatedTorsions>
[ 6907 6896 6895 6894 ] final  -99.75 input  -60.11 | X-H torsion
[ 7974 7965 7964 7962 ] final  -89.64 input  175.53 | X-H torsion
[ 8008 7997 7996 7995 ] final  134.45 input   59.86 | X-H torsion
[ 10167 10162 10161 10158 ] final   56.97 input  -65.29 | X-H torsion
[ 10718 10713 10712 10709 ] final -127.57 input   66.30 | X-H torsion
[ 10763 10752 10751 10750 ] final  175.56 input  -60.55 | X-H torsion
[ 11005 11000 10999 10996 ] final  144.93 input  -57.11 | X-H torsion

> <Gold.Protein.ActiveResidues>
 VAL166  LYS551  ARG553  GLY616  TRP617  ASP618  TYR619  PRO620  LYS621  CYS622 
 ASP623  PHE694  ASN695  SER759  ASP760  ASP761  ALA762  ILE779  LEU786  VAL792 
 PHE793  MET794  SER795  GLU796  ALA797  LYS798  CYS799  TRP800  GLU811  SER814 

> <Gold.Protein.RotatedAtoms>
  150.7091  134.0993  159.3959 H   0  0  0  0  0  0  0  0  0  0  0  0  # atno 6907 bound_to 6896
  151.8979  135.0388  160.0513 H   0  0  0  0  0  0  0  0  0  0  0  0  # atno 6908 bound_to 6896
  152.2438  133.5122  159.5322 H   0  0  0  0  0  0  0  0  0  0  0  0  # atno 6909 bound_to 6896
  145.4371  140.9558  143.2095 H   0  0  0  0  0  0  0  0  0  0  0  0  # atno 7974 bound_to 7965
  156.2999  140.2496  156.3419 H   0  0  0  0  0  0  0  0  0  0  0  0  # atno 8008 bound_to 7997
  154.9047  140.0405  157.1932 H   0  0  0  0  0  0  0  0  0  0  0  0  # atno 8009 bound_to 7997
  154.8465  140.2899  155.5630 H   0  0  0  0  0  0  0  0  0  0  0  0  # atno 8010 bound_to 7997
  140.2030  144.3968  150.6521 H   0  0  0  0  0  0  0  0  0  0  0  0  # atno 10167 bound_to 10162
  156.1869  130.6769  151.0375 H   0  0  0  0  0  0  0  0  0  0  0  0  # atno 10718 bound_to 10713
  154.4692  135.2770  155.1655 H   0  0  0  0  0  0  0  0  0  0  0  0  # atno 10763 bound_to 10752
  154.3411  135.6170  153.5600 H   0  0  0  0  0  0  0  0  0  0  0  0  # atno 10764 bound_to 10752
  152.9862  135.5788  154.5070 H   0  0  0  0  0  0  0  0  0  0  0  0  # atno 10765 bound_to 10752
  140.0671  134.9172  157.1283 H   0  0  0  0  0  0  0  0  0  0  0  0  # atno 11005 bound_to 11000
  144.8145  139.5902  143.7014 LP  0  0  0  0  0  0  0  0  0  0  0  0  # atno 17320 bound_to 7965
  146.2576  139.6337  142.9384 LP  0  0  0  0  0  0  0  0  0  0  0  0  # atno 17321 bound_to 7965
  140.6377  143.2198  151.6359 LP  0  0  0  0  0  0  0  0  0  0  0  0  # atno 17342 bound_to 10162
  139.5210  144.3207  152.0913 LP  0  0  0  0  0  0  0  0  0  0  0  0  # atno 17343 bound_to 10162
  157.6904  131.0811  150.7122 LP  0  0  0  0  0  0  0  0  0  0  0  0  # atno 17370 bound_to 10713
  156.7179  130.4671  149.5530 LP  0  0  0  0  0  0  0  0  0  0  0  0  # atno 17371 bound_to 10713
  140.3682  134.2419  155.7180 LP  0  0  0  0  0  0  0  0  0  0  0  0  # atno 17394 bound_to 11000
  141.1997  133.8005  157.0523 LP  0  0  0  0  0  0  0  0  0  0  0  0  # atno 17395 bound_to 11000

$$$$
