AV-unprocessed.smi:1920|AV-procd|sdf|7783|dock9
  -GOLD-   22720 9523D 1   1.00000     0.00000
 Structure written by MMmdl.
 36 37  0  0  0  0  0  0  0  0  1 V2000
  148.2796  141.7323  154.1172 C   0  0  0  0  0  0  0  0  0  0  0  0
  149.5399  141.3560  154.9191 C   0  0  2  0  0  0  0  0  0  0  0  0
  149.4965  139.9184  155.4739 C   0  0  0  0  0  0  0  0  0  0  0  0
  150.6070  139.1049  155.0155 N   0  0  0  0  0  0  0  0  0  0  0  0
  150.6881  138.3965  153.8239 C   0  0  0  0  0  0  0  0  0  0  0  0
  151.9191  137.7804  153.8161 C   0  0  0  0  0  0  0  0  0  0  0  0
  152.6096  138.0976  154.9835 N   0  0  0  0  0  0  0  0  0  0  0  0
  151.7713  138.8872  155.6425 C   0  0  0  0  0  0  0  0  0  0  0  0
  149.7303  142.2876  156.0273 N   0  0  0  0  0  0  0  0  0  0  0  0
  150.5730  142.1119  157.0570 C   0  0  0  0  0  0  0  0  0  0  0  0
  151.2913  141.1202  157.1830 O   0  0  0  0  0  0  0  0  0  0  0  0
  150.6110  143.2279  158.1063 C   0  0  0  0  0  0  0  0  0  0  0  0
  151.9829  143.3759  158.7998 C   0  0  1  0  0  0  0  0  0  0  0  0
  151.9899  144.3917  159.9169 C   0  0  0  0  0  0  0  0  0  0  0  0
  152.4429  143.8916  161.0641 C   0  0  0  0  0  0  0  0  0  0  0  0
  152.8294  142.4435  160.9484 C   0  0  0  0  0  0  0  0  0  0  0  0
  152.4572  142.0737  159.4950 C   0  0  0  0  0  0  0  0  0  0  0  0
  148.1542  141.0904  153.2451 H   0  0  0  0  0  0  0  0  0  0  0  0
  148.3340  142.7587  153.7528 H   0  0  0  0  0  0  0  0  0  0  0  0
  147.3811  141.6441  154.7285 H   0  0  0  0  0  0  0  0  0  0  0  0
  150.4018  141.4299  154.2531 H   0  0  0  0  0  0  0  0  0  0  0  0
  149.5174  139.9332  156.5647 H   0  0  0  0  0  0  0  0  0  0  0  0
  148.5652  139.4279  155.1862 H   0  0  0  0  0  0  0  0  0  0  0  0
  149.8847  138.3880  153.1018 H   0  0  0  0  0  0  0  0  0  0  0  0
  152.3582  137.1400  153.0654 H   0  0  0  0  0  0  0  0  0  0  0  0
  152.0084  139.3140  156.6060 H   0  0  0  0  0  0  0  0  0  0  0  0
  149.1802  143.1341  156.0085 H   0  0  0  0  0  0  0  0  0  0  0  0
  150.3295  144.1752  157.6431 H   0  0  0  0  0  0  0  0  0  0  0  0
  149.8461  143.0122  158.8529 H   0  0  0  0  0  0  0  0  0  0  0  0
  152.7330  143.6872  158.0710 H   0  0  0  0  0  0  0  0  0  0  0  0
  151.6719  145.4139  159.7711 H   0  0  0  0  0  0  0  0  0  0  0  0
  152.5446  144.4427  161.9871 H   0  0  0  0  0  0  0  0  0  0  0  0
  153.8979  142.3281  161.1327 H   0  0  0  0  0  0  0  0  0  0  0  0
  152.2820  141.8408  161.6737 H   0  0  0  0  0  0  0  0  0  0  0  0
  151.6668  141.3219  159.4987 H   0  0  0  0  0  0  0  0  0  0  0  0
  153.3073  141.6363  158.9705 H   0  0  0  0  0  0  0  0  0  0  0  0
  1  2  1  0  0  0  0
  1 18  1  0  0  0  0
  1 19  1  0  0  0  0
  1 20  1  0  0  0  0
  2  3  1  0  0  0  0
  2  9  1  0  0  0  0
  2 21  1  0  0  0  0
  3  4  1  0  0  0  0
  3 22  1  0  0  0  0
  3 23  1  0  0  0  0
  4  8  1  0  0  0  0
  4  5  1  0  0  0  0
  5  6  2  0  0  0  0
  5 24  1  0  0  0  0
  6  7  1  0  0  0  0
  6 25  1  0  0  0  0
  7  8  2  0  0  0  0
  8 26  1  0  0  0  0
  9 10  1  0  0  0  0
  9 27  1  0  0  0  0
 10 11  2  0  0  0  0
 10 12  1  0  0  0  0
 12 13  1  0  0  0  0
 12 28  1  0  0  0  0
 12 29  1  0  0  0  0
 13 17  1  0  0  0  0
 13 14  1  0  0  0  0
 13 30  1  0  0  0  0
 14 15  2  0  0  0  0
 14 31  1  0  0  0  0
 15 16  1  0  0  0  0
 15 32  1  0  0  0  0
 16 17  1  0  0  0  0
 16 33  1  0  0  0  0
 16 34  1  0  0  0  0
 17 35  1  0  0  0  0
 17 36  1  0  0  0  0
M  END
> <s_m_source_file>
AV-unprocessed.smi

> <i_m_source_file_index>
1920

> <i_lp_mmshare_version>
43012

> <i_f3d_flags>
0

> <s_epik_input>
W2NIXTFuW2NIXVtjSF1uMVtDSDJdW0NAQEhdKFtDSDNdKVtOSF1DKD1PKVtDSDJdW0NAQEhdMltDSF09W0NIXVtDSDJdW0NIMl0y

> <s_epik_cmdline>
J2VwaWtfcHl0aG9uJywgJy1waCcsICc3LjAnLCAnLXRuJywgJzgnLCAnLW1hJywgJzIwMCcsICctbWV0YWxfYmluZGluZycsICctaW1hZScsICc8aW5maWxlLm1hZT4nLCAnLW9tYWUnLCAnPG91dGZpbGUubWFlPic=

> <r_lp_tautomer_probability>
1

> <r_epik_Ionization_Penalty>
0.635367

> <r_epik_Ionization_Penalty_Charging>
0.635367

> <r_epik_Ionization_Penalty_Neutral>
2.1249e-08

> <r_epik_State_Penalty>
0.65258

> <r_epik_Charging_Adjusted_Penalty>
1.28795

> <i_epik_Tot_Q>
0

> <i_epik_Tot_abs_Q>
0

> <r_epik_Metal_State_Penalty>
0.310403

> <b_epik_Metal_Only>
0

> <s_lp_Force_Field>
OPLS_2005

> <r_lp_Energy>
18.7511

> <b_lp_Chiralities_Consistent>
1

> <s_lp_Variant>
AV-unprocessed.smi:1920-7

> <Gold.Version>
5.8.1

> <Gold.Id.Protein>
6NUR|6NUR_protein|mol2

> <Gold.PLP.Fitness>
46.1467

> <Gold.PLP.PLP>
-38.9743

> <Gold.PLP.part.hbond>
-1.4366

> <Gold.PLP.part.metal>
0.0000

> <Gold.PLP.part.buried>
-2.7585

> <Gold.PLP.part.nonpolar>
-33.8779

> <Gold.PLP.part.repulsive>
0.1701

> <Gold.PLP.ligand.clash>
0.0000

> <Gold.PLP.ligand.torsion>
1.6697

> <Gold.PLP.Chemscore.Hbond>
1.0000

> <Gold.PLP.Chemscore.CHOScore>
2.4888

> <Gold.PLP.Chemscore.Metal>
0.0000

> <Gold.Chemscore.Hbonds>
donor molecule, donor type, donor heavy atom, donor atom, acceptor molecule, acceptor atom, score
      L1  H     9    27       P1  8028  1.00
      L1  C     5    24       P1  7948  0.72
      L1  C     5    24       P1  7957  0.88
      L1  C     6    25       P1  7949  0.91

> <Gold.PLP.Chemscore.Internal.Correction>
0.0453

> <Gold.Rescore>
     Score         DG    S(hbond)    S(metal)    S(lipo)     H(rot)  DE(clash)    DE(int)     intcor
     10.52     -16.31       0.98        0.00     106.87       1.93       0.21       5.58       ----

> <Gold.Chemscore.Fitness>
10.5207

> <Gold.Chemscore.DG>
-16.3109

> <Gold.Chemscore.ZeroCoef>
-5.4800

> <Gold.Chemscore.Hbond>
0.9789

> <Gold.Chemscore.Metal>
0.0000

> <Gold.Chemscore.Lipo>
106.8702

> <Gold.Chemscore.Internal_Hbond>
0.0000

> <Gold.Chemscore.DEClash>
0.2053

> <Gold.Chemscore.DEInternal>
5.5848

> <Gold.Chemscore.Rot>
1.9306

> <Gold.Chemscore.Internal.Correction>
   9.000000E+99

> <Gold.Chemscore.Hbonds>
donor molecule, donor type, donor heavy atom, donor atom, acceptor molecule, acceptor atom, score
      L1  H     9    27       P1  8028  0.98

> <Gold.Chemscore.Hbond.Weighted>
-3.2695

> <Gold.Chemscore.Metal.Weighted>
-0.0000

> <Gold.Chemscore.Lipo.Weighted>
-12.5038

> <Gold.Chemscore.Internal_Hbond.Weighted>
0.0000

> <Gold.Chemscore.DEClash.Weighted>
0.2053

> <Gold.Chemscore.DEInternal.Weighted>
5.5848

> <Gold.Chemscore.Rot.Weighted>
4.9424

> <Gold.Chemscore.Internal.Correction.Weighted>
   9.000000E+99

> <Gold.Protein.RotatedTorsions>
[ 6907 6896 6895 6894 ] final   52.14 input  -60.11 | X-H torsion
[ 7974 7965 7964 7962 ] final  151.14 input  175.53 | X-H torsion
[ 8008 7997 7996 7995 ] final  -33.01 input   59.86 | X-H torsion
[ 10167 10162 10161 10158 ] final  -26.30 input  -65.29 | X-H torsion
[ 10718 10713 10712 10709 ] final  -32.69 input   66.30 | X-H torsion
[ 10763 10752 10751 10750 ] final   57.02 input  -60.55 | X-H torsion
[ 11005 11000 10999 10996 ] final  -26.38 input  -57.11 | X-H torsion

> <Gold.Protein.ActiveResidues>
 VAL166  LYS551  ARG553  GLY616  TRP617  ASP618  TYR619  PRO620  LYS621  CYS622 
 ASP623  PHE694  ASN695  SER759  ASP760  ASP761  ALA762  ILE779  LEU786  VAL792 
 PHE793  MET794  SER795  GLU796  ALA797  LYS798  CYS799  TRP800  GLU811  SER814 

> <Gold.Protein.RotatedAtoms>
  152.3202  134.7390  160.0315 H   0  0  0  0  0  0  0  0  0  0  0  0  # atno 6907 bound_to 6896
  151.7841  133.3347  159.3488 H   0  0  0  0  0  0  0  0  0  0  0  0  # atno 6908 bound_to 6896
  150.7366  134.5834  159.5995 H   0  0  0  0  0  0  0  0  0  0  0  0  # atno 6909 bound_to 6896
  144.8314  139.6499  143.6057 H   0  0  0  0  0  0  0  0  0  0  0  0  # atno 7974 bound_to 7965
  154.4162  140.1722  156.1819 H   0  0  0  0  0  0  0  0  0  0  0  0  # atno 8008 bound_to 7997
  155.9675  140.3388  155.6522 H   0  0  0  0  0  0  0  0  0  0  0  0  # atno 8009 bound_to 7997
  155.6669  140.0707  157.2525 H   0  0  0  0  0  0  0  0  0  0  0  0  # atno 8010 bound_to 7997
  140.7283  143.4190  151.0982 H   0  0  0  0  0  0  0  0  0  0  0  0  # atno 10167 bound_to 10162
  156.3718  130.4341  149.7539 H   0  0  0  0  0  0  0  0  0  0  0  0  # atno 10718 bound_to 10713
  152.9842  135.5656  154.5324 H   0  0  0  0  0  0  0  0  0  0  0  0  # atno 10763 bound_to 10752
  154.4793  135.2788  155.1585 H   0  0  0  0  0  0  0  0  0  0  0  0  # atno 10764 bound_to 10752
  154.3100  135.6290  153.5515 H   0  0  0  0  0  0  0  0  0  0  0  0  # atno 10765 bound_to 10752
  140.9024  133.7515  156.0562 H   0  0  0  0  0  0  0  0  0  0  0  0  # atno 11005 bound_to 11000
  146.2616  139.6424  142.9358 LP  0  0  0  0  0  0  0  0  0  0  0  0  # atno 17320 bound_to 7965
  145.4888  141.0438  143.2605 LP  0  0  0  0  0  0  0  0  0  0  0  0  # atno 17321 bound_to 7965
  139.7833  143.8323  152.3141 LP  0  0  0  0  0  0  0  0  0  0  0  0  # atno 17342 bound_to 10162
  139.8282  144.7265  150.9484 LP  0  0  0  0  0  0  0  0  0  0  0  0  # atno 17343 bound_to 10162
  156.4664  130.7976  151.2995 LP  0  0  0  0  0  0  0  0  0  0  0  0  # atno 17370 bound_to 10713
  157.7484  131.0050  150.3095 LP  0  0  0  0  0  0  0  0  0  0  0  0  # atno 17371 bound_to 10713
  140.8213  134.3286  157.5380 LP  0  0  0  0  0  0  0  0  0  0  0  0  # atno 17394 bound_to 11000
  139.8744  134.9311  156.3518 LP  0  0  0  0  0  0  0  0  0  0  0  0  # atno 17395 bound_to 11000

$$$$
