AV-unprocessed.smi:1782|AV-procd|sdf|7190|dock1
  -GOLD-   22720 8433D 1   1.00000     0.00000
 Structure written by MMmdl.
 42 44  0  0  0  0  0  0  0  0  2 V2000
  149.0271  140.4557  156.7645 O   0  0  0  0  0  0  0  0  0  0  0  0
  150.1891  140.3800  156.3684 C   0  0  0  0  0  0  0  0  0  0  0  0
  151.0598  141.6492  156.3576 C   0  0  0  0  0  0  0  0  0  0  0  0
  151.5561  142.0796  157.6786 N   0  0  0  0  0  0  0  0  0  0  0  0
  151.1128  143.3298  158.1456 C   0  0  0  0  0  0  0  0  0  0  0  0
  151.5034  143.8196  159.3299 C   0  0  0  0  0  0  0  0  0  0  0  0
  152.4036  143.0278  160.1322 C   0  0  0  0  0  0  0  0  0  0  0  0
  152.8509  141.8233  159.7081 C   0  0  0  0  0  0  0  0  0  0  0  0
  153.8087  140.9750  160.5418 C   0  0  0  0  0  0  0  0  0  0  0  0
  153.3933  139.7089  160.5910 F   0  0  0  0  0  0  0  0  0  0  0  0
  155.0315  140.9926  160.0094 F   0  0  0  0  0  0  0  0  0  0  0  0
  153.9036  141.4227  161.7947 F   0  0  0  0  0  0  0  0  0  0  0  0
  152.4145  141.2931  158.4002 C   0  0  0  0  0  0  0  0  0  0  0  0
  152.8041  140.2086  157.9645 O   0  0  0  0  0  0  0  0  0  0  0  0
  150.7353  139.2276  155.9453 N   0  0  0  0  0  0  0  0  0  0  0  0
  150.0571  137.9377  155.9205 C   0  0  2  0  0  0  0  0  0  0  0  0
  150.9525  136.7550  155.5636 C   0  0  0  0  0  0  0  0  0  0  0  0
  149.9403  135.7011  155.1021 C   0  0  0  0  0  0  0  0  0  0  0  0
  148.7764  136.4404  154.5527 N   0  3  1  0  0  0  0  0  0  0  0  0
  147.4723  135.9397  155.0390 C   0  0  0  0  0  0  0  0  0  0  0  0
  146.9352  134.7756  154.2410 C   0  0  0  0  0  0  0  0  0  0  0  0
  146.3419  136.1563  154.0612 C   0  0  0  0  0  0  0  0  0  0  0  0
  148.9960  137.8787  154.8223 C   0  0  0  0  0  0  0  0  0  0  0  0
  151.8968  141.4748  155.6798 H   0  0  0  0  0  0  0  0  0  0  0  0
  150.4890  142.4540  155.8912 H   0  0  0  0  0  0  0  0  0  0  0  0
  150.4448  143.8611  157.4831 H   0  0  0  0  0  0  0  0  0  0  0  0
  151.1551  144.7825  159.6739 H   0  0  0  0  0  0  0  0  0  0  0  0
  152.7188  143.4205  161.0875 H   0  0  0  0  0  0  0  0  0  0  0  0
  151.6943  139.2482  155.6300 H   0  0  0  0  0  0  0  0  0  0  0  0
  149.5798  137.7559  156.8856 H   0  0  0  0  0  0  0  0  0  0  0  0
  151.6193  137.0184  154.7407 H   0  0  0  0  0  0  0  0  0  0  0  0
  151.5649  136.4144  156.3991 H   0  0  0  0  0  0  0  0  0  0  0  0
  150.3623  135.0251  154.3581 H   0  0  0  0  0  0  0  0  0  0  0  0
  149.6318  135.0970  155.9572 H   0  0  0  0  0  0  0  0  0  0  0  0
  147.2964  136.0038  156.1117 H   0  0  0  0  0  0  0  0  0  0  0  0
  147.5465  134.3808  153.4311 H   0  0  0  0  0  0  0  0  0  0  0  0
  146.3322  134.0399  154.7695 H   0  0  0  0  0  0  0  0  0  0  0  0
  145.3490  136.3296  154.4717 H   0  0  0  0  0  0  0  0  0  0  0  0
  146.5580  136.6794  153.1311 H   0  0  0  0  0  0  0  0  0  0  0  0
  148.0805  138.4038  155.0993 H   0  0  0  0  0  0  0  0  0  0  0  0
  149.3716  138.3361  153.9055 H   0  0  0  0  0  0  0  0  0  0  0  0
  148.7838  136.3248  153.5494 H   0  0  0  0  0  0  0  0  0  0  0  0
  1  2  2  0  0  0  0
  2  3  1  0  0  0  0
  2 15  1  0  0  0  0
  3  4  1  0  0  0  0
  3 24  1  0  0  0  0
  3 25  1  0  0  0  0
  4 13  1  0  0  0  0
  4  5  1  0  0  0  0
  5  6  2  0  0  0  0
  5 26  1  0  0  0  0
  6  7  1  0  0  0  0
  6 27  1  0  0  0  0
  7  8  2  0  0  0  0
  7 28  1  0  0  0  0
  8  9  1  0  0  0  0
  8 13  1  0  0  0  0
  9 10  1  0  0  0  0
  9 11  1  0  0  0  0
  9 12  1  0  0  0  0
 13 14  2  0  0  0  0
 15 16  1  0  0  0  0
 15 29  1  0  0  0  0
 16 23  1  0  0  0  0
 16 17  1  0  0  0  0
 16 30  1  0  0  0  0
 17 18  1  0  0  0  0
 17 31  1  0  0  0  0
 17 32  1  0  0  0  0
 18 19  1  0  0  0  0
 18 33  1  0  0  0  0
 18 34  1  0  0  0  0
 19 20  1  0  0  0  0
 19 23  1  0  0  0  0
 19 42  1  0  0  0  0
 20 22  1  0  0  0  0
 20 21  1  0  0  0  0
 20 35  1  0  0  0  0
 21 22  1  0  0  0  0
 21 36  1  0  0  0  0
 21 37  1  0  0  0  0
 22 38  1  0  0  0  0
 22 39  1  0  0  0  0
 23 40  1  0  0  0  0
 23 41  1  0  0  0  0
M  CHG  1  19   1
M  END
> <s_m_source_file>
AV-unprocessed.smi

> <i_m_source_file_index>
1782

> <i_lp_mmshare_version>
43012

> <i_f3d_flags>
0

> <s_epik_input>
W0NIMl0xW0NIMl1bQ0hdMU4oW0NIMl0yKVtDSDJdW0NIMl1bQ0BIXTJbTkhdQyg9TylbQ0gyXW4zW2NIXVtjSF1bY0hdYyhDKEYpKEYpRiljMz1P

> <s_epik_cmdline>
J2VwaWtfcHl0aG9uJywgJy1waCcsICc3LjAnLCAnLXRuJywgJzgnLCAnLW1hJywgJzIwMCcsICctbWV0YWxfYmluZGluZycsICctaW1hZScsICc8aW5maWxlLm1hZT4nLCAnLW9tYWUnLCAnPG91dGZpbGUubWFlPic=

> <r_lp_tautomer_probability>
1

> <r_epik_Ionization_Penalty>
0.00106789

> <r_epik_Ionization_Penalty_Charging>
0.00106781

> <r_epik_Ionization_Penalty_Neutral>
8.2288e-08

> <r_epik_State_Penalty>
0.000699156

> <r_epik_Charging_Adjusted_Penalty>
0.00176697

> <i_epik_Tot_Q>
1

> <i_epik_Tot_abs_Q>
1

> <r_epik_Metal_State_Penalty>
-0

> <b_epik_Metal_Only>
0

> <s_lp_Force_Field>
OPLS_2005

> <r_lp_Energy>
47.5501

> <b_lp_Chiralities_Consistent>
1

> <s_lp_Variant>
AV-unprocessed.smi:1782-3

> <Gold.Version>
5.8.1

> <Gold.Id.Protein>
6NUR|6NUR_protein|mol2

> <Gold.PLP.Fitness>
48.1751

> <Gold.PLP.PLP>
-37.4594

> <Gold.PLP.part.hbond>
-2.0000

> <Gold.PLP.part.metal>
0.0000

> <Gold.PLP.part.buried>
-3.6862

> <Gold.PLP.part.nonpolar>
-30.9742

> <Gold.PLP.part.repulsive>
0.0880

> <Gold.PLP.ligand.clash>
0.0000

> <Gold.PLP.ligand.torsion>
1.3861

> <Gold.PLP.Chemscore.Hbond>
2.9600

> <Gold.PLP.Chemscore.CHOScore>
1.0000

> <Gold.PLP.Chemscore.Metal>
0.0000

> <Gold.Chemscore.Hbonds>
donor molecule, donor type, donor heavy atom, donor atom, acceptor molecule, acceptor atom, score
      L1  H    19    42       P1  7948  2.00
      P1  H  7997  8010       L1    14  0.98
      L1  C     5    26       P1  8028  1.00

> <Gold.PLP.Chemscore.Internal.Correction>
1.6079

> <Gold.Rescore>
     Score         DG    S(hbond)    S(metal)    S(lipo)     H(rot)  DE(clash)    DE(int)     intcor
     13.84     -16.62       1.92        0.00      80.06       1.81       0.02       2.75       ----

> <Gold.Chemscore.Fitness>
13.8437

> <Gold.Chemscore.DG>
-16.6185

> <Gold.Chemscore.ZeroCoef>
-5.4800

> <Gold.Chemscore.Hbond>
1.9176

> <Gold.Chemscore.Metal>
0.0000

> <Gold.Chemscore.Lipo>
80.0646

> <Gold.Chemscore.Internal_Hbond>
0.0000

> <Gold.Chemscore.DEClash>
0.0237

> <Gold.Chemscore.DEInternal>
2.7512

> <Gold.Chemscore.Rot>
1.8101

> <Gold.Chemscore.Internal.Correction>
   9.000000E+99

> <Gold.Chemscore.Hbonds>
donor molecule, donor type, donor heavy atom, donor atom, acceptor molecule, acceptor atom, score
      L1  H    19    42       P1  7948  1.00
      P1  H  7997  8010       L1    14  0.88

> <Gold.Chemscore.Hbond.Weighted>
-6.4047

> <Gold.Chemscore.Metal.Weighted>
-0.0000

> <Gold.Chemscore.Lipo.Weighted>
-9.3676

> <Gold.Chemscore.Internal_Hbond.Weighted>
0.0000

> <Gold.Chemscore.DEClash.Weighted>
0.0237

> <Gold.Chemscore.DEInternal.Weighted>
2.7512

> <Gold.Chemscore.Rot.Weighted>
4.6338

> <Gold.Chemscore.Internal.Correction.Weighted>
   9.000000E+99

> <Gold.Protein.RotatedTorsions>
[ 6907 6896 6895 6894 ] final  -23.58 input  -60.11 | X-H torsion
[ 7974 7965 7964 7962 ] final  128.23 input  175.53 | X-H torsion
[ 8008 7997 7996 7995 ] final   48.96 input   59.86 | X-H torsion
[ 10167 10162 10161 10158 ] final  107.76 input  -65.29 | X-H torsion
[ 10718 10713 10712 10709 ] final  -74.34 input   66.30 | X-H torsion
[ 10763 10752 10751 10750 ] final   68.92 input  -60.55 | X-H torsion
[ 11005 11000 10999 10996 ] final   16.85 input  -57.11 | X-H torsion

> <Gold.Protein.ActiveResidues>
 VAL166  LYS551  ARG553  GLY616  TRP617  ASP618  TYR619  PRO620  LYS621  CYS622 
 ASP623  PHE694  ASN695  SER759  ASP760  ASP761  ALA762  ILE779  LEU786  VAL792 
 PHE793  MET794  SER795  GLU796  ALA797  LYS798  CYS799  TRP800  GLU811  SER814 

> <Gold.Protein.RotatedAtoms>
  151.2020  135.0446  159.8875 H   0  0  0  0  0  0  0  0  0  0  0  0  # atno 6907 bound_to 6896
  152.5432  134.0839  159.8258 H   0  0  0  0  0  0  0  0  0  0  0  0  # atno 6908 bound_to 6896
  151.0981  133.5216  159.2643 H   0  0  0  0  0  0  0  0  0  0  0  0  # atno 6909 bound_to 6896
  145.0418  139.3957  143.5098 H   0  0  0  0  0  0  0  0  0  0  0  0  # atno 7974 bound_to 7965
  155.3943  140.3435  155.4253 H   0  0  0  0  0  0  0  0  0  0  0  0  # atno 8008 bound_to 7997
  156.1540  140.1579  156.8756 H   0  0  0  0  0  0  0  0  0  0  0  0  # atno 8009 bound_to 7997
  154.5077  140.0798  156.7910 H   0  0  0  0  0  0  0  0  0  0  0  0  # atno 8010 bound_to 7997
  139.6901  144.7109  151.1364 H   0  0  0  0  0  0  0  0  0  0  0  0  # atno 10167 bound_to 10162
  156.0246  130.4415  150.2877 H   0  0  0  0  0  0  0  0  0  0  0  0  # atno 10718 bound_to 10713
  153.0260  135.5230  154.7208 H   0  0  0  0  0  0  0  0  0  0  0  0  # atno 10763 bound_to 10752
  154.6264  135.2895  155.0269 H   0  0  0  0  0  0  0  0  0  0  0  0  # atno 10764 bound_to 10752
  154.1237  135.6603  153.4960 H   0  0  0  0  0  0  0  0  0  0  0  0  # atno 10765 bound_to 10752
  140.4425  134.1307  155.7692 H   0  0  0  0  0  0  0  0  0  0  0  0  # atno 11005 bound_to 11000
  146.3510  140.0023  142.8675 LP  0  0  0  0  0  0  0  0  0  0  0  0  # atno 17320 bound_to 7965
  145.1638  140.9686  143.4362 LP  0  0  0  0  0  0  0  0  0  0  0  0  # atno 17321 bound_to 7965
  140.7680  143.5572  150.9138 LP  0  0  0  0  0  0  0  0  0  0  0  0  # atno 17342 bound_to 10162
  139.9249  143.6562  152.3089 LP  0  0  0  0  0  0  0  0  0  0  0  0  # atno 17343 bound_to 10162
  157.0981  131.0188  151.3096 LP  0  0  0  0  0  0  0  0  0  0  0  0  # atno 17370 bound_to 10713
  157.4801  130.7760  149.7406 LP  0  0  0  0  0  0  0  0  0  0  0  0  # atno 17371 bound_to 10713
  141.1699  133.8629  157.1602 LP  0  0  0  0  0  0  0  0  0  0  0  0  # atno 17394 bound_to 11000
  140.0060  135.0008  157.0293 LP  0  0  0  0  0  0  0  0  0  0  0  0  # atno 17395 bound_to 11000

$$$$
