AV-unprocessed.smi:1278|AV-procd|sdf|5351|dock10
  -GOLD-   22720 4483D 1   1.00000     0.00000
 Structure written by MMmdl.
 38 39  0  0  0  0  0  0  0  0  3 V2000
  153.6414  142.0097  161.3853 C   0  0  0  0  0  0  0  0  0  0  0  0
  153.2168  141.9634  159.9108 C   0  0  2  0  0  0  0  0  0  0  0  0
  152.3753  143.1930  159.5298 C   0  0  0  0  0  0  0  0  0  0  0  0
  151.9434  143.1067  158.0607 C   0  0  0  0  0  0  0  0  0  0  0  0
  151.2076  141.7867  157.7806 C   0  0  0  0  0  0  0  0  0  0  0  0
  152.0449  140.6174  158.1531 N   0  3  2  0  0  0  0  0  0  0  0  0
  151.4108  139.3315  157.7712 C   0  0  0  0  0  0  0  0  0  0  0  0
  151.2734  139.1763  156.2448 C   0  0  0  0  0  0  0  0  0  0  0  0
  152.5226  139.5009  155.5671 N   0  0  0  0  0  0  0  0  0  0  0  0
  153.2691  138.6449  154.8552 C   0  0  0  0  0  0  0  0  0  0  0  0
  152.9183  137.4672  154.7478 O   0  0  0  0  0  0  0  0  0  0  0  0
  154.3700  139.2078  154.3094 N   0  5  0  0  0  0  0  0  0  0  0  0
  155.4859  138.4786  154.1457 C   0  0  0  0  0  0  0  0  0  0  0  0
  155.7359  137.3626  154.8403 N   0  0  0  0  0  0  0  0  0  0  0  0
  156.9509  136.7614  154.5064 C   0  0  0  0  0  0  0  0  0  0  0  0
  157.6390  137.4320  153.5301 C   0  0  0  0  0  0  0  0  0  0  0  0
  156.7741  138.8444  152.9945 S   0  0  0  0  0  0  0  0  0  0  0  0
  152.4463  140.6676  159.5853 C   0  0  0  0  0  0  0  0  0  0  0  0
  152.7756  141.9953  162.0483 H   0  0  0  0  0  0  0  0  0  0  0  0
  154.2114  142.9137  161.6020 H   0  0  0  0  0  0  0  0  0  0  0  0
  154.2698  141.1558  161.6402 H   0  0  0  0  0  0  0  0  0  0  0  0
  154.1257  141.9750  159.3071 H   0  0  0  0  0  0  0  0  0  0  0  0
  151.4927  143.2533  160.1682 H   0  0  0  0  0  0  0  0  0  0  0  0
  152.9441  144.1087  159.6963 H   0  0  0  0  0  0  0  0  0  0  0  0
  151.3012  143.9516  157.8113 H   0  0  0  0  0  0  0  0  0  0  0  0
  152.8194  143.1828  157.4150 H   0  0  0  0  0  0  0  0  0  0  0  0
  150.2672  141.7533  158.3332 H   0  0  0  0  0  0  0  0  0  0  0  0
  150.9548  141.7383  156.7207 H   0  0  0  0  0  0  0  0  0  0  0  0
  151.9744  138.5041  158.2054 H   0  0  0  0  0  0  0  0  0  0  0  0
  150.4103  139.2788  158.2031 H   0  0  0  0  0  0  0  0  0  0  0  0
  151.0125  138.1468  155.9979 H   0  0  0  0  0  0  0  0  0  0  0  0
  150.4762  139.8025  155.8437 H   0  0  0  0  0  0  0  0  0  0  0  0
  152.8482  140.4544  155.6332 H   0  0  0  0  0  0  0  0  0  0  0  0
  157.2480  135.8567  155.0155 H   0  0  0  0  0  0  0  0  0  0  0  0
  158.5942  137.1826  153.0937 H   0  0  0  0  0  0  0  0  0  0  0  0
  153.0759  139.8122  159.8275 H   0  0  0  0  0  0  0  0  0  0  0  0
  151.5573  140.5887  160.2137 H   0  0  0  0  0  0  0  0  0  0  0  0
  152.8904  140.6905  157.6056 H   0  0  0  0  0  0  0  0  0  0  0  0
  1  2  1  0  0  0  0
  1 19  1  0  0  0  0
  1 20  1  0  0  0  0
  1 21  1  0  0  0  0
  2 18  1  0  0  0  0
  2  3  1  0  0  0  0
  2 22  1  0  0  0  0
  3  4  1  0  0  0  0
  3 23  1  0  0  0  0
  3 24  1  0  0  0  0
  4  5  1  0  0  0  0
  4 25  1  0  0  0  0
  4 26  1  0  0  0  0
  5  6  1  0  0  0  0
  5 27  1  0  0  0  0
  5 28  1  0  0  0  0
  6  7  1  0  0  0  0
  6 18  1  0  0  0  0
  6 38  1  0  0  0  0
  7  8  1  0  0  0  0
  7 29  1  0  0  0  0
  7 30  1  0  0  0  0
  8  9  1  0  0  0  0
  8 31  1  0  0  0  0
  8 32  1  0  0  0  0
  9 10  1  0  0  0  0
  9 33  1  0  0  0  0
 10 11  2  0  0  0  0
 10 12  1  0  0  0  0
 12 13  1  0  0  0  0
 13 17  1  0  0  0  0
 13 14  2  0  0  0  0
 14 15  1  0  0  0  0
 15 16  2  0  0  0  0
 15 34  1  0  0  0  0
 16 17  1  0  0  0  0
 16 35  1  0  0  0  0
 18 36  1  0  0  0  0
 18 37  1  0  0  0  0
M  CHG  1   6   1
M  CHG  1  12  -1
M  END
> <s_m_source_file>
AV-unprocessed.smi

> <i_m_source_file_index>
1278

> <i_lp_mmshare_version>
43012

> <i_f3d_flags>
0

> <s_epik_input>
W0NIM11bQ0BASF0xW0NIMl1bQ0gyXVtDSDJdTihbQ0gyXTEpW0NIMl1bQ0gyXVtOSF1DKD1PKVtOSF1jMm5bY0hdW2NIXXMy

> <s_epik_cmdline>
J2VwaWtfcHl0aG9uJywgJy1waCcsICc3LjAnLCAnLXRuJywgJzgnLCAnLW1hJywgJzIwMCcsICctbWV0YWxfYmluZGluZycsICctaW1hZScsICc8aW5maWxlLm1hZT4nLCAnLW9tYWUnLCAnPG91dGZpbGUubWFlPic=

> <r_lp_tautomer_probability>
0.999

> <r_epik_Ionization_Penalty>
6.22019

> <r_epik_Ionization_Penalty_Charging>
5.38911

> <r_epik_Ionization_Penalty_Neutral>
0.831074

> <r_epik_State_Penalty>
5.38904

> <r_epik_Charging_Adjusted_Penalty>
10.7782

> <i_epik_Tot_Q>
0

> <i_epik_Tot_abs_Q>
2

> <r_epik_Metal_State_Penalty>
1.41502

> <b_epik_Metal_Only>
1

> <s_lp_Force_Field>
OPLS_2005

> <r_lp_Energy>
5.98005

> <b_lp_Chiralities_Consistent>
1

> <s_lp_Variant>
AV-unprocessed.smi:1278-5

> <Gold.Version>
5.8.1

> <Gold.Id.Protein>
6NUR|6NUR_protein|mol2

> <Gold.PLP.Fitness>
42.4185

> <Gold.PLP.PLP>
-36.2273

> <Gold.PLP.part.hbond>
-2.9453

> <Gold.PLP.part.metal>
0.0000

> <Gold.PLP.part.buried>
-2.3022

> <Gold.PLP.part.nonpolar>
-31.2882

> <Gold.PLP.part.repulsive>
0.8374

> <Gold.PLP.ligand.clash>
0.0000

> <Gold.PLP.ligand.torsion>
0.4032

> <Gold.PLP.Chemscore.Hbond>
2.3207

> <Gold.PLP.Chemscore.CHOScore>
0.0000

> <Gold.PLP.Chemscore.Metal>
0.0000

> <Gold.Chemscore.Hbonds>
donor molecule, donor type, donor heavy atom, donor atom, acceptor molecule, acceptor atom, score
      P1  H  7997  8009       L1    12  2.00
      P1  H 10752 10763       L1    14  0.06
      P1  H 10752 10764       L1    11  0.22

> <Gold.PLP.Chemscore.Internal.Correction>
0.0354

> <Gold.Rescore>
     Score         DG    S(hbond)    S(metal)    S(lipo)     H(rot)  DE(clash)    DE(int)     intcor
     13.21     -15.48       0.66        0.00     100.79       1.57       0.54       1.73       ----

> <Gold.Chemscore.Fitness>
13.2063

> <Gold.Chemscore.DG>
-15.4774

> <Gold.Chemscore.ZeroCoef>
-5.4800

> <Gold.Chemscore.Hbond>
0.6642

> <Gold.Chemscore.Metal>
0.0000

> <Gold.Chemscore.Lipo>
100.7864

> <Gold.Chemscore.Internal_Hbond>
0.0000

> <Gold.Chemscore.DEClash>
0.5427

> <Gold.Chemscore.DEInternal>
1.7284

> <Gold.Chemscore.Rot>
1.5676

> <Gold.Chemscore.Internal.Correction>
   9.000000E+99

> <Gold.Chemscore.Hbonds>
donor molecule, donor type, donor heavy atom, donor atom, acceptor molecule, acceptor atom, score
      P1  H  7997  8009       L1    12  0.10
      P1  H 10752 10764       L1    11  0.22

> <Gold.Chemscore.Hbond.Weighted>
-2.2184

> <Gold.Chemscore.Metal.Weighted>
-0.0000

> <Gold.Chemscore.Lipo.Weighted>
-11.7920

> <Gold.Chemscore.Internal_Hbond.Weighted>
0.0000

> <Gold.Chemscore.DEClash.Weighted>
0.5427

> <Gold.Chemscore.DEInternal.Weighted>
1.7284

> <Gold.Chemscore.Rot.Weighted>
4.0130

> <Gold.Chemscore.Internal.Correction.Weighted>
   9.000000E+99

> <Gold.Protein.RotatedTorsions>
[ 6907 6896 6895 6894 ] final  -51.27 input  -60.11 | X-H torsion
[ 7974 7965 7964 7962 ] final -154.19 input  175.53 | X-H torsion
[ 8008 7997 7996 7995 ] final -105.24 input   59.86 | X-H torsion
[ 10167 10162 10161 10158 ] final   -4.71 input  -65.29 | X-H torsion
[ 10718 10713 10712 10709 ] final   94.87 input   66.30 | X-H torsion
[ 10763 10752 10751 10750 ] final -101.14 input  -60.55 | X-H torsion
[ 11005 11000 10999 10996 ] final -115.28 input  -57.11 | X-H torsion

> <Gold.Protein.ActiveResidues>
 VAL166  LYS551  ARG553  GLY616  TRP617  ASP618  TYR619  PRO620  LYS621  CYS622 
 ASP623  PHE694  ASN695  SER759  ASP760  ASP761  ALA762  ILE779  LEU786  VAL792 
 PHE793  MET794  SER795  GLU796  ALA797  LYS798  CYS799  TRP800  GLU811  SER814 

> <Gold.Protein.RotatedAtoms>
  150.8627  134.7983  159.7094 H   0  0  0  0  0  0  0  0  0  0  0  0  # atno 6907 bound_to 6896
  152.4659  134.5073  159.9753 H   0  0  0  0  0  0  0  0  0  0  0  0  # atno 6908 bound_to 6896
  151.5175  133.3434  159.2931 H   0  0  0  0  0  0  0  0  0  0  0  0  # atno 6909 bound_to 6896
  144.7702  140.4422  143.5913 H   0  0  0  0  0  0  0  0  0  0  0  0  # atno 7974 bound_to 7965
  154.8969  140.0414  157.1871 H   0  0  0  0  0  0  0  0  0  0  0  0  # atno 8008 bound_to 7997
  154.8483  140.2925  155.5594 H   0  0  0  0  0  0  0  0  0  0  0  0  # atno 8009 bound_to 7997
  156.2995  140.2469  156.3437 H   0  0  0  0  0  0  0  0  0  0  0  0  # atno 8010 bound_to 7997
  140.6937  143.6392  150.8451 H   0  0  0  0  0  0  0  0  0  0  0  0  # atno 10167 bound_to 10162
  157.6944  131.0527  150.4253 H   0  0  0  0  0  0  0  0  0  0  0  0  # atno 10718 bound_to 10713
  154.7634  135.4909  153.9508 H   0  0  0  0  0  0  0  0  0  0  0  0  # atno 10763 bound_to 10752
  153.1279  135.6746  153.9235 H   0  0  0  0  0  0  0  0  0  0  0  0  # atno 10764 bound_to 10752
  153.8947  135.3117  155.3426 H   0  0  0  0  0  0  0  0  0  0  0  0  # atno 10765 bound_to 10752
  141.0498  133.9705  157.2856 H   0  0  0  0  0  0  0  0  0  0  0  0  # atno 11005 bound_to 11000
  145.6347  139.1541  143.2949 LP  0  0  0  0  0  0  0  0  0  0  0  0  # atno 17320 bound_to 7965
  146.1842  140.6448  142.9175 LP  0  0  0  0  0  0  0  0  0  0  0  0  # atno 17321 bound_to 7965
  140.0108  143.5645  152.2840 LP  0  0  0  0  0  0  0  0  0  0  0  0  # atno 17342 bound_to 10162
  139.6368  144.7651  151.2421 LP  0  0  0  0  0  0  0  0  0  0  0  0  # atno 17343 bound_to 10162
  156.4624  130.4035  149.6568 LP  0  0  0  0  0  0  0  0  0  0  0  0  # atno 17370 bound_to 10713
  156.3678  130.7515  151.2494 LP  0  0  0  0  0  0  0  0  0  0  0  0  # atno 17371 bound_to 10713
  139.9341  135.0198  156.8497 LP  0  0  0  0  0  0  0  0  0  0  0  0  # atno 17394 bound_to 11000
  140.6077  134.0111  155.7564 LP  0  0  0  0  0  0  0  0  0  0  0  0  # atno 17395 bound_to 11000

$$$$
