AV-unprocessed.smi:252|AV-procd|sdf|1939|dock10
  -GOLD-   2262021 63D 1   1.00000     0.00000
 Structure written by MMmdl.
 56 59  0  0  0  0  0  0  0  0  1 V2000
  155.0555  133.5707  160.8143 C   0  0  0  0  0  0  0  0  0  0  0  0
  155.2474  134.9238  161.5175 C   0  0  0  0  0  0  0  0  0  0  0  0
  154.2875  136.0135  161.0283 C   0  0  0  0  0  0  0  0  0  0  0  0
  153.4604  135.7818  160.1457 O   0  0  0  0  0  0  0  0  0  0  0  0
  154.4147  137.2112  161.6197 N   0  0  0  0  0  0  0  0  0  0  0  0
  153.6042  138.3878  161.3226 C   0  0  1  0  0  0  0  0  0  0  0  0
  154.2424  139.6330  161.9668 C   0  0  0  0  0  0  0  0  0  0  0  0
  153.4614  140.9008  161.5859 C   0  0  0  0  0  0  0  0  0  0  0  0
  153.3308  141.0248  160.0598 C   0  0  0  0  0  0  0  0  0  0  0  0
  152.7370  139.8148  159.4992 N   0  0  0  0  0  0  0  0  0  0  0  0
  152.3850  139.9346  158.2021 C   0  0  0  0  0  0  0  0  0  0  0  0
  153.0070  139.1826  157.2566 N   0  0  0  0  0  0  0  0  0  0  0  0
  152.6545  139.3053  155.9728 C   0  0  0  0  0  0  0  0  0  0  0  0
  151.7298  140.1031  155.4327 N   0  0  0  0  0  0  0  0  0  0  0  0
  151.1093  140.8602  156.3833 C   0  0  0  0  0  0  0  0  0  0  0  0
  151.3711  140.8331  157.7811 C   0  0  0  0  0  0  0  0  0  0  0  0
  150.5397  141.7276  158.4423 N   0  0  0  0  0  0  0  0  0  0  0  0
  149.8238  142.2551  157.4870 C   0  0  0  0  0  0  0  0  0  0  0  0
  150.1108  141.8043  156.2172 N   0  0  0  0  0  0  0  0  0  0  0  0
  149.4730  142.2256  154.9792 C   0  0  0  0  0  0  0  0  0  0  0  0
  148.8543  141.0671  154.1504 C   0  0  2  0  0  0  0  0  0  0  0  0
  149.7703  140.7056  153.1318 O   0  0  0  0  0  0  0  0  0  0  0  0
  147.5155  141.4107  153.5050 C   0  0  0  0  0  0  0  0  0  0  0  0
  146.5326  141.1088  154.6245 C   0  0  0  0  0  0  0  0  0  0  0  0
  147.0487  139.9215  155.2067 O   0  0  0  0  0  0  0  0  0  0  0  0
  148.4695  139.8747  155.0649 C   0  0  1  0  0  0  0  0  0  0  0  0
  148.8150  138.4760  154.5258 C   0  0  0  0  0  0  0  0  0  0  0  0
  153.4604  138.5822  159.7986 C   0  0  0  0  0  0  0  0  0  0  0  0
  155.7446  132.8276  161.2155 H   0  0  0  0  0  0  0  0  0  0  0  0
  155.2438  133.6486  159.7427 H   0  0  0  0  0  0  0  0  0  0  0  0
  154.0430  133.1899  160.9529 H   0  0  0  0  0  0  0  0  0  0  0  0
  155.1101  134.7952  162.5919 H   0  0  0  0  0  0  0  0  0  0  0  0
  156.2711  135.2698  161.3709 H   0  0  0  0  0  0  0  0  0  0  0  0
  155.1208  137.3137  162.3340 H   0  0  0  0  0  0  0  0  0  0  0  0
  152.6112  138.2520  161.7561 H   0  0  0  0  0  0  0  0  0  0  0  0
  154.2708  139.5259  163.0518 H   0  0  0  0  0  0  0  0  0  0  0  0
  155.2768  139.7343  161.6348 H   0  0  0  0  0  0  0  0  0  0  0  0
  152.4674  140.8658  162.0340 H   0  0  0  0  0  0  0  0  0  0  0  0
  153.9552  141.7836  161.9926 H   0  0  0  0  0  0  0  0  0  0  0  0
  152.7173  141.8912  159.8083 H   0  0  0  0  0  0  0  0  0  0  0  0
  154.3140  141.1882  159.6157 H   0  0  0  0  0  0  0  0  0  0  0  0
  153.1894  138.6744  155.2784 H   0  0  0  0  0  0  0  0  0  0  0  0
  149.0671  143.0014  157.6821 H   0  0  0  0  0  0  0  0  0  0  0  0
  148.7033  142.9581  155.2274 H   0  0  0  0  0  0  0  0  0  0  0  0
  150.2152  142.7624  154.3873 H   0  0  0  0  0  0  0  0  0  0  0  0
  149.3217  140.1579  152.5060 H   0  0  0  0  0  0  0  0  0  0  0  0
  147.4367  142.4288  153.1269 H   0  0  0  0  0  0  0  0  0  0  0  0
  147.3121  140.7387  152.6695 H   0  0  0  0  0  0  0  0  0  0  0  0
  146.5257  141.9084  155.3661 H   0  0  0  0  0  0  0  0  0  0  0  0
  145.5136  140.9670  154.2642 H   0  0  0  0  0  0  0  0  0  0  0  0
  148.9214  139.9882  156.0514 H   0  0  0  0  0  0  0  0  0  0  0  0
  149.8925  138.3432  154.4258 H   0  0  0  0  0  0  0  0  0  0  0  0
  148.3591  138.3011  153.5507 H   0  0  0  0  0  0  0  0  0  0  0  0
  148.4533  137.7014  155.2026 H   0  0  0  0  0  0  0  0  0  0  0  0
  154.4463  138.6198  159.3322 H   0  0  0  0  0  0  0  0  0  0  0  0
  152.9318  137.7346  159.3597 H   0  0  0  0  0  0  0  0  0  0  0  0
  1  2  1  0  0  0  0
  1 29  1  0  0  0  0
  1 30  1  0  0  0  0
  1 31  1  0  0  0  0
  2  3  1  0  0  0  0
  2 32  1  0  0  0  0
  2 33  1  0  0  0  0
  3  4  2  0  0  0  0
  3  5  1  0  0  0  0
  5  6  1  0  0  0  0
  5 34  1  0  0  0  0
  6 28  1  0  0  0  0
  6  7  1  0  0  0  0
  6 35  1  0  0  0  0
  7  8  1  0  0  0  0
  7 36  1  0  0  0  0
  7 37  1  0  0  0  0
  8  9  1  0  0  0  0
  8 38  1  0  0  0  0
  8 39  1  0  0  0  0
  9 10  1  0  0  0  0
  9 40  1  0  0  0  0
  9 41  1  0  0  0  0
 10 11  1  0  0  0  0
 10 28  1  0  0  0  0
 11 16  1  0  0  0  0
 11 12  2  0  0  0  0
 12 13  1  0  0  0  0
 13 14  2  0  0  0  0
 13 42  1  0  0  0  0
 14 15  1  0  0  0  0
 15 19  1  0  0  0  0
 15 16  2  0  0  0  0
 16 17  1  0  0  0  0
 17 18  2  0  0  0  0
 18 19  1  0  0  0  0
 18 43  1  0  0  0  0
 19 20  1  0  0  0  0
 20 21  1  0  0  0  0
 20 44  1  0  0  0  0
 20 45  1  0  0  0  0
 21 26  1  0  0  0  0
 21 22  1  0  0  0  0
 21 23  1  0  0  0  0
 22 46  1  0  0  0  0
 23 24  1  0  0  0  0
 23 47  1  0  0  0  0
 23 48  1  0  0  0  0
 24 25  1  0  0  0  0
 24 49  1  0  0  0  0
 24 50  1  0  0  0  0
 25 26  1  0  0  0  0
 26 27  1  0  0  0  0
 26 51  1  0  0  0  0
 27 52  1  0  0  0  0
 27 53  1  0  0  0  0
 27 54  1  0  0  0  0
 28 55  1  0  0  0  0
 28 56  1  0  0  0  0
M  END
> <s_m_source_file>
AV-unprocessed.smi

> <i_m_source_file_index>
252

> <i_lp_mmshare_version>
43012

> <i_f3d_flags>
0

> <s_epik_input>
W0NIM11bQ0gyXUMoPU8pW05IXVtDQEBIXTFbQ0gyXVtDSDJdW0NIMl1OKFtDSDJdMSljKG5bY0hdbjIpYyhjMjMpbltjSF1uM1tDSDJdW0NAQF00KFtPSF0pW0NIMl1bQ0gyXU9bQ0BIXTRbQ0gzXQ==

> <s_epik_cmdline>
J2VwaWtfcHl0aG9uJywgJy1waCcsICc3LjAnLCAnLXRuJywgJzgnLCAnLW1hJywgJzIwMCcsICctbWV0YWxfYmluZGluZycsICctaW1hZScsICc8aW5maWxlLm1hZT4nLCAnLW9tYWUnLCAnPG91dGZpbGUubWFlPic=

> <r_lp_tautomer_probability>
1

> <r_epik_Ionization_Penalty>
0.00182575

> <r_epik_Ionization_Penalty_Charging>
0

> <r_epik_Ionization_Penalty_Neutral>
0.00182575

> <r_epik_State_Penalty>
0.00104524

> <r_epik_Charging_Adjusted_Penalty>
0.00104524

> <i_epik_Tot_Q>
0

> <i_epik_Tot_abs_Q>
0

> <r_epik_Metal_State_Penalty>
-0

> <b_epik_Metal_Only>
0

> <s_lp_Force_Field>
OPLS_2005

> <r_lp_Energy>
37.9455

> <b_lp_Chiralities_Consistent>
1

> <s_lp_Variant>
AV-unprocessed.smi:252-4

> <Gold.Version>
5.8.1

> <Gold.Id.Protein>
6NUR|6NUR_protein|mol2

> <Gold.PLP.Fitness>
51.1250

> <Gold.PLP.PLP>
-39.0760

> <Gold.PLP.part.hbond>
-4.1823

> <Gold.PLP.part.metal>
0.0000

> <Gold.PLP.part.buried>
2.4436

> <Gold.PLP.part.nonpolar>
-35.0945

> <Gold.PLP.part.repulsive>
0.0800

> <Gold.PLP.ligand.clash>
0.0000

> <Gold.PLP.ligand.torsion>
1.2241

> <Gold.PLP.Chemscore.Hbond>
4.1840

> <Gold.PLP.Chemscore.CHOScore>
0.5652

> <Gold.PLP.Chemscore.Metal>
0.0000

> <Gold.Chemscore.Hbonds>
donor molecule, donor type, donor heavy atom, donor atom, acceptor molecule, acceptor atom, score
      L1  H    22    46       P1  7957  0.33
      P1  H  6896  6908       L1     4  1.00
      P1  H  7989  7998       L1    14  0.80
      P1  H  7997  8008       L1    12  0.60
      P1  H  8011  8017       L1    22  0.80
      L1  C    18    43       P1  8028  0.45

> <Gold.PLP.Chemscore.Internal.Correction>
0.2496

> <Gold.Rescore>
     Score         DG    S(hbond)    S(metal)    S(lipo)     H(rot)  DE(clash)    DE(int)     intcor
     13.71     -19.32       3.25        0.00      84.69       2.70       2.63       2.98       ----

> <Gold.Chemscore.Fitness>
13.7061

> <Gold.Chemscore.DG>
-19.3169

> <Gold.Chemscore.ZeroCoef>
-5.4800

> <Gold.Chemscore.Hbond>
3.2485

> <Gold.Chemscore.Metal>
0.0000

> <Gold.Chemscore.Lipo>
84.6947

> <Gold.Chemscore.Internal_Hbond>
0.0000

> <Gold.Chemscore.DEClash>
2.6334

> <Gold.Chemscore.DEInternal>
2.9774

> <Gold.Chemscore.Rot>
2.7041

> <Gold.Chemscore.Internal.Correction>
   9.000000E+99

> <Gold.Chemscore.Hbonds>
donor molecule, donor type, donor heavy atom, donor atom, acceptor molecule, acceptor atom, score
      L1  H    22    46       P1  7957  0.33
      P1  H  6896  6908       L1     4  0.93
      P1  H  7989  7998       L1    14  0.69
      P1  H  7997  8008       L1    12  0.02
      P1  H  8011  8017       L1    22  0.05

> <Gold.Chemscore.Hbond.Weighted>
-10.8501

> <Gold.Chemscore.Metal.Weighted>
-0.0000

> <Gold.Chemscore.Lipo.Weighted>
-9.9093

> <Gold.Chemscore.Internal_Hbond.Weighted>
0.0000

> <Gold.Chemscore.DEClash.Weighted>
2.6334

> <Gold.Chemscore.DEInternal.Weighted>
2.9774

> <Gold.Chemscore.Rot.Weighted>
6.9225

> <Gold.Chemscore.Internal.Correction.Weighted>
   9.000000E+99

> <Gold.Protein.RotatedTorsions>
[ 6907 6896 6895 6894 ] final  -53.35 input  -60.11 | X-H torsion
[ 7974 7965 7964 7962 ] final -145.14 input  175.53 | X-H torsion
[ 8008 7997 7996 7995 ] final  -83.39 input   59.86 | X-H torsion
[ 10167 10162 10161 10158 ] final  -55.81 input  -65.29 | X-H torsion
[ 10718 10713 10712 10709 ] final  178.76 input   66.30 | X-H torsion
[ 10763 10752 10751 10750 ] final   42.97 input  -60.55 | X-H torsion
[ 11005 11000 10999 10996 ] final  151.40 input  -57.11 | X-H torsion

> <Gold.Protein.ActiveResidues>
 VAL166  LYS551  ARG553  GLY616  TRP617  ASP618  TYR619  PRO620  LYS621  CYS622 
 ASP623  PHE694  ASN695  SER759  ASP760  ASP761  ALA762  ILE779  LEU786  VAL792 
 PHE793  MET794  SER795  GLU796  ALA797  LYS798  CYS799  TRP800  GLU811  SER814 

> <Gold.Protein.RotatedAtoms>
  150.8435  134.7736  159.6951 H   0  0  0  0  0  0  0  0  0  0  0  0  # atno 6907 bound_to 6896
  152.4517  134.5376  159.9839 H   0  0  0  0  0  0  0  0  0  0  0  0  # atno 6908 bound_to 6896
  151.5511  133.3379  159.2989 H   0  0  0  0  0  0  0  0  0  0  0  0  # atno 6909 bound_to 6896
  144.8248  140.5621  143.5554 H   0  0  0  0  0  0  0  0  0  0  0  0  # atno 7974 bound_to 7965
  154.6186  140.0619  156.9586 H   0  0  0  0  0  0  0  0  0  0  0  0  # atno 8008 bound_to 7997
  155.1854  140.3302  155.4349 H   0  0  0  0  0  0  0  0  0  0  0  0  # atno 8009 bound_to 7997
  156.2419  140.1890  156.6948 H   0  0  0  0  0  0  0  0  0  0  0  0  # atno 8010 bound_to 7997
  140.6353  143.2479  151.5133 H   0  0  0  0  0  0  0  0  0  0  0  0  # atno 10167 bound_to 10162
  156.8858  130.9831  151.3056 H   0  0  0  0  0  0  0  0  0  0  0  0  # atno 10718 bound_to 10713
  152.9871  135.6115  154.3036 H   0  0  0  0  0  0  0  0  0  0  0  0  # atno 10763 bound_to 10752
  154.2755  135.2778  155.2722 H   0  0  0  0  0  0  0  0  0  0  0  0  # atno 10764 bound_to 10752
  154.5084  135.5847  153.6642 H   0  0  0  0  0  0  0  0  0  0  0  0  # atno 10765 bound_to 10752
  140.1215  134.8860  157.2079 H   0  0  0  0  0  0  0  0  0  0  0  0  # atno 11005 bound_to 11000
  145.5025  139.1482  143.3649 LP  0  0  0  0  0  0  0  0  0  0  0  0  # atno 17320 bound_to 7965
  146.2553  140.5165  142.8876 LP  0  0  0  0  0  0  0  0  0  0  0  0  # atno 17321 bound_to 7965
  139.5564  144.2265  152.1619 LP  0  0  0  0  0  0  0  0  0  0  0  0  # atno 17342 bound_to 10162
  140.1519  144.5106  150.6682 LP  0  0  0  0  0  0  0  0  0  0  0  0  # atno 17343 bound_to 10162
  157.6113  130.8585  149.8957 LP  0  0  0  0  0  0  0  0  0  0  0  0  # atno 17370 bound_to 10713
  156.0654  130.3693  150.0890 LP  0  0  0  0  0  0  0  0  0  0  0  0  # atno 17371 bound_to 10713
  140.2959  134.3187  155.7302 LP  0  0  0  0  0  0  0  0  0  0  0  0  # atno 17394 bound_to 11000
  141.2152  133.7562  156.9570 LP  0  0  0  0  0  0  0  0  0  0  0  0  # atno 17395 bound_to 11000

$$$$
