AV-unprocessed.smi:1240|AV-procd|sdf|5199|dock1
  -GOLD-   22720 4283D 1   1.00000     0.00000
 Structure written by MMmdl.
 48 50  0  0  0  0  0  0  0  0  2 V2000
  144.3239  136.0954  152.7764 O   0  0  0  0  0  0  0  0  0  0  0  0
  145.5388  136.0339  152.5898 C   0  0  0  0  0  0  0  0  0  0  0  0
  146.4236  136.8011  153.2409 N   0  0  0  0  0  0  0  0  0  0  0  0
  146.0884  137.7707  154.2772 C   0  0  0  0  0  0  0  0  0  0  0  0
  146.8777  139.0988  154.1255 C   0  0  2  0  0  0  0  0  0  0  0  0
  148.2773  139.0755  154.8048 C   0  0  2  0  0  0  0  0  0  0  0  0
  149.2608  140.0872  154.2377 C   0  0  0  0  0  0  0  0  0  0  0  0
  150.5946  139.5533  154.7409 C   0  0  0  0  0  0  0  0  0  0  0  0
  150.4640  138.1398  154.6859 O   0  0  0  0  0  0  0  0  0  0  0  0
  149.0863  137.7806  154.6365 C   0  0  0  0  0  0  0  0  0  0  0  0
  146.0939  140.2709  154.6206 N   0  3  0  0  0  0  0  0  0  0  0  0
  145.6731  140.1656  156.0391 C   0  0  0  0  0  0  0  0  0  0  0  0
  144.7125  141.3144  156.3918 C   0  0  0  0  0  0  0  0  0  0  0  0
  145.3354  142.5639  156.1174 O   0  0  0  0  0  0  0  0  0  0  0  0
  145.6706  142.7055  154.7419 C   0  0  0  0  0  0  0  0  0  0  0  0
  146.6729  141.6104  154.3429 C   0  0  0  0  0  0  0  0  0  0  0  0
  146.1573  135.2190  151.7177 N   0  0  0  0  0  0  0  0  0  0  0  0
  145.5997  134.2142  150.8805 C   0  0  0  0  0  0  0  0  0  0  0  0
  146.4392  133.1502  150.4909 C   0  0  0  0  0  0  0  0  0  0  0  0
  145.9101  132.1294  149.6762 C   0  0  0  0  0  0  0  0  0  0  0  0
  144.6295  132.1088  149.2512 N   0  0  0  0  0  0  0  0  0  0  0  0
  143.8232  133.1208  149.6357 C   0  0  0  0  0  0  0  0  0  0  0  0
  144.2516  134.1903  150.4479 C   0  0  0  0  0  0  0  0  0  0  0  0
  147.4017  136.6934  153.0148 H   0  0  0  0  0  0  0  0  0  0  0  0
  145.0147  137.9476  154.2189 H   0  0  0  0  0  0  0  0  0  0  0  0
  146.2834  137.3367  155.2591 H   0  0  0  0  0  0  0  0  0  0  0  0
  147.0482  139.2663  153.0605 H   0  0  0  0  0  0  0  0  0  0  0  0
  148.1711  139.2667  155.8736 H   0  0  0  0  0  0  0  0  0  0  0  0
  149.2404  140.0724  153.1469 H   0  0  0  0  0  0  0  0  0  0  0  0
  149.0712  141.1082  154.5704 H   0  0  0  0  0  0  0  0  0  0  0  0
  151.4395  139.9024  154.1472 H   0  0  0  0  0  0  0  0  0  0  0  0
  150.7580  139.8518  155.7771 H   0  0  0  0  0  0  0  0  0  0  0  0
  148.8571  137.0469  155.4097 H   0  0  0  0  0  0  0  0  0  0  0  0
  148.8942  137.3207  153.6664 H   0  0  0  0  0  0  0  0  0  0  0  0
  145.1764  139.2105  156.2132 H   0  0  0  0  0  0  0  0  0  0  0  0
  146.5441  140.1999  156.6941 H   0  0  0  0  0  0  0  0  0  0  0  0
  143.7805  141.2293  155.8306 H   0  0  0  0  0  0  0  0  0  0  0  0
  144.4514  141.2747  157.4495 H   0  0  0  0  0  0  0  0  0  0  0  0
  144.7706  142.6533  154.1270 H   0  0  0  0  0  0  0  0  0  0  0  0
  146.1084  143.6914  154.5841 H   0  0  0  0  0  0  0  0  0  0  0  0
  147.5968  141.7489  154.9053 H   0  0  0  0  0  0  0  0  0  0  0  0
  146.9182  141.7108  153.2861 H   0  0  0  0  0  0  0  0  0  0  0  0
  147.1539  135.3484  151.6231 H   0  0  0  0  0  0  0  0  0  0  0  0
  147.4723  133.1137  150.8047 H   0  0  0  0  0  0  0  0  0  0  0  0
  146.5329  131.3058  149.3599 H   0  0  0  0  0  0  0  0  0  0  0  0
  142.8009  133.0741  149.2907 H   0  0  0  0  0  0  0  0  0  0  0  0
  143.5401  134.9514  150.7266 H   0  0  0  0  0  0  0  0  0  0  0  0
  145.2315  140.2376  154.0957 H   0  0  0  0  0  0  0  0  0  0  0  0
  1  2  2  0  0  0  0
  2  3  1  0  0  0  0
  2 17  1  0  0  0  0
  3  4  1  0  0  0  0
  3 24  1  0  0  0  0
  4  5  1  0  0  0  0
  4 25  1  0  0  0  0
  4 26  1  0  0  0  0
  5  6  1  0  0  0  0
  5 11  1  0  0  0  0
  5 27  1  0  0  0  0
  6 10  1  0  0  0  0
  6  7  1  0  0  0  0
  6 28  1  0  0  0  0
  7  8  1  0  0  0  0
  7 29  1  0  0  0  0
  7 30  1  0  0  0  0
  8  9  1  0  0  0  0
  8 31  1  0  0  0  0
  8 32  1  0  0  0  0
  9 10  1  0  0  0  0
 10 33  1  0  0  0  0
 10 34  1  0  0  0  0
 11 16  1  0  0  0  0
 11 12  1  0  0  0  0
 11 48  1  0  0  0  0
 12 13  1  0  0  0  0
 12 35  1  0  0  0  0
 12 36  1  0  0  0  0
 13 14  1  0  0  0  0
 13 37  1  0  0  0  0
 13 38  1  0  0  0  0
 14 15  1  0  0  0  0
 15 16  1  0  0  0  0
 15 39  1  0  0  0  0
 15 40  1  0  0  0  0
 16 41  1  0  0  0  0
 16 42  1  0  0  0  0
 17 18  1  0  0  0  0
 17 43  1  0  0  0  0
 18 23  1  0  0  0  0
 18 19  2  0  0  0  0
 19 20  1  0  0  0  0
 19 44  1  0  0  0  0
 20 21  2  0  0  0  0
 20 45  1  0  0  0  0
 21 22  1  0  0  0  0
 22 23  2  0  0  0  0
 22 46  1  0  0  0  0
 23 47  1  0  0  0  0
M  CHG  1  11   1
M  END
> <s_m_source_file>
AV-unprocessed.smi

> <i_m_source_file_index>
1240

> <i_lp_mmshare_version>
43012

> <i_f3d_flags>
0

> <s_epik_input>
W2NIXTFbY0hdbltjSF1bY0hdYzFbTkhdQyg9TylbTkhdW0NIMl1bQ0BIXShbQ0BASF0yW0NIMl1bQ0gyXU9bQ0gyXTIpTjNbQ0gyXVtDSDJdT1tDSDJdW0NIMl0z

> <s_epik_cmdline>
J2VwaWtfcHl0aG9uJywgJy1waCcsICc3LjAnLCAnLXRuJywgJzgnLCAnLW1hJywgJzIwMCcsICctbWV0YWxfYmluZGluZycsICctaW1hZScsICc8aW5maWxlLm1hZT4nLCAnLW9tYWUnLCAnPG91dGZpbGUubWFlPic=

> <r_epik_Ionization_Penalty>
1.08433

> <r_epik_Ionization_Penalty_Charging>
0.98326

> <r_epik_Ionization_Penalty_Neutral>
0.10107

> <r_epik_State_Penalty>
1.11265

> <r_epik_Charging_Adjusted_Penalty>
2.09591

> <i_epik_Tot_Q>
1

> <i_epik_Tot_abs_Q>
1

> <r_epik_Metal_State_Penalty>
1.10731

> <b_epik_Metal_Only>
0

> <s_lp_Force_Field>
OPLS_2005

> <r_lp_Energy>
43.6027

> <b_lp_Chiralities_Consistent>
1

> <s_lp_Variant>
AV-unprocessed.smi:1240-5

> <Gold.Version>
5.8.1

> <Gold.Id.Protein>
6NUR|6NUR_protein|mol2

> <Gold.PLP.Fitness>
52.5719

> <Gold.PLP.PLP>
-36.2787

> <Gold.PLP.part.hbond>
-3.4135

> <Gold.PLP.part.metal>
0.0000

> <Gold.PLP.part.buried>
-2.0505

> <Gold.PLP.part.nonpolar>
-30.4481

> <Gold.PLP.part.repulsive>
0.7351

> <Gold.PLP.ligand.clash>
0.0000

> <Gold.PLP.ligand.torsion>
0.9484

> <Gold.PLP.Chemscore.Hbond>
4.0000

> <Gold.PLP.Chemscore.CHOScore>
1.9579

> <Gold.PLP.Chemscore.Metal>
0.0000

> <Gold.Chemscore.Hbonds>
donor molecule, donor type, donor heavy atom, donor atom, acceptor molecule, acceptor atom, score
      L1  H     3    24       P1  7948  1.00
      L1  H    11    48       P1 10175  0.91
      L1  H    17    43       P1  7948  1.00
      L1  C    20    45       P1 10747  0.69
      L1  C    22    46       P1 10186  1.00

> <Gold.PLP.Chemscore.Internal.Correction>
0.3164

> <Gold.Rescore>
     Score         DG    S(hbond)    S(metal)    S(lipo)     H(rot)  DE(clash)    DE(int)     intcor
     18.01     -21.12       2.88        0.00      88.69       1.70       0.36       2.75       ----

> <Gold.Chemscore.Fitness>
18.0142

> <Gold.Chemscore.DG>
-21.1224

> <Gold.Chemscore.ZeroCoef>
-5.4800

> <Gold.Chemscore.Hbond>
2.8810

> <Gold.Chemscore.Metal>
0.0000

> <Gold.Chemscore.Lipo>
88.6945

> <Gold.Chemscore.Internal_Hbond>
0.0000

> <Gold.Chemscore.DEClash>
0.3574

> <Gold.Chemscore.DEInternal>
2.7509

> <Gold.Chemscore.Rot>
1.7021

> <Gold.Chemscore.Internal.Correction>
   9.000000E+99

> <Gold.Chemscore.Hbonds>
donor molecule, donor type, donor heavy atom, donor atom, acceptor molecule, acceptor atom, score
      L1  H     3    24       P1  7948  0.95
      L1  H    11    48       P1 10175  0.46
      L1  H    17    43       P1  7948  0.95
      P1  H 10785 10796       L1    21  0.01

> <Gold.Chemscore.Hbond.Weighted>
-9.6226

> <Gold.Chemscore.Metal.Weighted>
-0.0000

> <Gold.Chemscore.Lipo.Weighted>
-10.3773

> <Gold.Chemscore.Internal_Hbond.Weighted>
0.0000

> <Gold.Chemscore.DEClash.Weighted>
0.3574

> <Gold.Chemscore.DEInternal.Weighted>
2.7509

> <Gold.Chemscore.Rot.Weighted>
4.3575

> <Gold.Chemscore.Internal.Correction.Weighted>
   9.000000E+99

> <Gold.Protein.RotatedTorsions>
[ 6907 6896 6895 6894 ] final -171.48 input  -60.11 | X-H torsion
[ 7974 7965 7964 7962 ] final  -28.90 input  175.53 | X-H torsion
[ 8008 7997 7996 7995 ] final   34.48 input   59.86 | X-H torsion
[ 10167 10162 10161 10158 ] final  126.89 input  -65.29 | X-H torsion
[ 10718 10713 10712 10709 ] final -120.19 input   66.30 | X-H torsion
[ 10763 10752 10751 10750 ] final -174.65 input  -60.55 | X-H torsion
[ 11005 11000 10999 10996 ] final -148.88 input  -57.11 | X-H torsion

> <Gold.Protein.ActiveResidues>
 VAL166  LYS551  ARG553  GLY616  TRP617  ASP618  TYR619  PRO620  LYS621  CYS622 
 ASP623  PHE694  ASN695  SER759  ASP760  ASP761  ALA762  ILE779  LEU786  VAL792 
 PHE793  MET794  SER795  GLU796  ALA797  LYS798  CYS799  TRP800  GLU811  SER814 

> <Gold.Protein.RotatedAtoms>
  151.5245  133.3460  159.2906 H   0  0  0  0  0  0  0  0  0  0  0  0  # atno 6907 bound_to 6896
  150.8632  134.7991  159.7109 H   0  0  0  0  0  0  0  0  0  0  0  0  # atno 6908 bound_to 6896
  152.4645  134.5117  159.9807 H   0  0  0  0  0  0  0  0  0  0  0  0  # atno 6909 bound_to 6896
  146.1255  140.5342  142.8716 H   0  0  0  0  0  0  0  0  0  0  0  0  # atno 7974 bound_to 7965
  155.1555  140.3278  155.4422 H   0  0  0  0  0  0  0  0  0  0  0  0  # atno 8008 bound_to 7997
  156.2560  140.1969  156.6616 H   0  0  0  0  0  0  0  0  0  0  0  0  # atno 8009 bound_to 7997
  154.6442  140.0566  156.9867 H   0  0  0  0  0  0  0  0  0  0  0  0  # atno 8010 bound_to 7997
  139.5607  144.6879  151.4052 H   0  0  0  0  0  0  0  0  0  0  0  0  # atno 10167 bound_to 10162
  156.1239  130.6344  150.9510 H   0  0  0  0  0  0  0  0  0  0  0  0  # atno 10718 bound_to 10713
  154.5937  135.2847  155.0609 H   0  0  0  0  0  0  0  0  0  0  0  0  # atno 10763 bound_to 10752
  154.1900  135.6442  153.5061 H   0  0  0  0  0  0  0  0  0  0  0  0  # atno 10764 bound_to 10752
  153.0130  135.5444  154.6631 H   0  0  0  0  0  0  0  0  0  0  0  0  # atno 10765 bound_to 10752
  140.7566  134.3346  157.5112 H   0  0  0  0  0  0  0  0  0  0  0  0  # atno 11005 bound_to 11000
  144.7638  140.5484  143.6717 LP  0  0  0  0  0  0  0  0  0  0  0  0  # atno 17320 bound_to 7965
  145.5374  139.1475  143.3466 LP  0  0  0  0  0  0  0  0  0  0  0  0  # atno 17321 bound_to 7965
  140.6886  143.7915  150.7222 LP  0  0  0  0  0  0  0  0  0  0  0  0  # atno 17342 bound_to 10162
  140.1390  143.4458  152.2205 LP  0  0  0  0  0  0  0  0  0  0  0  0  # atno 17343 bound_to 10162
  157.6422  131.0909  150.8228 LP  0  0  0  0  0  0  0  0  0  0  0  0  # atno 17370 bound_to 10713
  156.8321  130.5019  149.5330 LP  0  0  0  0  0  0  0  0  0  0  0  0  # atno 17371 bound_to 10713
  139.8778  134.9176  156.3181 LP  0  0  0  0  0  0  0  0  0  0  0  0  # atno 17394 bound_to 11000
  140.9702  133.7332  156.0523 LP  0  0  0  0  0  0  0  0  0  0  0  0  # atno 17395 bound_to 11000

$$$$
