#       Name:                AV-unprocessed.smi:2790
#       Creating user name   scv26
#       Creation time:       Fri Mar 27 15:20:12 2020


#       File generated by GOLD software.
#

@<TRIPOS>MOLECULE
AV-unprocessed.smi:2790
    49    50     1
SMALL
NO_CHARGES


@<TRIPOS>ATOM
      1 ****        -3.2876   2.2480  -0.9909 C.3            1 S1                 0.0000
      2 ****        -2.8840   1.7281  -2.3185 N.4            1 S1                 1.0000
      3 ****        -4.0367   1.6283  -3.2401 C.3            1 S1                 0.0000
      4 ****        -2.1151   0.4593  -2.2389 C.3            1 S1                 0.0000
      5 ****        -0.6626   0.6617  -1.7956 C.2            1 S1                 0.0000
      6 ****        -0.1291   1.7673  -1.8906 O.2            1 S1                 0.0000
      7 ****        -0.0333  -0.4244  -1.3216 N.am           1 S1                 0.0000
      8 ****         1.3495  -0.4674  -0.8453 C.3            1 S1                 0.0000
      9 ****         1.4658  -0.5059   0.7089 C.3            1 S1                 0.0000
     10 ****         0.6143  -1.6816   1.2421 C.ar           1 S1                 0.0000
     11 ****         0.9573  -3.0132   0.8944 C.ar           1 S1                 0.0000
     12 ****         0.1887  -4.0918   1.3758 C.ar           1 S1                 0.0000
     13 ****        -0.8798  -3.8558   2.1637 N.pl3          1 S1                 1.0000
     14 ****        -1.2601  -2.6111   2.5179 C.ar           1 S1                 0.0000
     15 ****        -0.5285  -1.4943   2.0649 C.ar           1 S1                 0.0000
     16 ****         2.9495  -0.7386   1.1214 C.3            1 S1                 0.0000
     17 ****         3.8908   0.4381   0.8023 C.3            1 S1                 0.0000
     18 ****         3.3926   1.7435   1.4315 C.3            1 S1                 0.0000
     19 ****         1.9520   2.0390   1.0017 C.3            1 S1                 0.0000
     20 ****         1.0219   0.8569   1.3297 C.3            1 S1                 0.0000
     21 ****        -3.9722   1.5598  -0.4936 H              1 S1                 0.0000
     22 ****        -3.7884   3.2114  -1.0934 H              1 S1                 0.0000
     23 ****        -2.4234   2.3959  -0.3427 H              1 S1                 0.0000
     24 ****        -4.7524   0.8820  -2.8921 H              1 S1                 0.0000
     25 ****        -3.7080   1.3475  -4.2413 H              1 S1                 0.0000
     26 ****        -4.5517   2.5862  -3.3198 H              1 S1                 0.0000
     27 ****        -2.6222  -0.2441  -1.5758 H              1 S1                 0.0000
     28 ****        -2.0788  -0.0084  -3.2240 H              1 S1                 0.0000
     29 ****        -0.5471  -1.2934  -1.2944 H              1 S1                 0.0000
     30 ****         1.7941  -1.3678  -1.2698 H              1 S1                 0.0000
     31 ****         1.9254   0.3527  -1.2730 H              1 S1                 0.0000
     32 ****         1.8058  -3.2196   0.2595 H              1 S1                 0.0000
     33 ****         0.3957  -5.1289   1.1546 H              1 S1                 0.0000
     34 ****        -2.1338  -2.5451   3.1498 H              1 S1                 0.0000
     35 ****        -0.8666  -0.5149   2.3652 H              1 S1                 0.0000
     36 ****         2.9939  -0.9253   2.1956 H              1 S1                 0.0000
     37 ****         3.3502  -1.6344   0.6474 H              1 S1                 0.0000
     38 ****         4.8925   0.2153   1.1710 H              1 S1                 0.0000
     39 ****         3.9892   0.5617  -0.2762 H              1 S1                 0.0000
     40 ****         3.4422   1.6677   2.5185 H              1 S1                 0.0000
     41 ****         4.0456   2.5694   1.1480 H              1 S1                 0.0000
     42 ****         1.5971   2.9355   1.5109 H              1 S1                 0.0000
     43 ****         1.9215   2.2685  -0.0629 H              1 S1                 0.0000
     44 ****         0.0059   1.1124   1.0286 H              1 S1                 0.0000
     45 ****         1.0026   0.7662   2.4169 H              1 S1                 0.0000
     46 ****        -2.2588   2.4118  -2.7224 H              1 S1                 0.0000
     47 ****        -1.4225  -4.6502   2.5043 H              1 S1                 0.0000
     48 ****        -0.6443   2.5411  -2.2593 LP             1 S1                 0.0000
     49 ****         0.8194   1.8915  -1.5992 LP             1 S1                 0.0000
@<TRIPOS>BOND
    1    1    2 1     
    2    1   21 1     
    3    1   22 1     
    4    1   23 1     
    5    2    3 1     
    6    2    4 1     
    7    2   46 1     
    8    3   24 1     
    9    3   25 1     
   10    3   26 1     
   11    4    5 1     
   12    4   27 1     
   13    4   28 1     
   14    5    6 2     
   15    5    7 am    
   16    7    8 1     
   17    7   29 1     
   18    8    9 1     
   19    8   30 1     
   20    8   31 1     
   21    9   20 1     
   22    9   10 1     
   23    9   16 1     
   24   10   15 ar    
   25   10   11 ar    
   26   11   12 ar    
   27   11   32 1     
   28   12   13 ar    
   29   12   33 1     
   30   13   14 ar    
   31   13   47 1     
   32   14   15 ar    
   33   14   34 1     
   34   15   35 1     
   35   16   17 1     
   36   16   36 1     
   37   16   37 1     
   38   17   18 1     
   39   17   38 1     
   40   17   39 1     
   41   18   19 1     
   42   18   40 1     
   43   18   41 1     
   44   19   20 1     
   45   19   42 1     
   46   19   43 1     
   47   20   44 1     
   48   20   45 1     
   49    6   48 1     
   50    6   49 1     
@<TRIPOS>SUBSTRUCTURE
      1 S1             1
@<TRIPOS>SET
LONE_PAIRS      STATIC     ATOMS    <user>   **** ""
2 48 49
DONOR_HYDROGENS      STATIC     ATOMS    <user>   **** ""
3 46 29 47
ATOM$BLUE        STATIC     ATOMS    COLORGROUP SYSTEM
2 48 49
ATOM$RED        STATIC     ATOMS    COLORGROUP SYSTEM
3 46 29 47
