AV-unprocessed.smi:1961|AV-procd|sdf|7920|dock4
  -GOLD-   2272010 83D 1   1.00000     0.00000
 Structure written by MMmdl.
 35 36  0  0  0  0  0  0  0  0  2 V2000
  147.7936  141.7212  154.7583 C   0  0  0  0  0  0  0  0  0  0  0  0
  148.7007  140.6875  154.0747 C   0  0  0  0  0  0  0  0  0  0  0  0
  147.9540  139.4139  153.6529 C   0  0  0  0  0  0  0  0  0  0  0  0
  149.9211  140.3826  154.8855 C   0  0  0  0  0  0  0  0  0  0  0  0
  150.9761  139.7220  154.3987 N   0  0  0  0  0  0  0  0  0  0  0  0
  151.9791  139.5658  155.3438 N   0  0  0  0  0  0  0  0  0  0  0  0
  151.6770  140.1184  156.5268 C   0  0  0  0  0  0  0  0  0  0  0  0
  152.5130  140.0761  157.5772 N   0  5  0  0  0  0  0  0  0  0  0  0
  152.3003  140.8808  158.6432 C   0  0  0  0  0  0  0  0  0  0  0  0
  151.2068  141.2819  159.0489 O   0  0  0  0  0  0  0  0  0  0  0  0
  153.4232  141.2389  159.2820 N   0  0  0  0  0  0  0  0  0  0  0  0
  153.4983  142.0830  160.4693 C   0  0  0  0  0  0  0  0  0  0  0  0
  153.0947  143.5339  160.1586 C   0  0  2  0  0  0  0  0  0  0  0  0
  151.8725  144.0173  160.9353 C   0  0  0  0  0  0  0  0  0  0  0  0
  151.3143  145.1289  160.0595 C   0  0  0  0  0  0  0  0  0  0  0  0
  151.9997  144.9183  158.7057 C   0  0  0  0  0  0  0  0  0  0  0  0
  152.6607  143.6658  158.8140 O   0  0  0  0  0  0  0  0  0  0  0  0
  150.0831  140.8706  156.5647 S   0  0  0  0  0  0  0  0  0  0  0  0
  148.3383  142.6423  154.9684 H   0  0  0  0  0  0  0  0  0  0  0  0
  147.4025  141.3424  155.7032 H   0  0  0  0  0  0  0  0  0  0  0  0
  146.9431  141.9767  154.1257 H   0  0  0  0  0  0  0  0  0  0  0  0
  149.0535  141.1535  153.1538 H   0  0  0  0  0  0  0  0  0  0  0  0
  148.6091  138.7431  153.0960 H   0  0  0  0  0  0  0  0  0  0  0  0
  147.1029  139.6504  153.0139 H   0  0  0  0  0  0  0  0  0  0  0  0
  147.5783  138.8682  154.5191 H   0  0  0  0  0  0  0  0  0  0  0  0
  154.2959  140.8846  158.9191 H   0  0  0  0  0  0  0  0  0  0  0  0
  152.8416  141.6641  161.2321 H   0  0  0  0  0  0  0  0  0  0  0  0
  154.5087  142.0510  160.8796 H   0  0  0  0  0  0  0  0  0  0  0  0
  153.9301  144.2149  160.3333 H   0  0  0  0  0  0  0  0  0  0  0  0
  151.1374  143.2156  161.0189 H   0  0  0  0  0  0  0  0  0  0  0  0
  152.1208  144.3528  161.9427 H   0  0  0  0  0  0  0  0  0  0  0  0
  150.2293  145.0553  159.9803 H   0  0  0  0  0  0  0  0  0  0  0  0
  151.5563  146.1133  160.4616 H   0  0  0  0  0  0  0  0  0  0  0  0
  151.2954  144.9195  157.8737 H   0  0  0  0  0  0  0  0  0  0  0  0
  152.7409  145.6985  158.5260 H   0  0  0  0  0  0  0  0  0  0  0  0
  1  2  1  0  0  0  0
  1 19  1  0  0  0  0
  1 20  1  0  0  0  0
  1 21  1  0  0  0  0
  2  3  1  0  0  0  0
  2  4  1  0  0  0  0
  2 22  1  0  0  0  0
  3 23  1  0  0  0  0
  3 24  1  0  0  0  0
  3 25  1  0  0  0  0
  4 18  1  0  0  0  0
  4  5  2  0  0  0  0
  5  6  1  0  0  0  0
  6  7  2  0  0  0  0
  7  8  1  0  0  0  0
  7 18  1  0  0  0  0
  8  9  1  0  0  0  0
  9 10  2  0  0  0  0
  9 11  1  0  0  0  0
 11 12  1  0  0  0  0
 11 26  1  0  0  0  0
 12 13  1  0  0  0  0
 12 27  1  0  0  0  0
 12 28  1  0  0  0  0
 13 17  1  0  0  0  0
 13 14  1  0  0  0  0
 13 29  1  0  0  0  0
 14 15  1  0  0  0  0
 14 30  1  0  0  0  0
 14 31  1  0  0  0  0
 15 16  1  0  0  0  0
 15 32  1  0  0  0  0
 15 33  1  0  0  0  0
 16 17  1  0  0  0  0
 16 34  1  0  0  0  0
 16 35  1  0  0  0  0
M  CHG  1   8  -1
M  END
> <s_m_source_file>
AV-unprocessed.smi

> <i_m_source_file_index>
1961

> <i_lp_mmshare_version>
43012

> <i_f3d_flags>
0

> <s_epik_input>
W0NIM11bQ0hdKFtDSDNdKWMxbm5jKHMxKVtOSF1DKD1PKVtOSF1bQ0gyXVtDQEBIXTJbQ0gyXVtDSDJdW0NIMl1PMg==

> <s_epik_cmdline>
J2VwaWtfcHl0aG9uJywgJy1waCcsICc3LjAnLCAnLXRuJywgJzgnLCAnLW1hJywgJzIwMCcsICctbWV0YWxfYmluZGluZycsICctaW1hZScsICc8aW5maWxlLm1hZT4nLCAnLW9tYWUnLCAnPG91dGZpbGUubWFlPic=

> <r_lp_tautomer_probability>
1

> <r_epik_Ionization_Penalty>
4.36179

> <r_epik_Ionization_Penalty_Charging>
4.21437

> <r_epik_Ionization_Penalty_Neutral>
0.147417

> <r_epik_State_Penalty>
4.21389

> <r_epik_Charging_Adjusted_Penalty>
8.42826

> <i_epik_Tot_Q>
-1

> <i_epik_Tot_abs_Q>
1

> <r_epik_Metal_State_Penalty>
0.693772

> <b_epik_Metal_Only>
1

> <s_lp_Force_Field>
OPLS_2005

> <r_lp_Energy>
8.68115

> <b_lp_Chiralities_Consistent>
1

> <s_lp_Variant>
AV-unprocessed.smi:1961-3

> <Gold.Version>
5.8.1

> <Gold.Id.Protein>
6NUR|6NUR_protein|mol2

> <Gold.PLP.Fitness>
45.7091

> <Gold.PLP.PLP>
-38.9338

> <Gold.PLP.part.hbond>
-2.6952

> <Gold.PLP.part.metal>
0.0000

> <Gold.PLP.part.buried>
-3.3313

> <Gold.PLP.part.nonpolar>
-31.5795

> <Gold.PLP.part.repulsive>
0.2077

> <Gold.PLP.ligand.clash>
0.0000

> <Gold.PLP.ligand.torsion>
1.1941

> <Gold.PLP.Chemscore.Hbond>
3.0000

> <Gold.PLP.Chemscore.CHOScore>
0.0000

> <Gold.PLP.Chemscore.Metal>
0.0000

> <Gold.Chemscore.Hbonds>
donor molecule, donor type, donor heavy atom, donor atom, acceptor molecule, acceptor atom, score
      P1  H  7989  7998       L1     5  1.00
      P1  H  7997  8009       L1     8  1.82

> <Gold.PLP.Chemscore.Internal.Correction>
0.1633

> <Gold.Rescore>
     Score         DG    S(hbond)    S(metal)    S(lipo)     H(rot)  DE(clash)    DE(int)     intcor
     11.70     -15.19       0.77        0.00      91.97       1.42       0.10       3.40       ----

> <Gold.Chemscore.Fitness>
11.6983

> <Gold.Chemscore.DG>
-15.1946

> <Gold.Chemscore.ZeroCoef>
-5.4800

> <Gold.Chemscore.Hbond>
0.7748

> <Gold.Chemscore.Metal>
0.0000

> <Gold.Chemscore.Lipo>
91.9672

> <Gold.Chemscore.Internal_Hbond>
0.0000

> <Gold.Chemscore.DEClash>
0.0991

> <Gold.Chemscore.DEInternal>
3.3972

> <Gold.Chemscore.Rot>
1.4193

> <Gold.Chemscore.Internal.Correction>
   9.000000E+99

> <Gold.Chemscore.Hbonds>
donor molecule, donor type, donor heavy atom, donor atom, acceptor molecule, acceptor atom, score
      P1  H  7989  7998       L1     5  0.08
      P1  H  7997  8009       L1     8  0.40

> <Gold.Chemscore.Hbond.Weighted>
-2.5878

> <Gold.Chemscore.Metal.Weighted>
-0.0000

> <Gold.Chemscore.Lipo.Weighted>
-10.7602

> <Gold.Chemscore.Internal_Hbond.Weighted>
0.0000

> <Gold.Chemscore.DEClash.Weighted>
0.0991

> <Gold.Chemscore.DEInternal.Weighted>
3.3972

> <Gold.Chemscore.Rot.Weighted>
3.6333

> <Gold.Chemscore.Internal.Correction.Weighted>
   9.000000E+99

> <Gold.Protein.RotatedTorsions>
[ 6907 6896 6895 6894 ] final  112.22 input  -60.11 | X-H torsion
[ 7974 7965 7964 7962 ] final   17.85 input  175.53 | X-H torsion
[ 8008 7997 7996 7995 ] final  174.28 input   59.86 | X-H torsion
[ 10167 10162 10161 10158 ] final  145.84 input  -65.29 | X-H torsion
[ 10718 10713 10712 10709 ] final    7.39 input   66.30 | X-H torsion
[ 10763 10752 10751 10750 ] final  -31.57 input  -60.55 | X-H torsion
[ 11005 11000 10999 10996 ] final   39.62 input  -57.11 | X-H torsion

> <Gold.Protein.ActiveResidues>
 VAL166  LYS551  ARG553  GLY616  TRP617  ASP618  TYR619  PRO620  LYS621  CYS622 
 ASP623  PHE694  ASN695  SER759  ASP760  ASP761  ALA762  ILE779  LEU786  VAL792 
 PHE793  MET794  SER795  GLU796  ALA797  LYS798  CYS799  TRP800  GLU811  SER814 

> <Gold.Protein.RotatedAtoms>
  152.4928  133.8546  159.7218 H   0  0  0  0  0  0  0  0  0  0  0  0  # atno 6907 bound_to 6896
  150.9074  133.7031  159.2870 H   0  0  0  0  0  0  0  0  0  0  0  0  # atno 6908 bound_to 6896
  151.4452  135.1028  159.9734 H   0  0  0  0  0  0  0  0  0  0  0  0  # atno 6909 bound_to 6896
  146.2204  139.8542  142.8617 H   0  0  0  0  0  0  0  0  0  0  0  0  # atno 7974 bound_to 7965
  156.0990  140.1438  156.9492 H   0  0  0  0  0  0  0  0  0  0  0  0  # atno 8008 bound_to 7997
  154.4690  140.0916  156.7142 H   0  0  0  0  0  0  0  0  0  0  0  0  # atno 8009 bound_to 7997
  155.4791  140.3444  155.4339 H   0  0  0  0  0  0  0  0  0  0  0  0  # atno 8010 bound_to 7997
  139.4918  144.5872  151.6753 H   0  0  0  0  0  0  0  0  0  0  0  0  # atno 10167 bound_to 10162
  156.9362  130.5844  149.5651 H   0  0  0  0  0  0  0  0  0  0  0  0  # atno 10718 bound_to 10713
  153.7995  135.6891  153.4858 H   0  0  0  0  0  0  0  0  0  0  0  0  # atno 10763 bound_to 10752
  153.1698  135.4547  154.9885 H   0  0  0  0  0  0  0  0  0  0  0  0  # atno 10764 bound_to 10752
  154.8012  135.3338  154.7485 H   0  0  0  0  0  0  0  0  0  0  0  0  # atno 10765 bound_to 10752
  140.2010  134.3870  155.8096 H   0  0  0  0  0  0  0  0  0  0  0  0  # atno 11005 bound_to 11000
  145.2771  141.0127  143.3739 LP  0  0  0  0  0  0  0  0  0  0  0  0  # atno 17320 bound_to 7965
  144.9179  139.4448  143.6555 LP  0  0  0  0  0  0  0  0  0  0  0  0  # atno 17321 bound_to 7965
  140.5491  144.0454  150.6119 LP  0  0  0  0  0  0  0  0  0  0  0  0  # atno 17342 bound_to 10162
  140.3502  143.2967  152.0495 LP  0  0  0  0  0  0  0  0  0  0  0  0  # atno 17343 bound_to 10162
  156.0425  130.5506  150.8804 LP  0  0  0  0  0  0  0  0  0  0  0  0  # atno 17370 bound_to 10713
  157.5815  131.0946  150.9264 LP  0  0  0  0  0  0  0  0  0  0  0  0  # atno 17371 bound_to 10713
  141.2227  133.7094  156.8258 LP  0  0  0  0  0  0  0  0  0  0  0  0  # atno 17394 bound_to 11000
  140.2054  134.8867  157.3215 LP  0  0  0  0  0  0  0  0  0  0  0  0  # atno 17395 bound_to 11000

$$$$
