AV-unprocessed.smi:776|AV-procd|sdf|3700|dock2
  -GOLD-   22720 1123D 1   1.00000     0.00000
 Structure written by MMmdl.
 44 45  0  0  0  0  0  0  0  0  1 V2000
  147.4566  134.1956  162.5488 C   0  0  0  0  0  0  0  0  0  0  0  0
  147.9524  135.6400  162.3835 C   0  0  0  0  0  0  0  0  0  0  0  0
  146.8546  136.6850  162.6352 C   0  0  0  0  0  0  0  0  0  0  0  0
  148.6340  135.8489  161.0656 C   0  0  0  0  0  0  0  0  0  0  0  0
  148.6008  134.9258  160.1099 N   0  0  0  0  0  0  0  0  0  0  0  0
  149.3549  135.4996  159.0767 O   0  0  0  0  0  0  0  0  0  0  0  0
  149.7418  136.7147  159.5330 C   0  0  0  0  0  0  0  0  0  0  0  0
  150.6149  137.5632  158.6709 C   0  0  0  0  0  0  0  0  0  0  0  0
  150.1166  139.0146  158.5820 C   0  0  0  0  0  0  0  0  0  0  0  0
  151.1649  139.9647  158.9355 N   0  0  0  0  0  0  0  0  0  0  0  0
  151.0000  141.2934  159.0515 C   0  0  0  0  0  0  0  0  0  0  0  0
  149.9210  141.8421  158.8273 O   0  0  0  0  0  0  0  0  0  0  0  0
  152.1538  141.9613  159.3073 N   0  0  0  0  0  0  0  0  0  0  0  0
  153.1877  141.3840  160.1862 C   0  0  0  0  0  0  0  0  0  0  0  0
  152.9608  141.8838  161.6269 C   0  0  0  0  0  0  0  0  0  0  0  0
  152.9522  143.4227  161.6866 C   0  0  0  0  0  0  0  0  0  0  0  0
  152.0196  144.0331  160.6232 C   0  0  0  0  0  0  0  0  0  0  0  0
  152.3092  143.4312  159.2325 C   0  0  2  0  0  0  0  0  0  0  0  0
  151.5106  144.1264  158.1094 C   0  0  0  0  0  0  0  0  0  0  0  0
  149.3365  136.9784  160.7725 N   0  0  0  0  0  0  0  0  0  0  0  0
  148.2771  133.4855  162.4404 H   0  0  0  0  0  0  0  0  0  0  0  0
  146.6989  133.9471  161.8049 H   0  0  0  0  0  0  0  0  0  0  0  0
  147.0163  134.0427  163.5343 H   0  0  0  0  0  0  0  0  0  0  0  0
  148.7050  135.7955  163.1579 H   0  0  0  0  0  0  0  0  0  0  0  0
  147.2572  137.6971  162.5853 H   0  0  0  0  0  0  0  0  0  0  0  0
  146.4087  136.5553  163.6216 H   0  0  0  0  0  0  0  0  0  0  0  0
  146.0548  136.6068  161.8980 H   0  0  0  0  0  0  0  0  0  0  0  0
  151.6288  137.5379  159.0719 H   0  0  0  0  0  0  0  0  0  0  0  0
  150.6602  137.1146  157.6777 H   0  0  0  0  0  0  0  0  0  0  0  0
  149.7375  139.2289  157.5813 H   0  0  0  0  0  0  0  0  0  0  0  0
  149.2827  139.1631  159.2686 H   0  0  0  0  0  0  0  0  0  0  0  0
  152.0887  139.5885  159.0914 H   0  0  0  0  0  0  0  0  0  0  0  0
  153.2013  140.2935  160.1795 H   0  0  0  0  0  0  0  0  0  0  0  0
  154.1759  141.6856  159.8360 H   0  0  0  0  0  0  0  0  0  0  0  0
  152.0107  141.4995  162.0008 H   0  0  0  0  0  0  0  0  0  0  0  0
  153.7340  141.4904  162.2873 H   0  0  0  0  0  0  0  0  0  0  0  0
  152.6632  143.7609  162.6821 H   0  0  0  0  0  0  0  0  0  0  0  0
  153.9660  143.7888  161.5204 H   0  0  0  0  0  0  0  0  0  0  0  0
  150.9793  143.8502  160.8967 H   0  0  0  0  0  0  0  0  0  0  0  0
  152.1483  145.1158  160.6019 H   0  0  0  0  0  0  0  0  0  0  0  0
  153.3570  143.6262  158.9971 H   0  0  0  0  0  0  0  0  0  0  0  0
  151.8448  145.1569  157.9877 H   0  0  0  0  0  0  0  0  0  0  0  0
  150.4420  144.1682  158.3190 H   0  0  0  0  0  0  0  0  0  0  0  0
  151.6530  143.6239  157.1521 H   0  0  0  0  0  0  0  0  0  0  0  0
  1  2  1  0  0  0  0
  1 21  1  0  0  0  0
  1 22  1  0  0  0  0
  1 23  1  0  0  0  0
  2  3  1  0  0  0  0
  2  4  1  0  0  0  0
  2 24  1  0  0  0  0
  3 25  1  0  0  0  0
  3 26  1  0  0  0  0
  3 27  1  0  0  0  0
  4 20  1  0  0  0  0
  4  5  2  0  0  0  0
  5  6  1  0  0  0  0
  6  7  1  0  0  0  0
  7  8  1  0  0  0  0
  7 20  2  0  0  0  0
  8  9  1  0  0  0  0
  8 28  1  0  0  0  0
  8 29  1  0  0  0  0
  9 10  1  0  0  0  0
  9 30  1  0  0  0  0
  9 31  1  0  0  0  0
 10 11  1  0  0  0  0
 10 32  1  0  0  0  0
 11 12  2  0  0  0  0
 11 13  1  0  0  0  0
 13 18  1  0  0  0  0
 13 14  1  0  0  0  0
 14 15  1  0  0  0  0
 14 33  1  0  0  0  0
 14 34  1  0  0  0  0
 15 16  1  0  0  0  0
 15 35  1  0  0  0  0
 15 36  1  0  0  0  0
 16 17  1  0  0  0  0
 16 37  1  0  0  0  0
 16 38  1  0  0  0  0
 17 18  1  0  0  0  0
 17 39  1  0  0  0  0
 17 40  1  0  0  0  0
 18 19  1  0  0  0  0
 18 41  1  0  0  0  0
 19 42  1  0  0  0  0
 19 43  1  0  0  0  0
 19 44  1  0  0  0  0
M  END
> <s_m_source_file>
AV-unprocessed.smi

> <i_m_source_file_index>
776

> <i_lp_mmshare_version>
43012

> <i_f3d_flags>
0

> <s_epik_input>
W0NIM11bQ0hdKFtDSDNdKWMxbm9jKG4xKVtDSDJdW0NIMl1bTkhdQyg9TylOMltDSDJdW0NIMl1bQ0gyXVtDSDJdW0NASF0yW0NIM10=

> <s_epik_cmdline>
J2VwaWtfcHl0aG9uJywgJy1waCcsICc3LjAnLCAnLXRuJywgJzgnLCAnLW1hJywgJzIwMCcsICctbWV0YWxfYmluZGluZycsICctaW1hZScsICc8aW5maWxlLm1hZT4nLCAnLW9tYWUnLCAnPG91dGZpbGUubWFlPic=

> <r_lp_tautomer_probability>
1

> <r_epik_Ionization_Penalty>
6.23032e-05

> <r_epik_Ionization_Penalty_Charging>
0

> <r_epik_Ionization_Penalty_Neutral>
6.23032e-05

> <r_epik_State_Penalty>
-0

> <r_epik_Charging_Adjusted_Penalty>
0

> <i_epik_Tot_Q>
0

> <i_epik_Tot_abs_Q>
0

> <r_epik_Metal_State_Penalty>
-0

> <b_epik_Metal_Only>
0

> <s_lp_Force_Field>
OPLS_2005

> <r_lp_Energy>
25.3462

> <b_lp_Chiralities_Consistent>
1

> <s_lp_Variant>
AV-unprocessed.smi:776-2

> <Gold.Version>
5.8.1

> <Gold.Id.Protein>
6NUR|6NUR_protein|mol2

> <Gold.PLP.Fitness>
48.4205

> <Gold.PLP.PLP>
-44.7973

> <Gold.PLP.part.hbond>
-2.1334

> <Gold.PLP.part.metal>
0.0000

> <Gold.PLP.part.buried>
-4.6048

> <Gold.PLP.part.nonpolar>
-38.3488

> <Gold.PLP.part.repulsive>
0.2382

> <Gold.PLP.ligand.clash>
0.0000

> <Gold.PLP.ligand.torsion>
0.8463

> <Gold.PLP.Chemscore.Hbond>
1.5900

> <Gold.PLP.Chemscore.CHOScore>
0.0000

> <Gold.PLP.Chemscore.Metal>
0.0000

> <Gold.Chemscore.Hbonds>
donor molecule, donor type, donor heavy atom, donor atom, acceptor molecule, acceptor atom, score
      P1  H  6896  6907       L1     6  0.42
      P1  H  6931  6943       L1    20  0.67

> <Gold.PLP.Chemscore.Internal.Correction>
0.5458

> <Gold.Rescore>
     Score         DG    S(hbond)    S(metal)    S(lipo)     H(rot)  DE(clash)    DE(int)     intcor
     16.38     -18.70       1.82        0.00      97.09       1.65       0.13       2.18       ----

> <Gold.Chemscore.Fitness>
16.3837

> <Gold.Chemscore.DG>
-18.6960

> <Gold.Chemscore.ZeroCoef>
-5.4800

> <Gold.Chemscore.Hbond>
1.8181

> <Gold.Chemscore.Metal>
0.0000

> <Gold.Chemscore.Lipo>
97.0928

> <Gold.Chemscore.Internal_Hbond>
0.0000

> <Gold.Chemscore.DEClash>
0.1336

> <Gold.Chemscore.DEInternal>
2.1786

> <Gold.Chemscore.Rot>
1.6470

> <Gold.Chemscore.Internal.Correction>
   9.000000E+99

> <Gold.Chemscore.Hbonds>
donor molecule, donor type, donor heavy atom, donor atom, acceptor molecule, acceptor atom, score
      P1  H  6931  6943       L1    20  0.60

> <Gold.Chemscore.Hbond.Weighted>
-6.0725

> <Gold.Chemscore.Metal.Weighted>
-0.0000

> <Gold.Chemscore.Lipo.Weighted>
-11.3599

> <Gold.Chemscore.Internal_Hbond.Weighted>
0.0000

> <Gold.Chemscore.DEClash.Weighted>
0.1336

> <Gold.Chemscore.DEInternal.Weighted>
2.1786

> <Gold.Chemscore.Rot.Weighted>
4.2164

> <Gold.Chemscore.Internal.Correction.Weighted>
   9.000000E+99

> <Gold.Protein.RotatedTorsions>
[ 6907 6896 6895 6894 ] final  -65.33 input  -60.11 | X-H torsion
[ 7974 7965 7964 7962 ] final   96.71 input  175.53 | X-H torsion
[ 8008 7997 7996 7995 ] final  113.51 input   59.86 | X-H torsion
[ 10167 10162 10161 10158 ] final   39.97 input  -65.29 | X-H torsion
[ 10718 10713 10712 10709 ] final  -76.73 input   66.30 | X-H torsion
[ 10763 10752 10751 10750 ] final  -77.33 input  -60.55 | X-H torsion
[ 11005 11000 10999 10996 ] final  168.52 input  -57.11 | X-H torsion

> <Gold.Protein.ActiveResidues>
 VAL166  LYS551  ARG553  GLY616  TRP617  ASP618  TYR619  PRO620  LYS621  CYS622 
 ASP623  PHE694  ASN695  SER759  ASP760  ASP761  ALA762  ILE779  LEU786  VAL792 
 PHE793  MET794  SER795  GLU796  ALA797  LYS798  CYS799  TRP800  GLU811  SER814 

> <Gold.Protein.RotatedAtoms>
  150.7530  134.6175  159.6118 H   0  0  0  0  0  0  0  0  0  0  0  0  # atno 6907 bound_to 6896
  152.3491  134.7027  160.0250 H   0  0  0  0  0  0  0  0  0  0  0  0  # atno 6908 bound_to 6896
  151.7454  133.3288  159.3413 H   0  0  0  0  0  0  0  0  0  0  0  0  # atno 6909 bound_to 6896
  145.4352  139.2306  143.3122 H   0  0  0  0  0  0  0  0  0  0  0  0  # atno 7974 bound_to 7965
  156.2263  140.2978  156.0075 H   0  0  0  0  0  0  0  0  0  0  0  0  # atno 8008 bound_to 7997
  155.2348  140.0420  157.2984 H   0  0  0  0  0  0  0  0  0  0  0  0  # atno 8009 bound_to 7997
  154.5921  140.2404  155.7915 H   0  0  0  0  0  0  0  0  0  0  0  0  # atno 8010 bound_to 7997
  140.3788  144.2008  150.6131 H   0  0  0  0  0  0  0  0  0  0  0  0  # atno 10167 bound_to 10162
  156.0166  130.4473  150.3238 H   0  0  0  0  0  0  0  0  0  0  0  0  # atno 10718 bound_to 10713
  154.5116  135.5767  153.6609 H   0  0  0  0  0  0  0  0  0  0  0  0  # atno 10763 bound_to 10752
  152.9898  135.6160  154.2872 H   0  0  0  0  0  0  0  0  0  0  0  0  # atno 10764 bound_to 10752
  154.2787  135.2851  155.2686 H   0  0  0  0  0  0  0  0  0  0  0  0  # atno 10765 bound_to 10752
  140.2881  134.7695  157.3815 H   0  0  0  0  0  0  0  0  0  0  0  0  # atno 11005 bound_to 11000
  146.2586  140.5093  142.8863 LP  0  0  0  0  0  0  0  0  0  0  0  0  # atno 17320 bound_to 7965
  144.8157  140.6464  143.6386 LP  0  0  0  0  0  0  0  0  0  0  0  0  # atno 17321 bound_to 7965
  140.4959  143.2333  151.8750 LP  0  0  0  0  0  0  0  0  0  0  0  0  # atno 17342 bound_to 10162
  139.4797  144.5114  151.8927 LP  0  0  0  0  0  0  0  0  0  0  0  0  # atno 17343 bound_to 10162
  157.1338  131.0278  151.2958 LP  0  0  0  0  0  0  0  0  0  0  0  0  # atno 17370 bound_to 10713
  157.4529  130.7608  149.7167 LP  0  0  0  0  0  0  0  0  0  0  0  0  # atno 17371 bound_to 10713
  140.1220  134.5207  155.8175 LP  0  0  0  0  0  0  0  0  0  0  0  0  # atno 17394 bound_to 11000
  141.2151  133.6760  156.6884 LP  0  0  0  0  0  0  0  0  0  0  0  0  # atno 17395 bound_to 11000

$$$$
