AV-unprocessed.smi:1492|AV-procd|sdf|6040|dock9
  -GOLD-   22720 6153D 1   1.00000     0.00000
 Structure written by MMmdl.
 52 53  0  0  0  0  0  0  0  0  1 V2000
  141.2313  135.8279  153.8537 C   0  0  0  0  0  0  0  0  0  0  0  0
  142.0846  134.6503  153.3476 C   0  0  0  0  0  0  0  0  0  0  0  0
  143.5855  134.9537  153.0401 C   0  0  1  0  0  0  0  0  0  0  0  0
  143.6658  136.2203  152.1456 C   0  0  0  0  0  0  0  0  0  0  0  0
  144.3136  135.3146  154.3722 C   0  0  0  0  0  0  0  0  0  0  0  0
  144.4662  134.1434  155.2314 N   0  0  0  0  0  0  0  0  0  0  0  0
  145.0005  134.1287  156.4607 C   0  0  0  0  0  0  0  0  0  0  0  0
  145.5885  135.0839  156.9666 O   0  0  0  0  0  0  0  0  0  0  0  0
  144.7910  132.8415  157.2564 C   0  0  0  0  0  0  0  0  0  0  0  0
  144.4183  133.0644  158.7213 C   0  0  0  0  0  0  0  0  0  0  0  0
  145.0929  132.4906  159.7498 C   0  0  0  0  0  0  0  0  0  0  0  0
  146.2796  131.5582  159.5828 C   0  0  0  0  0  0  0  0  0  0  0  0
  144.7418  132.7407  161.0645 N   0  0  0  0  0  0  0  0  0  0  0  0
  143.6912  133.6114  161.3006 C   0  0  0  0  0  0  0  0  0  0  0  0
  143.4107  133.8409  162.7694 C   0  0  0  0  0  0  0  0  0  0  0  0
  142.9871  134.2081  160.3879 N   0  0  0  0  0  0  0  0  0  0  0  0
  143.2942  133.9778  159.0375 C   0  0  0  0  0  0  0  0  0  0  0  0
  142.6480  134.5340  158.1504 O   0  0  0  0  0  0  0  0  0  0  0  0
  144.2644  133.8082  152.3642 N   0  0  0  0  0  0  0  0  0  0  0  0
  143.5466  133.2458  151.2139 C   0  0  0  0  0  0  0  0  0  0  0  0
  144.2225  131.9710  150.6834 C   0  0  0  0  0  0  0  0  0  0  0  0
  145.5729  132.2532  150.3370 O   0  0  0  0  0  0  0  0  0  0  0  0
  146.3230  132.7587  151.4349 C   0  0  0  0  0  0  0  0  0  0  0  0
  145.6606  134.0378  151.9755 C   0  0  0  0  0  0  0  0  0  0  0  0
  145.2752  132.2988  161.7995 H   0  0  0  0  0  0  0  0  0  0  0  0
  140.2044  135.5030  154.0221 H   0  0  0  0  0  0  0  0  0  0  0  0
  141.1924  136.6449  153.1339 H   0  0  0  0  0  0  0  0  0  0  0  0
  141.5981  136.2231  154.8003 H   0  0  0  0  0  0  0  0  0  0  0  0
  142.0122  133.8587  154.0928 H   0  0  0  0  0  0  0  0  0  0  0  0
  141.5957  134.2609  152.4552 H   0  0  0  0  0  0  0  0  0  0  0  0
  143.4142  137.1274  152.6953 H   0  0  0  0  0  0  0  0  0  0  0  0
  142.9774  136.1698  151.3016 H   0  0  0  0  0  0  0  0  0  0  0  0
  144.6693  136.3644  151.7428 H   0  0  0  0  0  0  0  0  0  0  0  0
  145.3179  135.6903  154.1779 H   0  0  0  0  0  0  0  0  0  0  0  0
  143.8019  136.1272  154.8894 H   0  0  0  0  0  0  0  0  0  0  0  0
  144.0155  133.2979  154.9127 H   0  0  0  0  0  0  0  0  0  0  0  0
  144.0368  132.2307  156.7583 H   0  0  0  0  0  0  0  0  0  0  0  0
  145.7053  132.2504  157.2022 H   0  0  0  0  0  0  0  0  0  0  0  0
  147.0832  132.0593  159.0430 H   0  0  0  0  0  0  0  0  0  0  0  0
  145.9903  130.6669  159.0261 H   0  0  0  0  0  0  0  0  0  0  0  0
  146.6761  131.2359  160.5464 H   0  0  0  0  0  0  0  0  0  0  0  0
  142.5512  134.4987  162.9039 H   0  0  0  0  0  0  0  0  0  0  0  0
  144.2726  134.3033  163.2514 H   0  0  0  0  0  0  0  0  0  0  0  0
  143.1980  132.8953  163.2693 H   0  0  0  0  0  0  0  0  0  0  0  0
  142.5199  132.9972  151.4736 H   0  0  0  0  0  0  0  0  0  0  0  0
  143.4989  133.9753  150.4053 H   0  0  0  0  0  0  0  0  0  0  0  0
  144.1890  131.1783  151.4304 H   0  0  0  0  0  0  0  0  0  0  0  0
  143.6979  131.6018  149.8022 H   0  0  0  0  0  0  0  0  0  0  0  0
  146.3917  132.0018  152.2167 H   0  0  0  0  0  0  0  0  0  0  0  0
  147.3400  132.9690  151.1042 H   0  0  0  0  0  0  0  0  0  0  0  0
  145.7192  134.8134  151.2121 H   0  0  0  0  0  0  0  0  0  0  0  0
  146.2512  134.3814  152.8229 H   0  0  0  0  0  0  0  0  0  0  0  0
  1  2  1  0  0  0  0
  1 26  1  0  0  0  0
  1 27  1  0  0  0  0
  1 28  1  0  0  0  0
  2  3  1  0  0  0  0
  2 29  1  0  0  0  0
  2 30  1  0  0  0  0
  3  4  1  0  0  0  0
  3  5  1  0  0  0  0
  3 19  1  0  0  0  0
  4 31  1  0  0  0  0
  4 32  1  0  0  0  0
  4 33  1  0  0  0  0
  5  6  1  0  0  0  0
  5 34  1  0  0  0  0
  5 35  1  0  0  0  0
  6  7  1  0  0  0  0
  6 36  1  0  0  0  0
  7  8  2  0  0  0  0
  7  9  1  0  0  0  0
  9 37  1  0  0  0  0
  9 38  1  0  0  0  0
  9 10  1  0  0  0  0
 10 17  1  0  0  0  0
 10 11  2  0  0  0  0
 11 12  1  0  0  0  0
 11 13  1  0  0  0  0
 12 39  1  0  0  0  0
 12 40  1  0  0  0  0
 12 41  1  0  0  0  0
 13 25  1  0  0  0  0
 13 14  1  0  0  0  0
 14 15  1  0  0  0  0
 14 16  2  0  0  0  0
 15 42  1  0  0  0  0
 15 43  1  0  0  0  0
 15 44  1  0  0  0  0
 16 17  1  0  0  0  0
 17 18  2  0  0  0  0
 19 24  1  0  0  0  0
 19 20  1  0  0  0  0
 20 21  1  0  0  0  0
 20 45  1  0  0  0  0
 20 46  1  0  0  0  0
 21 22  1  0  0  0  0
 21 47  1  0  0  0  0
 21 48  1  0  0  0  0
 22 23  1  0  0  0  0
 23 24  1  0  0  0  0
 23 49  1  0  0  0  0
 23 50  1  0  0  0  0
 24 51  1  0  0  0  0
 24 52  1  0  0  0  0
M  END
> <s_m_source_file>
AV-unprocessed.smi

> <i_m_source_file_index>
1492

> <i_lp_mmshare_version>
43012

> <i_f3d_flags>
0

> <s_epik_input>
W0NIMl0xW0NIMl1PW0NIMl1bQ0gyXU4xW0NAQF0oW0NIM10pKFtDSDJdW0NIM10pW0NIMl1bTkhdQyg9TylbQ0gyXWMyYyhbQ0gzXSluYyhbQ0gzXSlbbkhdYzI9Tw==

> <s_epik_cmdline>
J2VwaWtfcHl0aG9uJywgJy1waCcsICc3LjAnLCAnLXRuJywgJzgnLCAnLW1hJywgJzIwMCcsICctbWV0YWxfYmluZGluZycsICctaW1hZScsICc8aW5maWxlLm1hZT4nLCAnLW9tYWUnLCAnPG91dGZpbGUubWFlPic=

> <r_lp_tautomer_probability>
0.156392

> <r_epik_Ionization_Penalty>
0.342516

> <r_epik_Ionization_Penalty_Charging>
0.0141408

> <r_epik_Ionization_Penalty_Neutral>
0.328375

> <r_epik_State_Penalty>
1.47662

> <r_epik_Charging_Adjusted_Penalty>
1.49076

> <i_epik_Tot_Q>
0

> <i_epik_Tot_abs_Q>
0

> <r_epik_Metal_State_Penalty>
1.65506

> <b_epik_Metal_Only>
0

> <s_lp_Force_Field>
OPLS_2005

> <r_lp_Energy>
46.8903

> <b_lp_Chiralities_Consistent>
1

> <s_lp_Variant>
AV-unprocessed.smi:1492-5

> <Gold.Version>
5.8.1

> <Gold.Id.Protein>
6NUR|6NUR_protein|mol2

> <Gold.PLP.Fitness>
33.6497

> <Gold.PLP.PLP>
-28.6281

> <Gold.PLP.part.hbond>
-2.0000

> <Gold.PLP.part.metal>
0.0000

> <Gold.PLP.part.buried>
-6.5002

> <Gold.PLP.part.nonpolar>
-20.7276

> <Gold.PLP.part.repulsive>
0.2638

> <Gold.PLP.ligand.clash>
0.0000

> <Gold.PLP.ligand.torsion>
0.5270

> <Gold.PLP.Chemscore.Hbond>
1.9920

> <Gold.PLP.Chemscore.CHOScore>
0.0000

> <Gold.PLP.Chemscore.Metal>
0.0000

> <Gold.Chemscore.Hbonds>
donor molecule, donor type, donor heavy atom, donor atom, acceptor molecule, acceptor atom, score
      L1  H     6    36       P1 10957  0.98
      P1  H 11000 11005       L1    18  1.00

> <Gold.PLP.Chemscore.Internal.Correction>
0.0996

> <Gold.Rescore>
     Score         DG    S(hbond)    S(metal)    S(lipo)     H(rot)  DE(clash)    DE(int)     intcor
     14.11     -14.73       1.98        0.00      68.92       2.12       0.05       0.56       ----

> <Gold.Chemscore.Fitness>
14.1138

> <Gold.Chemscore.DG>
-14.7278

> <Gold.Chemscore.ZeroCoef>
-5.4800

> <Gold.Chemscore.Hbond>
1.9759

> <Gold.Chemscore.Metal>
0.0000

> <Gold.Chemscore.Lipo>
68.9241

> <Gold.Chemscore.Internal_Hbond>
0.0000

> <Gold.Chemscore.DEClash>
0.0530

> <Gold.Chemscore.DEInternal>
0.5610

> <Gold.Chemscore.Rot>
2.1155

> <Gold.Chemscore.Internal.Correction>
   9.000000E+99

> <Gold.Chemscore.Hbonds>
donor molecule, donor type, donor heavy atom, donor atom, acceptor molecule, acceptor atom, score
      L1  H     6    36       P1 10957  0.91
      P1  H 11000 11005       L1    18  0.98

> <Gold.Chemscore.Hbond.Weighted>
-6.5994

> <Gold.Chemscore.Metal.Weighted>
-0.0000

> <Gold.Chemscore.Lipo.Weighted>
-8.0641

> <Gold.Chemscore.Internal_Hbond.Weighted>
0.0000

> <Gold.Chemscore.DEClash.Weighted>
0.0530

> <Gold.Chemscore.DEInternal.Weighted>
0.5610

> <Gold.Chemscore.Rot.Weighted>
5.4157

> <Gold.Chemscore.Internal.Correction.Weighted>
   9.000000E+99

> <Gold.Protein.RotatedTorsions>
[ 6907 6896 6895 6894 ] final  113.72 input  -60.11 | X-H torsion
[ 7974 7965 7964 7962 ] final   43.55 input  175.53 | X-H torsion
[ 8008 7997 7996 7995 ] final  102.16 input   59.86 | X-H torsion
[ 10167 10162 10161 10158 ] final  -32.62 input  -65.29 | X-H torsion
[ 10718 10713 10712 10709 ] final -150.12 input   66.30 | X-H torsion
[ 10763 10752 10751 10750 ] final  -61.48 input  -60.55 | X-H torsion
[ 11005 11000 10999 10996 ] final -122.77 input  -57.11 | X-H torsion

> <Gold.Protein.ActiveResidues>
 VAL166  LYS551  ARG553  GLY616  TRP617  ASP618  TYR619  PRO620  LYS621  CYS622 
 ASP623  PHE694  ASN695  SER759  ASP760  ASP761  ALA762  ILE779  LEU786  VAL792 
 PHE793  MET794  SER795  GLU796  ALA797  LYS798  CYS799  TRP800  GLU811  SER814 

> <Gold.Protein.RotatedAtoms>
  152.4845  133.8337  159.7116 H   0  0  0  0  0  0  0  0  0  0  0  0  # atno 6907 bound_to 6896
  150.8920  133.7222  159.2909 H   0  0  0  0  0  0  0  0  0  0  0  0  # atno 6908 bound_to 6896
  151.4691  135.1048  159.9799 H   0  0  0  0  0  0  0  0  0  0  0  0  # atno 6909 bound_to 6896
  146.0646  139.5174  142.9636 H   0  0  0  0  0  0  0  0  0  0  0  0  # atno 7974 bound_to 7965
  156.1367  140.3186  155.8432 H   0  0  0  0  0  0  0  0  0  0  0  0  # atno 8008 bound_to 7997
  155.4230  140.0513  157.3041 H   0  0  0  0  0  0  0  0  0  0  0  0  # atno 8009 bound_to 7997
  154.4943  140.2104  155.9494 H   0  0  0  0  0  0  0  0  0  0  0  0  # atno 8010 bound_to 7997
  140.7218  143.3681  151.1832 H   0  0  0  0  0  0  0  0  0  0  0  0  # atno 10167 bound_to 10162
  156.4420  130.8126  151.2356 H   0  0  0  0  0  0  0  0  0  0  0  0  # atno 10718 bound_to 10713
  154.2852  135.6264  153.5363 H   0  0  0  0  0  0  0  0  0  0  0  0  # atno 10763 bound_to 10752
  152.9860  135.5642  154.5451 H   0  0  0  0  0  0  0  0  0  0  0  0  # atno 10764 bound_to 10752
  154.5050  135.2874  155.1365 H   0  0  0  0  0  0  0  0  0  0  0  0  # atno 10765 bound_to 10752
  140.9970  134.0458  157.3585 H   0  0  0  0  0  0  0  0  0  0  0  0  # atno 11005 bound_to 11000
  145.6500  141.0265  143.1765 LP  0  0  0  0  0  0  0  0  0  0  0  0  # atno 17320 bound_to 7965
  144.7195  139.8080  143.7387 LP  0  0  0  0  0  0  0  0  0  0  0  0  # atno 17321 bound_to 7965
  139.7246  143.9168  152.2998 LP  0  0  0  0  0  0  0  0  0  0  0  0  # atno 17342 bound_to 10162
  139.8937  144.6951  150.8742 LP  0  0  0  0  0  0  0  0  0  0  0  0  # atno 17343 bound_to 10162
  157.7506  131.0165  150.3547 LP  0  0  0  0  0  0  0  0  0  0  0  0  # atno 17370 bound_to 10713
  156.3907  130.3897  149.7032 LP  0  0  0  0  0  0  0  0  0  0  0  0  # atno 17371 bound_to 10713
  139.9019  135.0167  156.7310 LP  0  0  0  0  0  0  0  0  0  0  0  0  # atno 17394 bound_to 11000
  140.6950  133.9356  155.7989 LP  0  0  0  0  0  0  0  0  0  0  0  0  # atno 17395 bound_to 11000

$$$$
