AV-unprocessed.smi:3003|AV-procd|sdf|11438|dock2
  -GOLD-   2272016363D 1   1.00000     0.00000
 Structure written by MMmdl.
 41 42  0  0  0  0  0  0  0  0  1 V2000
  148.6958  136.0780  157.7824 C   0  0  0  0  0  0  0  0  0  0  0  0
  148.1443  135.3599  156.2110 S   0  0  0  0  0  0  0  0  0  0  0  0
  149.7253  134.7834  155.5238 C   0  0  1  0  0  0  0  0  0  0  0  0
  149.4846  133.9804  154.2358 C   0  0  0  0  0  0  0  0  0  0  0  0
  150.6970  135.9420  155.2705 C   0  0  0  0  0  0  0  0  0  0  0  0
  151.7309  136.0418  155.9321 O   0  0  0  0  0  0  0  0  0  0  0  0
  150.3544  136.8131  154.3084 N   0  0  0  0  0  0  0  0  0  0  0  0
  151.1276  137.9950  153.9411 C   0  0  0  0  0  0  0  0  0  0  0  0
  151.3149  138.9883  155.0787 C   0  0  0  0  0  0  0  0  0  0  0  0
  150.3131  139.9182  155.4262 C   0  0  0  0  0  0  0  0  0  0  0  0
  150.5456  140.8071  156.4927 C   0  0  0  0  0  0  0  0  0  0  0  0
  151.7778  140.7470  157.1866 C   0  0  0  0  0  0  0  0  0  0  0  0
  152.0280  141.6219  158.2662 N   0  0  0  0  0  0  0  0  0  0  0  0
  151.0994  142.7422  158.3987 C   0  0  0  0  0  0  0  0  0  0  0  0
  151.6419  143.7735  159.4033 C   0  0  0  0  0  0  0  0  0  0  0  0
  151.9208  143.1371  160.6460 O   0  0  0  0  0  0  0  0  0  0  0  0
  152.9128  142.1253  160.5102 C   0  0  0  0  0  0  0  0  0  0  0  0
  152.4119  141.0346  159.5487 C   0  0  0  0  0  0  0  0  0  0  0  0
  152.7451  139.8630  156.8369 N   0  0  0  0  0  0  0  0  0  0  0  0
  152.5164  139.0116  155.8149 C   0  0  0  0  0  0  0  0  0  0  0  0
  147.8382  136.4467  158.3450 H   0  0  0  0  0  0  0  0  0  0  0  0
  149.3756  136.9119  157.6091 H   0  0  0  0  0  0  0  0  0  0  0  0
  149.2076  135.3282  158.3858 H   0  0  0  0  0  0  0  0  0  0  0  0
  150.1680  134.1063  156.2564 H   0  0  0  0  0  0  0  0  0  0  0  0
  150.4239  133.6347  153.8023 H   0  0  0  0  0  0  0  0  0  0  0  0
  148.9676  134.5751  153.4816 H   0  0  0  0  0  0  0  0  0  0  0  0
  148.8741  133.0995  154.4361 H   0  0  0  0  0  0  0  0  0  0  0  0
  149.4923  136.6549  153.8069 H   0  0  0  0  0  0  0  0  0  0  0  0
  152.0987  137.6901  153.5472 H   0  0  0  0  0  0  0  0  0  0  0  0
  150.6095  138.5016  153.1267 H   0  0  0  0  0  0  0  0  0  0  0  0
  149.3782  139.9555  154.8868 H   0  0  0  0  0  0  0  0  0  0  0  0
  149.7861  141.5283  156.7555 H   0  0  0  0  0  0  0  0  0  0  0  0
  150.9239  143.2372  157.4448 H   0  0  0  0  0  0  0  0  0  0  0  0
  150.1359  142.3612  158.7401 H   0  0  0  0  0  0  0  0  0  0  0  0
  152.5428  144.2538  159.0180 H   0  0  0  0  0  0  0  0  0  0  0  0
  150.9063  144.5614  159.5655 H   0  0  0  0  0  0  0  0  0  0  0  0
  153.8464  142.5615  160.1516 H   0  0  0  0  0  0  0  0  0  0  0  0
  153.1183  141.6954  161.4905 H   0  0  0  0  0  0  0  0  0  0  0  0
  151.5533  140.5206  159.9828 H   0  0  0  0  0  0  0  0  0  0  0  0
  153.1983  140.2931  159.4038 H   0  0  0  0  0  0  0  0  0  0  0  0
  153.3170  138.3248  155.5832 H   0  0  0  0  0  0  0  0  0  0  0  0
  1  2  1  0  0  0  0
  1 21  1  0  0  0  0
  1 22  1  0  0  0  0
  1 23  1  0  0  0  0
  2  3  1  0  0  0  0
  3  4  1  0  0  0  0
  3  5  1  0  0  0  0
  3 24  1  0  0  0  0
  4 25  1  0  0  0  0
  4 26  1  0  0  0  0
  4 27  1  0  0  0  0
  5  6  2  0  0  0  0
  5  7  1  0  0  0  0
  7  8  1  0  0  0  0
  7 28  1  0  0  0  0
  8  9  1  0  0  0  0
  8 29  1  0  0  0  0
  8 30  1  0  0  0  0
  9 20  1  0  0  0  0
  9 10  2  0  0  0  0
 10 11  1  0  0  0  0
 10 31  1  0  0  0  0
 11 12  2  0  0  0  0
 11 32  1  0  0  0  0
 12 13  1  0  0  0  0
 12 19  1  0  0  0  0
 13 18  1  0  0  0  0
 13 14  1  0  0  0  0
 14 15  1  0  0  0  0
 14 33  1  0  0  0  0
 14 34  1  0  0  0  0
 15 16  1  0  0  0  0
 15 35  1  0  0  0  0
 15 36  1  0  0  0  0
 16 17  1  0  0  0  0
 17 18  1  0  0  0  0
 17 37  1  0  0  0  0
 17 38  1  0  0  0  0
 18 39  1  0  0  0  0
 18 40  1  0  0  0  0
 19 20  2  0  0  0  0
 20 41  1  0  0  0  0
M  END
> <s_m_source_file>
AV-unprocessed.smi

> <i_m_source_file_index>
3003

> <i_lp_mmshare_version>
43012

> <i_f3d_flags>
0

> <s_epik_input>
W0NIM11TW0NASF0oW0NIM10pQyg9TylbTkhdW0NIMl1jMVtjSF1bY0hdYyhuW2NIXTEpTjJbQ0gyXVtDSDJdT1tDSDJdW0NIMl0y

> <s_epik_cmdline>
J2VwaWtfcHl0aG9uJywgJy1waCcsICc3LjAnLCAnLXRuJywgJzgnLCAnLW1hJywgJzIwMCcsICctbWV0YWxfYmluZGluZycsICctaW1hZScsICc8aW5maWxlLm1hZT4nLCAnLW9tYWUnLCAnPG91dGZpbGUubWFlPic=

> <r_lp_tautomer_probability>
1

> <r_epik_Ionization_Penalty>
0.00417642

> <r_epik_Ionization_Penalty_Charging>
0

> <r_epik_Ionization_Penalty_Neutral>
0.00417642

> <r_epik_State_Penalty>
0.00299889

> <r_epik_Charging_Adjusted_Penalty>
0.00299889

> <i_epik_Tot_Q>
0

> <i_epik_Tot_abs_Q>
0

> <r_epik_Metal_State_Penalty>
-0

> <b_epik_Metal_Only>
0

> <s_lp_Force_Field>
OPLS_2005

> <r_lp_Energy>
16.8537

> <b_lp_Chiralities_Consistent>
1

> <s_lp_Variant>
AV-unprocessed.smi:3003-2

> <Gold.Version>
5.8.1

> <Gold.Id.Protein>
6NUR|6NUR_protein|mol2

> <Gold.PLP.Fitness>
43.3735

> <Gold.PLP.PLP>
-35.9793

> <Gold.PLP.part.hbond>
-3.9607

> <Gold.PLP.part.metal>
0.0000

> <Gold.PLP.part.buried>
-2.8727

> <Gold.PLP.part.nonpolar>
-28.8879

> <Gold.PLP.part.repulsive>
0.1571

> <Gold.PLP.ligand.clash>
0.0000

> <Gold.PLP.ligand.torsion>
0.5511

> <Gold.PLP.Chemscore.Hbond>
2.6978

> <Gold.PLP.Chemscore.CHOScore>
0.0000

> <Gold.PLP.Chemscore.Metal>
0.0000

> <Gold.Chemscore.Hbonds>
donor molecule, donor type, donor heavy atom, donor atom, acceptor molecule, acceptor atom, score
      L1  H     7    28       P1  7948  0.70
      P1  H  7997  8008       L1    19  1.00
      P1  H 10752 10764       L1     6  1.00

> <Gold.PLP.Chemscore.Internal.Correction>
0.4029

> <Gold.Rescore>
     Score         DG    S(hbond)    S(metal)    S(lipo)     H(rot)  DE(clash)    DE(int)     intcor
     16.55     -17.29       1.74        0.00      87.77       1.67       0.10       0.64       ----

> <Gold.Chemscore.Fitness>
16.5526

> <Gold.Chemscore.DG>
-17.2935

> <Gold.Chemscore.ZeroCoef>
-5.4800

> <Gold.Chemscore.Hbond>
1.7410

> <Gold.Chemscore.Metal>
0.0000

> <Gold.Chemscore.Lipo>
87.7721

> <Gold.Chemscore.Internal_Hbond>
0.0000

> <Gold.Chemscore.DEClash>
0.1033

> <Gold.Chemscore.DEInternal>
0.6377

> <Gold.Chemscore.Rot>
1.6682

> <Gold.Chemscore.Internal.Correction>
   9.000000E+99

> <Gold.Chemscore.Hbonds>
donor molecule, donor type, donor heavy atom, donor atom, acceptor molecule, acceptor atom, score
      L1  H     7    28       P1  7948  0.55
      P1  H  7997  8008       L1    19  0.30
      P1  H 10752 10764       L1     6  0.25

> <Gold.Chemscore.Hbond.Weighted>
-5.8149

> <Gold.Chemscore.Metal.Weighted>
-0.0000

> <Gold.Chemscore.Lipo.Weighted>
-10.2693

> <Gold.Chemscore.Internal_Hbond.Weighted>
0.0000

> <Gold.Chemscore.DEClash.Weighted>
0.1033

> <Gold.Chemscore.DEInternal.Weighted>
0.6377

> <Gold.Chemscore.Rot.Weighted>
4.2707

> <Gold.Chemscore.Internal.Correction.Weighted>
   9.000000E+99

> <Gold.Protein.RotatedTorsions>
[ 6907 6896 6895 6894 ] final  -57.40 input  -60.11 | X-H torsion
[ 7974 7965 7964 7962 ] final  -24.91 input  175.53 | X-H torsion
[ 8008 7997 7996 7995 ] final  -64.27 input   59.86 | X-H torsion
[ 10167 10162 10161 10158 ] final    5.89 input  -65.29 | X-H torsion
[ 10718 10713 10712 10709 ] final  -91.37 input   66.30 | X-H torsion
[ 10763 10752 10751 10750 ] final  -56.72 input  -60.55 | X-H torsion
[ 11005 11000 10999 10996 ] final  127.81 input  -57.11 | X-H torsion

> <Gold.Protein.ActiveResidues>
 VAL166  LYS551  ARG553  GLY616  TRP617  ASP618  TYR619  PRO620  LYS621  CYS622 
 ASP623  PHE694  ASN695  SER759  ASP760  ASP761  ALA762  ILE779  LEU786  VAL792 
 PHE793  MET794  SER795  GLU796  ALA797  LYS798  CYS799  TRP800  GLU811  SER814 

> <Gold.Protein.RotatedAtoms>
  150.8089  134.7232  159.6669 H   0  0  0  0  0  0  0  0  0  0  0  0  # atno 6907 bound_to 6896
  152.4209  134.5953  159.9995 H   0  0  0  0  0  0  0  0  0  0  0  0  # atno 6908 bound_to 6896
  151.6169  133.3305  159.3115 H   0  0  0  0  0  0  0  0  0  0  0  0  # atno 6909 bound_to 6896
  146.1525  140.4815  142.8605 H   0  0  0  0  0  0  0  0  0  0  0  0  # atno 7974 bound_to 7965
  154.4602  140.0957  156.6871 H   0  0  0  0  0  0  0  0  0  0  0  0  # atno 8008 bound_to 7997
  155.5018  140.3474  155.4354 H   0  0  0  0  0  0  0  0  0  0  0  0  # atno 8009 bound_to 7997
  156.0855  140.1384  156.9647 H   0  0  0  0  0  0  0  0  0  0  0  0  # atno 8010 bound_to 7997
  140.6457  143.7667  150.7496 H   0  0  0  0  0  0  0  0  0  0  0  0  # atno 10167 bound_to 10162
  155.9993  130.4945  150.5463 H   0  0  0  0  0  0  0  0  0  0  0  0  # atno 10718 bound_to 10713
  154.2111  135.6394  153.5115 H   0  0  0  0  0  0  0  0  0  0  0  0  # atno 10763 bound_to 10752
  152.9990  135.5474  154.6214 H   0  0  0  0  0  0  0  0  0  0  0  0  # atno 10764 bound_to 10752
  154.5651  135.2912  155.0855 H   0  0  0  0  0  0  0  0  0  0  0  0  # atno 10765 bound_to 10752
  139.9527  134.9619  156.8910 H   0  0  0  0  0  0  0  0  0  0  0  0  # atno 11005 bound_to 11000
  144.7922  140.6053  143.6534 LP  0  0  0  0  0  0  0  0  0  0  0  0  # atno 17320 bound_to 7965
  145.4789  139.1497  143.3773 LP  0  0  0  0  0  0  0  0  0  0  0  0  # atno 17321 bound_to 7965
  140.1307  143.4528  152.2256 LP  0  0  0  0  0  0  0  0  0  0  0  0  # atno 17342 bound_to 10162
  139.5668  144.7440  151.4000 LP  0  0  0  0  0  0  0  0  0  0  0  0  # atno 17343 bound_to 10162
  157.3393  131.0714  151.1801 LP  0  0  0  0  0  0  0  0  0  0  0  0  # atno 17370 bound_to 10713
  157.2655  130.6679  149.5994 LP  0  0  0  0  0  0  0  0  0  0  0  0  # atno 17371 bound_to 10713
  140.5680  134.0470  155.7421 LP  0  0  0  0  0  0  0  0  0  0  0  0  # atno 17394 bound_to 11000
  141.1193  133.9487  157.2760 LP  0  0  0  0  0  0  0  0  0  0  0  0  # atno 17395 bound_to 11000

$$$$
