AV-unprocessed.smi:131|AV-procd|sdf|1161|dock5
  -GOLD-   2262018303D 1   1.00000     0.00000
 Structure written by MMmdl.
 55 58  0  0  0  0  0  0  0  0  1 V2000
  151.7476  136.7864  156.1430 O   0  0  0  0  0  0  0  0  0  0  0  0
  151.0770  136.8760  155.1141 C   0  0  0  0  0  0  0  0  0  0  0  0
  151.1697  138.1372  154.2403 C   0  0  0  0  0  0  0  0  0  0  0  0
  150.5343  139.3207  154.8599 N   0  0  0  0  0  0  0  0  0  0  0  0
  149.1547  139.5449  154.6272 C   0  0  0  0  0  0  0  0  0  0  0  0
  148.4950  138.7837  153.9178 O   0  0  0  0  0  0  0  0  0  0  0  0
  148.5876  140.7181  155.2825 C   0  0  0  0  0  0  0  0  0  0  0  0
  147.2901  141.0180  155.1030 F   0  0  0  0  0  0  0  0  0  0  0  0
  149.3459  141.5105  156.0677 C   0  0  0  0  0  0  0  0  0  0  0  0
  150.6876  141.2675  156.3035 N   0  0  0  0  0  0  0  0  0  0  0  0
  151.5227  142.1590  157.1989 C   0  0  2  0  0  0  0  0  0  0  0  0
  151.9835  141.3903  158.4528 C   0  0  0  0  0  0  0  0  0  0  0  0
  151.5522  142.3023  159.5843 C   0  0  0  0  0  0  0  0  0  0  0  0
  150.3416  142.9994  158.9827 C   0  0  0  0  0  0  0  0  0  0  0  0
  150.7542  143.2407  157.6440 O   0  0  0  0  0  0  0  0  0  0  0  0
  151.3146  140.1624  155.6879 C   0  0  0  0  0  0  0  0  0  0  0  0
  152.5114  139.9344  155.8782 O   0  0  0  0  0  0  0  0  0  0  0  0
  150.2651  135.9116  154.6426 N   0  0  0  0  0  0  0  0  0  0  0  0
  149.9447  134.6461  155.2077 C   0  0  0  0  0  0  0  0  0  0  0  0
  150.6348  134.2803  156.3836 C   0  0  0  0  0  0  0  0  0  0  0  0
  150.3944  133.0375  157.0007 C   0  0  0  0  0  0  0  0  0  0  0  0
  149.4580  132.1513  156.4352 C   0  0  0  0  0  0  0  0  0  0  0  0
  149.1611  130.5589  157.1926 S   0  0  0  0  0  0  0  0  0  0  0  0
  148.9401  130.7336  158.6370 O   0  0  0  0  0  0  0  0  0  0  0  0
  148.1663  129.8540  156.3693 O   0  0  0  0  0  0  0  0  0  0  0  0
  150.6780  129.7515  156.9810 N   0  0  0  0  0  0  0  0  0  0  0  0
  151.8581  130.2421  157.7037 C   0  0  0  0  0  0  0  0  0  0  0  0
  152.9823  130.2921  156.6680 C   0  0  0  0  0  0  0  0  0  0  0  0
  152.5936  129.2082  155.6723 C   0  0  0  0  0  0  0  0  0  0  0  0
  151.0685  129.2968  155.6407 C   0  0  0  0  0  0  0  0  0  0  0  0
  148.7713  132.4948  155.2553 C   0  0  0  0  0  0  0  0  0  0  0  0
  149.0169  133.7371  154.6393 C   0  0  0  0  0  0  0  0  0  0  0  0
  152.2224  138.3198  154.0196 H   0  0  0  0  0  0  0  0  0  0  0  0
  150.7274  137.9339  153.2634 H   0  0  0  0  0  0  0  0  0  0  0  0
  148.8649  142.3638  156.5202 H   0  0  0  0  0  0  0  0  0  0  0  0
  152.3382  142.5246  156.5723 H   0  0  0  0  0  0  0  0  0  0  0  0
  151.4673  140.4311  158.5201 H   0  0  0  0  0  0  0  0  0  0  0  0
  153.0589  141.2131  158.4297 H   0  0  0  0  0  0  0  0  0  0  0  0
  151.3226  141.7641  160.5043 H   0  0  0  0  0  0  0  0  0  0  0  0
  152.3345  143.0317  159.7982 H   0  0  0  0  0  0  0  0  0  0  0  0
  149.4689  142.3448  158.9973 H   0  0  0  0  0  0  0  0  0  0  0  0
  150.0875  143.9256  159.4982 H   0  0  0  0  0  0  0  0  0  0  0  0
  149.8478  136.0962  153.7418 H   0  0  0  0  0  0  0  0  0  0  0  0
  151.3555  134.9561  156.8208 H   0  0  0  0  0  0  0  0  0  0  0  0
  150.9295  132.7716  157.9001 H   0  0  0  0  0  0  0  0  0  0  0  0
  151.6758  131.2224  158.1456 H   0  0  0  0  0  0  0  0  0  0  0  0
  152.0942  129.5437  158.5069 H   0  0  0  0  0  0  0  0  0  0  0  0
  152.9864  131.2641  156.1727 H   0  0  0  0  0  0  0  0  0  0  0  0
  153.9679  130.1323  157.1059 H   0  0  0  0  0  0  0  0  0  0  0  0
  153.0464  129.3511  154.6908 H   0  0  0  0  0  0  0  0  0  0  0  0
  152.9020  128.2317  156.0483 H   0  0  0  0  0  0  0  0  0  0  0  0
  150.5976  128.3433  155.3998 H   0  0  0  0  0  0  0  0  0  0  0  0
  150.7520  130.0320  154.9001 H   0  0  0  0  0  0  0  0  0  0  0  0
  148.0629  131.8064  154.8180 H   0  0  0  0  0  0  0  0  0  0  0  0
  148.4902  133.9587  153.7248 H   0  0  0  0  0  0  0  0  0  0  0  0
  1  2  2  0  0  0  0
  2  3  1  0  0  0  0
  2 18  1  0  0  0  0
  3  4  1  0  0  0  0
  3 33  1  0  0  0  0
  3 34  1  0  0  0  0
  4 16  1  0  0  0  0
  4  5  1  0  0  0  0
  5  6  2  0  0  0  0
  5  7  1  0  0  0  0
  7  8  1  0  0  0  0
  7  9  2  0  0  0  0
  9 10  1  0  0  0  0
  9 35  1  0  0  0  0
 10 11  1  0  0  0  0
 10 16  1  0  0  0  0
 11 15  1  0  0  0  0
 11 12  1  0  0  0  0
 11 36  1  0  0  0  0
 12 13  1  0  0  0  0
 12 37  1  0  0  0  0
 12 38  1  0  0  0  0
 13 14  1  0  0  0  0
 13 39  1  0  0  0  0
 13 40  1  0  0  0  0
 14 15  1  0  0  0  0
 14 41  1  0  0  0  0
 14 42  1  0  0  0  0
 16 17  2  0  0  0  0
 18 19  1  0  0  0  0
 18 43  1  0  0  0  0
 19 32  1  0  0  0  0
 19 20  2  0  0  0  0
 20 21  1  0  0  0  0
 20 44  1  0  0  0  0
 21 22  2  0  0  0  0
 21 45  1  0  0  0  0
 22 23  1  0  0  0  0
 22 31  1  0  0  0  0
 23 24  2  0  0  0  0
 23 25  2  0  0  0  0
 23 26  1  0  0  0  0
 26 30  1  0  0  0  0
 26 27  1  0  0  0  0
 27 28  1  0  0  0  0
 27 46  1  0  0  0  0
 27 47  1  0  0  0  0
 28 29  1  0  0  0  0
 28 48  1  0  0  0  0
 28 49  1  0  0  0  0
 29 30  1  0  0  0  0
 29 50  1  0  0  0  0
 29 51  1  0  0  0  0
 30 52  1  0  0  0  0
 30 53  1  0  0  0  0
 31 32  2  0  0  0  0
 31 54  1  0  0  0  0
 32 55  1  0  0  0  0
M  END
> <s_m_source_file>
AV-unprocessed.smi

> <i_m_source_file_index>
131

> <i_lp_mmshare_version>
43012

> <i_f3d_flags>
0

> <s_epik_input>
W0NIMl0xW0NIMl1bQ0gyXVtDSDJdTjFTKD1PKSg9TyljKFtjSF1bY0hdMilbY0hdW2NIXWMyW05IXUMoPU8pW0NIMl1uM2MoPU8pYyhGKVtjSF1uKGMzPU8pW0NAQEhdNFtDSDJdW0NIMl1bQ0gyXU80

> <s_epik_cmdline>
J2VwaWtfcHl0aG9uJywgJy1waCcsICc3LjAnLCAnLXRuJywgJzgnLCAnLW1hJywgJzIwMCcsICctbWV0YWxfYmluZGluZycsICctaW1hZScsICc8aW5maWxlLm1hZT4nLCAnLW9tYWUnLCAnPG91dGZpbGUubWFlPic=

> <r_lp_tautomer_probability>
1

> <r_epik_Ionization_Penalty>
1.92533e-06

> <r_epik_Ionization_Penalty_Charging>
3.88729e-08

> <r_epik_Ionization_Penalty_Neutral>
1.88646e-06

> <r_epik_State_Penalty>
-0

> <r_epik_Charging_Adjusted_Penalty>
3.88729e-08

> <i_epik_Tot_Q>
0

> <i_epik_Tot_abs_Q>
0

> <r_epik_Metal_State_Penalty>
-0

> <b_epik_Metal_Only>
0

> <s_epik_Chemistry_Notes>
This compound contains an acetal/aminal-like group ( X-CH(R)-Y where X, Y are N, S, or O) that may be acid/base labile, releasing an aldehyde.

> <s_lp_Force_Field>
OPLS_2005

> <r_lp_Energy>
42.8804

> <b_lp_Chiralities_Consistent>
1

> <s_lp_Variant>
AV-unprocessed.smi:131-1

> <Gold.Version>
5.8.1

> <Gold.Id.Protein>
6NUR|6NUR_protein|mol2

> <Gold.PLP.Fitness>
54.6861

> <Gold.PLP.PLP>
-44.0354

> <Gold.PLP.part.hbond>
-4.7822

> <Gold.PLP.part.metal>
0.0000

> <Gold.PLP.part.buried>
-0.5794

> <Gold.PLP.part.nonpolar>
-39.7188

> <Gold.PLP.part.repulsive>
0.9315

> <Gold.PLP.ligand.clash>
0.0000

> <Gold.PLP.ligand.torsion>
1.8848

> <Gold.PLP.Chemscore.Hbond>
3.0000

> <Gold.PLP.Chemscore.CHOScore>
0.9082

> <Gold.PLP.Chemscore.Metal>
0.0000

> <Gold.Chemscore.Hbonds>
donor molecule, donor type, donor heavy atom, donor atom, acceptor molecule, acceptor atom, score
      L1  H    18    43       P1  7948  0.86
      P1  H  7997  8009       L1    17  1.00
      P1  H 10752 10763       L1     1  0.20
      L1  C     9    35       P1  8028  0.94

> <Gold.PLP.Chemscore.Internal.Correction>
2.6958

> <Gold.Rescore>
     Score         DG    S(hbond)    S(metal)    S(lipo)     H(rot)  DE(clash)    DE(int)     intcor
     13.14     -17.69       1.97        0.00      90.17       1.92       0.31       4.24       ----

> <Gold.Chemscore.Fitness>
13.1378

> <Gold.Chemscore.DG>
-17.6926

> <Gold.Chemscore.ZeroCoef>
-5.4800

> <Gold.Chemscore.Hbond>
1.9669

> <Gold.Chemscore.Metal>
0.0000

> <Gold.Chemscore.Lipo>
90.1671

> <Gold.Chemscore.Internal_Hbond>
0.0000

> <Gold.Chemscore.DEClash>
0.3149

> <Gold.Chemscore.DEInternal>
4.2399

> <Gold.Chemscore.Rot>
1.9166

> <Gold.Chemscore.Internal.Correction>
   9.000000E+99

> <Gold.Chemscore.Hbonds>
donor molecule, donor type, donor heavy atom, donor atom, acceptor molecule, acceptor atom, score
      L1  H    18    43       P1  7948  0.16
      P1  H  7997  8009       L1    17  0.99

> <Gold.Chemscore.Hbond.Weighted>
-6.5694

> <Gold.Chemscore.Metal.Weighted>
-0.0000

> <Gold.Chemscore.Lipo.Weighted>
-10.5496

> <Gold.Chemscore.Internal_Hbond.Weighted>
0.0000

> <Gold.Chemscore.DEClash.Weighted>
0.3149

> <Gold.Chemscore.DEInternal.Weighted>
4.2399

> <Gold.Chemscore.Rot.Weighted>
4.9064

> <Gold.Chemscore.Internal.Correction.Weighted>
   9.000000E+99

> <Gold.Protein.RotatedTorsions>
[ 6907 6896 6895 6894 ] final  107.55 input  -60.11 | X-H torsion
[ 7974 7965 7964 7962 ] final  129.97 input  175.53 | X-H torsion
[ 8008 7997 7996 7995 ] final -144.25 input   59.86 | X-H torsion
[ 10167 10162 10161 10158 ] final  120.04 input  -65.29 | X-H torsion
[ 10718 10713 10712 10709 ] final  154.86 input   66.30 | X-H torsion
[ 10763 10752 10751 10750 ] final   86.28 input  -60.55 | X-H torsion
[ 11005 11000 10999 10996 ] final   78.87 input  -57.11 | X-H torsion

> <Gold.Protein.ActiveResidues>
 VAL166  LYS551  ARG553  GLY616  TRP617  ASP618  TYR619  PRO620  LYS621  CYS622 
 ASP623  PHE694  ASN695  SER759  ASP760  ASP761  ALA762  ILE779  LEU786  VAL792 
 PHE793  MET794  SER795  GLU796  ALA797  LYS798  CYS799  TRP800  GLU811  SER814 

> <Gold.Protein.RotatedAtoms>
  152.5149  133.9218  159.7537 H   0  0  0  0  0  0  0  0  0  0  0  0  # atno 6907 bound_to 6896
  150.9588  133.6460  159.2765 H   0  0  0  0  0  0  0  0  0  0  0  0  # atno 6908 bound_to 6896
  151.3712  135.0928  159.9519 H   0  0  0  0  0  0  0  0  0  0  0  0  # atno 6909 bound_to 6896
  145.0229  139.4115  143.5188 H   0  0  0  0  0  0  0  0  0  0  0  0  # atno 7974 bound_to 7965
  155.5239  140.0594  157.2901 H   0  0  0  0  0  0  0  0  0  0  0  0  # atno 8008 bound_to 7997
  154.4508  140.1947  156.0472 H   0  0  0  0  0  0  0  0  0  0  0  0  # atno 8009 bound_to 7997
  156.0699  140.3261  155.7567 H   0  0  0  0  0  0  0  0  0  0  0  0  # atno 8010 bound_to 7997
  139.6007  144.7056  151.3068 H   0  0  0  0  0  0  0  0  0  0  0  0  # atno 10167 bound_to 10162
  157.2260  131.0729  151.1882 H   0  0  0  0  0  0  0  0  0  0  0  0  # atno 10718 bound_to 10713
  153.1555  135.4586  154.9698 H   0  0  0  0  0  0  0  0  0  0  0  0  # atno 10763 bound_to 10752
  154.7858  135.3203  154.7891 H   0  0  0  0  0  0  0  0  0  0  0  0  # atno 10764 bound_to 10752
  153.8390  135.6932  153.4859 H   0  0  0  0  0  0  0  0  0  0  0  0  # atno 10765 bound_to 10752
  139.9195  134.7798  156.1706 H   0  0  0  0  0  0  0  0  0  0  0  0  # atno 11005 bound_to 11000
  146.3488  139.9737  142.8703 LP  0  0  0  0  0  0  0  0  0  0  0  0  # atno 17320 bound_to 7965
  145.1872  140.9795  143.4232 LP  0  0  0  0  0  0  0  0  0  0  0  0  # atno 17321 bound_to 7965
  140.7248  143.7036  150.7825 LP  0  0  0  0  0  0  0  0  0  0  0  0  # atno 17342 bound_to 10162
  140.0611  143.5153  152.2627 LP  0  0  0  0  0  0  0  0  0  0  0  0  # atno 17343 bound_to 10162
  157.3527  130.7090  149.6451 LP  0  0  0  0  0  0  0  0  0  0  0  0  # atno 17370 bound_to 10713
  155.9678  130.4248  150.4624 LP  0  0  0  0  0  0  0  0  0  0  0  0  # atno 17371 bound_to 10713
  141.0703  133.6800  156.2127 LP  0  0  0  0  0  0  0  0  0  0  0  0  # atno 17394 bound_to 11000
  140.6518  134.5059  157.5578 LP  0  0  0  0  0  0  0  0  0  0  0  0  # atno 17395 bound_to 11000

$$$$
