#       Name:                AV-unprocessed.smi:2973
#       Creating user name   scv26
#       Creation time:       Fri Mar 27 16:25:15 2020


#       File generated by GOLD software.
#

@<TRIPOS>MOLECULE
AV-unprocessed.smi:2973
    56    58     1
SMALL
NO_CHARGES


@<TRIPOS>ATOM
      1 ****        -4.8878   1.7413   0.1358 C.3            1 S1                 0.0000
      2 ****        -3.8049   2.7255   0.6265 C.3            1 S1                 0.0000
      3 ****        -3.8523   2.8672   2.1633 C.3            1 S1                 0.0000
      4 ****        -2.8491   3.9163   2.6675 C.3            1 S1                 0.0000
      5 ****        -1.4206   3.5953   2.2062 C.3            1 S1                 0.0000
      6 ****        -1.3491   3.4478   0.6756 C.3            1 S1                 0.0000
      7 ****        -2.3615   2.4169   0.1151 C.3            1 S1                 0.0000
      8 ****        -2.3079   2.4210  -1.3366 N.am           1 S1                 0.0000
      9 ****        -1.9049   1.2542  -1.8546 C.2            1 S1                 0.0000
     10 ****        -1.7729   1.0193  -3.0546 O.2            1 S1                 0.0000
     11 ****        -1.6771   0.3993  -0.8424 N.am           1 S1                 0.0000
     12 ****        -1.2067  -0.9811  -1.0186 C.3            1 S1                 0.0000
     13 ****         0.3215  -1.1037  -1.1021 C.2            1 S1                 0.0000
     14 ****         1.0525  -0.1436  -0.8535 O.2            1 S1                 0.0000
     15 ****         0.7896  -2.3114  -1.4502 N.am           1 S1                 0.0000
     16 ****         2.1994  -2.6568  -1.5906 C.3            1 S1                 0.0000
     17 ****         2.8533  -2.9399  -0.2277 C.3            1 S1                 0.0000
     18 ****         4.3057  -3.3567  -0.3633 C.ar           1 S1                 0.0000
     19 ****         4.6781  -4.7149  -0.2674 C.ar           1 S1                 0.0000
     20 ****         6.0395  -5.0485  -0.4050 C.ar           1 S1                 0.0000
     21 ****         6.9709  -4.0174  -0.6336 C.ar           1 S1                 0.0000
     22 ****         6.4974  -2.6926  -0.7149 C.ar           1 S1                 0.0000
     23 ****         5.1946  -2.3619  -0.5836 N.ar           1 S1                 0.0000
     24 ****        -1.9026   0.9751   0.3466 C.2            1 S1                 0.0000
     25 ****        -1.7723   0.4514   1.4532 O.2            1 S1                 0.0000
     26 ****        -4.7300   0.7361   0.5277 H              1 S1                 0.0000
     27 ****        -4.9108   1.6764  -0.9521 H              1 S1                 0.0000
     28 ****        -5.8782   2.0632   0.4585 H              1 S1                 0.0000
     29 ****        -4.0786   3.6989   0.2163 H              1 S1                 0.0000
     30 ****        -4.8564   3.1550   2.4766 H              1 S1                 0.0000
     31 ****        -3.6522   1.9078   2.6408 H              1 S1                 0.0000
     32 ****        -3.1377   4.9021   2.3006 H              1 S1                 0.0000
     33 ****        -2.8842   3.9704   3.7559 H              1 S1                 0.0000
     34 ****        -0.7429   4.3850   2.5313 H              1 S1                 0.0000
     35 ****        -1.0742   2.6825   2.6907 H              1 S1                 0.0000
     36 ****        -1.5384   4.4208   0.2198 H              1 S1                 0.0000
     37 ****        -0.3314   3.1785   0.3880 H              1 S1                 0.0000
     38 ****        -2.5436   3.2334  -1.8878 H              1 S1                 0.0000
     39 ****        -1.5601  -1.6067  -0.1973 H              1 S1                 0.0000
     40 ****        -1.6455  -1.4058  -1.9232 H              1 S1                 0.0000
     41 ****         0.1200  -3.0440  -1.6365 H              1 S1                 0.0000
     42 ****         2.2672  -3.5417  -2.2239 H              1 S1                 0.0000
     43 ****         2.7294  -1.8592  -2.1143 H              1 S1                 0.0000
     44 ****         2.8007  -2.0558   0.4095 H              1 S1                 0.0000
     45 ****         2.3028  -3.7245   0.2930 H              1 S1                 0.0000
     46 ****         3.9401  -5.4843  -0.0933 H              1 S1                 0.0000
     47 ****         6.3633  -6.0766  -0.3366 H              1 S1                 0.0000
     48 ****         8.0227  -4.2359  -0.7438 H              1 S1                 0.0000
     49 ****         7.1831  -1.8769  -0.8907 H              1 S1                 0.0000
     50 ****        -1.9727   1.7308  -3.7283 LP             1 S1                 0.0000
     51 ****        -1.4657   0.1168  -3.3566 LP             1 S1                 0.0000
     52 ****         0.6526   0.7348  -0.5919 LP             1 S1                 0.0000
     53 ****         2.0458  -0.2428  -0.9133 LP             1 S1                 0.0000
     54 ****         4.8962  -1.4096  -0.6474 LP             1 S1                 0.0000
     55 ****        -1.9716   0.9757   2.2811 LP             1 S1                 0.0000
     56 ****        -1.4671  -0.4983   1.5241 LP             1 S1                 0.0000
@<TRIPOS>BOND
    1    1    2 1     
    2    1   26 1     
    3    1   27 1     
    4    1   28 1     
    5    2    7 1     
    6    2    3 1     
    7    2   29 1     
    8    3    4 1     
    9    3   30 1     
   10    3   31 1     
   11    4    5 1     
   12    4   32 1     
   13    4   33 1     
   14    5    6 1     
   15    5   34 1     
   16    5   35 1     
   17    6    7 1     
   18    6   36 1     
   19    6   37 1     
   20    7   24 1     
   21    7    8 1     
   22    8    9 am    
   23    8   38 1     
   24    9   10 2     
   25    9   11 am    
   26   11   12 1     
   27   11   24 am    
   28   12   13 1     
   29   12   39 1     
   30   12   40 1     
   31   13   14 2     
   32   13   15 am    
   33   15   16 1     
   34   15   41 1     
   35   16   17 1     
   36   16   42 1     
   37   16   43 1     
   38   17   18 1     
   39   17   44 1     
   40   17   45 1     
   41   18   23 ar    
   42   18   19 ar    
   43   19   20 ar    
   44   19   46 1     
   45   20   21 ar    
   46   20   47 1     
   47   21   22 ar    
   48   21   48 1     
   49   22   23 ar    
   50   22   49 1     
   51   24   25 2     
   52   10   50 1     
   53   10   51 1     
   54   14   52 1     
   55   14   53 1     
   56   23   54 1     
   57   25   55 1     
   58   25   56 1     
@<TRIPOS>SUBSTRUCTURE
      1 S1             1
@<TRIPOS>SET
LONE_PAIRS      STATIC     ATOMS    <user>   **** ""
7 50 51 52 53 54 55 56
DONOR_HYDROGENS      STATIC     ATOMS    <user>   **** ""
2 38 41
ATOM$BLUE        STATIC     ATOMS    COLORGROUP SYSTEM
7 50 51 52 53 54 55 56
ATOM$RED        STATIC     ATOMS    COLORGROUP SYSTEM
2 38 41
