#       Name:                AV-unprocessed.smi:1434
#       Creating user name   scv26
#       Creation time:       Fri Mar 27 05:52:14 2020


#       File generated by GOLD software.
#

@<TRIPOS>MOLECULE
AV-unprocessed.smi:1434
    48    49     1
SMALL
NO_CHARGES


@<TRIPOS>ATOM
      1 ****        -5.3491   4.5642   2.0625 C.3            1 S1                 0.0000
      2 ****        -4.0386   3.2981   2.2990 S.o2           1 S1                 0.0000
      3 ****        -2.9045   3.9076   3.0095 O.2            1 S1                 0.0000
      4 ****        -4.6636   2.0719   2.8179 O.2            1 S1                 0.0000
      5 ****        -3.5280   2.9853   0.6816 N.3            1 S1                 0.0000
      6 ****        -2.7538   1.7719   0.4168 C.3            1 S1                 0.0000
      7 ****        -3.6789   0.6433  -0.0862 C.3            1 S1                 0.0000
      8 ****        -2.8751  -0.5825  -0.5611 C.3            1 S1                 0.0000
      9 ****        -1.7595  -0.1683  -1.5385 C.3            1 S1                 0.0000
     10 ****        -0.9046   0.8360  -0.8817 N.am           1 S1                 0.0000
     11 ****         0.3199   0.6112  -0.3424 C.2            1 S1                 0.0000
     12 ****         0.8827   1.4054   0.4124 O.2            1 S1                 0.0000
     13 ****         0.9050  -0.5324  -0.7338 N.am           1 S1                 0.0000
     14 ****         2.2246  -0.9734  -0.3040 C.3            1 S1                 0.0000
     15 ****         2.6714  -2.2065  -1.1004 C.3            1 S1                 0.0000
     16 ****         4.0457  -2.6900  -0.6800 C.ar           1 S1                 0.0000
     17 ****         5.2112  -2.3653  -1.4078 C.ar           1 S1                 0.0000
     18 ****         6.4604  -2.8386  -0.9548 C.ar           1 S1                 0.0000
     19 ****         6.5180  -3.6248   0.2147 C.ar           1 S1                 0.0000
     20 ****         5.3232  -3.9176   0.9032 C.ar           1 S1                 0.0000
     21 ****         4.1457  -3.4454   0.4378 N.pl3          1 S1                 1.0000
     22 ****        -1.6493   2.0726  -0.6147 C.3            1 S1                 0.0000
     23 ****        -5.7682   4.8358   3.0313 H              1 S1                 0.0000
     24 ****        -6.1372   4.1584   1.4287 H              1 S1                 0.0000
     25 ****        -4.9223   5.4492   1.5915 H              1 S1                 0.0000
     26 ****        -3.0729   3.8035   0.2775 H              1 S1                 0.0000
     27 ****        -2.2762   1.4553   1.3457 H              1 S1                 0.0000
     28 ****        -4.3826   0.3485   0.6927 H              1 S1                 0.0000
     29 ****        -4.2793   1.0129  -0.9188 H              1 S1                 0.0000
     30 ****        -2.4346  -1.0858   0.3006 H              1 S1                 0.0000
     31 ****        -3.5416  -1.3044  -1.0340 H              1 S1                 0.0000
     32 ****        -1.2213  -1.0523  -1.8801 H              1 S1                 0.0000
     33 ****        -2.1975   0.2672  -2.4378 H              1 S1                 0.0000
     34 ****         0.3985  -1.1328  -1.3681 H              1 S1                 0.0000
     35 ****         2.9440  -0.1640  -0.4407 H              1 S1                 0.0000
     36 ****         2.1927  -1.2014   0.7626 H              1 S1                 0.0000
     37 ****         1.9548  -3.0188  -0.9695 H              1 S1                 0.0000
     38 ****         2.6856  -1.9768  -2.1669 H              1 S1                 0.0000
     39 ****         5.1518  -1.7589  -2.3000 H              1 S1                 0.0000
     40 ****         7.3636  -2.6001  -1.4973 H              1 S1                 0.0000
     41 ****         7.4651  -3.9960   0.5785 H              1 S1                 0.0000
     42 ****         5.2737  -4.5095   1.8054 H              1 S1                 0.0000
     43 ****        -2.0867   2.4375  -1.5455 H              1 S1                 0.0000
     44 ****        -1.0043   2.8773  -0.2577 H              1 S1                 0.0000
     45 ****         3.2940  -3.6680   0.9536 H              1 S1                 0.0000
     46 ****        -4.3940   2.7882   0.2219 LP             1 S1                 0.0000
     47 ****         0.4359   2.2664   0.6555 LP             1 S1                 0.0000
     48 ****         1.7863   1.1892   0.7820 LP             1 S1                 0.0000
@<TRIPOS>BOND
    1    1    2 1     
    2    1   23 1     
    3    1   24 1     
    4    1   25 1     
    5    2    3 2     
    6    2    4 2     
    7    2    5 1     
    8    5    6 1     
    9    5   26 1     
   10    6   22 1     
   11    6    7 1     
   12    6   27 1     
   13    7    8 1     
   14    7   28 1     
   15    7   29 1     
   16    8    9 1     
   17    8   30 1     
   18    8   31 1     
   19    9   10 1     
   20    9   32 1     
   21    9   33 1     
   22   10   11 am    
   23   10   22 1     
   24   11   12 2     
   25   11   13 am    
   26   13   14 1     
   27   13   34 1     
   28   14   15 1     
   29   14   35 1     
   30   14   36 1     
   31   15   16 1     
   32   15   37 1     
   33   15   38 1     
   34   16   21 ar    
   35   16   17 ar    
   36   17   18 ar    
   37   17   39 1     
   38   18   19 ar    
   39   18   40 1     
   40   19   20 ar    
   41   19   41 1     
   42   20   21 ar    
   43   20   42 1     
   44   21   45 1     
   45   22   43 1     
   46   22   44 1     
   47    5   46 1     
   48   12   47 1     
   49   12   48 1     
@<TRIPOS>SUBSTRUCTURE
      1 S1             1
@<TRIPOS>SET
LONE_PAIRS      STATIC     ATOMS    <user>   **** ""
5 3 4 46 47 48
DONOR_HYDROGENS      STATIC     ATOMS    <user>   **** ""
3 26 34 45
ATOM$BLUE        STATIC     ATOMS    COLORGROUP SYSTEM
5 3 4 46 47 48
ATOM$RED        STATIC     ATOMS    COLORGROUP SYSTEM
3 26 34 45
