#       Name:                AV-unprocessed.smi:527
#       Creating user name   scv26
#       Creation time:       Thu Mar 26 23:29:46 2020


#       File generated by GOLD software.
#

@<TRIPOS>MOLECULE
AV-unprocessed.smi:527
    47    48     1
SMALL
NO_CHARGES


@<TRIPOS>ATOM
      1 ****        -4.2748  -1.1215  -1.3617 C.3            1 S1                 0.0000
      2 ****        -3.6009  -0.4499  -0.1536 C.3            1 S1                 0.0000
      3 ****        -4.0002  -1.1270   1.1734 C.3            1 S1                 0.0000
      4 ****        -3.4019  -0.3922   2.3835 C.3            1 S1                 0.0000
      5 ****        -1.8777  -0.2456   2.2599 C.3            1 S1                 0.0000
      6 ****        -1.4910   0.4386   0.9348 C.3            1 S1                 0.0000
      7 ****        -0.0402   0.5986   0.8625 N.am           1 S1                 0.0000
      8 ****         0.6026   1.5556   0.1772 C.2            1 S1                 0.0000
      9 ****         0.0238   2.4290  -0.4727 O.2            1 S1                 0.0000
     10 ****         1.9369   1.4201   0.2979 N.am           1 S1                 0.0000
     11 ****         2.8952   2.1951  -0.2509 C.2            1 S1                 0.0000
     12 ****         2.6926   3.1877  -0.9527 O.2            1 S1                 0.0000
     13 ****         4.3348   1.7709   0.0427 C.3            1 S1                 0.0000
     14 ****         4.7575   0.7162  -0.8590 N.pl3          1 S1                 0.0000
     15 ****         5.3776   0.8661  -2.0930 C.2            1 S1                 0.0000
     16 ****         5.5780  -0.4023  -2.5891 C.2            1 S1                 0.0000
     17 ****         5.0921  -1.3423  -1.6831 N.2            1 S1                 0.0000
     18 ****         4.6222  -0.6061  -0.6847 C.2            1 S1                 0.0000
     19 ****        -2.0599  -0.3255  -0.2921 C.3            1 S1                 0.0000
     20 ****        -1.3512  -1.6758  -0.5502 C.3            1 S1                 0.0000
     21 ****        -4.0296  -2.1815  -1.4256 H              1 S1                 0.0000
     22 ****        -3.9718  -0.6478  -2.2956 H              1 S1                 0.0000
     23 ****        -5.3602  -1.0446  -1.2922 H              1 S1                 0.0000
     24 ****        -3.9939   0.5676  -0.1192 H              1 S1                 0.0000
     25 ****        -5.0865  -1.1472   1.2668 H              1 S1                 0.0000
     26 ****        -3.6768  -2.1683   1.1775 H              1 S1                 0.0000
     27 ****        -3.8546   0.5967   2.4663 H              1 S1                 0.0000
     28 ****        -3.6523  -0.9227   3.3024 H              1 S1                 0.0000
     29 ****        -1.5012   0.3355   3.1026 H              1 S1                 0.0000
     30 ****        -1.4073  -1.2267   2.3324 H              1 S1                 0.0000
     31 ****        -1.9379   1.4349   0.9503 H              1 S1                 0.0000
     32 ****         0.5131  -0.0793   1.3656 H              1 S1                 0.0000
     33 ****         2.2587   0.6445   0.8576 H              1 S1                 0.0000
     34 ****         5.0066   2.6231  -0.0687 H              1 S1                 0.0000
     35 ****         4.4266   1.4208   1.0719 H              1 S1                 0.0000
     36 ****         5.6152   1.8358  -2.5055 H              1 S1                 0.0000
     37 ****         6.0294  -0.7078  -3.5214 H              1 S1                 0.0000
     38 ****         4.1641  -1.0385   0.1929 H              1 S1                 0.0000
     39 ****        -1.8691   0.2912  -1.1718 H              1 S1                 0.0000
     40 ****        -1.5003  -2.3806   0.2669 H              1 S1                 0.0000
     41 ****        -0.2767  -1.5465  -0.6792 H              1 S1                 0.0000
     42 ****        -1.7130  -2.1488  -1.4624 H              1 S1                 0.0000
     43 ****        -0.9754   2.4472  -0.5070 LP             1 S1                 0.0000
     44 ****         0.5537   3.1192  -0.9656 LP             1 S1                 0.0000
     45 ****         1.7562   3.4745  -1.1548 LP             1 S1                 0.0000
     46 ****         3.4647   3.7064  -1.3201 LP             1 S1                 0.0000
     47 ****         5.0966  -2.3388  -1.7660 LP             1 S1                 0.0000
@<TRIPOS>BOND
    1    1    2 1     
    2    1   21 1     
    3    1   22 1     
    4    1   23 1     
    5    2   19 1     
    6    2    3 1     
    7    2   24 1     
    8    3    4 1     
    9    3   25 1     
   10    3   26 1     
   11    4    5 1     
   12    4   27 1     
   13    4   28 1     
   14    5    6 1     
   15    5   29 1     
   16    5   30 1     
   17    6    7 1     
   18    6   19 1     
   19    6   31 1     
   20    7    8 1     
   21    7   32 1     
   22    8    9 2     
   23    8   10 1     
   24   10   11 1     
   25   10   33 1     
   26   11   12 2     
   27   11   13 1     
   28   13   14 1     
   29   13   34 1     
   30   13   35 1     
   31   14   18 1     
   32   14   15 1     
   33   15   16 2     
   34   15   36 1     
   35   16   17 1     
   36   16   37 1     
   37   17   18 2     
   38   18   38 1     
   39   19   20 1     
   40   19   39 1     
   41   20   40 1     
   42   20   41 1     
   43   20   42 1     
   44    9   43 1     
   45    9   44 1     
   46   12   45 1     
   47   12   46 1     
   48   17   47 1     
@<TRIPOS>SUBSTRUCTURE
      1 S1             1
@<TRIPOS>SET
LONE_PAIRS      STATIC     ATOMS    <user>   **** ""
5 43 44 45 46 47
DONOR_HYDROGENS      STATIC     ATOMS    <user>   **** ""
2 32 33
ATOM$BLUE        STATIC     ATOMS    COLORGROUP SYSTEM
5 43 44 45 46 47
ATOM$RED        STATIC     ATOMS    COLORGROUP SYSTEM
2 32 33
