AV-unprocessed.smi:1899|AV-procd|sdf|7706|dock2
  -GOLD-   22720 9443D 1   1.00000     0.00000
 Structure written by MMmdl.
 34 35  0  0  0  0  0  0  0  0  2 V2000
  152.5328  140.3465  157.3086 O   0  0  0  0  0  0  0  0  0  0  0  0
  151.6480  141.2000  157.2441 C   0  0  0  0  0  0  0  0  0  0  0  0
  150.6896  141.1945  156.3048 N   0  0  0  0  0  0  0  0  0  0  0  0
  150.5441  140.1932  155.2520 C   0  0  0  0  0  0  0  0  0  0  0  0
  149.1701  139.4943  155.2745 C   0  0  0  0  0  0  0  0  0  0  0  0
  148.1059  140.3218  154.6985 N   0  0  0  0  0  0  0  0  0  0  0  0
  148.0173  141.6900  154.7113 C   0  0  0  0  0  0  0  0  0  0  0  0
  146.8552  142.0118  154.0584 C   0  0  0  0  0  0  0  0  0  0  0  0
  146.2844  140.8275  153.6752 N   0  3  0  0  0  0  0  0  0  0  0  0
  147.0477  139.8010  154.0633 C   0  0  0  0  0  0  0  0  0  0  0  0
  151.5900  142.3348  158.2745 C   0  0  1  0  0  0  0  0  0  0  0  0
  152.7540  142.2227  159.2860 C   0  0  0  0  0  0  0  0  0  0  0  0
  152.8756  143.4596  160.1583 C   0  0  0  0  0  0  0  0  0  0  0  0
  152.2854  144.6313  159.8657 C   0  0  0  0  0  0  0  0  0  0  0  0
  151.4347  144.8531  158.6275 C   0  0  0  0  0  0  0  0  0  0  0  0
  151.5963  143.7199  157.5964 C   0  0  0  0  0  0  0  0  0  0  0  0
  150.0089  141.9406  156.3213 H   0  0  0  0  0  0  0  0  0  0  0  0
  150.6944  140.6856  154.2909 H   0  0  0  0  0  0  0  0  0  0  0  0
  151.3401  139.4527  155.3451 H   0  0  0  0  0  0  0  0  0  0  0  0
  149.2134  138.5693  154.6984 H   0  0  0  0  0  0  0  0  0  0  0  0
  148.8823  139.2153  156.2890 H   0  0  0  0  0  0  0  0  0  0  0  0
  148.7677  142.3160  155.1722 H   0  0  0  0  0  0  0  0  0  0  0  0
  146.4037  142.9696  153.8437 H   0  0  0  0  0  0  0  0  0  0  0  0
  146.8467  138.7566  153.9011 H   0  0  0  0  0  0  0  0  0  0  0  0
  150.6523  142.2451  158.8268 H   0  0  0  0  0  0  0  0  0  0  0  0
  152.5998  141.3568  159.9310 H   0  0  0  0  0  0  0  0  0  0  0  0
  153.7086  142.0748  158.7789 H   0  0  0  0  0  0  0  0  0  0  0  0
  153.4834  143.3722  161.0471 H   0  0  0  0  0  0  0  0  0  0  0  0
  152.4003  145.4719  160.5345 H   0  0  0  0  0  0  0  0  0  0  0  0
  150.3937  144.9310  158.9426 H   0  0  0  0  0  0  0  0  0  0  0  0
  151.7019  145.8079  158.1738 H   0  0  0  0  0  0  0  0  0  0  0  0
  152.5369  143.8594  157.0609 H   0  0  0  0  0  0  0  0  0  0  0  0
  150.8046  143.7897  156.8490 H   0  0  0  0  0  0  0  0  0  0  0  0
  145.4115  140.7388  153.1700 H   0  0  0  0  0  0  0  0  0  0  0  0
  1  2  2  0  0  0  0
  2  3  1  0  0  0  0
  2 11  1  0  0  0  0
  3  4  1  0  0  0  0
  3 17  1  0  0  0  0
  4  5  1  0  0  0  0
  4 18  1  0  0  0  0
  4 19  1  0  0  0  0
  5  6  1  0  0  0  0
  5 20  1  0  0  0  0
  5 21  1  0  0  0  0
  6 10  1  0  0  0  0
  6  7  1  0  0  0  0
  7  8  2  0  0  0  0
  7 22  1  0  0  0  0
  8  9  1  0  0  0  0
  8 23  1  0  0  0  0
  9 10  2  0  0  0  0
  9 34  1  0  0  0  0
 10 24  1  0  0  0  0
 11 16  1  0  0  0  0
 11 12  1  0  0  0  0
 11 25  1  0  0  0  0
 12 13  1  0  0  0  0
 12 26  1  0  0  0  0
 12 27  1  0  0  0  0
 13 14  2  0  0  0  0
 13 28  1  0  0  0  0
 14 15  1  0  0  0  0
 14 29  1  0  0  0  0
 15 16  1  0  0  0  0
 15 30  1  0  0  0  0
 15 31  1  0  0  0  0
 16 32  1  0  0  0  0
 16 33  1  0  0  0  0
M  CHG  1   9   1
M  END
> <s_m_source_file>
AV-unprocessed.smi

> <i_m_source_file_index>
1899

> <i_lp_mmshare_version>
43012

> <i_f3d_flags>
0

> <s_epik_input>
W0NIMl0xW0NIMl1bQ0hdPVtDSF1bQ0gyXVtDQEhdMUMoPU8pW05IXVtDSDJdW0NIMl1uMltjSF1bY0hdbltjSF0y

> <s_epik_cmdline>
J2VwaWtfcHl0aG9uJywgJy1waCcsICc3LjAnLCAnLXRuJywgJzgnLCAnLW1hJywgJzIwMCcsICctbWV0YWxfYmluZGluZycsICctaW1hZScsICc8aW5maWxlLm1hZT4nLCAnLW9tYWUnLCAnPG91dGZpbGUubWFlPic=

> <r_lp_tautomer_probability>
1

> <r_epik_Ionization_Penalty>
0.268283

> <r_epik_Ionization_Penalty_Charging>
0

> <r_epik_Ionization_Penalty_Neutral>
0.268283

> <r_epik_State_Penalty>
0.260312

> <r_epik_Charging_Adjusted_Penalty>
0.260312

> <i_epik_Tot_Q>
1

> <i_epik_Tot_abs_Q>
1

> <r_epik_Metal_State_Penalty>
0.545819

> <b_epik_Metal_Only>
0

> <s_lp_Force_Field>
OPLS_2005

> <r_lp_Energy>
11.7263

> <b_lp_Chiralities_Consistent>
1

> <s_lp_Variant>
AV-unprocessed.smi:1899-2

> <Gold.Version>
5.8.1

> <Gold.Id.Protein>
6NUR|6NUR_protein|mol2

> <Gold.PLP.Fitness>
48.9936

> <Gold.PLP.PLP>
-37.9759

> <Gold.PLP.part.hbond>
-2.0000

> <Gold.PLP.part.metal>
0.0000

> <Gold.PLP.part.buried>
-3.9250

> <Gold.PLP.part.nonpolar>
-31.4663

> <Gold.PLP.part.repulsive>
0.1238

> <Gold.PLP.ligand.clash>
0.0000

> <Gold.PLP.ligand.torsion>
0.4704

> <Gold.PLP.Chemscore.Hbond>
2.9760

> <Gold.PLP.Chemscore.CHOScore>
1.0000

> <Gold.PLP.Chemscore.Metal>
0.0000

> <Gold.Chemscore.Hbonds>
donor molecule, donor type, donor heavy atom, donor atom, acceptor molecule, acceptor atom, score
      L1  H     9    34       P1 10175  2.00
      P1  H  7997  8010       L1     1  0.96
      L1  C     7    22       P1  8028  1.00

> <Gold.PLP.Chemscore.Internal.Correction>
0.0305

> <Gold.Rescore>
     Score         DG    S(hbond)    S(metal)    S(lipo)     H(rot)  DE(clash)    DE(int)     intcor
     17.96     -18.26       1.95        0.00      94.68       1.87       0.11       0.19       ----

> <Gold.Chemscore.Fitness>
17.9603

> <Gold.Chemscore.DG>
-18.2578

> <Gold.Chemscore.ZeroCoef>
-5.4800

> <Gold.Chemscore.Hbond>
1.9458

> <Gold.Chemscore.Metal>
0.0000

> <Gold.Chemscore.Lipo>
94.6774

> <Gold.Chemscore.Internal_Hbond>
0.0000

> <Gold.Chemscore.DEClash>
0.1085

> <Gold.Chemscore.DEInternal>
0.1890

> <Gold.Chemscore.Rot>
1.8743

> <Gold.Chemscore.Internal.Correction>
   9.000000E+99

> <Gold.Chemscore.Hbonds>
donor molecule, donor type, donor heavy atom, donor atom, acceptor molecule, acceptor atom, score
      L1  H     9    34       P1 10175  0.74
      P1  H  7997  8010       L1     1  0.91

> <Gold.Chemscore.Hbond.Weighted>
-6.4988

> <Gold.Chemscore.Metal.Weighted>
-0.0000

> <Gold.Chemscore.Lipo.Weighted>
-11.0773

> <Gold.Chemscore.Internal_Hbond.Weighted>
0.0000

> <Gold.Chemscore.DEClash.Weighted>
0.1085

> <Gold.Chemscore.DEInternal.Weighted>
0.1890

> <Gold.Chemscore.Rot.Weighted>
4.7983

> <Gold.Chemscore.Internal.Correction.Weighted>
   9.000000E+99

> <Gold.Protein.RotatedTorsions>
[ 6907 6896 6895 6894 ] final  -58.31 input  -60.11 | X-H torsion
[ 7974 7965 7964 7962 ] final  -55.99 input  175.53 | X-H torsion
[ 8008 7997 7996 7995 ] final   60.18 input   59.86 | X-H torsion
[ 10167 10162 10161 10158 ] final  152.74 input  -65.29 | X-H torsion
[ 10718 10713 10712 10709 ] final  134.91 input   66.30 | X-H torsion
[ 10763 10752 10751 10750 ] final   -9.30 input  -60.55 | X-H torsion
[ 11005 11000 10999 10996 ] final   34.00 input  -57.11 | X-H torsion

> <Gold.Protein.ActiveResidues>
 VAL166  LYS551  ARG553  GLY616  TRP617  ASP618  TYR619  PRO620  LYS621  CYS622 
 ASP623  PHE694  ASN695  SER759  ASP760  ASP761  ALA762  ILE779  LEU786  VAL792 
 PHE793  MET794  SER795  GLU796  ALA797  LYS798  CYS799  TRP800  GLU811  SER814 

> <Gold.Protein.RotatedAtoms>
  150.8017  134.7115  159.6605 H   0  0  0  0  0  0  0  0  0  0  0  0  # atno 6907 bound_to 6896
  152.4134  134.6081  160.0028 H   0  0  0  0  0  0  0  0  0  0  0  0  # atno 6908 bound_to 6896
  151.6318  133.3294  159.3146 H   0  0  0  0  0  0  0  0  0  0  0  0  # atno 6909 bound_to 6896
  145.8678  140.8238  142.9904 H   0  0  0  0  0  0  0  0  0  0  0  0  # atno 7974 bound_to 7965
  155.5782  140.3491  155.4533 H   0  0  0  0  0  0  0  0  0  0  0  0  # atno 8008 bound_to 7997
  156.0393  140.1292  157.0198 H   0  0  0  0  0  0  0  0  0  0  0  0  # atno 8009 bound_to 7997
  154.4385  140.1027  156.6200 H   0  0  0  0  0  0  0  0  0  0  0  0  # atno 8010 bound_to 7997
  139.4831  144.5332  151.7688 H   0  0  0  0  0  0  0  0  0  0  0  0  # atno 10167 bound_to 10162
  157.4625  131.1074  150.9902 H   0  0  0  0  0  0  0  0  0  0  0  0  # atno 10718 bound_to 10713
  153.4528  135.7015  153.6098 H   0  0  0  0  0  0  0  0  0  0  0  0  # atno 10763 bound_to 10752
  153.4426  135.3776  155.2237 H   0  0  0  0  0  0  0  0  0  0  0  0  # atno 10764 bound_to 10752
  154.8728  135.3977  154.3943 H   0  0  0  0  0  0  0  0  0  0  0  0  # atno 10765 bound_to 10752
  140.2573  134.3233  155.7869 H   0  0  0  0  0  0  0  0  0  0  0  0  # atno 11005 bound_to 11000
  144.6726  140.1193  143.7451 LP  0  0  0  0  0  0  0  0  0  0  0  0  # atno 17320 bound_to 7965
  145.9173  139.2523  143.1402 LP  0  0  0  0  0  0  0  0  0  0  0  0  # atno 17321 bound_to 7965
  140.4861  144.1379  150.5941 LP  0  0  0  0  0  0  0  0  0  0  0  0  # atno 17342 bound_to 10162
  140.4223  143.2606  151.9699 LP  0  0  0  0  0  0  0  0  0  0  0  0  # atno 17343 bound_to 10162
  157.0695  130.5858  149.5400 LP  0  0  0  0  0  0  0  0  0  0  0  0  # atno 17370 bound_to 10713
  156.0035  130.5118  150.7748 LP  0  0  0  0  0  0  0  0  0  0  0  0  # atno 17371 bound_to 10713
  141.2194  133.7389  156.9132 LP  0  0  0  0  0  0  0  0  0  0  0  0  # atno 17394 bound_to 11000
  140.1499  134.9237  157.2578 LP  0  0  0  0  0  0  0  0  0  0  0  0  # atno 17395 bound_to 11000

$$$$
