AV-unprocessed.smi:699|AV-procd|sdf|3400|dock3
  -GOLD-   22720 0383D 1   1.00000     0.00000
 Structure written by MMmdl.
 34 35  0  0  0  0  0  0  0  0  1 V2000
  149.5643  144.3621  158.6668 N   0  0  0  0  0  0  0  0  0  0  0  0
  150.6057  145.0238  159.1773 C   0  0  0  0  0  0  0  0  0  0  0  0
  150.4592  146.0238  159.8781 O   0  0  0  0  0  0  0  0  0  0  0  0
  152.0111  144.4707  158.8554 C   0  0  1  0  0  0  0  0  0  0  0  0
  152.7485  144.0609  160.1389 C   0  0  0  0  0  0  0  0  0  0  0  0
  152.3572  142.6034  160.4027 C   0  0  0  0  0  0  0  0  0  0  0  0
  152.0014  142.0044  159.0354 C   0  0  0  0  0  0  0  0  0  0  0  0
  152.0270  143.1629  158.0212 C   0  0  1  0  0  0  0  0  0  0  0  0
  150.9389  143.0420  157.0491 N   0  0  0  0  0  0  0  0  0  0  0  0
  150.5250  141.8916  156.4984 C   0  0  0  0  0  0  0  0  0  0  0  0
  151.0240  140.7986  156.7648 O   0  0  0  0  0  0  0  0  0  0  0  0
  149.5104  142.1031  155.6419 N   0  0  0  0  0  0  0  0  0  0  0  0
  148.7831  141.1641  154.8593 C   0  0  0  0  0  0  0  0  0  0  0  0
  149.2987  139.8544  154.7698 C   0  0  0  0  0  0  0  0  0  0  0  0
  148.5970  138.8965  154.0111 C   0  0  0  0  0  0  0  0  0  0  0  0
  147.4434  139.1637  153.3639 N   0  0  0  0  0  0  0  0  0  0  0  0
  146.9443  140.4140  153.4595 C   0  0  0  0  0  0  0  0  0  0  0  0
  147.5659  141.4451  154.1921 C   0  0  0  0  0  0  0  0  0  0  0  0
  148.6260  144.6857  158.8521 H   0  0  0  0  0  0  0  0  0  0  0  0
  149.7171  143.5407  158.0998 H   0  0  0  0  0  0  0  0  0  0  0  0
  152.5739  145.2474  158.3347 H   0  0  0  0  0  0  0  0  0  0  0  0
  153.8243  144.1238  159.9688 H   0  0  0  0  0  0  0  0  0  0  0  0
  152.5238  144.7041  160.9912 H   0  0  0  0  0  0  0  0  0  0  0  0
  153.1585  142.0531  160.8965 H   0  0  0  0  0  0  0  0  0  0  0  0
  151.4866  142.5647  161.0585 H   0  0  0  0  0  0  0  0  0  0  0  0
  152.7080  141.2256  158.7473 H   0  0  0  0  0  0  0  0  0  0  0  0
  151.0160  141.5394  159.0886 H   0  0  0  0  0  0  0  0  0  0  0  0
  152.9791  143.1147  157.4888 H   0  0  0  0  0  0  0  0  0  0  0  0
  150.4787  143.8972  156.7733 H   0  0  0  0  0  0  0  0  0  0  0  0
  149.1856  143.0565  155.5755 H   0  0  0  0  0  0  0  0  0  0  0  0
  150.2180  139.5841  155.2687 H   0  0  0  0  0  0  0  0  0  0  0  0
  148.9724  137.8878  153.9233 H   0  0  0  0  0  0  0  0  0  0  0  0
  146.0157  140.5982  152.9401 H   0  0  0  0  0  0  0  0  0  0  0  0
  147.0921  142.4132  154.2311 H   0  0  0  0  0  0  0  0  0  0  0  0
  1  2  1  0  0  0  0
  1 19  1  0  0  0  0
  1 20  1  0  0  0  0
  2  3  2  0  0  0  0
  2  4  1  0  0  0  0
  4  8  1  0  0  0  0
  4  5  1  0  0  0  0
  4 21  1  0  0  0  0
  5  6  1  0  0  0  0
  5 22  1  0  0  0  0
  5 23  1  0  0  0  0
  6  7  1  0  0  0  0
  6 24  1  0  0  0  0
  6 25  1  0  0  0  0
  7  8  1  0  0  0  0
  7 26  1  0  0  0  0
  7 27  1  0  0  0  0
  8  9  1  0  0  0  0
  8 28  1  0  0  0  0
  9 10  1  0  0  0  0
  9 29  1  0  0  0  0
 10 11  2  0  0  0  0
 10 12  1  0  0  0  0
 12 13  1  0  0  0  0
 12 30  1  0  0  0  0
 13 18  1  0  0  0  0
 13 14  2  0  0  0  0
 14 15  1  0  0  0  0
 14 31  1  0  0  0  0
 15 16  2  0  0  0  0
 15 32  1  0  0  0  0
 16 17  1  0  0  0  0
 17 18  2  0  0  0  0
 17 33  1  0  0  0  0
 18 34  1  0  0  0  0
M  END
> <s_m_source_file>
AV-unprocessed.smi

> <i_m_source_file_index>
699

> <i_lp_mmshare_version>
43012

> <i_f3d_flags>
0

> <s_epik_input>
W05IMl1DKD1PKVtDQEBIXTFbQ0gyXVtDSDJdW0NIMl1bQ0BIXTFbTkhdQyg9TylbTkhdYzJbY0hdW2NIXW5bY0hdW2NIXTI=

> <s_epik_cmdline>
J2VwaWtfcHl0aG9uJywgJy1waCcsICc3LjAnLCAnLXRuJywgJzgnLCAnLW1hJywgJzIwMCcsICctbWV0YWxfYmluZGluZycsICctaW1hZScsICc8aW5maWxlLm1hZT4nLCAnLW9tYWUnLCAnPG91dGZpbGUubWFlPic=

> <r_epik_Ionization_Penalty>
0.113907

> <r_epik_Ionization_Penalty_Charging>
0

> <r_epik_Ionization_Penalty_Neutral>
0.113907

> <r_epik_State_Penalty>
0.103543

> <r_epik_Charging_Adjusted_Penalty>
0.103543

> <i_epik_Tot_Q>
0

> <i_epik_Tot_abs_Q>
0

> <r_epik_Metal_State_Penalty>
0.0867106

> <b_epik_Metal_Only>
0

> <s_lp_Force_Field>
OPLS_2005

> <r_lp_Energy>
19.4222

> <b_lp_Chiralities_Consistent>
1

> <s_lp_Variant>
AV-unprocessed.smi:699-2

> <Gold.Version>
5.8.1

> <Gold.Id.Protein>
6NUR|6NUR_protein|mol2

> <Gold.PLP.Fitness>
48.2432

> <Gold.PLP.PLP>
-36.8760

> <Gold.PLP.part.hbond>
-5.9992

> <Gold.PLP.part.metal>
0.0000

> <Gold.PLP.part.buried>
-2.4966

> <Gold.PLP.part.nonpolar>
-31.0439

> <Gold.PLP.part.repulsive>
2.3311

> <Gold.PLP.ligand.clash>
0.0047

> <Gold.PLP.ligand.torsion>
0.3248

> <Gold.PLP.Chemscore.Hbond>
2.0010

> <Gold.PLP.Chemscore.CHOScore>
2.0000

> <Gold.PLP.Chemscore.Metal>
0.0000

> <Gold.Chemscore.Hbonds>
donor molecule, donor type, donor heavy atom, donor atom, acceptor molecule, acceptor atom, score
      L1  H     1    19       P1  8029  0.17
      L1  H     9    29       P1  8028  0.78
      L1  H    12    30       P1  8028  1.00
      L1  C    15    32       P1  7948  0.76
      L1  C    17    33       P1 10175  1.00

> <Gold.PLP.Chemscore.Internal.Correction>
0.0187

> <Gold.Rescore>
     Score         DG    S(hbond)    S(metal)    S(lipo)     H(rot)  DE(clash)    DE(int)     intcor
     11.94     -18.36       2.06        0.00      83.92       1.49       1.16       5.26       ----

> <Gold.Chemscore.Fitness>
11.9395

> <Gold.Chemscore.DG>
-18.3581

> <Gold.Chemscore.ZeroCoef>
-5.4800

> <Gold.Chemscore.Hbond>
2.0575

> <Gold.Chemscore.Metal>
0.0000

> <Gold.Chemscore.Lipo>
83.9164

> <Gold.Chemscore.Internal_Hbond>
0.0000

> <Gold.Chemscore.DEClash>
1.1570

> <Gold.Chemscore.DEInternal>
5.2616

> <Gold.Chemscore.Rot>
1.4892

> <Gold.Chemscore.Internal.Correction>
   9.000000E+99

> <Gold.Chemscore.Hbonds>
donor molecule, donor type, donor heavy atom, donor atom, acceptor molecule, acceptor atom, score
      L1  H     1    19       P1  8029  0.17
      L1  H     9    29       P1  8028  0.74
      L1  H    12    30       P1  8028  1.00

> <Gold.Chemscore.Hbond.Weighted>
-6.8721

> <Gold.Chemscore.Metal.Weighted>
-0.0000

> <Gold.Chemscore.Lipo.Weighted>
-9.8182

> <Gold.Chemscore.Internal_Hbond.Weighted>
0.0000

> <Gold.Chemscore.DEClash.Weighted>
1.1570

> <Gold.Chemscore.DEInternal.Weighted>
5.2616

> <Gold.Chemscore.Rot.Weighted>
3.8123

> <Gold.Chemscore.Internal.Correction.Weighted>
   9.000000E+99

> <Gold.Protein.RotatedTorsions>
[ 6907 6896 6895 6894 ] final   18.50 input  -60.11 | X-H torsion
[ 7974 7965 7964 7962 ] final  -50.65 input  175.53 | X-H torsion
[ 8008 7997 7996 7995 ] final   50.95 input   59.86 | X-H torsion
[ 10167 10162 10161 10158 ] final -119.43 input  -65.29 | X-H torsion
[ 10718 10713 10712 10709 ] final -152.41 input   66.30 | X-H torsion
[ 10763 10752 10751 10750 ] final  108.11 input  -60.55 | X-H torsion
[ 11005 11000 10999 10996 ] final -122.35 input  -57.11 | X-H torsion

> <Gold.Protein.ActiveResidues>
 VAL166  LYS551  ARG553  GLY616  TRP617  ASP618  TYR619  PRO620  LYS621  CYS622 
 ASP623  PHE694  ASN695  SER759  ASP760  ASP761  ALA762  ILE779  LEU786  VAL792 
 PHE793  MET794  SER795  GLU796  ALA797  LYS798  CYS799  TRP800  GLU811  SER814 

> <Gold.Protein.RotatedAtoms>
  151.8663  135.0506  160.0474 H   0  0  0  0  0  0  0  0  0  0  0  0  # atno 6907 bound_to 6896
  152.2623  133.5304  159.5398 H   0  0  0  0  0  0  0  0  0  0  0  0  # atno 6908 bound_to 6896
  150.7121  134.0728  159.3913 H   0  0  0  0  0  0  0  0  0  0  0  0  # atno 6909 bound_to 6896
  145.9275  140.7779  142.9616 H   0  0  0  0  0  0  0  0  0  0  0  0  # atno 7974 bound_to 7965
  155.4272  140.3449  155.4277 H   0  0  0  0  0  0  0  0  0  0  0  0  # atno 8008 bound_to 7997
  156.1358  140.1527  156.9028 H   0  0  0  0  0  0  0  0  0  0  0  0  # atno 8009 bound_to 7997
  154.4930  140.0835  156.7617 H   0  0  0  0  0  0  0  0  0  0  0  0  # atno 8010 bound_to 7997
  140.0467  143.5100  152.2103 H   0  0  0  0  0  0  0  0  0  0  0  0  # atno 10167 bound_to 10162
  156.4722  130.8263  151.2493 H   0  0  0  0  0  0  0  0  0  0  0  0  # atno 10718 bound_to 10713
  153.4160  135.3823  155.2081 H   0  0  0  0  0  0  0  0  0  0  0  0  # atno 10763 bound_to 10752
  154.8741  135.3805  154.4442 H   0  0  0  0  0  0  0  0  0  0  0  0  # atno 10764 bound_to 10752
  153.4956  135.7088  153.5922 H   0  0  0  0  0  0  0  0  0  0  0  0  # atno 10765 bound_to 10752
  141.0001  134.0414  157.3547 H   0  0  0  0  0  0  0  0  0  0  0  0  # atno 11005 bound_to 11000
  144.6760  140.2075  143.7380 LP  0  0  0  0  0  0  0  0  0  0  0  0  # atno 17320 bound_to 7965
  145.8469  139.2156  143.1795 LP  0  0  0  0  0  0  0  0  0  0  0  0  # atno 17321 bound_to 7965
  139.5979  144.7573  151.3242 LP  0  0  0  0  0  0  0  0  0  0  0  0  # atno 17342 bound_to 10162
  140.7235  143.7068  150.7801 LP  0  0  0  0  0  0  0  0  0  0  0  0  # atno 17343 bound_to 10162
  157.7490  131.0072  150.3183 LP  0  0  0  0  0  0  0  0  0  0  0  0  # atno 17370 bound_to 10713
  156.3607  130.3846  149.7254 LP  0  0  0  0  0  0  0  0  0  0  0  0  # atno 17371 bound_to 10713
  139.9034  135.0172  156.7377 LP  0  0  0  0  0  0  0  0  0  0  0  0  # atno 17394 bound_to 11000
  140.6902  133.9397  155.7962 LP  0  0  0  0  0  0  0  0  0  0  0  0  # atno 17395 bound_to 11000

$$$$
