AV-unprocessed.smi:1709|AV-procd|sdf|6897|dock1
  -GOLD-   22720 8103D 1   1.00000     0.00000
 Structure written by MMmdl.
 43 45  0  0  0  0  0  0  0  0  2 V2000
  149.9802  137.5944  154.4266 C   0  0  0  0  0  0  0  0  0  0  0  0
  149.3959  138.9970  154.3697 C   0  0  0  0  0  0  0  0  0  0  0  0
  150.0383  140.0390  155.0716 C   0  0  0  0  0  0  0  0  0  0  0  0
  149.4982  141.3353  155.0208 C   0  0  0  0  0  0  0  0  0  0  0  0
  148.3302  141.5352  154.2662 C   0  0  0  0  0  0  0  0  0  0  0  0
  147.7101  140.5451  153.5925 N   0  0  0  0  0  0  0  0  0  0  0  0
  148.2212  139.2870  153.6246 C   0  0  0  0  0  0  0  0  0  0  0  0
  147.6131  138.1787  152.9586 N   0  0  0  0  0  0  0  0  0  0  0  0
  146.3185  137.8182  152.8344 C   0  0  0  0  0  0  0  0  0  0  0  0
  145.4186  138.4813  153.3470 O   0  0  0  0  0  0  0  0  0  0  0  0
  146.0827  136.6993  152.1302 N   0  0  0  0  0  0  0  0  0  0  0  0
  144.7623  136.1529  151.8366 C   0  0  2  0  0  0  0  0  0  0  0  0
  144.0343  135.6389  153.0716 C   0  0  0  0  0  0  0  0  0  0  0  0
  142.9648  134.7153  152.4802 C   0  0  0  0  0  0  0  0  0  0  0  0
  143.4913  134.2242  151.1824 N   0  3  2  0  0  0  0  0  0  0  0  0
  143.5376  132.7416  151.0713 C   0  0  0  0  0  0  0  0  0  0  0  0
  144.4353  132.3060  149.9039 C   0  0  0  0  0  0  0  0  0  0  0  0
  145.8909  132.7662  150.1094 C   0  0  0  0  0  0  0  0  0  0  0  0
  145.9972  133.9857  151.0453 C   0  0  0  0  0  0  0  0  0  0  0  0
  144.7756  134.9277  150.9033 C   0  0  2  0  0  0  0  0  0  0  0  0
  150.8821  137.5640  155.0386 H   0  0  0  0  0  0  0  0  0  0  0  0
  150.2427  137.2497  153.4259 H   0  0  0  0  0  0  0  0  0  0  0  0
  149.2605  136.8971  154.8561 H   0  0  0  0  0  0  0  0  0  0  0  0
  150.9344  139.8500  155.6444 H   0  0  0  0  0  0  0  0  0  0  0  0
  149.9662  142.1535  155.5480 H   0  0  0  0  0  0  0  0  0  0  0  0
  147.8799  142.5147  154.2017 H   0  0  0  0  0  0  0  0  0  0  0  0
  148.2708  137.5151  152.5762 H   0  0  0  0  0  0  0  0  0  0  0  0
  146.8790  136.2114  151.7441 H   0  0  0  0  0  0  0  0  0  0  0  0
  144.1429  136.9324  151.3874 H   0  0  0  0  0  0  0  0  0  0  0  0
  144.7145  135.0622  153.7005 H   0  0  0  0  0  0  0  0  0  0  0  0
  143.6108  136.4388  153.6794 H   0  0  0  0  0  0  0  0  0  0  0  0
  142.7018  133.9128  153.1705 H   0  0  0  0  0  0  0  0  0  0  0  0
  142.0542  135.2803  152.2783 H   0  0  0  0  0  0  0  0  0  0  0  0
  143.9178  132.3056  151.9969 H   0  0  0  0  0  0  0  0  0  0  0  0
  142.5233  132.3641  150.9381 H   0  0  0  0  0  0  0  0  0  0  0  0
  144.4015  131.2234  149.7770 H   0  0  0  0  0  0  0  0  0  0  0  0
  144.0445  132.7332  148.9793 H   0  0  0  0  0  0  0  0  0  0  0  0
  146.4878  131.9514  150.5208 H   0  0  0  0  0  0  0  0  0  0  0  0
  146.3282  133.0009  149.1381 H   0  0  0  0  0  0  0  0  0  0  0  0
  146.0694  133.6428  152.0785 H   0  0  0  0  0  0  0  0  0  0  0  0
  146.9291  134.5116  150.8363 H   0  0  0  0  0  0  0  0  0  0  0  0
  144.7499  135.2758  149.8696 H   0  0  0  0  0  0  0  0  0  0  0  0
  142.8454  134.5458  150.4756 H   0  0  0  0  0  0  0  0  0  0  0  0
  1  2  1  0  0  0  0
  1 21  1  0  0  0  0
  1 22  1  0  0  0  0
  1 23  1  0  0  0  0
  2  7  1  0  0  0  0
  2  3  2  0  0  0  0
  3  4  1  0  0  0  0
  3 24  1  0  0  0  0
  4  5  2  0  0  0  0
  4 25  1  0  0  0  0
  5  6  1  0  0  0  0
  5 26  1  0  0  0  0
  6  7  2  0  0  0  0
  7  8  1  0  0  0  0
  8  9  1  0  0  0  0
  8 27  1  0  0  0  0
  9 10  2  0  0  0  0
  9 11  1  0  0  0  0
 11 12  1  0  0  0  0
 11 28  1  0  0  0  0
 12 20  1  0  0  0  0
 12 13  1  0  0  0  0
 12 29  1  0  0  0  0
 13 14  1  0  0  0  0
 13 30  1  0  0  0  0
 13 31  1  0  0  0  0
 14 15  1  0  0  0  0
 14 32  1  0  0  0  0
 14 33  1  0  0  0  0
 15 20  1  0  0  0  0
 15 16  1  0  0  0  0
 15 43  1  0  0  0  0
 16 17  1  0  0  0  0
 16 34  1  0  0  0  0
 16 35  1  0  0  0  0
 17 18  1  0  0  0  0
 17 36  1  0  0  0  0
 17 37  1  0  0  0  0
 18 19  1  0  0  0  0
 18 38  1  0  0  0  0
 18 39  1  0  0  0  0
 19 20  1  0  0  0  0
 19 40  1  0  0  0  0
 19 41  1  0  0  0  0
 20 42  1  0  0  0  0
M  CHG  1  15   1
M  END
> <s_m_source_file>
AV-unprocessed.smi

> <i_m_source_file_index>
1709

> <i_lp_mmshare_version>
43012

> <i_f3d_flags>
0

> <s_epik_input>
W0NIM11jMVtjSF1bY0hdW2NIXW5jMVtOSF1DKD1PKVtOSF1bQ0BIXShbQ0gyXVtDSDJdMilbQ0BASF0oTjIzKVtDSDJdW0NIMl1bQ0gyXVtDSDJdMw==

> <s_epik_cmdline>
J2VwaWtfcHl0aG9uJywgJy1waCcsICc3LjAnLCAnLXRuJywgJzgnLCAnLW1hJywgJzIwMCcsICctbWV0YWxfYmluZGluZycsICctaW1hZScsICc8aW5maWxlLm1hZT4nLCAnLW9tYWUnLCAnPG91dGZpbGUubWFlPic=

> <r_epik_Ionization_Penalty>
0.00101524

> <r_epik_Ionization_Penalty_Charging>
0.000974069

> <r_epik_Ionization_Penalty_Neutral>
4.11757e-05

> <r_epik_State_Penalty>
0.000633842

> <r_epik_Charging_Adjusted_Penalty>
0.00160791

> <i_epik_Tot_Q>
1

> <i_epik_Tot_abs_Q>
1

> <r_epik_Metal_State_Penalty>
-0

> <b_epik_Metal_Only>
0

> <s_lp_Force_Field>
OPLS_2005

> <r_lp_Energy>
45.6111

> <b_lp_Chiralities_Consistent>
1

> <s_lp_Variant>
AV-unprocessed.smi:1709-7

> <Gold.Version>
5.8.1

> <Gold.Id.Protein>
6NUR|6NUR_protein|mol2

> <Gold.PLP.Fitness>
46.9280

> <Gold.PLP.PLP>
-35.7061

> <Gold.PLP.part.hbond>
-3.3040

> <Gold.PLP.part.metal>
0.0000

> <Gold.PLP.part.buried>
-2.9496

> <Gold.PLP.part.nonpolar>
-33.3619

> <Gold.PLP.part.repulsive>
2.7699

> <Gold.PLP.ligand.clash>
0.0000

> <Gold.PLP.ligand.torsion>
0.3711

> <Gold.PLP.Chemscore.Hbond>
3.6998

> <Gold.PLP.Chemscore.CHOScore>
0.2868

> <Gold.PLP.Chemscore.Metal>
0.0000

> <Gold.Chemscore.Hbonds>
donor molecule, donor type, donor heavy atom, donor atom, acceptor molecule, acceptor atom, score
      L1  H     8    27       P1  7948  1.00
      L1  H    11    28       P1  7948  0.78
      L1  H    15    43       P1 10186  1.89
      L1  C     5    26       P1  8028  0.30

> <Gold.PLP.Chemscore.Internal.Correction>
0.0042

> <Gold.Rescore>
     Score         DG    S(hbond)    S(metal)    S(lipo)     H(rot)  DE(clash)    DE(int)     intcor
     19.26     -20.66       2.36        0.00      84.34       1.00       0.95       0.45       ----

> <Gold.Chemscore.Fitness>
19.2578

> <Gold.Chemscore.DG>
-20.6589

> <Gold.Chemscore.ZeroCoef>
-5.4800

> <Gold.Chemscore.Hbond>
2.3565

> <Gold.Chemscore.Metal>
0.0000

> <Gold.Chemscore.Lipo>
84.3441

> <Gold.Chemscore.Internal_Hbond>
0.0000

> <Gold.Chemscore.DEClash>
0.9521

> <Gold.Chemscore.DEInternal>
0.4490

> <Gold.Chemscore.Rot>
1.0000

> <Gold.Chemscore.Internal.Correction>
   9.000000E+99

> <Gold.Chemscore.Hbonds>
donor molecule, donor type, donor heavy atom, donor atom, acceptor molecule, acceptor atom, score
      L1  H     8    27       P1  7948  0.99
      L1  H    11    28       P1  7948  0.73
      L1  H    15    43       P1 10186  0.38

> <Gold.Chemscore.Hbond.Weighted>
-7.8706

> <Gold.Chemscore.Metal.Weighted>
-0.0000

> <Gold.Chemscore.Lipo.Weighted>
-9.8683

> <Gold.Chemscore.Internal_Hbond.Weighted>
0.0000

> <Gold.Chemscore.DEClash.Weighted>
0.9521

> <Gold.Chemscore.DEInternal.Weighted>
0.4490

> <Gold.Chemscore.Rot.Weighted>
2.5600

> <Gold.Chemscore.Internal.Correction.Weighted>
   9.000000E+99

> <Gold.Protein.RotatedTorsions>
[ 6907 6896 6895 6894 ] final   47.20 input  -60.11 | X-H torsion
[ 7974 7965 7964 7962 ] final  -95.88 input  175.53 | X-H torsion
[ 8008 7997 7996 7995 ] final  159.78 input   59.86 | X-H torsion
[ 10167 10162 10161 10158 ] final -121.75 input  -65.29 | X-H torsion
[ 10718 10713 10712 10709 ] final -122.50 input   66.30 | X-H torsion
[ 10763 10752 10751 10750 ] final -177.48 input  -60.55 | X-H torsion
[ 11005 11000 10999 10996 ] final -110.43 input  -57.11 | X-H torsion

> <Gold.Protein.ActiveResidues>
 VAL166  LYS551  ARG553  GLY616  TRP617  ASP618  TYR619  PRO620  LYS621  CYS622 
 ASP623  PHE694  ASN695  SER759  ASP760  ASP761  ALA762  ILE779  LEU786  VAL792 
 PHE793  MET794  SER795  GLU796  ALA797  LYS798  CYS799  TRP800  GLU811  SER814 

> <Gold.Protein.RotatedAtoms>
  152.2653  134.7991  160.0423 H   0  0  0  0  0  0  0  0  0  0  0  0  # atno 6907 bound_to 6896
  151.8623  133.3454  159.3716 H   0  0  0  0  0  0  0  0  0  0  0  0  # atno 6908 bound_to 6896
  150.7131  134.5122  159.5657 H   0  0  0  0  0  0  0  0  0  0  0  0  # atno 6909 bound_to 6896
  145.3543  140.9481  143.2537 H   0  0  0  0  0  0  0  0  0  0  0  0  # atno 7974 bound_to 7965
  156.2216  140.1822  156.7463 H   0  0  0  0  0  0  0  0  0  0  0  0  # atno 8008 bound_to 7997
  154.5875  140.0656  156.9220 H   0  0  0  0  0  0  0  0  0  0  0  0  # atno 8009 bound_to 7997
  155.2395  140.3321  155.4296 H   0  0  0  0  0  0  0  0  0  0  0  0  # atno 8010 bound_to 7997
  140.0217  143.5338  152.2218 H   0  0  0  0  0  0  0  0  0  0  0  0  # atno 10167 bound_to 10162
  156.1424  130.6475  150.9791 H   0  0  0  0  0  0  0  0  0  0  0  0  # atno 10718 bound_to 10713
  154.5596  135.2819  155.0932 H   0  0  0  0  0  0  0  0  0  0  0  0  # atno 10763 bound_to 10752
  154.2346  135.6368  153.5190 H   0  0  0  0  0  0  0  0  0  0  0  0  # atno 10764 bound_to 10752
  153.0025  135.5545  154.6186 H   0  0  0  0  0  0  0  0  0  0  0  0  # atno 10765 bound_to 10752
  141.0792  133.9249  157.2325 H   0  0  0  0  0  0  0  0  0  0  0  0  # atno 11005 bound_to 11000
  144.8694  139.5060  143.6775 LP  0  0  0  0  0  0  0  0  0  0  0  0  # atno 17320 bound_to 7965
  146.2955  139.7264  142.9130 LP  0  0  0  0  0  0  0  0  0  0  0  0  # atno 17321 bound_to 7965
  139.6135  144.7614  151.2897 LP  0  0  0  0  0  0  0  0  0  0  0  0  # atno 17342 bound_to 10162
  140.7340  143.6779  150.8026 LP  0  0  0  0  0  0  0  0  0  0  0  0  # atno 17343 bound_to 10162
  157.6587  131.0885  150.7888 LP  0  0  0  0  0  0  0  0  0  0  0  0  # atno 17370 bound_to 10713
  156.7963  130.4906  149.5377 LP  0  0  0  0  0  0  0  0  0  0  0  0  # atno 17371 bound_to 10713
  139.9605  135.0155  156.9248 LP  0  0  0  0  0  0  0  0  0  0  0  0  # atno 17394 bound_to 11000
  140.5506  134.0631  155.7368 LP  0  0  0  0  0  0  0  0  0  0  0  0  # atno 17395 bound_to 11000

$$$$
