AV-unprocessed.smi:2699|AV-procd|sdf|10425|dock9
  -GOLD-   2272014463D 1   1.00000     0.00000
 Structure written by MMmdl.
 43 45  0  0  0  0  0  0  0  0  1 V2000
  151.1503  141.6850  156.7668 C   0  0  0  0  0  0  0  0  0  0  0  0
  151.0920  140.5629  155.7380 C   0  0  0  0  0  0  0  0  0  0  0  0
  152.1735  139.7684  155.5624 C   0  0  0  0  0  0  0  0  0  0  0  0
  152.1433  138.6509  154.6028 C   0  0  0  0  0  0  0  0  0  0  0  0
  153.1242  137.9387  154.3989 O   0  0  0  0  0  0  0  0  0  0  0  0
  150.8659  138.4375  153.9089 C   0  0  0  0  0  0  0  0  0  0  0  0
  149.8435  139.2816  154.1452 C   0  0  0  0  0  0  0  0  0  0  0  0
  148.6502  139.1096  153.5566 O   0  0  0  0  0  0  0  0  0  0  0  0
  149.8906  140.3900  155.0145 N   0  0  0  0  0  0  0  0  0  0  0  0
  148.7577  141.3253  155.1431 C   0  0  0  0  0  0  0  0  0  0  0  0
  148.0051  141.1933  156.4813 C   0  0  0  0  0  0  0  0  0  0  0  0
  147.4281  140.1467  156.7725 O   0  0  0  0  0  0  0  0  0  0  0  0
  147.9903  142.2406  157.3201 N   0  0  0  0  0  0  0  0  0  0  0  0
  147.3348  142.3035  158.6231 C   0  0  0  0  0  0  0  0  0  0  0  0
  145.8441  142.6730  158.5015 C   0  0  0  0  0  0  0  0  0  0  0  0
  145.4513  143.4152  159.7832 C   0  0  0  0  0  0  0  0  0  0  0  0
  146.4337  144.2915  160.5189 C   0  0  0  0  0  0  0  0  0  0  0  0
  145.9034  143.0290  161.1724 C   0  0  0  0  0  0  0  0  0  0  0  0
  145.4257  143.3597  157.1826 C   0  0  0  0  0  0  0  0  0  0  0  0
  145.0905  141.9903  156.5948 C   0  0  0  0  0  0  0  0  0  0  0  0
  144.9490  141.4982  158.0343 C   0  0  0  0  0  0  0  0  0  0  0  0
  151.9722  141.5274  157.4660 H   0  0  0  0  0  0  0  0  0  0  0  0
  150.2395  141.7427  157.3622 H   0  0  0  0  0  0  0  0  0  0  0  0
  151.3132  142.6439  156.2745 H   0  0  0  0  0  0  0  0  0  0  0  0
  153.0788  139.9240  156.1312 H   0  0  0  0  0  0  0  0  0  0  0  0
  150.7685  137.6004  153.2326 H   0  0  0  0  0  0  0  0  0  0  0  0
  149.0896  142.3551  155.0166 H   0  0  0  0  0  0  0  0  0  0  0  0
  148.0544  141.1775  154.3234 H   0  0  0  0  0  0  0  0  0  0  0  0
  148.4752  143.0754  157.0244 H   0  0  0  0  0  0  0  0  0  0  0  0
  147.4569  141.3355  159.1109 H   0  0  0  0  0  0  0  0  0  0  0  0
  147.8427  143.0312  159.2577 H   0  0  0  0  0  0  0  0  0  0  0  0
  144.4270  143.7820  159.7583 H   0  0  0  0  0  0  0  0  0  0  0  0
  147.4695  144.2862  160.1857 H   0  0  0  0  0  0  0  0  0  0  0  0
  146.0694  145.2461  160.8926 H   0  0  0  0  0  0  0  0  0  0  0  0
  145.1861  143.1522  161.9810 H   0  0  0  0  0  0  0  0  0  0  0  0
  146.5904  142.1963  161.2964 H   0  0  0  0  0  0  0  0  0  0  0  0
  144.5413  143.9898  157.2935 H   0  0  0  0  0  0  0  0  0  0  0  0
  146.2225  143.8910  156.6613 H   0  0  0  0  0  0  0  0  0  0  0  0
  144.1720  141.9578  156.0081 H   0  0  0  0  0  0  0  0  0  0  0  0
  145.9288  141.5347  156.0659 H   0  0  0  0  0  0  0  0  0  0  0  0
  145.3682  140.5072  158.2114 H   0  0  0  0  0  0  0  0  0  0  0  0
  143.9151  141.5446  158.3729 H   0  0  0  0  0  0  0  0  0  0  0  0
  148.7676  139.2519  152.6300 H   0  0  0  0  0  0  0  0  0  0  0  0
  1  2  1  0  0  0  0
  1 22  1  0  0  0  0
  1 23  1  0  0  0  0
  1 24  1  0  0  0  0
  2  9  1  0  0  0  0
  2  3  2  0  0  0  0
  3  4  1  0  0  0  0
  3 25  1  0  0  0  0
  4  5  2  0  0  0  0
  4  6  1  0  0  0  0
  6  7  2  0  0  0  0
  6 26  1  0  0  0  0
  7  8  1  0  0  0  0
  7  9  1  0  0  0  0
  8 43  1  0  0  0  0
  9 10  1  0  0  0  0
 10 11  1  0  0  0  0
 10 27  1  0  0  0  0
 10 28  1  0  0  0  0
 11 12  2  0  0  0  0
 11 13  1  0  0  0  0
 13 14  1  0  0  0  0
 13 29  1  0  0  0  0
 14 15  1  0  0  0  0
 14 30  1  0  0  0  0
 14 31  1  0  0  0  0
 15 21  1  0  0  0  0
 15 16  1  0  0  0  0
 15 19  1  0  0  0  0
 16 18  1  0  0  0  0
 16 17  1  0  0  0  0
 16 32  1  0  0  0  0
 17 18  1  0  0  0  0
 17 33  1  0  0  0  0
 17 34  1  0  0  0  0
 18 35  1  0  0  0  0
 18 36  1  0  0  0  0
 19 20  1  0  0  0  0
 19 37  1  0  0  0  0
 19 38  1  0  0  0  0
 20 21  1  0  0  0  0
 20 39  1  0  0  0  0
 20 40  1  0  0  0  0
 21 41  1  0  0  0  0
 21 42  1  0  0  0  0
M  END
> <s_m_source_file>
AV-unprocessed.smi

> <i_m_source_file_index>
2699

> <i_lp_mmshare_version>
43012

> <i_f3d_flags>
0

> <s_epik_input>
W0NIM11jMVtjSF1jKFtPSF0pW2NIXWMoPU8pbjFbQ0gyXUMoPU8pW05IXVtDSDJdQzIoW0NIXTNbQ0gyXVtDSDJdMylbQ0gyXVtDSDJdW0NIMl0y

> <s_epik_cmdline>
J2VwaWtfcHl0aG9uJywgJy1waCcsICc3LjAnLCAnLXRuJywgJzgnLCAnLW1hJywgJzIwMCcsICctbWV0YWxfYmluZGluZycsICctaW1hZScsICc8aW5maWxlLm1hZT4nLCAnLW9tYWUnLCAnPG91dGZpbGUubWFlPic=

> <r_epik_Ionization_Penalty>
1.8336e-08

> <r_epik_Ionization_Penalty_Charging>
0

> <r_epik_Ionization_Penalty_Neutral>
1.8336e-08

> <r_epik_State_Penalty>
2.39433

> <r_epik_Charging_Adjusted_Penalty>
2.39433

> <i_epik_Tot_Q>
0

> <i_epik_Tot_abs_Q>
0

> <r_epik_Metal_State_Penalty>
2.39433

> <b_epik_Metal_Only>
0

> <s_lp_Force_Field>
OPLS_2005

> <r_lp_Energy>
30.2795

> <b_lp_Chiralities_Consistent>
1

> <s_lp_Variant>
AV-unprocessed.smi:2699-3

> <Gold.Version>
5.8.1

> <Gold.Id.Protein>
6NUR|6NUR_protein|mol2

> <Gold.PLP.Fitness>
40.4586

> <Gold.PLP.PLP>
-35.7590

> <Gold.PLP.part.hbond>
-3.0000

> <Gold.PLP.part.metal>
0.0000

> <Gold.PLP.part.buried>
-5.3052

> <Gold.PLP.part.nonpolar>
-27.7935

> <Gold.PLP.part.repulsive>
0.1049

> <Gold.PLP.ligand.clash>
0.0170

> <Gold.PLP.ligand.torsion>
1.6239

> <Gold.PLP.Chemscore.Hbond>
2.0905

> <Gold.PLP.Chemscore.CHOScore>
0.0000

> <Gold.PLP.Chemscore.Metal>
0.0000

> <Gold.Chemscore.Hbonds>
donor molecule, donor type, donor heavy atom, donor atom, acceptor molecule, acceptor atom, score
      L1  H     8    43       P1  7957  1.00
      L1  H    13    29       P1  8028  0.67
      P1  H 10752 10763       L1     5  0.07

> <Gold.PLP.Chemscore.Internal.Correction>
1.6929

> <Gold.Rescore>
     Score         DG    S(hbond)    S(metal)    S(lipo)     H(rot)  DE(clash)    DE(int)     intcor
      7.31      -9.21       1.01        0.00      55.63       2.40       0.05       1.85       ----

> <Gold.Chemscore.Fitness>
7.3091

> <Gold.Chemscore.DG>
-9.2058

> <Gold.Chemscore.ZeroCoef>
-5.4800

> <Gold.Chemscore.Hbond>
1.0099

> <Gold.Chemscore.Metal>
0.0000

> <Gold.Chemscore.Lipo>
55.6345

> <Gold.Chemscore.Internal_Hbond>
0.0000

> <Gold.Chemscore.DEClash>
0.0517

> <Gold.Chemscore.DEInternal>
1.8450

> <Gold.Chemscore.Rot>
2.4048

> <Gold.Chemscore.Internal.Correction>
   9.000000E+99

> <Gold.Chemscore.Hbonds>
donor molecule, donor type, donor heavy atom, donor atom, acceptor molecule, acceptor atom, score
      L1  H     8    43       P1  7957  0.98
      L1  H    13    29       P1  8028  0.26
      P1  H 10752 10763       L1     5  0.07

> <Gold.Chemscore.Hbond.Weighted>
-3.3729

> <Gold.Chemscore.Metal.Weighted>
-0.0000

> <Gold.Chemscore.Lipo.Weighted>
-6.5092

> <Gold.Chemscore.Internal_Hbond.Weighted>
0.0000

> <Gold.Chemscore.DEClash.Weighted>
0.0517

> <Gold.Chemscore.DEInternal.Weighted>
1.8450

> <Gold.Chemscore.Rot.Weighted>
6.1563

> <Gold.Chemscore.Internal.Correction.Weighted>
   9.000000E+99

> <Gold.Protein.RotatedTorsions>
[ 6907 6896 6895 6894 ] final  -11.30 input  -60.11 | X-H torsion
[ 7974 7965 7964 7962 ] final -123.22 input  175.53 | X-H torsion
[ 8008 7997 7996 7995 ] final   33.32 input   59.86 | X-H torsion
[ 10167 10162 10161 10158 ] final -138.72 input  -65.29 | X-H torsion
[ 10718 10713 10712 10709 ] final  -84.62 input   66.30 | X-H torsion
[ 10763 10752 10751 10750 ] final   -3.11 input  -60.55 | X-H torsion
[ 11005 11000 10999 10996 ] final  108.31 input  -57.11 | X-H torsion

> <Gold.Protein.ActiveResidues>
 VAL166  LYS551  ARG553  GLY616  TRP617  ASP618  TYR619  PRO620  LYS621  CYS622 
 ASP623  PHE694  ASN695  SER759  ASP760  ASP761  ALA762  ILE779  LEU786  VAL792 
 PHE793  MET794  SER795  GLU796  ALA797  LYS798  CYS799  TRP800  GLU811  SER814 

> <Gold.Protein.RotatedAtoms>
  151.3884  135.0952  159.9518 H   0  0  0  0  0  0  0  0  0  0  0  0  # atno 6907 bound_to 6896
  152.5087  133.9004  159.7448 H   0  0  0  0  0  0  0  0  0  0  0  0  # atno 6908 bound_to 6896
  150.9452  133.6555  159.2811 H   0  0  0  0  0  0  0  0  0  0  0  0  # atno 6909 bound_to 6896
  145.0210  140.7988  143.4381 H   0  0  0  0  0  0  0  0  0  0  0  0  # atno 7974 bound_to 7965
  155.1367  140.3262  155.4461 H   0  0  0  0  0  0  0  0  0  0  0  0  # atno 8008 bound_to 7997
  156.2617  140.2001  156.6433 H   0  0  0  0  0  0  0  0  0  0  0  0  # atno 8009 bound_to 7997
  154.6572  140.0551  157.0009 H   0  0  0  0  0  0  0  0  0  0  0  0  # atno 8010 bound_to 7997
  139.8451  143.7272  152.2661 H   0  0  0  0  0  0  0  0  0  0  0  0  # atno 10167 bound_to 10162
  156.0004  130.4704  150.4437 H   0  0  0  0  0  0  0  0  0  0  0  0  # atno 10718 bound_to 10713
  153.3670  135.6993  153.6667 H   0  0  0  0  0  0  0  0  0  0  0  0  # atno 10763 bound_to 10752
  153.5333  135.3588  155.2686 H   0  0  0  0  0  0  0  0  0  0  0  0  # atno 10764 bound_to 10752
  154.8676  135.4186  154.2940 H   0  0  0  0  0  0  0  0  0  0  0  0  # atno 10765 bound_to 10752
  139.8842  134.9426  156.5953 H   0  0  0  0  0  0  0  0  0  0  0  0  # atno 11005 bound_to 11000
  145.1896  139.2308  143.5250 LP  0  0  0  0  0  0  0  0  0  0  0  0  # atno 17320 bound_to 7965
  146.3485  140.1689  142.8590 LP  0  0  0  0  0  0  0  0  0  0  0  0  # atno 17321 bound_to 7965
  139.7521  144.7531  151.0491 LP  0  0  0  0  0  0  0  0  0  0  0  0  # atno 17342 bound_to 10162
  140.7794  143.4848  150.9970 LP  0  0  0  0  0  0  0  0  0  0  0  0  # atno 17343 bound_to 10162
  157.2476  131.0539  151.2399 LP  0  0  0  0  0  0  0  0  0  0  0  0  # atno 17370 bound_to 10713
  157.3559  130.7106  149.6471 LP  0  0  0  0  0  0  0  0  0  0  0  0  # atno 17371 bound_to 10713
  140.7925  133.8571  155.8658 LP  0  0  0  0  0  0  0  0  0  0  0  0  # atno 17394 bound_to 11000
  140.9665  134.1588  157.4612 LP  0  0  0  0  0  0  0  0  0  0  0  0  # atno 17395 bound_to 11000

$$$$
