AV-unprocessed.smi:497|AV-procd|sdf|2727|dock1
  -GOLD-   2262023173D 1   1.00000     0.00000
 Structure written by MMmdl.
 39 41  0  0  0  0  0  0  0  0  3 V2000
  147.9625  141.0474  153.7945 C   0  0  0  0  0  0  0  0  0  0  0  0
  149.3143  141.3977  154.0318 O   0  0  0  0  0  0  0  0  0  0  0  0
  149.9297  140.5594  154.9958 C   0  0  0  0  0  0  0  0  0  0  0  0
  149.3032  140.7842  156.3822 C   0  0  0  0  0  0  0  0  0  0  0  0
  150.2307  140.4581  157.4874 N   0  0  0  0  0  0  0  0  0  0  0  0
  150.4794  139.2819  158.1526 C   0  0  0  0  0  0  0  0  0  0  0  0
  149.8620  137.9295  157.9383 C   0  0  0  0  0  0  0  0  0  0  0  0
  149.0463  137.5377  159.0826 N   0  5  0  0  0  0  0  0  0  0  0  0
  148.8259  136.2479  159.4624 C   0  0  0  0  0  0  0  0  0  0  0  0
  149.1409  135.1944  158.8989 O   0  0  0  0  0  0  0  0  0  0  0  0
  148.0757  136.1590  160.7372 C   0  0  0  0  0  0  0  0  0  0  0  0
  147.6365  135.0591  161.4250 C   0  0  0  0  0  0  0  0  0  0  0  0
  146.9538  135.5390  162.5769 C   0  0  0  0  0  0  0  0  0  0  0  0
  147.0230  136.9006  162.5140 C   0  0  0  0  0  0  0  0  0  0  0  0
  147.7008  137.2951  161.4027 O   0  0  0  0  0  0  0  0  0  0  0  0
  151.4229  139.5512  159.0985 N   0  3  0  0  0  0  0  0  0  0  0  0
  151.7871  140.8955  159.0446 C   0  0  0  0  0  0  0  0  0  0  0  0
  152.7004  141.6211  159.8033 C   0  0  0  0  0  0  0  0  0  0  0  0
  152.8343  142.9902  159.4935 C   0  0  0  0  0  0  0  0  0  0  0  0
  152.0763  143.5867  158.4655 C   0  0  0  0  0  0  0  0  0  0  0  0
  151.1540  142.8396  157.7038 C   0  0  0  0  0  0  0  0  0  0  0  0
  151.0274  141.4849  158.0141 C   0  0  0  0  0  0  0  0  0  0  0  0
  147.5357  141.7195  153.0506 H   0  0  0  0  0  0  0  0  0  0  0  0
  147.3676  141.1326  154.7049 H   0  0  0  0  0  0  0  0  0  0  0  0
  147.8799  140.0280  153.4157 H   0  0  0  0  0  0  0  0  0  0  0  0
  149.8148  139.5169  154.7000 H   0  0  0  0  0  0  0  0  0  0  0  0
  151.0001  140.7650  155.0362 H   0  0  0  0  0  0  0  0  0  0  0  0
  148.9990  141.8257  156.4863 H   0  0  0  0  0  0  0  0  0  0  0  0
  148.3915  140.1983  156.4958 H   0  0  0  0  0  0  0  0  0  0  0  0
  149.2997  137.9693  157.0044 H   0  0  0  0  0  0  0  0  0  0  0  0
  150.6640  137.2117  157.7626 H   0  0  0  0  0  0  0  0  0  0  0  0
  147.7859  134.0308  161.1306 H   0  0  0  0  0  0  0  0  0  0  0  0
  146.4721  134.9612  163.3515 H   0  0  0  0  0  0  0  0  0  0  0  0
  146.6621  137.7013  163.1423 H   0  0  0  0  0  0  0  0  0  0  0  0
  153.2794  141.1648  160.5927 H   0  0  0  0  0  0  0  0  0  0  0  0
  153.5304  143.5947  160.0565 H   0  0  0  0  0  0  0  0  0  0  0  0
  152.2026  144.6391  158.2576 H   0  0  0  0  0  0  0  0  0  0  0  0
  150.5731  143.3097  156.9243 H   0  0  0  0  0  0  0  0  0  0  0  0
  151.7811  138.8548  159.7388 H   0  0  0  0  0  0  0  0  0  0  0  0
  1  2  1  0  0  0  0
  1 23  1  0  0  0  0
  1 24  1  0  0  0  0
  1 25  1  0  0  0  0
  2  3  1  0  0  0  0
  3  4  1  0  0  0  0
  3 26  1  0  0  0  0
  3 27  1  0  0  0  0
  4  5  1  0  0  0  0
  4 28  1  0  0  0  0
  4 29  1  0  0  0  0
  5 22  1  0  0  0  0
  5  6  1  0  0  0  0
  6  7  1  0  0  0  0
  6 16  2  0  0  0  0
  7  8  1  0  0  0  0
  7 30  1  0  0  0  0
  7 31  1  0  0  0  0
  8  9  1  0  0  0  0
  9 10  2  0  0  0  0
  9 11  1  0  0  0  0
 11 15  1  0  0  0  0
 11 12  2  0  0  0  0
 12 13  1  0  0  0  0
 12 32  1  0  0  0  0
 13 14  2  0  0  0  0
 13 33  1  0  0  0  0
 14 15  1  0  0  0  0
 14 34  1  0  0  0  0
 16 17  1  0  0  0  0
 16 39  1  0  0  0  0
 17 22  2  0  0  0  0
 17 18  1  0  0  0  0
 18 19  2  0  0  0  0
 18 35  1  0  0  0  0
 19 20  1  0  0  0  0
 19 36  1  0  0  0  0
 20 21  2  0  0  0  0
 20 37  1  0  0  0  0
 21 22  1  0  0  0  0
 21 38  1  0  0  0  0
M  CHG  1   8  -1
M  CHG  1  16   1
M  END
> <s_m_source_file>
AV-unprocessed.smi

> <i_m_source_file_index>
497

> <i_lp_mmshare_version>
43012

> <i_f3d_flags>
0

> <s_epik_input>
W2NIXTFbY0hdW2NIXVtjSF1jKGMxMiluKFtDSDJdW0NIMl1PW0NIM10pYyhuMilbQ0gyXVtOSF1DKD1PKWMzW2NIXVtjSF1bY0hdbzM=

> <s_epik_cmdline>
J2VwaWtfcHl0aG9uJywgJy1waCcsICc3LjAnLCAnLXRuJywgJzgnLCAnLW1hJywgJzIwMCcsICctbWV0YWxfYmluZGluZycsICctaW1hZScsICc8aW5maWxlLm1hZT4nLCAnLW9tYWUnLCAnPG91dGZpbGUubWFlPic=

> <r_epik_Ionization_Penalty>
6.0511

> <r_epik_Ionization_Penalty_Charging>
6.0511

> <r_epik_Ionization_Penalty_Neutral>
2.61117e-12

> <r_epik_State_Penalty>
7.24158

> <r_epik_Charging_Adjusted_Penalty>
13.2927

> <i_epik_Tot_Q>
0

> <i_epik_Tot_abs_Q>
2

> <r_epik_Metal_State_Penalty>
3.25464

> <b_epik_Metal_Only>
1

> <s_lp_Force_Field>
OPLS_2005

> <r_lp_Energy>
9.23096

> <b_lp_Chiralities_Consistent>
1

> <s_lp_Variant>
AV-unprocessed.smi:497-4

> <Gold.Version>
5.8.1

> <Gold.Id.Protein>
6NUR|6NUR_protein|mol2

> <Gold.PLP.Fitness>
55.8080

> <Gold.PLP.PLP>
-46.9770

> <Gold.PLP.part.hbond>
-5.0000

> <Gold.PLP.part.metal>
0.0000

> <Gold.PLP.part.buried>
-3.8306

> <Gold.PLP.part.nonpolar>
-38.1369

> <Gold.PLP.part.repulsive>
0.3648

> <Gold.PLP.ligand.clash>
0.0000

> <Gold.PLP.ligand.torsion>
0.7779

> <Gold.PLP.Chemscore.Hbond>
3.4000

> <Gold.PLP.Chemscore.CHOScore>
0.0000

> <Gold.PLP.Chemscore.Metal>
0.0000

> <Gold.Chemscore.Hbonds>
donor molecule, donor type, donor heavy atom, donor atom, acceptor molecule, acceptor atom, score
      P1  H  6896  6907       L1    10  1.00
      P1  H  6931  6943       L1    15  0.94
      P1  H  6934  6947       L1    15  0.78
      P1  H  8011  8017       L1     2  0.71

> <Gold.PLP.Chemscore.Internal.Correction>
0.1868

> <Gold.Rescore>
     Score         DG    S(hbond)    S(metal)    S(lipo)     H(rot)  DE(clash)    DE(int)     intcor
     21.69     -22.44       2.73        0.00     108.36       1.89       0.05       0.70       ----

> <Gold.Chemscore.Fitness>
21.6858

> <Gold.Chemscore.DG>
-22.4402

> <Gold.Chemscore.ZeroCoef>
-5.4800

> <Gold.Chemscore.Hbond>
2.7300

> <Gold.Chemscore.Metal>
0.0000

> <Gold.Chemscore.Lipo>
108.3617

> <Gold.Chemscore.Internal_Hbond>
0.0000

> <Gold.Chemscore.DEClash>
0.0525

> <Gold.Chemscore.DEInternal>
0.7019

> <Gold.Chemscore.Rot>
1.8892

> <Gold.Chemscore.Internal.Correction>
   9.000000E+99

> <Gold.Chemscore.Hbonds>
donor molecule, donor type, donor heavy atom, donor atom, acceptor molecule, acceptor atom, score
      P1  H  6896  6907       L1    10  0.78
      P1  H  6931  6943       L1    15  0.52
      P1  H  6934  6947       L1    15  0.58
      P1  H  8011  8017       L1     2  0.23

> <Gold.Chemscore.Hbond.Weighted>
-9.1181

> <Gold.Chemscore.Metal.Weighted>
-0.0000

> <Gold.Chemscore.Lipo.Weighted>
-12.6783

> <Gold.Chemscore.Internal_Hbond.Weighted>
0.0000

> <Gold.Chemscore.DEClash.Weighted>
0.0525

> <Gold.Chemscore.DEInternal.Weighted>
0.7019

> <Gold.Chemscore.Rot.Weighted>
4.8363

> <Gold.Chemscore.Internal.Correction.Weighted>
   9.000000E+99

> <Gold.Protein.RotatedTorsions>
[ 6907 6896 6895 6894 ] final  -70.55 input  -60.11 | X-H torsion
[ 7974 7965 7964 7962 ] final   88.57 input  175.53 | X-H torsion
[ 8008 7997 7996 7995 ] final  -17.45 input   59.86 | X-H torsion
[ 10167 10162 10161 10158 ] final  -16.73 input  -65.29 | X-H torsion
[ 10718 10713 10712 10709 ] final -118.79 input   66.30 | X-H torsion
[ 10763 10752 10751 10750 ] final   77.94 input  -60.55 | X-H torsion
[ 11005 11000 10999 10996 ] final   68.54 input  -57.11 | X-H torsion

> <Gold.Protein.ActiveResidues>
 VAL166  LYS551  ARG553  GLY616  TRP617  ASP618  TYR619  PRO620  LYS621  CYS622 
 ASP623  PHE694  ASN695  SER759  ASP760  ASP761  ALA762  ILE779  LEU786  VAL792 
 PHE793  MET794  SER795  GLU796  ALA797  LYS798  CYS799  TRP800  GLU811  SER814 

> <Gold.Protein.RotatedAtoms>
  150.7252  134.5437  159.5759 H   0  0  0  0  0  0  0  0  0  0  0  0  # atno 6907 bound_to 6896
  152.2941  134.7684  160.0380 H   0  0  0  0  0  0  0  0  0  0  0  0  # atno 6908 bound_to 6896
  151.8287  133.3370  159.3643 H   0  0  0  0  0  0  0  0  0  0  0  0  # atno 6909 bound_to 6896
  145.5439  139.2290  143.2550 H   0  0  0  0  0  0  0  0  0  0  0  0  # atno 7974 bound_to 7965
  154.4977  140.2142  155.9411 H   0  0  0  0  0  0  0  0  0  0  0  0  # atno 8008 bound_to 7997
  156.1393  140.3182  155.8437 H   0  0  0  0  0  0  0  0  0  0  0  0  # atno 8009 bound_to 7997
  155.4151  140.0493  157.3020 H   0  0  0  0  0  0  0  0  0  0  0  0  # atno 8010 bound_to 7997
  140.7238  143.5087  150.9778 H   0  0  0  0  0  0  0  0  0  0  0  0  # atno 10167 bound_to 10162
  156.1132  130.6265  150.9335 H   0  0  0  0  0  0  0  0  0  0  0  0  # atno 10718 bound_to 10713
  153.0836  135.4895  154.8553 H   0  0  0  0  0  0  0  0  0  0  0  0  # atno 10763 bound_to 10752
  154.7183  135.3034  154.9091 H   0  0  0  0  0  0  0  0  0  0  0  0  # atno 10764 bound_to 10752
  153.9763  135.6795  153.4801 H   0  0  0  0  0  0  0  0  0  0  0  0  # atno 10765 bound_to 10752
  139.9705  134.6908  156.0456 H   0  0  0  0  0  0  0  0  0  0  0  0  # atno 11005 bound_to 11000
  146.1963  140.6259  142.9123 LP  0  0  0  0  0  0  0  0  0  0  0  0  # atno 17320 bound_to 7965
  144.7563  140.5315  143.6766 LP  0  0  0  0  0  0  0  0  0  0  0  0  # atno 17321 bound_to 7965
  139.8799  143.7085  152.3158 LP  0  0  0  0  0  0  0  0  0  0  0  0  # atno 17342 bound_to 10162
  139.7364  144.7570  151.0721 LP  0  0  0  0  0  0  0  0  0  0  0  0  # atno 17343 bound_to 10162
  157.6314  131.0920  150.8433 LP  0  0  0  0  0  0  0  0  0  0  0  0  # atno 17370 bound_to 10713
  156.8540  130.5090  149.5309 LP  0  0  0  0  0  0  0  0  0  0  0  0  # atno 17371 bound_to 10713
  141.1385  133.6570  156.3661 LP  0  0  0  0  0  0  0  0  0  0  0  0  # atno 17394 bound_to 11000
  140.5303  134.6219  157.5348 LP  0  0  0  0  0  0  0  0  0  0  0  0  # atno 17395 bound_to 11000

$$$$
