AV-unprocessed.smi:2560|AV-procd|sdf|10038|dock4
  -GOLD-   2272014 83D 1   1.00000     0.00000
 Structure written by MMmdl.
 31 32  0  0  0  0  0  0  0  0  1 V2000
  150.1121  133.6437  155.0226 C   0  0  0  0  0  0  0  0  0  0  0  0
  150.1370  134.1943  156.7508 S   0  0  0  0  0  0  0  0  0  0  0  0
  150.8279  135.8168  156.7315 C   0  0  0  0  0  0  0  0  0  0  0  0
  151.3397  136.3312  155.5986 N   0  0  0  0  0  0  0  0  0  0  0  0
  151.9131  137.8880  155.9254 S   0  0  0  0  0  0  0  0  0  0  0  0
  151.4240  137.7522  157.5889 C   0  0  0  0  0  0  0  0  0  0  0  0
  151.6226  138.8001  158.5344 N   0  0  0  0  0  0  0  0  0  0  0  0
  152.1650  140.0294  158.3971 C   0  0  0  0  0  0  0  0  0  0  0  0
  152.5949  140.4164  157.3119 O   0  0  0  0  0  0  0  0  0  0  0  0
  152.2025  140.7862  159.5062 N   0  0  0  0  0  0  0  0  0  0  0  0
  152.7294  142.1419  159.6038 C   0  0  2  0  0  0  0  0  0  0  0  0
  152.6571  142.5956  161.0536 C   0  0  0  0  0  0  0  0  0  0  0  0
  152.2143  143.8044  161.4396 C   0  0  0  0  0  0  0  0  0  0  0  0
  151.7482  144.8731  160.4693 C   0  0  0  0  0  0  0  0  0  0  0  0
  152.1870  144.5725  159.0257 C   0  0  0  0  0  0  0  0  0  0  0  0
  151.9619  143.0975  158.6598 C   0  0  0  0  0  0  0  0  0  0  0  0
  150.8586  136.5723  157.8433 N   0  0  0  0  0  0  0  0  0  0  0  0
  149.6927  132.6403  154.9536 H   0  0  0  0  0  0  0  0  0  0  0  0
  151.1225  133.6251  154.6137 H   0  0  0  0  0  0  0  0  0  0  0  0
  149.5037  134.3152  154.4164 H   0  0  0  0  0  0  0  0  0  0  0  0
  151.3016  138.5867  159.4676 H   0  0  0  0  0  0  0  0  0  0  0  0
  151.8262  140.3865  160.3542 H   0  0  0  0  0  0  0  0  0  0  0  0
  153.7867  142.1344  159.3338 H   0  0  0  0  0  0  0  0  0  0  0  0
  152.9810  141.8867  161.8018 H   0  0  0  0  0  0  0  0  0  0  0  0
  152.1684  144.0483  162.4907 H   0  0  0  0  0  0  0  0  0  0  0  0
  150.6612  144.9348  160.5296 H   0  0  0  0  0  0  0  0  0  0  0  0
  152.1406  145.8406  160.7829 H   0  0  0  0  0  0  0  0  0  0  0  0
  151.6518  145.2211  158.3319 H   0  0  0  0  0  0  0  0  0  0  0  0
  153.2461  144.8082  158.9128 H   0  0  0  0  0  0  0  0  0  0  0  0
  152.2575  142.9198  157.6253 H   0  0  0  0  0  0  0  0  0  0  0  0
  150.8925  142.8874  158.7125 H   0  0  0  0  0  0  0  0  0  0  0  0
  1  2  1  0  0  0  0
  1 18  1  0  0  0  0
  1 19  1  0  0  0  0
  1 20  1  0  0  0  0
  2  3  1  0  0  0  0
  3 17  1  0  0  0  0
  3  4  2  0  0  0  0
  4  5  1  0  0  0  0
  5  6  1  0  0  0  0
  6  7  1  0  0  0  0
  6 17  2  0  0  0  0
  7  8  1  0  0  0  0
  7 21  1  0  0  0  0
  8  9  2  0  0  0  0
  8 10  1  0  0  0  0
 10 11  1  0  0  0  0
 10 22  1  0  0  0  0
 11 16  1  0  0  0  0
 11 12  1  0  0  0  0
 11 23  1  0  0  0  0
 12 13  2  0  0  0  0
 12 24  1  0  0  0  0
 13 14  1  0  0  0  0
 13 25  1  0  0  0  0
 14 15  1  0  0  0  0
 14 26  1  0  0  0  0
 14 27  1  0  0  0  0
 15 16  1  0  0  0  0
 15 28  1  0  0  0  0
 15 29  1  0  0  0  0
 16 30  1  0  0  0  0
 16 31  1  0  0  0  0
M  END
> <s_m_source_file>
AV-unprocessed.smi

> <i_m_source_file_index>
2560

> <i_lp_mmshare_version>
43012

> <i_f3d_flags>
0

> <s_epik_input>
W0NIM11TYzFuc2MobjEpW05IXUMoPU8pW05IXVtDQEBIXTJbQ0hdPVtDSF1bQ0gyXVtDSDJdW0NIMl0y

> <s_epik_cmdline>
J2VwaWtfcHl0aG9uJywgJy1waCcsICc3LjAnLCAnLXRuJywgJzgnLCAnLW1hJywgJzIwMCcsICctbWV0YWxfYmluZGluZycsICctaW1hZScsICc8aW5maWxlLm1hZT4nLCAnLW9tYWUnLCAnPG91dGZpbGUubWFlPic=

> <r_lp_tautomer_probability>
1

> <r_epik_Ionization_Penalty>
2.65559e-05

> <r_epik_Ionization_Penalty_Charging>
0

> <r_epik_Ionization_Penalty_Neutral>
2.65559e-05

> <r_epik_State_Penalty>
-0

> <r_epik_Charging_Adjusted_Penalty>
0

> <i_epik_Tot_Q>
0

> <i_epik_Tot_abs_Q>
0

> <r_epik_Metal_State_Penalty>
-0

> <b_epik_Metal_Only>
0

> <s_lp_Force_Field>
OPLS_2005

> <r_lp_Energy>
8.21818

> <b_lp_Chiralities_Consistent>
1

> <s_lp_Variant>
AV-unprocessed.smi:2560-1

> <Gold.Version>
5.8.1

> <Gold.Id.Protein>
6NUR|6NUR_protein|mol2

> <Gold.PLP.Fitness>
38.7002

> <Gold.PLP.PLP>
-33.0684

> <Gold.PLP.part.hbond>
-2.1862

> <Gold.PLP.part.metal>
0.0000

> <Gold.PLP.part.buried>
-2.6167

> <Gold.PLP.part.nonpolar>
-28.1825

> <Gold.PLP.part.repulsive>
0.3009

> <Gold.PLP.ligand.clash>
0.0000

> <Gold.PLP.ligand.torsion>
0.0553

> <Gold.PLP.Chemscore.Hbond>
1.9120

> <Gold.PLP.Chemscore.CHOScore>
0.0000

> <Gold.PLP.Chemscore.Metal>
0.0000

> <Gold.Chemscore.Hbonds>
donor molecule, donor type, donor heavy atom, donor atom, acceptor molecule, acceptor atom, score
      P1  H  7997  8009       L1     9  0.91
      P1  H 10752 10765       L1     4  0.95

> <Gold.PLP.Chemscore.Internal.Correction>
0.0065

> <Gold.Rescore>
     Score         DG    S(hbond)    S(metal)    S(lipo)     H(rot)  DE(clash)    DE(int)     intcor
     14.63     -16.02       1.05        0.00      87.52       1.25       0.19       1.20       ----

> <Gold.Chemscore.Fitness>
14.6297

> <Gold.Chemscore.DG>
-16.0227

> <Gold.Chemscore.ZeroCoef>
-5.4800

> <Gold.Chemscore.Hbond>
1.0505

> <Gold.Chemscore.Metal>
0.0000

> <Gold.Chemscore.Lipo>
87.5231

> <Gold.Chemscore.Internal_Hbond>
0.0000

> <Gold.Chemscore.DEClash>
0.1917

> <Gold.Chemscore.DEInternal>
1.2012

> <Gold.Chemscore.Rot>
1.2524

> <Gold.Chemscore.Internal.Correction>
   9.000000E+99

> <Gold.Chemscore.Hbonds>
donor molecule, donor type, donor heavy atom, donor atom, acceptor molecule, acceptor atom, score
      P1  H  7997  8009       L1     9  0.88
      P1  H 10752 10765       L1     4  0.20

> <Gold.Chemscore.Hbond.Weighted>
-3.5086

> <Gold.Chemscore.Metal.Weighted>
-0.0000

> <Gold.Chemscore.Lipo.Weighted>
-10.2402

> <Gold.Chemscore.Internal_Hbond.Weighted>
0.0000

> <Gold.Chemscore.DEClash.Weighted>
0.1917

> <Gold.Chemscore.DEInternal.Weighted>
1.2012

> <Gold.Chemscore.Rot.Weighted>
3.2062

> <Gold.Chemscore.Internal.Correction.Weighted>
   9.000000E+99

> <Gold.Protein.RotatedTorsions>
[ 6907 6896 6895 6894 ] final  177.72 input  -60.11 | X-H torsion
[ 7974 7965 7964 7962 ] final  103.18 input  175.53 | X-H torsion
[ 8008 7997 7996 7995 ] final -179.20 input   59.86 | X-H torsion
[ 10167 10162 10161 10158 ] final  -78.04 input  -65.29 | X-H torsion
[ 10718 10713 10712 10709 ] final  -87.15 input   66.30 | X-H torsion
[ 10763 10752 10751 10750 ] final -179.77 input  -60.55 | X-H torsion
[ 11005 11000 10999 10996 ] final -169.12 input  -57.11 | X-H torsion

> <Gold.Protein.ActiveResidues>
 VAL166  LYS551  ARG553  GLY616  TRP617  ASP618  TYR619  PRO620  LYS621  CYS622 
 ASP623  PHE694  ASN695  SER759  ASP760  ASP761  ALA762  ILE779  LEU786  VAL792 
 PHE793  MET794  SER795  GLU796  ALA797  LYS798  CYS799  TRP800  GLU811  SER814 

> <Gold.Protein.RotatedAtoms>
  151.6995  133.3311  159.3262 H   0  0  0  0  0  0  0  0  0  0  0  0  # atno 6907 bound_to 6896
  150.7742  134.6628  159.6358 H   0  0  0  0  0  0  0  0  0  0  0  0  # atno 6908 bound_to 6896
  152.3778  134.6639  160.0205 H   0  0  0  0  0  0  0  0  0  0  0  0  # atno 6909 bound_to 6896
  145.3494  139.2443  143.3566 H   0  0  0  0  0  0  0  0  0  0  0  0  # atno 7974 bound_to 7965
  156.0277  140.1275  157.0291 H   0  0  0  0  0  0  0  0  0  0  0  0  # atno 8008 bound_to 7997
  154.4337  140.1056  156.6125 H   0  0  0  0  0  0  0  0  0  0  0  0  # atno 8009 bound_to 7997
  155.5853  140.3468  155.4553 H   0  0  0  0  0  0  0  0  0  0  0  0  # atno 8010 bound_to 7997
  140.4717  143.2425  151.8194 H   0  0  0  0  0  0  0  0  0  0  0  0  # atno 10167 bound_to 10162
  155.9986  130.4790  150.4823 H   0  0  0  0  0  0  0  0  0  0  0  0  # atno 10718 bound_to 10713
  154.5309  135.2799  155.1181 H   0  0  0  0  0  0  0  0  0  0  0  0  # atno 10763 bound_to 10752
  154.2702  135.6305  153.5311 H   0  0  0  0  0  0  0  0  0  0  0  0  # atno 10764 bound_to 10752
  152.9956  135.5626  154.5822 H   0  0  0  0  0  0  0  0  0  0  0  0  # atno 10765 bound_to 10752
  140.5344  134.5585  157.5083 H   0  0  0  0  0  0  0  0  0  0  0  0  # atno 11005 bound_to 11000
  146.2974  140.4107  142.8716 LP  0  0  0  0  0  0  0  0  0  0  0  0  # atno 17320 bound_to 7965
  144.8729  140.7297  143.6035 LP  0  0  0  0  0  0  0  0  0  0  0  0  # atno 17321 bound_to 7965
  139.4819  144.4883  151.9218 LP  0  0  0  0  0  0  0  0  0  0  0  0  # atno 17342 bound_to 10162
  140.3968  144.2544  150.5895 LP  0  0  0  0  0  0  0  0  0  0  0  0  # atno 17343 bound_to 10162
  157.2827  131.0610  151.2187 LP  0  0  0  0  0  0  0  0  0  0  0  0  # atno 17370 bound_to 10713
  157.3227  130.6945  149.6278 LP  0  0  0  0  0  0  0  0  0  0  0  0  # atno 17371 bound_to 10713
  139.9537  134.7572  156.0390 LP  0  0  0  0  0  0  0  0  0  0  0  0  # atno 17394 bound_to 11000
  141.1263  133.6598  156.3346 LP  0  0  0  0  0  0  0  0  0  0  0  0  # atno 17395 bound_to 11000

$$$$
