AV-unprocessed.smi:2058|AV-procd|sdf|8345|dock2
  -GOLD-   2272011 13D 1   1.00000     0.00000
 Structure written by MMmdl.
 42 43  0  0  0  0  0  0  0  0  1 V2000
  146.7694  133.6492  154.3597 C   0  0  0  0  0  0  0  0  0  0  0  0
  148.2992  133.5199  154.4180 C   0  0  1  0  0  0  0  0  0  0  0  0
  148.8378  132.4868  153.4081 C   0  0  0  0  0  0  0  0  0  0  0  0
  148.2839  132.7102  152.1288 O   0  0  0  0  0  0  0  0  0  0  0  0
  148.8969  134.8300  154.1739 N   0  0  0  0  0  0  0  0  0  0  0  0
  149.2055  135.7322  155.1165 C   0  0  0  0  0  0  0  0  0  0  0  0
  149.0248  135.5464  156.3196 O   0  0  0  0  0  0  0  0  0  0  0  0
  149.7491  136.8339  154.5719 N   0  0  0  0  0  0  0  0  0  0  0  0
  150.2195  138.0033  155.2275 C   0  0  0  0  0  0  0  0  0  0  0  0
  150.5835  137.9004  156.5838 C   0  0  0  0  0  0  0  0  0  0  0  0
  151.0634  139.0398  157.2562 C   0  0  0  0  0  0  0  0  0  0  0  0
  151.1782  140.2598  156.5499 C   0  0  0  0  0  0  0  0  0  0  0  0
  151.6488  141.4162  157.2082 N   0  0  0  0  0  0  0  0  0  0  0  0
  152.3367  141.1716  158.4774 C   0  0  0  0  0  0  0  0  0  0  0  0
  153.1506  142.4015  158.9140 C   0  0  0  0  0  0  0  0  0  0  0  0
  152.2727  143.6610  158.9517 C   0  0  0  0  0  0  0  0  0  0  0  0
  151.5858  143.8637  157.5932 C   0  0  0  0  0  0  0  0  0  0  0  0
  150.7980  142.6087  157.1793 C   0  0  0  0  0  0  0  0  0  0  0  0
  150.8502  140.3530  155.2379 N   0  0  0  0  0  0  0  0  0  0  0  0
  150.3868  139.2591  154.5972 C   0  0  0  0  0  0  0  0  0  0  0  0
  146.2840  132.6989  154.5837 H   0  0  0  0  0  0  0  0  0  0  0  0
  146.4348  133.9686  153.3723 H   0  0  0  0  0  0  0  0  0  0  0  0
  146.4090  134.3783  155.0861 H   0  0  0  0  0  0  0  0  0  0  0  0
  148.5723  133.2038  155.4270 H   0  0  0  0  0  0  0  0  0  0  0  0
  149.9260  132.5252  153.3485 H   0  0  0  0  0  0  0  0  0  0  0  0
  148.5688  131.4738  153.7096 H   0  0  0  0  0  0  0  0  0  0  0  0
  148.7722  132.2038  151.4978 H   0  0  0  0  0  0  0  0  0  0  0  0
  149.0863  135.0672  153.2114 H   0  0  0  0  0  0  0  0  0  0  0  0
  149.9026  136.8060  153.5746 H   0  0  0  0  0  0  0  0  0  0  0  0
  150.4938  136.9604  157.1088 H   0  0  0  0  0  0  0  0  0  0  0  0
  151.3494  138.9645  158.2948 H   0  0  0  0  0  0  0  0  0  0  0  0
  151.5901  140.9329  159.2361 H   0  0  0  0  0  0  0  0  0  0  0  0
  153.0025  140.3117  158.4158 H   0  0  0  0  0  0  0  0  0  0  0  0
  153.5950  142.2254  159.8939 H   0  0  0  0  0  0  0  0  0  0  0  0
  153.9789  142.5544  158.2209 H   0  0  0  0  0  0  0  0  0  0  0  0
  151.5195  143.5620  159.7342 H   0  0  0  0  0  0  0  0  0  0  0  0
  152.8755  144.5338  159.2044 H   0  0  0  0  0  0  0  0  0  0  0  0
  150.9189  144.7251  157.6347 H   0  0  0  0  0  0  0  0  0  0  0  0
  152.3365  144.0892  156.8347 H   0  0  0  0  0  0  0  0  0  0  0  0
  150.3922  142.7571  156.1778 H   0  0  0  0  0  0  0  0  0  0  0  0
  149.9520  142.4611  157.8522 H   0  0  0  0  0  0  0  0  0  0  0  0
  150.1696  139.4090  153.5513 H   0  0  0  0  0  0  0  0  0  0  0  0
  1  2  1  0  0  0  0
  1 21  1  0  0  0  0
  1 22  1  0  0  0  0
  1 23  1  0  0  0  0
  2  3  1  0  0  0  0
  2  5  1  0  0  0  0
  2 24  1  0  0  0  0
  3  4  1  0  0  0  0
  3 25  1  0  0  0  0
  3 26  1  0  0  0  0
  4 27  1  0  0  0  0
  5  6  1  0  0  0  0
  5 28  1  0  0  0  0
  6  7  2  0  0  0  0
  6  8  1  0  0  0  0
  8  9  1  0  0  0  0
  8 29  1  0  0  0  0
  9 20  1  0  0  0  0
  9 10  2  0  0  0  0
 10 11  1  0  0  0  0
 10 30  1  0  0  0  0
 11 12  2  0  0  0  0
 11 31  1  0  0  0  0
 12 13  1  0  0  0  0
 12 19  1  0  0  0  0
 13 18  1  0  0  0  0
 13 14  1  0  0  0  0
 14 15  1  0  0  0  0
 14 32  1  0  0  0  0
 14 33  1  0  0  0  0
 15 16  1  0  0  0  0
 15 34  1  0  0  0  0
 15 35  1  0  0  0  0
 16 17  1  0  0  0  0
 16 36  1  0  0  0  0
 16 37  1  0  0  0  0
 17 18  1  0  0  0  0
 17 38  1  0  0  0  0
 17 39  1  0  0  0  0
 18 40  1  0  0  0  0
 18 41  1  0  0  0  0
 19 20  2  0  0  0  0
 20 42  1  0  0  0  0
M  END
> <s_m_source_file>
AV-unprocessed.smi

> <i_m_source_file_index>
2058

> <i_lp_mmshare_version>
43012

> <i_f3d_flags>
0

> <s_epik_input>
W09IXVtDSDJdW0NAQEhdKFtDSDNdKVtOSF1DKD1PKVtOSF1jMVtjSF1bY0hdYyhuW2NIXTEpTjJbQ0gyXVtDSDJdW0NIMl1bQ0gyXVtDSDJdMg==

> <s_epik_cmdline>
J2VwaWtfcHl0aG9uJywgJy1waCcsICc3LjAnLCAnLXRuJywgJzgnLCAnLW1hJywgJzIwMCcsICctbWV0YWxfYmluZGluZycsICctaW1hZScsICc8aW5maWxlLm1hZT4nLCAnLW9tYWUnLCAnPG91dGZpbGUubWFlPic=

> <r_lp_tautomer_probability>
1

> <r_epik_Ionization_Penalty>
0.104828

> <r_epik_Ionization_Penalty_Charging>
0

> <r_epik_Ionization_Penalty_Neutral>
0.104828

> <r_epik_State_Penalty>
0.0887547

> <r_epik_Charging_Adjusted_Penalty>
0.0887547

> <i_epik_Tot_Q>
0

> <i_epik_Tot_abs_Q>
0

> <r_epik_Metal_State_Penalty>
0.0759464

> <b_epik_Metal_Only>
0

> <s_lp_Force_Field>
OPLS_2005

> <r_lp_Energy>
18.2312

> <b_lp_Chiralities_Consistent>
1

> <s_lp_Variant>
AV-unprocessed.smi:2058-2

> <Gold.Version>
5.8.1

> <Gold.Id.Protein>
6NUR|6NUR_protein|mol2

> <Gold.PLP.Fitness>
43.1025

> <Gold.PLP.PLP>
-31.9951

> <Gold.PLP.part.hbond>
-4.0000

> <Gold.PLP.part.metal>
0.0000

> <Gold.PLP.part.buried>
-3.2717

> <Gold.PLP.part.nonpolar>
-24.1027

> <Gold.PLP.part.repulsive>
0.1176

> <Gold.PLP.ligand.clash>
0.0000

> <Gold.PLP.ligand.torsion>
0.7797

> <Gold.PLP.Chemscore.Hbond>
3.0820

> <Gold.PLP.Chemscore.CHOScore>
1.0000

> <Gold.PLP.Chemscore.Metal>
0.0000

> <Gold.Chemscore.Hbonds>
donor molecule, donor type, donor heavy atom, donor atom, acceptor molecule, acceptor atom, score
      L1  H     4    27       P1 10747  1.00
      L1  H     5    28       P1  7948  0.90
      L1  H     8    29       P1  7948  0.83
      P1  H  7989  7998       L1    19  0.35
      L1  C    20    42       P1  7957  1.00

> <Gold.PLP.Chemscore.Internal.Correction>
0.4208

> <Gold.Rescore>
     Score         DG    S(hbond)    S(metal)    S(lipo)     H(rot)  DE(clash)    DE(int)     intcor
     16.79     -18.89       2.84        0.00      78.42       2.05       0.03       2.07       ----

> <Gold.Chemscore.Fitness>
16.7895

> <Gold.Chemscore.DG>
-18.8900

> <Gold.Chemscore.ZeroCoef>
-5.4800

> <Gold.Chemscore.Hbond>
2.8356

> <Gold.Chemscore.Metal>
0.0000

> <Gold.Chemscore.Lipo>
78.4198

> <Gold.Chemscore.Internal_Hbond>
0.0000

> <Gold.Chemscore.DEClash>
0.0303

> <Gold.Chemscore.DEInternal>
2.0702

> <Gold.Chemscore.Rot>
2.0453

> <Gold.Chemscore.Internal.Correction>
   9.000000E+99

> <Gold.Chemscore.Hbonds>
donor molecule, donor type, donor heavy atom, donor atom, acceptor molecule, acceptor atom, score
      L1  H     4    27       P1 10747  0.97
      L1  H     5    28       P1  7948  0.17
      L1  H     8    29       P1  7948  0.28
      P1  H  7989  7998       L1    19  0.01

> <Gold.Chemscore.Hbond.Weighted>
-9.4709

> <Gold.Chemscore.Metal.Weighted>
-0.0000

> <Gold.Chemscore.Lipo.Weighted>
-9.1751

> <Gold.Chemscore.Internal_Hbond.Weighted>
0.0000

> <Gold.Chemscore.DEClash.Weighted>
0.0303

> <Gold.Chemscore.DEInternal.Weighted>
2.0702

> <Gold.Chemscore.Rot.Weighted>
5.2360

> <Gold.Chemscore.Internal.Correction.Weighted>
   9.000000E+99

> <Gold.Protein.RotatedTorsions>
[ 6907 6896 6895 6894 ] final  110.11 input  -60.11 | X-H torsion
[ 7974 7965 7964 7962 ] final  -26.39 input  175.53 | X-H torsion
[ 8008 7997 7996 7995 ] final  158.60 input   59.86 | X-H torsion
[ 10167 10162 10161 10158 ] final  103.40 input  -65.29 | X-H torsion
[ 10718 10713 10712 10709 ] final  179.93 input   66.30 | X-H torsion
[ 10763 10752 10751 10750 ] final   31.68 input  -60.55 | X-H torsion
[ 11005 11000 10999 10996 ] final -171.09 input  -57.11 | X-H torsion

> <Gold.Protein.ActiveResidues>
 VAL166  LYS551  ARG553  GLY616  TRP617  ASP618  TYR619  PRO620  LYS621  CYS622 
 ASP623  PHE694  ASN695  SER759  ASP760  ASP761  ALA762  ILE779  LEU786  VAL792 
 PHE793  MET794  SER795  GLU796  ALA797  LYS798  CYS799  TRP800  GLU811  SER814 

> <Gold.Protein.RotatedAtoms>
  152.5035  133.8847  159.7363 H   0  0  0  0  0  0  0  0  0  0  0  0  # atno 6907 bound_to 6896
  150.9301  133.6769  159.2819 H   0  0  0  0  0  0  0  0  0  0  0  0  # atno 6908 bound_to 6896
  151.4116  135.0990  159.9639 H   0  0  0  0  0  0  0  0  0  0  0  0  # atno 6909 bound_to 6896
  146.1428  140.5014  142.8644 H   0  0  0  0  0  0  0  0  0  0  0  0  # atno 7974 bound_to 7965
  156.2292  140.1854  156.7285 H   0  0  0  0  0  0  0  0  0  0  0  0  # atno 8008 bound_to 7997
  154.5994  140.0638  156.9375 H   0  0  0  0  0  0  0  0  0  0  0  0  # atno 8009 bound_to 7997
  155.2201  140.3306  155.4319 H   0  0  0  0  0  0  0  0  0  0  0  0  # atno 8010 bound_to 7997
  139.7266  144.7046  151.0788 H   0  0  0  0  0  0  0  0  0  0  0  0  # atno 10167 bound_to 10162
  156.8685  130.9776  151.3076 H   0  0  0  0  0  0  0  0  0  0  0  0  # atno 10718 bound_to 10713
  153.0303  135.6433  154.1236 H   0  0  0  0  0  0  0  0  0  0  0  0  # atno 10763 bound_to 10752
  154.0960  135.2863  155.3263 H   0  0  0  0  0  0  0  0  0  0  0  0  # atno 10764 bound_to 10752
  154.6432  135.5452  153.7877 H   0  0  0  0  0  0  0  0  0  0  0  0  # atno 10765 bound_to 10752
  140.5122  134.5791  157.5022 H   0  0  0  0  0  0  0  0  0  0  0  0  # atno 11005 bound_to 11000
  144.7812  140.5844  143.6604 LP  0  0  0  0  0  0  0  0  0  0  0  0  # atno 17320 bound_to 7965
  145.5007  139.1483  143.3659 LP  0  0  0  0  0  0  0  0  0  0  0  0  # atno 17321 bound_to 7965
  140.7764  143.5097  150.9668 LP  0  0  0  0  0  0  0  0  0  0  0  0  # atno 17342 bound_to 10162
  139.8785  143.7102  152.3159 LP  0  0  0  0  0  0  0  0  0  0  0  0  # atno 17343 bound_to 10162
  157.6209  130.8654  149.9107 LP  0  0  0  0  0  0  0  0  0  0  0  0  # atno 17370 bound_to 10713
  156.0739  130.3681  150.0719 LP  0  0  0  0  0  0  0  0  0  0  0  0  # atno 17371 bound_to 10713
  139.9653  134.7384  156.0152 LP  0  0  0  0  0  0  0  0  0  0  0  0  # atno 17394 bound_to 11000
  141.1379  133.6571  156.3647 LP  0  0  0  0  0  0  0  0  0  0  0  0  # atno 17395 bound_to 11000

$$$$
