AV-unprocessed.smi:1412|AV-procd|sdf|5742|dock1
  -GOLD-   22720 5373D 1   1.00000     0.00000
 Structure written by MMmdl.
 42 43  0  0  0  0  0  0  0  0  2 V2000
  149.1589  140.7845  154.2354 C   0  0  0  0  0  0  0  0  0  0  0  0
  148.2321  139.5696  154.4202 C   0  0  0  0  0  0  0  0  0  0  0  0
  146.8617  139.6470  153.6797 C   0  0  1  0  0  0  0  0  0  0  0  0
  147.1651  139.7648  152.1622 C   0  0  0  0  0  0  0  0  0  0  0  0
  146.0462  138.3391  153.9271 C   0  0  0  0  0  0  0  0  0  0  0  0
  146.4609  137.2178  153.0834 N   0  0  0  0  0  0  0  0  0  0  0  0
  145.6365  136.3300  152.5076 C   0  0  0  0  0  0  0  0  0  0  0  0
  144.4123  136.3613  152.6334 O   0  0  0  0  0  0  0  0  0  0  0  0
  146.3223  135.4171  151.7974 N   0  0  0  0  0  0  0  0  0  0  0  0
  145.8163  134.3043  151.0745 C   0  0  0  0  0  0  0  0  0  0  0  0
  144.6114  134.2862  150.4830 N   0  0  0  0  0  0  0  0  0  0  0  0
  144.3621  133.0764  149.8479 N   0  0  0  0  0  0  0  0  0  0  0  0
  145.3869  132.2305  149.9856 C   0  0  0  0  0  0  0  0  0  0  0  0
  146.7573  132.8294  150.9043 S   0  0  0  0  0  0  0  0  0  0  0  0
  146.0904  140.8525  154.1577 N   0  3  0  0  0  0  0  0  0  0  0  0
  145.8541  140.9425  155.6266 C   0  0  0  0  0  0  0  0  0  0  0  0
  144.8965  142.1030  155.9485 C   0  0  0  0  0  0  0  0  0  0  0  0
  145.4232  143.3208  155.4410 O   0  0  0  0  0  0  0  0  0  0  0  0
  145.5700  143.2813  154.0285 C   0  0  0  0  0  0  0  0  0  0  0  0
  146.5635  142.1720  153.6490 C   0  0  0  0  0  0  0  0  0  0  0  0
  150.0950  140.6319  154.7730 H   0  0  0  0  0  0  0  0  0  0  0  0
  148.7112  141.7004  154.6209 H   0  0  0  0  0  0  0  0  0  0  0  0
  149.4118  140.9467  153.1880 H   0  0  0  0  0  0  0  0  0  0  0  0
  148.7815  138.6907  154.0820 H   0  0  0  0  0  0  0  0  0  0  0  0
  148.0807  139.4000  155.4860 H   0  0  0  0  0  0  0  0  0  0  0  0
  147.9066  139.0327  151.8404 H   0  0  0  0  0  0  0  0  0  0  0  0
  147.5536  140.7492  151.9010 H   0  0  0  0  0  0  0  0  0  0  0  0
  146.2790  139.5886  151.5519 H   0  0  0  0  0  0  0  0  0  0  0  0
  146.0937  138.0381  154.9737 H   0  0  0  0  0  0  0  0  0  0  0  0
  144.9902  138.5068  153.7171 H   0  0  0  0  0  0  0  0  0  0  0  0
  147.4526  137.1145  152.9242 H   0  0  0  0  0  0  0  0  0  0  0  0
  147.3258  135.5227  151.7801 H   0  0  0  0  0  0  0  0  0  0  0  0
  145.3349  131.2466  149.5433 H   0  0  0  0  0  0  0  0  0  0  0  0
  145.4061  140.0314  156.0186 H   0  0  0  0  0  0  0  0  0  0  0  0
  146.7976  141.0911  156.1521 H   0  0  0  0  0  0  0  0  0  0  0  0
  143.9065  141.9182  155.5281 H   0  0  0  0  0  0  0  0  0  0  0  0
  144.7704  142.1970  157.0273 H   0  0  0  0  0  0  0  0  0  0  0  0
  144.6024  143.1209  153.5500 H   0  0  0  0  0  0  0  0  0  0  0  0
  145.9384  144.2486  153.6865 H   0  0  0  0  0  0  0  0  0  0  0  0
  147.5396  142.4148  154.0689 H   0  0  0  0  0  0  0  0  0  0  0  0
  146.6715  142.1700  152.5663 H   0  0  0  0  0  0  0  0  0  0  0  0
  145.1714  140.7322  153.7560 H   0  0  0  0  0  0  0  0  0  0  0  0
  1  2  1  0  0  0  0
  1 21  1  0  0  0  0
  1 22  1  0  0  0  0
  1 23  1  0  0  0  0
  2  3  1  0  0  0  0
  2 24  1  0  0  0  0
  2 25  1  0  0  0  0
  3  4  1  0  0  0  0
  3  5  1  0  0  0  0
  3 15  1  0  0  0  0
  4 26  1  0  0  0  0
  4 27  1  0  0  0  0
  4 28  1  0  0  0  0
  5  6  1  0  0  0  0
  5 29  1  0  0  0  0
  5 30  1  0  0  0  0
  6  7  1  0  0  0  0
  6 31  1  0  0  0  0
  7  8  2  0  0  0  0
  7  9  1  0  0  0  0
  9 10  1  0  0  0  0
  9 32  1  0  0  0  0
 10 14  1  0  0  0  0
 10 11  2  0  0  0  0
 11 12  1  0  0  0  0
 12 13  2  0  0  0  0
 13 14  1  0  0  0  0
 13 33  1  0  0  0  0
 15 20  1  0  0  0  0
 15 16  1  0  0  0  0
 15 42  1  0  0  0  0
 16 17  1  0  0  0  0
 16 34  1  0  0  0  0
 16 35  1  0  0  0  0
 17 18  1  0  0  0  0
 17 36  1  0  0  0  0
 17 37  1  0  0  0  0
 18 19  1  0  0  0  0
 19 20  1  0  0  0  0
 19 38  1  0  0  0  0
 19 39  1  0  0  0  0
 20 40  1  0  0  0  0
 20 41  1  0  0  0  0
M  CHG  1  15   1
M  END
> <s_m_source_file>
AV-unprocessed.smi

> <i_m_source_file_index>
1412

> <i_lp_mmshare_version>
43012

> <i_f3d_flags>
0

> <s_epik_input>
W0NIMl0xW0NIMl1PW0NIMl1bQ0gyXU4xW0NAQF0oW0NIM10pKFtDSDJdW0NIM10pW0NIMl1bTkhdQyg9TylbTkhdYzJubltjSF1zMg==

> <s_epik_cmdline>
J2VwaWtfcHl0aG9uJywgJy1waCcsICc3LjAnLCAnLXRuJywgJzgnLCAnLW1hJywgJzIwMCcsICctbWV0YWxfYmluZGluZycsICctaW1hZScsICc8aW5maWxlLm1hZT4nLCAnLW9tYWUnLCAnPG91dGZpbGUubWFlPic=

> <r_lp_tautomer_probability>
1

> <r_epik_Ionization_Penalty>
0.554649

> <r_epik_Ionization_Penalty_Charging>
0.553838

> <r_epik_Ionization_Penalty_Neutral>
0.000811527

> <r_epik_State_Penalty>
0.564424

> <r_epik_Charging_Adjusted_Penalty>
1.11826

> <i_epik_Tot_Q>
1

> <i_epik_Tot_abs_Q>
1

> <r_epik_Metal_State_Penalty>
0.786249

> <b_epik_Metal_Only>
0

> <s_lp_Force_Field>
OPLS_2005

> <r_lp_Energy>
27.1522

> <b_lp_Chiralities_Consistent>
1

> <s_lp_Variant>
AV-unprocessed.smi:1412-3

> <Gold.Version>
5.8.1

> <Gold.Id.Protein>
6NUR|6NUR_protein|mol2

> <Gold.PLP.Fitness>
40.6093

> <Gold.PLP.PLP>
-30.0661

> <Gold.PLP.part.hbond>
-3.0000

> <Gold.PLP.part.metal>
0.0000

> <Gold.PLP.part.buried>
-1.2140

> <Gold.PLP.part.nonpolar>
-26.2727

> <Gold.PLP.part.repulsive>
0.8761

> <Gold.PLP.ligand.clash>
0.0000

> <Gold.PLP.ligand.torsion>
0.8727

> <Gold.PLP.Chemscore.Hbond>
3.9913

> <Gold.PLP.Chemscore.CHOScore>
0.0000

> <Gold.PLP.Chemscore.Metal>
0.0000

> <Gold.Chemscore.Hbonds>
donor molecule, donor type, donor heavy atom, donor atom, acceptor molecule, acceptor atom, score
      L1  H     6    31       P1  7948  0.95
      L1  H     9    32       P1  7948  1.00
      L1  H    15    42       P1 10175  2.00

> <Gold.PLP.Chemscore.Internal.Correction>
0.3150

> <Gold.Rescore>
     Score         DG    S(hbond)    S(metal)    S(lipo)     H(rot)  DE(clash)    DE(int)     intcor
     14.76     -18.34       2.87        0.00      69.95       1.91       2.46       1.13       ----

> <Gold.Chemscore.Fitness>
14.7582

> <Gold.Chemscore.DG>
-18.3406

> <Gold.Chemscore.ZeroCoef>
-5.4800

> <Gold.Chemscore.Hbond>
2.8671

> <Gold.Chemscore.Metal>
0.0000

> <Gold.Chemscore.Lipo>
69.9524

> <Gold.Chemscore.Internal_Hbond>
0.0000

> <Gold.Chemscore.DEClash>
2.4570

> <Gold.Chemscore.DEInternal>
1.1255

> <Gold.Chemscore.Rot>
1.9140

> <Gold.Chemscore.Internal.Correction>
   9.000000E+99

> <Gold.Chemscore.Hbonds>
donor molecule, donor type, donor heavy atom, donor atom, acceptor molecule, acceptor atom, score
      L1  H     6    31       P1  7948  0.85
      L1  H     9    32       P1  7948  1.00
      L1  H    15    42       P1 10175  0.94

> <Gold.Chemscore.Hbond.Weighted>
-9.5760

> <Gold.Chemscore.Metal.Weighted>
-0.0000

> <Gold.Chemscore.Lipo.Weighted>
-8.1844

> <Gold.Chemscore.Internal_Hbond.Weighted>
0.0000

> <Gold.Chemscore.DEClash.Weighted>
2.4570

> <Gold.Chemscore.DEInternal.Weighted>
1.1255

> <Gold.Chemscore.Rot.Weighted>
4.8998

> <Gold.Chemscore.Internal.Correction.Weighted>
   9.000000E+99

> <Gold.Protein.RotatedTorsions>
[ 6907 6896 6895 6894 ] final -126.34 input  -60.11 | X-H torsion
[ 7974 7965 7964 7962 ] final -178.28 input  175.53 | X-H torsion
[ 8008 7997 7996 7995 ] final  145.87 input   59.86 | X-H torsion
[ 10167 10162 10161 10158 ] final  -68.05 input  -65.29 | X-H torsion
[ 10718 10713 10712 10709 ] final  179.20 input   66.30 | X-H torsion
[ 10763 10752 10751 10750 ] final    1.07 input  -60.55 | X-H torsion
[ 11005 11000 10999 10996 ] final  -29.51 input  -57.11 | X-H torsion

> <Gold.Protein.ActiveResidues>
 VAL166  LYS551  ARG553  GLY616  TRP617  ASP618  TYR619  PRO620  LYS621  CYS622 
 ASP623  PHE694  ASN695  SER759  ASP760  ASP761  ALA762  ILE779  LEU786  VAL792 
 PHE793  MET794  SER795  GLU796  ALA797  LYS798  CYS799  TRP800  GLU811  SER814 

> <Gold.Protein.RotatedAtoms>
  150.8959  133.7181  159.2891 H   0  0  0  0  0  0  0  0  0  0  0  0  # atno 6907 bound_to 6896
  151.4716  135.1045  159.9762 H   0  0  0  0  0  0  0  0  0  0  0  0  # atno 6908 bound_to 6896
  152.4848  133.8298  159.7152 H   0  0  0  0  0  0  0  0  0  0  0  0  # atno 6909 bound_to 6896
  144.7130  140.0893  143.6422 H   0  0  0  0  0  0  0  0  0  0  0  0  # atno 7974 bound_to 7965
  156.2871  140.2197  156.5285 H   0  0  0  0  0  0  0  0  0  0  0  0  # atno 8008 bound_to 7997
  154.7469  140.0483  157.0882 H   0  0  0  0  0  0  0  0  0  0  0  0  # atno 8009 bound_to 7997
  155.0159  140.3118  155.4815 H   0  0  0  0  0  0  0  0  0  0  0  0  # atno 8010 bound_to 7997
  140.5537  143.2312  151.6863 H   0  0  0  0  0  0  0  0  0  0  0  0  # atno 10167 bound_to 10162
  156.8793  130.9810  151.3064 H   0  0  0  0  0  0  0  0  0  0  0  0  # atno 10718 bound_to 10713
  153.3127  135.6964  153.7101 H   0  0  0  0  0  0  0  0  0  0  0  0  # atno 10763 bound_to 10752
  153.5972  135.3469  155.2933 H   0  0  0  0  0  0  0  0  0  0  0  0  # atno 10764 bound_to 10752
  154.8579  135.4332  154.2270 H   0  0  0  0  0  0  0  0  0  0  0  0  # atno 10765 bound_to 10752
  140.9302  133.7343  156.0926 H   0  0  0  0  0  0  0  0  0  0  0  0  # atno 11005 bound_to 11000
  145.9634  139.2817  143.1142 LP  0  0  0  0  0  0  0  0  0  0  0  0  # atno 17320 bound_to 7965
  145.9195  140.9125  143.0412 LP  0  0  0  0  0  0  0  0  0  0  0  0  # atno 17321 bound_to 7965
  139.5038  144.3777  152.0407 LP  0  0  0  0  0  0  0  0  0  0  0  0  # atno 17342 bound_to 10162
  140.2896  144.3768  150.6093 LP  0  0  0  0  0  0  0  0  0  0  0  0  # atno 17343 bound_to 10162
  157.6149  130.8611  149.9013 LP  0  0  0  0  0  0  0  0  0  0  0  0  # atno 17370 bound_to 10713
  156.0685  130.3688  150.0826 LP  0  0  0  0  0  0  0  0  0  0  0  0  # atno 17371 bound_to 10713
  140.7872  134.3658  157.5473 LP  0  0  0  0  0  0  0  0  0  0  0  0  # atno 17394 bound_to 11000
  139.8794  134.9118  156.3046 LP  0  0  0  0  0  0  0  0  0  0  0  0  # atno 17395 bound_to 11000

$$$$
