#       Name:                AV-unprocessed.smi:2626
#       Creating user name   scv26
#       Creation time:       Fri Mar 27 14:24:41 2020


#       File generated by GOLD software.
#

@<TRIPOS>MOLECULE
AV-unprocessed.smi:2626
    33    34     1
SMALL
NO_CHARGES


@<TRIPOS>ATOM
      1 ****        -3.2826   2.2085  -0.0083 C.3            1 S1                 0.0000
      2 ****        -1.7772   2.0421  -0.0078 C.2            1 S1                 0.0000
      3 ****        -0.9357   3.1050  -0.0064 C.2            1 S1                 0.0000
      4 ****         0.5137   2.9010  -0.0046 C.2            1 S1                 0.0000
      5 ****         1.3376   3.8126  -0.0039 O.2            1 S1                 0.0000
      6 ****         0.8968   1.6032  -0.0034 N.am           1 S1                 0.0000
      7 ****        -0.0022   0.5312  -0.0051 C.2            1 S1                 0.0000
      8 ****         0.6360  -0.6987  -0.0027 N.3            1 S1                 0.0000
      9 ****         0.5684  -1.5014   1.2136 C.3            1 S1                 0.0000
     10 ****         1.6031  -2.6389   1.1806 C.3            1 S1                 0.0000
     11 ****         1.4053  -3.4295   0.0147 O.3            1 S1                 0.0000
     12 ****         1.5707  -2.6627  -1.1720 C.3            1 S1                 0.0000
     13 ****         0.5345  -1.5264  -1.1998 C.3            1 S1                 0.0000
     14 ****        -1.2838   0.7306  -0.0078 N.2            1 S1                 0.0000
     15 ****         1.8866   1.4052  -0.0020 H              1 S1                 0.0000
     16 ****        -3.5677   3.2612  -0.0083 H              1 S1                 0.0000
     17 ****        -3.7146   1.7394   0.8760 H              1 S1                 0.0000
     18 ****        -3.7143   1.7391  -0.8925 H              1 S1                 0.0000
     19 ****        -1.3286   4.1112  -0.0061 H              1 S1                 0.0000
     20 ****         0.7424  -0.8711   2.0871 H              1 S1                 0.0000
     21 ****        -0.4363  -1.9148   1.3140 H              1 S1                 0.0000
     22 ****         2.6189  -2.2411   1.1967 H              1 S1                 0.0000
     23 ****         1.4941  -3.2711   2.0619 H              1 S1                 0.0000
     24 ****         2.5856  -2.2650  -1.2236 H              1 S1                 0.0000
     25 ****         1.4386  -3.3126  -2.0370 H              1 S1                 0.0000
     26 ****        -0.4723  -1.9420  -1.2636 H              1 S1                 0.0000
     27 ****         0.6838  -0.9141  -2.0904 H              1 S1                 0.0000
     28 ****         1.0303   4.7642  -0.0045 LP             1 S1                 0.0000
     29 ****         2.3153   3.6028  -0.0026 LP             1 S1                 0.0000
     30 ****         1.5646  -0.3283  -0.0211 LP             1 S1                 0.0000
     31 ****         0.4791  -3.8062   0.0313 LP             1 S1                 0.0000
     32 ****         2.0692  -4.1773   0.0132 LP             1 S1                 0.0000
     33 ****        -1.9147  -0.0453  -0.0098 LP             1 S1                 0.0000
@<TRIPOS>BOND
    1    1    2 1     
    2    1   16 1     
    3    1   17 1     
    4    1   18 1     
    5    2   14 1     
    6    2    3 2     
    7    3    4 1     
    8    3   19 1     
    9    4    5 2     
   10    4    6 am    
   11    6   15 1     
   12    6    7 1     
   13    7    8 1     
   14    7   14 2     
   15    8   13 1     
   16    8    9 1     
   17    9   10 1     
   18    9   20 1     
   19    9   21 1     
   20   10   11 1     
   21   10   22 1     
   22   10   23 1     
   23   11   12 1     
   24   12   13 1     
   25   12   24 1     
   26   12   25 1     
   27   13   26 1     
   28   13   27 1     
   29    5   28 1     
   30    5   29 1     
   31    8   30 1     
   32   11   31 1     
   33   11   32 1     
   34   14   33 1     
@<TRIPOS>SUBSTRUCTURE
      1 S1             1
@<TRIPOS>SET
LONE_PAIRS      STATIC     ATOMS    <user>   **** ""
6 28 29 30 31 32 33
DONOR_HYDROGENS      STATIC     ATOMS    <user>   **** ""
1 15
ATOM$BLUE        STATIC     ATOMS    COLORGROUP SYSTEM
6 28 29 30 31 32 33
ATOM$RED        STATIC     ATOMS    COLORGROUP SYSTEM
1 15
