AV-unprocessed.smi:2567|AV-procd|sdf|10084|dock6
  -GOLD-   2272014113D 1   1.00000     0.00000
 Structure written by MMmdl.
 33 34  0  0  0  0  0  0  0  0  3 V2000
  151.9771  145.7926  160.1764 C   0  0  0  0  0  0  0  0  0  0  0  0
  151.8999  144.5364  159.2899 C   0  0  0  0  0  0  0  0  0  0  0  0
  152.3887  144.9129  157.8751 C   0  0  0  0  0  0  0  0  0  0  0  0
  152.8143  143.4249  159.8369 C   0  0  0  0  0  0  0  0  0  0  0  0
  150.4592  144.0358  159.2419 C   0  0  0  0  0  0  0  0  0  0  0  0
  150.0175  142.9956  158.5090 N   0  5  0  0  0  0  0  0  0  0  0  0
  148.7249  142.8264  158.6930 N   0  0  0  0  0  0  0  0  0  0  0  0
  148.3644  143.7776  159.5659 C   0  0  0  0  0  0  0  0  0  0  0  0
  146.9479  144.0023  160.0518 C   0  0  2  0  0  0  0  0  0  0  0  0
  146.8711  145.2249  160.9870 C   0  0  0  0  0  0  0  0  0  0  0  0
  145.4873  145.4189  161.4615 N   0  3  0  0  0  0  0  0  0  0  0  0
  144.9548  144.1977  162.0959 C   0  0  0  0  0  0  0  0  0  0  0  0
  145.0883  143.0047  161.1351 C   0  0  0  0  0  0  0  0  0  0  0  0
  146.4480  142.8585  160.7425 O   0  0  0  0  0  0  0  0  0  0  0  0
  149.4164  144.5369  159.9014 N   0  0  0  0  0  0  0  0  0  0  0  0
  152.9937  146.1840  160.2249 H   0  0  0  0  0  0  0  0  0  0  0  0
  151.6607  145.5777  161.1978 H   0  0  0  0  0  0  0  0  0  0  0  0
  151.3345  146.5862  159.7938 H   0  0  0  0  0  0  0  0  0  0  0  0
  151.7737  145.7001  157.4372 H   0  0  0  0  0  0  0  0  0  0  0  0
  152.3563  144.0564  157.2008 H   0  0  0  0  0  0  0  0  0  0  0  0
  153.4171  145.2751  157.8930 H   0  0  0  0  0  0  0  0  0  0  0  0
  153.8544  143.7493  159.8763 H   0  0  0  0  0  0  0  0  0  0  0  0
  152.7695  142.5319  159.2122 H   0  0  0  0  0  0  0  0  0  0  0  0
  152.5247  143.1335  160.8471 H   0  0  0  0  0  0  0  0  0  0  0  0
  146.3275  144.1760  159.1705 H   0  0  0  0  0  0  0  0  0  0  0  0
  147.5290  145.0872  161.8466 H   0  0  0  0  0  0  0  0  0  0  0  0
  147.2012  146.1266  160.4701 H   0  0  0  0  0  0  0  0  0  0  0  0
  145.4629  146.1817  162.1229 H   0  0  0  0  0  0  0  0  0  0  0  0
  145.5052  144.0028  163.0173 H   0  0  0  0  0  0  0  0  0  0  0  0
  143.9118  144.3567  162.3703 H   0  0  0  0  0  0  0  0  0  0  0  0
  144.7616  142.0878  161.6262 H   0  0  0  0  0  0  0  0  0  0  0  0
  144.4561  143.1381  160.2558 H   0  0  0  0  0  0  0  0  0  0  0  0
  144.9068  145.6506  160.6681 H   0  0  0  0  0  0  0  0  0  0  0  0
  1  2  1  0  0  0  0
  1 16  1  0  0  0  0
  1 17  1  0  0  0  0
  1 18  1  0  0  0  0
  2  3  1  0  0  0  0
  2  4  1  0  0  0  0
  2  5  1  0  0  0  0
  3 19  1  0  0  0  0
  3 20  1  0  0  0  0
  3 21  1  0  0  0  0
  4 22  1  0  0  0  0
  4 23  1  0  0  0  0
  4 24  1  0  0  0  0
  5 15  2  0  0  0  0
  5  6  1  0  0  0  0
  6  7  1  0  0  0  0
  7  8  2  0  0  0  0
  8  9  1  0  0  0  0
  8 15  1  0  0  0  0
  9 14  1  0  0  0  0
  9 10  1  0  0  0  0
  9 25  1  0  0  0  0
 10 11  1  0  0  0  0
 10 26  1  0  0  0  0
 10 27  1  0  0  0  0
 11 12  1  0  0  0  0
 11 28  1  0  0  0  0
 11 33  1  0  0  0  0
 12 13  1  0  0  0  0
 12 29  1  0  0  0  0
 12 30  1  0  0  0  0
 13 14  1  0  0  0  0
 13 31  1  0  0  0  0
 13 32  1  0  0  0  0
M  CHG  1   6  -1
M  CHG  1  11   1
M  END
> <s_m_source_file>
AV-unprocessed.smi

> <i_m_source_file_index>
2567

> <i_lp_mmshare_version>
43012

> <i_f3d_flags>
0

> <s_epik_input>
W0NIM11DKFtDSDNdKShbQ0gzXSljMW5bbkhdYyhuMSlbQ0BASF0yW0NIMl1bTkhdW0NIMl1bQ0gyXU8y

> <s_epik_cmdline>
J2VwaWtfcHl0aG9uJywgJy1waCcsICc3LjAnLCAnLXRuJywgJzgnLCAnLW1hJywgJzIwMCcsICctbWV0YWxfYmluZGluZycsICctaW1hZScsICc8aW5maWxlLm1hZT4nLCAnLW9tYWUnLCAnPG91dGZpbGUubWFlPic=

> <r_lp_tautomer_probability>
0.948284

> <r_epik_Ionization_Penalty>
5.01189

> <r_epik_Ionization_Penalty_Charging>
5.01189

> <r_epik_Ionization_Penalty_Neutral>
8.99859e-14

> <r_epik_State_Penalty>
2.75157

> <r_epik_Charging_Adjusted_Penalty>
7.76346

> <i_epik_Tot_Q>
0

> <i_epik_Tot_abs_Q>
2

> <r_epik_Metal_State_Penalty>
0.54282

> <b_epik_Metal_Only>
1

> <s_lp_Force_Field>
OPLS_2005

> <r_lp_Energy>
6.85935

> <b_lp_Chiralities_Consistent>
1

> <s_lp_Variant>
AV-unprocessed.smi:2567-9

> <Gold.Version>
5.8.1

> <Gold.Id.Protein>
6NUR|6NUR_protein|mol2

> <Gold.PLP.Fitness>
37.4692

> <Gold.PLP.PLP>
-33.6325

> <Gold.PLP.part.hbond>
-3.8330

> <Gold.PLP.part.metal>
0.0000

> <Gold.PLP.part.buried>
-3.0510

> <Gold.PLP.part.nonpolar>
-26.6276

> <Gold.PLP.part.repulsive>
0.5240

> <Gold.PLP.ligand.clash>
0.0000

> <Gold.PLP.ligand.torsion>
0.0265

> <Gold.PLP.Chemscore.Hbond>
1.2912

> <Gold.PLP.Chemscore.CHOScore>
0.0000

> <Gold.PLP.Chemscore.Metal>
0.0000

> <Gold.Chemscore.Hbonds>
donor molecule, donor type, donor heavy atom, donor atom, acceptor molecule, acceptor atom, score
      P1  H  6933  6944       L1    14  0.26
      P1  H  6934  6946       L1    14  0.98

> <Gold.PLP.Chemscore.Internal.Correction>
0.0159

> <Gold.Rescore>
     Score         DG    S(hbond)    S(metal)    S(lipo)     H(rot)  DE(clash)    DE(int)     intcor
     13.19     -13.29       0.94        0.00      67.29       1.25       0.03       0.07       ----

> <Gold.Chemscore.Fitness>
13.1858

> <Gold.Chemscore.DG>
-13.2897

> <Gold.Chemscore.ZeroCoef>
-5.4800

> <Gold.Chemscore.Hbond>
0.9381

> <Gold.Chemscore.Metal>
0.0000

> <Gold.Chemscore.Lipo>
67.2904

> <Gold.Chemscore.Internal_Hbond>
0.0000

> <Gold.Chemscore.DEClash>
0.0328

> <Gold.Chemscore.DEInternal>
0.0711

> <Gold.Chemscore.Rot>
1.2486

> <Gold.Chemscore.Internal.Correction>
   9.000000E+99

> <Gold.Chemscore.Hbonds>
donor molecule, donor type, donor heavy atom, donor atom, acceptor molecule, acceptor atom, score
      P1  H  6933  6944       L1    14  0.01
      P1  H  6934  6946       L1    14  0.60

> <Gold.Chemscore.Hbond.Weighted>
-3.1332

> <Gold.Chemscore.Metal.Weighted>
-0.0000

> <Gold.Chemscore.Lipo.Weighted>
-7.8730

> <Gold.Chemscore.Internal_Hbond.Weighted>
0.0000

> <Gold.Chemscore.DEClash.Weighted>
0.0328

> <Gold.Chemscore.DEInternal.Weighted>
0.0711

> <Gold.Chemscore.Rot.Weighted>
3.1964

> <Gold.Chemscore.Internal.Correction.Weighted>
   9.000000E+99

> <Gold.Protein.RotatedTorsions>
[ 6907 6896 6895 6894 ] final -166.96 input  -60.11 | X-H torsion
[ 7974 7965 7964 7962 ] final   41.07 input  175.53 | X-H torsion
[ 8008 7997 7996 7995 ] final   74.21 input   59.86 | X-H torsion
[ 10167 10162 10161 10158 ] final -133.10 input  -65.29 | X-H torsion
[ 10718 10713 10712 10709 ] final  160.93 input   66.30 | X-H torsion
[ 10763 10752 10751 10750 ] final  170.16 input  -60.55 | X-H torsion
[ 11005 11000 10999 10996 ] final  -62.12 input  -57.11 | X-H torsion

> <Gold.Protein.ActiveResidues>
 VAL166  LYS551  ARG553  GLY616  TRP617  ASP618  TYR619  PRO620  LYS621  CYS622 
 ASP623  PHE694  ASN695  SER759  ASP760  ASP761  ALA762  ILE779  LEU786  VAL792 
 PHE793  MET794  SER795  GLU796  ALA797  LYS798  CYS799  TRP800  GLU811  SER814 

> <Gold.Protein.RotatedAtoms>
  151.4520  133.3615  159.2796 H   0  0  0  0  0  0  0  0  0  0  0  0  # atno 6907 bound_to 6896
  150.9084  134.8502  159.7419 H   0  0  0  0  0  0  0  0  0  0  0  0  # atno 6908 bound_to 6896
  152.4919  134.4447  159.9607 H   0  0  0  0  0  0  0  0  0  0  0  0  # atno 6909 bound_to 6896
  146.0854  139.5459  142.9510 H   0  0  0  0  0  0  0  0  0  0  0  0  # atno 7974 bound_to 7965
  155.7950  140.3478  155.5370 H   0  0  0  0  0  0  0  0  0  0  0  0  # atno 8008 bound_to 7997
  155.8596  140.0969  157.1642 H   0  0  0  0  0  0  0  0  0  0  0  0  # atno 8009 bound_to 7997
  154.4011  140.1361  156.3931 H   0  0  0  0  0  0  0  0  0  0  0  0  # atno 8010 bound_to 7997
  139.9018  143.6599  152.2593 H   0  0  0  0  0  0  0  0  0  0  0  0  # atno 10167 bound_to 10162
  157.1435  131.0546  151.2315 H   0  0  0  0  0  0  0  0  0  0  0  0  # atno 10718 bound_to 10713
  154.3936  135.2754  155.2139 H   0  0  0  0  0  0  0  0  0  0  0  0  # atno 10763 bound_to 10752
  154.4195  135.6003  153.6005 H   0  0  0  0  0  0  0  0  0  0  0  0  # atno 10764 bound_to 10752
  152.9831  135.5969  154.4195 H   0  0  0  0  0  0  0  0  0  0  0  0  # atno 10765 bound_to 10752
  141.1348  133.6637  156.5479 H   0  0  0  0  0  0  0  0  0  0  0  0  # atno 11005 bound_to 11000
  145.6140  141.0334  143.1951 LP  0  0  0  0  0  0  0  0  0  0  0  0  # atno 17320 bound_to 7965
  144.7322  139.7692  143.7343 LP  0  0  0  0  0  0  0  0  0  0  0  0  # atno 17321 bound_to 7965
  139.7019  144.7634  151.1259 LP  0  0  0  0  0  0  0  0  0  0  0  0  # atno 17342 bound_to 10162
  140.7705  143.5447  150.9273 LP  0  0  0  0  0  0  0  0  0  0  0  0  # atno 17343 bound_to 10162
  157.4285  130.7477  149.6971 LP  0  0  0  0  0  0  0  0  0  0  0  0  # atno 17370 bound_to 10713
  155.9784  130.4052  150.3651 LP  0  0  0  0  0  0  0  0  0  0  0  0  # atno 17371 bound_to 10713
  140.4087  134.7291  157.4823 LP  0  0  0  0  0  0  0  0  0  0  0  0  # atno 17394 bound_to 11000
  140.0443  134.6222  155.8941 LP  0  0  0  0  0  0  0  0  0  0  0  0  # atno 17395 bound_to 11000

$$$$
