AV-unprocessed.smi:2973|AV-procd|sdf|11339|dock4
  -GOLD-   2272016253D 1   1.00000     0.00000
 Structure written by MMmdl.
 49 51  0  0  0  0  0  0  0  0  1 V2000
  149.5328  139.0408  157.6486 C   0  0  0  0  0  0  0  0  0  0  0  0
  150.5323  140.2071  157.4892 C   0  0  2  0  0  0  0  0  0  0  0  0
  151.0742  140.6361  158.8702 C   0  0  0  0  0  0  0  0  0  0  0  0
  152.1277  141.7492  158.7556 C   0  0  0  0  0  0  0  0  0  0  0  0
  151.5770  142.9649  157.9971 C   0  0  0  0  0  0  0  0  0  0  0  0
  151.0482  142.5550  156.6133 C   0  0  0  0  0  0  0  0  0  0  0  0
  149.9787  141.4406  156.7098 C   0  0  2  0  0  0  0  0  0  0  0  0
  148.7479  141.9509  157.2910 N   0  0  0  0  0  0  0  0  0  0  0  0
  147.7140  141.9127  156.4416 C   0  0  0  0  0  0  0  0  0  0  0  0
  146.5690  142.2776  156.7024 O   0  0  0  0  0  0  0  0  0  0  0  0
  148.1431  141.3967  155.2752 N   0  0  0  0  0  0  0  0  0  0  0  0
  147.2804  141.1624  154.1071 C   0  0  0  0  0  0  0  0  0  0  0  0
  147.3241  139.7311  153.5428 C   0  0  0  0  0  0  0  0  0  0  0  0
  148.2473  138.9881  153.8732 O   0  0  0  0  0  0  0  0  0  0  0  0
  146.3505  139.3474  152.6995 N   0  0  0  0  0  0  0  0  0  0  0  0
  146.2548  138.0427  152.0582 C   0  0  0  0  0  0  0  0  0  0  0  0
  144.9965  137.2862  152.5140 C   0  0  0  0  0  0  0  0  0  0  0  0
  144.9539  135.8680  151.9782 C   0  0  0  0  0  0  0  0  0  0  0  0
  145.8262  134.8810  152.4844 C   0  0  0  0  0  0  0  0  0  0  0  0
  145.7419  133.5775  151.9584 C   0  0  0  0  0  0  0  0  0  0  0  0
  144.7928  133.3120  150.9525 C   0  0  0  0  0  0  0  0  0  0  0  0
  143.9667  134.3669  150.5157 C   0  0  0  0  0  0  0  0  0  0  0  0
  144.0388  135.6202  151.0138 N   0  0  0  0  0  0  0  0  0  0  0  0
  149.4461  141.0864  155.3268 C   0  0  0  0  0  0  0  0  0  0  0  0
  150.1269  140.5839  154.4325 O   0  0  0  0  0  0  0  0  0  0  0  0
  148.6413  139.3434  158.1987 H   0  0  0  0  0  0  0  0  0  0  0  0
  149.9869  138.2133  158.1940 H   0  0  0  0  0  0  0  0  0  0  0  0
  149.2132  138.6456  156.6847 H   0  0  0  0  0  0  0  0  0  0  0  0
  151.3802  139.8168  156.9235 H   0  0  0  0  0  0  0  0  0  0  0  0
  150.2530  140.9766  159.5020 H   0  0  0  0  0  0  0  0  0  0  0  0
  151.5144  139.7780  159.3791 H   0  0  0  0  0  0  0  0  0  0  0  0
  152.4585  142.0511  159.7497 H   0  0  0  0  0  0  0  0  0  0  0  0
  153.0091  141.3659  158.2399 H   0  0  0  0  0  0  0  0  0  0  0  0
  150.7795  143.4306  158.5773 H   0  0  0  0  0  0  0  0  0  0  0  0
  152.3574  143.7184  157.8873 H   0  0  0  0  0  0  0  0  0  0  0  0
  150.6464  143.4314  156.1022 H   0  0  0  0  0  0  0  0  0  0  0  0
  151.8857  142.2087  156.0054 H   0  0  0  0  0  0  0  0  0  0  0  0
  148.6923  142.2903  158.2403 H   0  0  0  0  0  0  0  0  0  0  0  0
  146.2459  141.3976  154.3627 H   0  0  0  0  0  0  0  0  0  0  0  0
  147.5453  141.8529  153.3047 H   0  0  0  0  0  0  0  0  0  0  0  0
  145.6262  140.0154  152.4798 H   0  0  0  0  0  0  0  0  0  0  0  0
  146.2633  138.1544  150.9726 H   0  0  0  0  0  0  0  0  0  0  0  0
  147.1477  137.4738  152.3194 H   0  0  0  0  0  0  0  0  0  0  0  0
  144.9544  137.2541  153.6038 H   0  0  0  0  0  0  0  0  0  0  0  0
  144.1000  137.8159  152.1892 H   0  0  0  0  0  0  0  0  0  0  0  0
  146.5422  135.1152  153.2586 H   0  0  0  0  0  0  0  0  0  0  0  0
  146.3924  132.7953  152.3209 H   0  0  0  0  0  0  0  0  0  0  0  0
  144.6998  132.3241  150.5266 H   0  0  0  0  0  0  0  0  0  0  0  0
  143.2278  134.1993  149.7463 H   0  0  0  0  0  0  0  0  0  0  0  0
  1  2  1  0  0  0  0
  1 26  1  0  0  0  0
  1 27  1  0  0  0  0
  1 28  1  0  0  0  0
  2  7  1  0  0  0  0
  2  3  1  0  0  0  0
  2 29  1  0  0  0  0
  3  4  1  0  0  0  0
  3 30  1  0  0  0  0
  3 31  1  0  0  0  0
  4  5  1  0  0  0  0
  4 32  1  0  0  0  0
  4 33  1  0  0  0  0
  5  6  1  0  0  0  0
  5 34  1  0  0  0  0
  5 35  1  0  0  0  0
  6  7  1  0  0  0  0
  6 36  1  0  0  0  0
  6 37  1  0  0  0  0
  7 24  1  0  0  0  0
  7  8  1  0  0  0  0
  8  9  1  0  0  0  0
  8 38  1  0  0  0  0
  9 10  2  0  0  0  0
  9 11  1  0  0  0  0
 11 12  1  0  0  0  0
 11 24  1  0  0  0  0
 12 13  1  0  0  0  0
 12 39  1  0  0  0  0
 12 40  1  0  0  0  0
 13 14  2  0  0  0  0
 13 15  1  0  0  0  0
 15 16  1  0  0  0  0
 15 41  1  0  0  0  0
 16 17  1  0  0  0  0
 16 42  1  0  0  0  0
 16 43  1  0  0  0  0
 17 18  1  0  0  0  0
 17 44  1  0  0  0  0
 17 45  1  0  0  0  0
 18 23  1  0  0  0  0
 18 19  2  0  0  0  0
 19 20  1  0  0  0  0
 19 46  1  0  0  0  0
 20 21  2  0  0  0  0
 20 47  1  0  0  0  0
 21 22  1  0  0  0  0
 21 48  1  0  0  0  0
 22 23  2  0  0  0  0
 22 49  1  0  0  0  0
 24 25  2  0  0  0  0
M  END
> <s_m_source_file>
AV-unprocessed.smi

> <i_m_source_file_index>
2973

> <i_lp_mmshare_version>
43012

> <i_f3d_flags>
0

> <s_epik_input>
W0NIMl0xW0NIMl1bQ0gyXVtDSDJdW0NAQEhdKFtDSDNdKVtDQF0xMltOSF1DKD1PKU4oQzI9TylbQ0gyXUMoPU8pW05IXVtDSDJdW0NIMl1jM1tjSF1bY0hdW2NIXVtjSF1uMw==

> <s_epik_cmdline>
J2VwaWtfcHl0aG9uJywgJy1waCcsICc3LjAnLCAnLXRuJywgJzgnLCAnLW1hJywgJzIwMCcsICctbWV0YWxfYmluZGluZycsICctaW1hZScsICc8aW5maWxlLm1hZT4nLCAnLW9tYWUnLCAnPG91dGZpbGUubWFlPic=

> <r_lp_tautomer_probability>
1

> <r_epik_Ionization_Penalty>
0.0245152

> <r_epik_Ionization_Penalty_Charging>
0

> <r_epik_Ionization_Penalty_Neutral>
0.0245152

> <r_epik_State_Penalty>
0.0198648

> <r_epik_Charging_Adjusted_Penalty>
0.0198648

> <i_epik_Tot_Q>
0

> <i_epik_Tot_abs_Q>
0

> <r_epik_Metal_State_Penalty>
0.0400162

> <b_epik_Metal_Only>
0

> <s_lp_Force_Field>
OPLS_2005

> <r_lp_Energy>
21.7018

> <b_lp_Chiralities_Consistent>
1

> <s_lp_Variant>
AV-unprocessed.smi:2973-3

> <Gold.Version>
5.8.1

> <Gold.Id.Protein>
6NUR|6NUR_protein|mol2

> <Gold.PLP.Fitness>
45.0240

> <Gold.PLP.PLP>
-37.4621

> <Gold.PLP.part.hbond>
-2.1378

> <Gold.PLP.part.metal>
0.0000

> <Gold.PLP.part.buried>
-2.6416

> <Gold.PLP.part.nonpolar>
-34.0237

> <Gold.PLP.part.repulsive>
1.2055

> <Gold.PLP.ligand.clash>
0.0000

> <Gold.PLP.ligand.torsion>
0.4002

> <Gold.PLP.Chemscore.Hbond>
1.7753

> <Gold.PLP.Chemscore.CHOScore>
1.0000

> <Gold.PLP.Chemscore.Metal>
0.0000

> <Gold.Chemscore.Hbonds>
donor molecule, donor type, donor heavy atom, donor atom, acceptor molecule, acceptor atom, score
      L1  H    15    41       P1 10175  0.98
      P1  H  7989  7998       L1    25  0.85
      L1  C    22    49       P1 10186  1.00

> <Gold.PLP.Chemscore.Internal.Correction>
0.0365

> <Gold.Rescore>
     Score         DG    S(hbond)    S(metal)    S(lipo)     H(rot)  DE(clash)    DE(int)     intcor
     13.25     -16.80       1.78        0.00      86.46       1.86       0.06       3.48       ----

> <Gold.Chemscore.Fitness>
13.2510

> <Gold.Chemscore.DG>
-16.7963

> <Gold.Chemscore.ZeroCoef>
-5.4800

> <Gold.Chemscore.Hbond>
1.7814

> <Gold.Chemscore.Metal>
0.0000

> <Gold.Chemscore.Lipo>
86.4634

> <Gold.Chemscore.Internal_Hbond>
0.0000

> <Gold.Chemscore.DEClash>
0.0610

> <Gold.Chemscore.DEInternal>
3.4843

> <Gold.Chemscore.Rot>
1.8553

> <Gold.Chemscore.Internal.Correction>
   9.000000E+99

> <Gold.Chemscore.Hbonds>
donor molecule, donor type, donor heavy atom, donor atom, acceptor molecule, acceptor atom, score
      L1  H    15    41       P1 10175  0.82
      P1  H  7989  7998       L1    25  0.83

> <Gold.Chemscore.Hbond.Weighted>
-5.9497

> <Gold.Chemscore.Metal.Weighted>
-0.0000

> <Gold.Chemscore.Lipo.Weighted>
-10.1162

> <Gold.Chemscore.Internal_Hbond.Weighted>
0.0000

> <Gold.Chemscore.DEClash.Weighted>
0.0610

> <Gold.Chemscore.DEInternal.Weighted>
3.4843

> <Gold.Chemscore.Rot.Weighted>
4.7497

> <Gold.Chemscore.Internal.Correction.Weighted>
   9.000000E+99

> <Gold.Protein.RotatedTorsions>
[ 6907 6896 6895 6894 ] final -173.16 input  -60.11 | X-H torsion
[ 7974 7965 7964 7962 ] final   -2.93 input  175.53 | X-H torsion
[ 8008 7997 7996 7995 ] final -172.48 input   59.86 | X-H torsion
[ 10167 10162 10161 10158 ] final   98.85 input  -65.29 | X-H torsion
[ 10718 10713 10712 10709 ] final -137.97 input   66.30 | X-H torsion
[ 10763 10752 10751 10750 ] final  125.50 input  -60.55 | X-H torsion
[ 11005 11000 10999 10996 ] final  -52.71 input  -57.11 | X-H torsion

> <Gold.Protein.ActiveResidues>
 VAL166  LYS551  ARG553  GLY616  TRP617  ASP618  TYR619  PRO620  LYS621  CYS622 
 ASP623  PHE694  ASN695  SER759  ASP760  ASP761  ALA762  ILE779  LEU786  VAL792 
 PHE793  MET794  SER795  GLU796  ALA797  LYS798  CYS799  TRP800  GLU811  SER814 

> <Gold.Protein.RotatedAtoms>
  151.5517  133.3416  159.2954 H   0  0  0  0  0  0  0  0  0  0  0  0  # atno 6907 bound_to 6896
  150.8475  134.7791  159.6993 H   0  0  0  0  0  0  0  0  0  0  0  0  # atno 6908 bound_to 6896
  152.4529  134.5363  159.9877 H   0  0  0  0  0  0  0  0  0  0  0  0  # atno 6909 bound_to 6896
  146.2397  140.1644  142.8332 H   0  0  0  0  0  0  0  0  0  0  0  0  # atno 7974 bound_to 7965
  155.9451  140.1116  157.1024 H   0  0  0  0  0  0  0  0  0  0  0  0  # atno 8008 bound_to 7997
  154.4097  140.1211  156.5044 H   0  0  0  0  0  0  0  0  0  0  0  0  # atno 8009 bound_to 7997
  155.6913  140.3472  155.4897 H   0  0  0  0  0  0  0  0  0  0  0  0  # atno 8010 bound_to 7997
  139.7671  144.6935  151.0209 H   0  0  0  0  0  0  0  0  0  0  0  0  # atno 10167 bound_to 10162
  156.2940  130.7391  151.1425 H   0  0  0  0  0  0  0  0  0  0  0  0  # atno 10718 bound_to 10713
  153.6783  135.3319  155.3171 H   0  0  0  0  0  0  0  0  0  0  0  0  # atno 10763 bound_to 10752
  154.8473  135.4403  154.1633 H   0  0  0  0  0  0  0  0  0  0  0  0  # atno 10764 bound_to 10752
  153.2643  135.6994  153.7623 H   0  0  0  0  0  0  0  0  0  0  0  0  # atno 10765 bound_to 10752
  141.0938  133.6628  156.4064 H   0  0  0  0  0  0  0  0  0  0  0  0  # atno 11005 bound_to 11000
  145.0062  140.8675  143.5251 LP  0  0  0  0  0  0  0  0  0  0  0  0  # atno 17320 bound_to 7965
  145.1671  139.2425  143.5361 LP  0  0  0  0  0  0  0  0  0  0  0  0  # atno 17321 bound_to 7965
  140.7811  143.4630  151.0251 LP  0  0  0  0  0  0  0  0  0  0  0  0  # atno 17342 bound_to 10162
  139.8315  143.7685  152.3180 LP  0  0  0  0  0  0  0  0  0  0  0  0  # atno 17343 bound_to 10162
  157.7350  131.0576  150.5492 LP  0  0  0  0  0  0  0  0  0  0  0  0  # atno 17370 bound_to 10713
  156.5612  130.4256  149.6062 LP  0  0  0  0  0  0  0  0  0  0  0  0  # atno 17371 bound_to 10713
  140.5188  134.6324  157.5311 LP  0  0  0  0  0  0  0  0  0  0  0  0  # atno 17394 bound_to 11000
  139.9770  134.7199  155.9931 LP  0  0  0  0  0  0  0  0  0  0  0  0  # atno 17395 bound_to 11000

$$$$
