AV-unprocessed.smi:3298|AV-procd|sdf|12647|dock10
  -GOLD-   2272018583D 1   1.00000     0.00000
 Structure written by MMmdl.
 36 37  0  0  0  0  0  0  0  0  2 V2000
  146.8301  139.3644  153.1140 C   0  0  0  0  0  0  0  0  0  0  0  0
  148.1464  139.5809  153.8302 C   0  0  0  0  0  0  0  0  0  0  0  0
  148.4154  140.7482  154.5764 C   0  0  0  0  0  0  0  0  0  0  0  0
  149.6671  140.8975  155.2136 C   0  0  0  0  0  0  0  0  0  0  0  0
  149.8849  142.0833  155.9662 N   0  0  0  0  0  0  0  0  0  0  0  0
  151.0137  142.4953  156.5686 C   0  0  0  0  0  0  0  0  0  0  0  0
  152.0921  141.9025  156.5404 O   0  0  0  0  0  0  0  0  0  0  0  0
  150.8279  143.6615  157.2026 N   0  0  0  0  0  0  0  0  0  0  0  0
  151.8534  144.3732  157.9571 C   0  0  1  0  0  0  0  0  0  0  0  0
  151.2306  145.1395  159.0931 C   0  0  0  0  0  0  0  0  0  0  0  0
  151.7152  144.7851  160.2811 C   0  0  0  0  0  0  0  0  0  0  0  0
  152.7544  143.6985  160.1826 C   0  0  1  0  0  0  0  0  0  0  0  0
  152.4204  142.4628  161.0397 C   0  0  0  0  0  0  0  0  0  0  0  0
  151.8728  142.8259  162.2921 O   0  0  0  0  0  0  0  0  0  0  0  0
  152.8504  143.4145  158.6615 C   0  0  0  0  0  0  0  0  0  0  0  0
  150.6137  139.8476  155.1031 C   0  0  0  0  0  0  0  0  0  0  0  0
  150.2899  138.7044  154.3449 C   0  0  0  0  0  0  0  0  0  0  0  0
  149.0856  138.6138  153.7412 N   0  3  0  0  0  0  0  0  0  0  0  0
  152.3796  145.0774  157.3103 H   0  0  0  0  0  0  0  0  0  0  0  0
  153.6994  144.1190  160.5284 H   0  0  0  0  0  0  0  0  0  0  0  0
  146.1089  140.1395  153.3752 H   0  0  0  0  0  0  0  0  0  0  0  0
  146.4022  138.3983  153.3835 H   0  0  0  0  0  0  0  0  0  0  0  0
  146.9789  139.3866  152.0341 H   0  0  0  0  0  0  0  0  0  0  0  0
  147.6692  141.5260  154.6532 H   0  0  0  0  0  0  0  0  0  0  0  0
  149.1042  142.7220  156.0063 H   0  0  0  0  0  0  0  0  0  0  0  0
  149.9108  144.0828  157.1758 H   0  0  0  0  0  0  0  0  0  0  0  0
  150.4810  145.9001  158.9312 H   0  0  0  0  0  0  0  0  0  0  0  0
  151.4166  145.2118  161.2272 H   0  0  0  0  0  0  0  0  0  0  0  0
  151.7103  141.8217  160.5168 H   0  0  0  0  0  0  0  0  0  0  0  0
  153.3187  141.8692  161.2114 H   0  0  0  0  0  0  0  0  0  0  0  0
  152.3637  142.3900  162.9717 H   0  0  0  0  0  0  0  0  0  0  0  0
  152.6314  142.3694  158.4381 H   0  0  0  0  0  0  0  0  0  0  0  0
  153.8649  143.5980  158.3055 H   0  0  0  0  0  0  0  0  0  0  0  0
  151.5742  139.8908  155.5936 H   0  0  0  0  0  0  0  0  0  0  0  0
  150.9528  137.8623  154.2099 H   0  0  0  0  0  0  0  0  0  0  0  0
  148.8739  137.7761  153.1983 H   0  0  0  0  0  0  0  0  0  0  0  0
  1  2  1  0  0  0  0
  1 21  1  0  0  0  0
  1 22  1  0  0  0  0
  1 23  1  0  0  0  0
  2 18  1  0  0  0  0
  2  3  2  0  0  0  0
  3  4  1  0  0  0  0
  3 24  1  0  0  0  0
  4  5  1  0  0  0  0
  4 16  2  0  0  0  0
  5  6  1  0  0  0  0
  5 25  1  0  0  0  0
  6  7  2  0  0  0  0
  6  8  1  0  0  0  0
  8  9  1  0  0  0  0
  8 26  1  0  0  0  0
  9 19  1  0  0  0  0
  9 15  1  0  0  0  0
  9 10  1  0  0  0  0
 10 11  2  0  0  0  0
 10 27  1  0  0  0  0
 11 12  1  0  0  0  0
 11 28  1  0  0  0  0
 12 20  1  0  0  0  0
 12 13  1  0  0  0  0
 12 15  1  0  0  0  0
 13 14  1  0  0  0  0
 13 29  1  0  0  0  0
 13 30  1  0  0  0  0
 14 31  1  0  0  0  0
 15 32  1  0  0  0  0
 15 33  1  0  0  0  0
 16 17  1  0  0  0  0
 16 34  1  0  0  0  0
 17 18  2  0  0  0  0
 17 35  1  0  0  0  0
 18 36  1  0  0  0  0
M  CHG  1  18   1
M  END
> <s_m_source_file>
AV-unprocessed.smi

> <i_m_source_file_index>
3298

> <i_lp_mmshare_version>
43012

> <i_f3d_flags>
0

> <s_epik_input>
W0NIM11jMVtjSF1jKFtjSF1bY0hdbjEpW05IXUMoPU8pW05IXVtDQEBIXTJbQ0hdPVtDSF1bQ0BASF0oW0NIMl0yKVtDSDJdW09IXQ==

> <s_epik_cmdline>
J2VwaWtfcHl0aG9uJywgJy1waCcsICc3LjAnLCAnLXRuJywgJzgnLCAnLW1hJywgJzIwMCcsICctbWV0YWxfYmluZGluZycsICctaW1hZScsICc8aW5maWxlLm1hZT4nLCAnLW9tYWUnLCAnPG91dGZpbGUubWFlPic=

> <r_epik_Ionization_Penalty>
0.443901

> <r_epik_Ionization_Penalty_Charging>
0.443881

> <r_epik_Ionization_Penalty_Neutral>
1.94967e-05

> <r_epik_State_Penalty>
0.446172

> <r_epik_Charging_Adjusted_Penalty>
0.890053

> <i_epik_Tot_Q>
1

> <i_epik_Tot_abs_Q>
1

> <r_epik_Metal_State_Penalty>
0.675842

> <b_epik_Metal_Only>
0

> <s_lp_Force_Field>
OPLS_2005

> <r_lp_Energy>
27.9023

> <b_lp_Chiralities_Consistent>
1

> <s_lp_Variant>
AV-unprocessed.smi:3298-8

> <Gold.Version>
5.8.1

> <Gold.Id.Protein>
6NUR|6NUR_protein|mol2

> <Gold.PLP.Fitness>
51.6262

> <Gold.PLP.PLP>
-41.0511

> <Gold.PLP.part.hbond>
-6.0000

> <Gold.PLP.part.metal>
0.0000

> <Gold.PLP.part.buried>
2.1347

> <Gold.PLP.part.nonpolar>
-38.0252

> <Gold.PLP.part.repulsive>
0.2093

> <Gold.PLP.ligand.clash>
1.3352

> <Gold.PLP.ligand.torsion>
0.5792

> <Gold.PLP.Chemscore.Hbond>
4.3520

> <Gold.PLP.Chemscore.CHOScore>
0.0000

> <Gold.PLP.Chemscore.Metal>
0.0000

> <Gold.Chemscore.Hbonds>
donor molecule, donor type, donor heavy atom, donor atom, acceptor molecule, acceptor atom, score
      L1  H     5    25       P1  8028  0.67
      L1  H     8    26       P1  8028  0.61
      L1  H    18    36       P1  7948  2.00
      P1  H  6933  6945       L1    14  0.79

> <Gold.PLP.Chemscore.Internal.Correction>
0.0127

> <Gold.Rescore>
     Score         DG    S(hbond)    S(metal)    S(lipo)     H(rot)  DE(clash)    DE(int)     intcor
     18.81     -24.51       3.03        0.00     115.59       1.81       2.33       3.38       ----

> <Gold.Chemscore.Fitness>
18.8054

> <Gold.Chemscore.DG>
-24.5147

> <Gold.Chemscore.ZeroCoef>
-5.4800

> <Gold.Chemscore.Hbond>
3.0342

> <Gold.Chemscore.Metal>
0.0000

> <Gold.Chemscore.Lipo>
115.5913

> <Gold.Chemscore.Internal_Hbond>
0.0000

> <Gold.Chemscore.DEClash>
2.3292

> <Gold.Chemscore.DEInternal>
3.3801

> <Gold.Chemscore.Rot>
1.8061

> <Gold.Chemscore.Internal.Correction>
   9.000000E+99

> <Gold.Chemscore.Hbonds>
donor molecule, donor type, donor heavy atom, donor atom, acceptor molecule, acceptor atom, score
      L1  H     5    25       P1  8028  0.63
      L1  H     8    26       P1  8028  0.44
      L1  H    18    36       P1  7948  0.93
      P1  H  6933  6945       L1    14  0.10

> <Gold.Chemscore.Hbond.Weighted>
-10.1342

> <Gold.Chemscore.Metal.Weighted>
-0.0000

> <Gold.Chemscore.Lipo.Weighted>
-13.5242

> <Gold.Chemscore.Internal_Hbond.Weighted>
0.0000

> <Gold.Chemscore.DEClash.Weighted>
2.3292

> <Gold.Chemscore.DEInternal.Weighted>
3.3801

> <Gold.Chemscore.Rot.Weighted>
4.6237

> <Gold.Chemscore.Internal.Correction.Weighted>
   9.000000E+99

> <Gold.Protein.RotatedTorsions>
[ 6907 6896 6895 6894 ] final -157.99 input  -60.11 | X-H torsion
[ 7974 7965 7964 7962 ] final -108.71 input  175.53 | X-H torsion
[ 8008 7997 7996 7995 ] final -114.27 input   59.86 | X-H torsion
[ 10167 10162 10161 10158 ] final  175.65 input  -65.29 | X-H torsion
[ 10718 10713 10712 10709 ] final -102.34 input   66.30 | X-H torsion
[ 10763 10752 10751 10750 ] final   61.97 input  -60.55 | X-H torsion
[ 11005 11000 10999 10996 ] final  160.75 input  -57.11 | X-H torsion

> <Gold.Protein.ActiveResidues>
 VAL166  LYS551  ARG553  GLY616  TRP617  ASP618  TYR619  PRO620  LYS621  CYS622 
 ASP623  PHE694  ASN695  SER759  ASP760  ASP761  ALA762  ILE779  LEU786  VAL792 
 PHE793  MET794  SER795  GLU796  ALA797  LYS798  CYS799  TRP800  GLU811  SER814 

> <Gold.Protein.RotatedAtoms>
  151.3113  133.4079  159.2646 H   0  0  0  0  0  0  0  0  0  0  0  0  # atno 6907 bound_to 6896
  151.0112  134.9399  159.8018 H   0  0  0  0  0  0  0  0  0  0  0  0  # atno 6908 bound_to 6896
  152.5301  134.3077  159.9154 H   0  0  0  0  0  0  0  0  0  0  0  0  # atno 6909 bound_to 6896
  145.1895  140.9008  143.3433 H   0  0  0  0  0  0  0  0  0  0  0  0  # atno 7974 bound_to 7965
  155.0337  140.0393  157.2483 H   0  0  0  0  0  0  0  0  0  0  0  0  # atno 8008 bound_to 7997
  154.7275  140.2724  155.6462 H   0  0  0  0  0  0  0  0  0  0  0  0  # atno 8009 bound_to 7997
  156.2833  140.2691  156.1965 H   0  0  0  0  0  0  0  0  0  0  0  0  # atno 8010 bound_to 7997
  139.5185  144.3007  152.0381 H   0  0  0  0  0  0  0  0  0  0  0  0  # atno 10167 bound_to 10162
  156.0225  130.5416  150.7095 H   0  0  0  0  0  0  0  0  0  0  0  0  # atno 10718 bound_to 10713
  152.9967  135.5481  154.6119 H   0  0  0  0  0  0  0  0  0  0  0  0  # atno 10763 bound_to 10752
  154.5438  135.2821  155.1074 H   0  0  0  0  0  0  0  0  0  0  0  0  # atno 10764 bound_to 10752
  154.2341  135.6428  153.5237 H   0  0  0  0  0  0  0  0  0  0  0  0  # atno 10765 bound_to 10752
  140.2090  134.8281  157.3100 H   0  0  0  0  0  0  0  0  0  0  0  0  # atno 11005 bound_to 11000
  145.0056  139.3558  143.6146 LP  0  0  0  0  0  0  0  0  0  0  0  0  # atno 17320 bound_to 7965
  146.3439  139.9297  142.8755 LP  0  0  0  0  0  0  0  0  0  0  0  0  # atno 17321 bound_to 7965
  140.2454  144.4225  150.6243 LP  0  0  0  0  0  0  0  0  0  0  0  0  # atno 17342 bound_to 10162
  140.6261  143.2181  151.6593 LP  0  0  0  0  0  0  0  0  0  0  0  0  # atno 17343 bound_to 10162
  157.4736  131.0895  151.0615 LP  0  0  0  0  0  0  0  0  0  0  0  0  # atno 17370 bound_to 10713
  157.1068  130.6005  149.5472 LP  0  0  0  0  0  0  0  0  0  0  0  0  # atno 17371 bound_to 10713
  140.1971  134.4300  155.7683 LP  0  0  0  0  0  0  0  0  0  0  0  0  # atno 17394 bound_to 11000
  141.2226  133.7054  156.8123 LP  0  0  0  0  0  0  0  0  0  0  0  0  # atno 17395 bound_to 11000

$$$$
