AV-unprocessed.smi:2702|AV-procd|sdf|10432|dock6
  -GOLD-   2272014473D 1   1.00000     0.00000
 Structure written by MMmdl.
 47 48  0  0  0  0  0  0  0  0  1 V2000
  147.2552  136.4114  162.8606 C   0  0  0  0  0  0  0  0  0  0  0  0
  147.4515  137.0096  161.5917 O   0  0  0  0  0  0  0  0  0  0  0  0
  147.6995  136.0555  160.5721 C   0  0  0  0  0  0  0  0  0  0  0  0
  148.3238  136.7139  159.3571 C   0  0  0  0  0  0  0  0  0  0  0  0
  147.5810  137.3714  158.4361 C   0  0  0  0  0  0  0  0  0  0  0  0
  148.2148  138.0057  157.2799 C   0  0  0  0  0  0  0  0  0  0  0  0
  147.5733  138.6123  156.4219 O   0  0  0  0  0  0  0  0  0  0  0  0
  149.5732  137.8751  157.2256 N   0  0  0  0  0  0  0  0  0  0  0  0
  150.3617  138.4665  156.1286 C   0  0  0  0  0  0  0  0  0  0  0  0
  151.5180  139.3567  156.6094 C   0  0  0  0  0  0  0  0  0  0  0  0
  152.5627  139.4486  155.9630 O   0  0  0  0  0  0  0  0  0  0  0  0
  151.3064  140.0121  157.7606 N   0  0  0  0  0  0  0  0  0  0  0  0
  152.2478  140.9285  158.4024 C   0  0  2  0  0  0  0  0  0  0  0  0
  152.7750  140.2846  159.6989 C   0  0  0  0  0  0  0  0  0  0  0  0
  153.7332  141.2234  160.4376 C   0  0  0  0  0  0  0  0  0  0  0  0
  153.0518  142.5627  160.7379 C   0  0  0  0  0  0  0  0  0  0  0  0
  152.5354  143.2444  159.4550 C   0  0  2  0  0  0  0  0  0  0  0  0
  151.8956  144.5984  159.8136 C   0  0  0  0  0  0  0  0  0  0  0  0
  151.5782  142.3043  158.6680 C   0  0  1  0  0  0  0  0  0  0  0  0
  151.0911  142.9460  157.3500 C   0  0  0  0  0  0  0  0  0  0  0  0
  150.2994  137.1857  158.2170 C   0  0  0  0  0  0  0  0  0  0  0  0
  149.7139  136.6291  159.2290 N   0  0  0  0  0  0  0  0  0  0  0  0
  147.0649  137.1854  163.6042 H   0  0  0  0  0  0  0  0  0  0  0  0
  148.1383  135.8533  163.1742 H   0  0  0  0  0  0  0  0  0  0  0  0
  146.3985  135.7363  162.8505 H   0  0  0  0  0  0  0  0  0  0  0  0
  148.3798  135.2838  160.9355 H   0  0  0  0  0  0  0  0  0  0  0  0
  146.7668  135.5631  160.2918 H   0  0  0  0  0  0  0  0  0  0  0  0
  146.5086  137.4354  158.5491 H   0  0  0  0  0  0  0  0  0  0  0  0
  150.7688  137.6870  155.4812 H   0  0  0  0  0  0  0  0  0  0  0  0
  149.7185  139.0607  155.4773 H   0  0  0  0  0  0  0  0  0  0  0  0
  150.4207  139.8751  158.2254 H   0  0  0  0  0  0  0  0  0  0  0  0
  153.0957  141.0975  157.7353 H   0  0  0  0  0  0  0  0  0  0  0  0
  151.9403  140.0298  160.3536 H   0  0  0  0  0  0  0  0  0  0  0  0
  153.2871  139.3485  159.4726 H   0  0  0  0  0  0  0  0  0  0  0  0
  154.0675  140.7591  161.3656 H   0  0  0  0  0  0  0  0  0  0  0  0
  154.6262  141.3901  159.8337 H   0  0  0  0  0  0  0  0  0  0  0  0
  152.2243  142.4025  161.4306 H   0  0  0  0  0  0  0  0  0  0  0  0
  153.7583  143.2168  161.2501 H   0  0  0  0  0  0  0  0  0  0  0  0
  153.4010  143.4502  158.8231 H   0  0  0  0  0  0  0  0  0  0  0  0
  150.9644  144.4642  160.3648 H   0  0  0  0  0  0  0  0  0  0  0  0
  151.6803  145.1944  158.9274 H   0  0  0  0  0  0  0  0  0  0  0  0
  152.5645  145.1944  160.4351 H   0  0  0  0  0  0  0  0  0  0  0  0
  150.6990  142.1311  159.2909 H   0  0  0  0  0  0  0  0  0  0  0  0
  151.9290  143.1843  156.6942 H   0  0  0  0  0  0  0  0  0  0  0  0
  150.5328  143.8645  157.5269 H   0  0  0  0  0  0  0  0  0  0  0  0
  150.4203  142.2865  156.7996 H   0  0  0  0  0  0  0  0  0  0  0  0
  151.3807  137.1592  158.0724 H   0  0  0  0  0  0  0  0  0  0  0  0
  1  2  1  0  0  0  0
  1 23  1  0  0  0  0
  1 24  1  0  0  0  0
  1 25  1  0  0  0  0
  2  3  1  0  0  0  0
  3  4  1  0  0  0  0
  3 26  1  0  0  0  0
  3 27  1  0  0  0  0
  4 22  1  0  0  0  0
  4  5  2  0  0  0  0
  5  6  1  0  0  0  0
  5 28  1  0  0  0  0
  6  7  2  0  0  0  0
  6  8  1  0  0  0  0
  8  9  1  0  0  0  0
  8 21  1  0  0  0  0
  9 10  1  0  0  0  0
  9 29  1  0  0  0  0
  9 30  1  0  0  0  0
 10 11  2  0  0  0  0
 10 12  1  0  0  0  0
 12 13  1  0  0  0  0
 12 31  1  0  0  0  0
 13 19  1  0  0  0  0
 13 14  1  0  0  0  0
 13 32  1  0  0  0  0
 14 15  1  0  0  0  0
 14 33  1  0  0  0  0
 14 34  1  0  0  0  0
 15 16  1  0  0  0  0
 15 35  1  0  0  0  0
 15 36  1  0  0  0  0
 16 17  1  0  0  0  0
 16 37  1  0  0  0  0
 16 38  1  0  0  0  0
 17 18  1  0  0  0  0
 17 19  1  0  0  0  0
 17 39  1  0  0  0  0
 18 40  1  0  0  0  0
 18 41  1  0  0  0  0
 18 42  1  0  0  0  0
 19 20  1  0  0  0  0
 19 43  1  0  0  0  0
 20 44  1  0  0  0  0
 20 45  1  0  0  0  0
 20 46  1  0  0  0  0
 21 22  2  0  0  0  0
 21 47  1  0  0  0  0
M  END
> <s_m_source_file>
AV-unprocessed.smi

> <i_m_source_file_index>
2702

> <i_lp_mmshare_version>
43012

> <i_f3d_flags>
0

> <s_epik_input>
W0NIM11PW0NIMl1jMVtjSF1jKD1PKW4oW2NIXW4xKVtDSDJdQyg9TylbTkhdW0NAQEhdMltDSDJdW0NIMl1bQ0gyXVtDQEBIXShbQ0gzXSlbQ0BIXTJbQ0gzXQ==

> <s_epik_cmdline>
J2VwaWtfcHl0aG9uJywgJy1waCcsICc3LjAnLCAnLXRuJywgJzgnLCAnLW1hJywgJzIwMCcsICctbWV0YWxfYmluZGluZycsICctaW1hZScsICc8aW5maWxlLm1hZT4nLCAnLW9tYWUnLCAnPG91dGZpbGUubWFlPic=

> <r_lp_tautomer_probability>
1

> <r_epik_Ionization_Penalty>
1.22164e-06

> <r_epik_Ionization_Penalty_Charging>
3.17988e-07

> <r_epik_Ionization_Penalty_Neutral>
9.03656e-07

> <r_epik_State_Penalty>
-0

> <r_epik_Charging_Adjusted_Penalty>
3.17988e-07

> <i_epik_Tot_Q>
0

> <i_epik_Tot_abs_Q>
0

> <r_epik_Metal_State_Penalty>
-0

> <b_epik_Metal_Only>
0

> <s_lp_Force_Field>
OPLS_2005

> <r_lp_Energy>
18.2474

> <b_lp_Chiralities_Consistent>
1

> <s_lp_Variant>
AV-unprocessed.smi:2702-3

> <Gold.Version>
5.8.1

> <Gold.Id.Protein>
6NUR|6NUR_protein|mol2

> <Gold.PLP.Fitness>
52.8062

> <Gold.PLP.PLP>
-43.2531

> <Gold.PLP.part.hbond>
-3.9665

> <Gold.PLP.part.metal>
0.0000

> <Gold.PLP.part.buried>
-5.9877

> <Gold.PLP.part.nonpolar>
-32.6990

> <Gold.PLP.part.repulsive>
0.0688

> <Gold.PLP.ligand.clash>
0.0000

> <Gold.PLP.ligand.torsion>
0.8616

> <Gold.PLP.Chemscore.Hbond>
3.7520

> <Gold.PLP.Chemscore.CHOScore>
0.0000

> <Gold.PLP.Chemscore.Metal>
0.0000

> <Gold.Chemscore.Hbonds>
donor molecule, donor type, donor heavy atom, donor atom, acceptor molecule, acceptor atom, score
      P1  H  6896  6909       L1    22  0.71
      P1  H  6931  6943       L1     2  0.99
      P1  H  6934  6947       L1     2  0.66
      P1  H  7997  8008       L1    11  1.00

> <Gold.PLP.Chemscore.Internal.Correction>
0.0204

> <Gold.Rescore>
     Score         DG    S(hbond)    S(metal)    S(lipo)     H(rot)  DE(clash)    DE(int)     intcor
     22.50     -23.16       2.90        0.00     110.58       1.93       0.02       0.64       ----

> <Gold.Chemscore.Fitness>
22.4961

> <Gold.Chemscore.DG>
-23.1579

> <Gold.Chemscore.ZeroCoef>
-5.4800

> <Gold.Chemscore.Hbond>
2.8974

> <Gold.Chemscore.Metal>
0.0000

> <Gold.Chemscore.Lipo>
110.5767

> <Gold.Chemscore.Internal_Hbond>
0.0000

> <Gold.Chemscore.DEClash>
0.0217

> <Gold.Chemscore.DEInternal>
0.6401

> <Gold.Chemscore.Rot>
1.9284

> <Gold.Chemscore.Internal.Correction>
   9.000000E+99

> <Gold.Chemscore.Hbonds>
donor molecule, donor type, donor heavy atom, donor atom, acceptor molecule, acceptor atom, score
      P1  H  6896  6909       L1    22  0.42
      P1  H  6931  6943       L1     2  0.30
      P1  H  6934  6947       L1     2  0.60
      P1  H  7997  8008       L1    11  0.99

> <Gold.Chemscore.Hbond.Weighted>
-9.6772

> <Gold.Chemscore.Metal.Weighted>
-0.0000

> <Gold.Chemscore.Lipo.Weighted>
-12.9375

> <Gold.Chemscore.Internal_Hbond.Weighted>
0.0000

> <Gold.Chemscore.DEClash.Weighted>
0.0217

> <Gold.Chemscore.DEInternal.Weighted>
0.6401

> <Gold.Chemscore.Rot.Weighted>
4.9368

> <Gold.Chemscore.Internal.Correction.Weighted>
   9.000000E+99

> <Gold.Protein.RotatedTorsions>
[ 6907 6896 6895 6894 ] final   69.44 input  -60.11 | X-H torsion
[ 7974 7965 7964 7962 ] final -125.49 input  175.53 | X-H torsion
[ 8008 7997 7996 7995 ] final  -30.74 input   59.86 | X-H torsion
[ 10167 10162 10161 10158 ] final -179.99 input  -65.29 | X-H torsion
[ 10718 10713 10712 10709 ] final -125.13 input   66.30 | X-H torsion
[ 10763 10752 10751 10750 ] final  157.13 input  -60.55 | X-H torsion
[ 11005 11000 10999 10996 ] final   32.02 input  -57.11 | X-H torsion

> <Gold.Protein.ActiveResidues>
 VAL166  LYS551  ARG553  GLY616  TRP617  ASP618  TYR619  PRO620  LYS621  CYS622 
 ASP623  PHE694  ASN695  SER759  ASP760  ASP761  ALA762  ILE779  LEU786  VAL792 
 PHE793  MET794  SER795  GLU796  ALA797  LYS798  CYS799  TRP800  GLU811  SER814 

> <Gold.Protein.RotatedAtoms>
  152.4686  134.5015  159.9725 H   0  0  0  0  0  0  0  0  0  0  0  0  # atno 6907 bound_to 6896
  151.5046  133.3491  159.2882 H   0  0  0  0  0  0  0  0  0  0  0  0  # atno 6908 bound_to 6896
  150.8684  134.8080  159.7198 H   0  0  0  0  0  0  0  0  0  0  0  0  # atno 6909 bound_to 6896
  144.9970  140.7785  143.4519 H   0  0  0  0  0  0  0  0  0  0  0  0  # atno 7974 bound_to 7965
  154.4239  140.1783  156.1456 H   0  0  0  0  0  0  0  0  0  0  0  0  # atno 8008 bound_to 7997
  155.9957  140.3365  155.6771 H   0  0  0  0  0  0  0  0  0  0  0  0  # atno 8009 bound_to 7997
  155.6312  140.0670  157.2639 H   0  0  0  0  0  0  0  0  0  0  0  0  # atno 8010 bound_to 7997
  139.5361  144.2493  152.0798 H   0  0  0  0  0  0  0  0  0  0  0  0  # atno 10167 bound_to 10162
  156.1648  130.6627  151.0099 H   0  0  0  0  0  0  0  0  0  0  0  0  # atno 10718 bound_to 10713
  154.1953  135.2793  155.3008 H   0  0  0  0  0  0  0  0  0  0  0  0  # atno 10763 bound_to 10752
  154.5897  135.5564  153.7269 H   0  0  0  0  0  0  0  0  0  0  0  0  # atno 10764 bound_to 10752
  153.0101  135.6365  154.2092 H   0  0  0  0  0  0  0  0  0  0  0  0  # atno 10765 bound_to 10752
  140.2778  134.3007  155.7809 H   0  0  0  0  0  0  0  0  0  0  0  0  # atno 11005 bound_to 11000
  145.2205  139.2161  143.5095 LP  0  0  0  0  0  0  0  0  0  0  0  0  # atno 17320 bound_to 7965
  146.3444  140.2062  142.8589 LP  0  0  0  0  0  0  0  0  0  0  0  0  # atno 17321 bound_to 7965
  140.1964  144.4702  150.6453 LP  0  0  0  0  0  0  0  0  0  0  0  0  # atno 17342 bound_to 10162
  140.6568  143.2240  151.5949 LP  0  0  0  0  0  0  0  0  0  0  0  0  # atno 17343 bound_to 10162
  157.6759  131.0850  150.7494 LP  0  0  0  0  0  0  0  0  0  0  0  0  # atno 17370 bound_to 10713
  156.7556  130.4782  149.5447 LP  0  0  0  0  0  0  0  0  0  0  0  0  # atno 17371 bound_to 10713
  141.2167  133.7506  156.9434 LP  0  0  0  0  0  0  0  0  0  0  0  0  # atno 17394 bound_to 11000
  140.1312  134.9355  157.2339 LP  0  0  0  0  0  0  0  0  0  0  0  0  # atno 17395 bound_to 11000

$$$$
