AV-unprocessed.smi:912|AV-procd|sdf|4140|dock6
  -GOLD-   22720 2 43D 1   1.00000     0.00000
 Structure written by MMmdl.
 26 26  0  0  0  0  0  0  0  0  1 V2000
  143.0597  135.1054  153.5507 C   0  0  0  0  0  0  0  0  0  0  0  0
  144.1896  134.2759  153.9647 N   0  0  0  0  0  0  0  0  0  0  0  0
  145.3541  134.1905  153.0629 C   0  0  1  0  0  0  0  0  0  0  0  0
  145.6467  135.6524  152.6347 C   0  0  0  0  0  0  0  0  0  0  0  0
  146.5887  133.5527  153.7583 C   0  0  0  0  0  0  0  0  0  0  0  0
  147.7413  134.2302  153.7098 N   0  0  0  0  0  0  0  0  0  0  0  0
  146.5106  132.4640  154.3263 O   0  0  0  0  0  0  0  0  0  0  0  0
  145.0385  133.3454  151.8109 C   0  0  0  0  0  0  0  0  0  0  0  0
  143.7419  133.2891  151.2402 C   0  0  0  0  0  0  0  0  0  0  0  0
  143.5289  132.4903  150.0992 C   0  0  0  0  0  0  0  0  0  0  0  0
  144.4986  131.7611  149.5101 N   0  0  0  0  0  0  0  0  0  0  0  0
  145.7324  131.8065  150.0526 C   0  0  0  0  0  0  0  0  0  0  0  0
  146.0507  132.5731  151.1904 C   0  0  0  0  0  0  0  0  0  0  0  0
  142.2381  134.9589  154.2514 H   0  0  0  0  0  0  0  0  0  0  0  0
  142.6966  134.8373  152.5590 H   0  0  0  0  0  0  0  0  0  0  0  0
  143.3011  136.1683  153.5617 H   0  0  0  0  0  0  0  0  0  0  0  0
  143.8285  133.3381  154.0648 H   0  0  0  0  0  0  0  0  0  0  0  0
  146.5071  135.7256  151.9691 H   0  0  0  0  0  0  0  0  0  0  0  0
  145.8593  136.3013  153.4845 H   0  0  0  0  0  0  0  0  0  0  0  0
  144.7964  136.0827  152.1042 H   0  0  0  0  0  0  0  0  0  0  0  0
  148.5648  133.8486  154.1522 H   0  0  0  0  0  0  0  0  0  0  0  0
  147.7820  135.1195  153.2337 H   0  0  0  0  0  0  0  0  0  0  0  0
  142.9090  133.8371  151.6542 H   0  0  0  0  0  0  0  0  0  0  0  0
  142.5490  132.4344  149.6487 H   0  0  0  0  0  0  0  0  0  0  0  0
  146.4908  131.2105  149.5668 H   0  0  0  0  0  0  0  0  0  0  0  0
  147.0581  132.5558  151.5790 H   0  0  0  0  0  0  0  0  0  0  0  0
  1  2  1  0  0  0  0
  1 14  1  0  0  0  0
  1 15  1  0  0  0  0
  1 16  1  0  0  0  0
  2  3  1  0  0  0  0
  2 17  1  0  0  0  0
  3  4  1  0  0  0  0
  3  5  1  0  0  0  0
  3  8  1  0  0  0  0
  4 18  1  0  0  0  0
  4 19  1  0  0  0  0
  4 20  1  0  0  0  0
  5  6  1  0  0  0  0
  5  7  2  0  0  0  0
  6 21  1  0  0  0  0
  6 22  1  0  0  0  0
  8 13  1  0  0  0  0
  8  9  2  0  0  0  0
  9 10  1  0  0  0  0
  9 23  1  0  0  0  0
 10 11  2  0  0  0  0
 10 24  1  0  0  0  0
 11 12  1  0  0  0  0
 12 13  2  0  0  0  0
 12 25  1  0  0  0  0
 13 26  1  0  0  0  0
M  END
> <s_m_source_file>
AV-unprocessed.smi

> <i_m_source_file_index>
912

> <i_lp_mmshare_version>
43012

> <i_f3d_flags>
0

> <s_epik_input>
W0NIM11bTkhdW0NAQF0oW0NIM10pKEMoPU8pW05IMl0pYzFbY0hdW2NIXW5bY0hdW2NIXTE=

> <s_epik_cmdline>
J2VwaWtfcHl0aG9uJywgJy1waCcsICc3LjAnLCAnLXRuJywgJzgnLCAnLW1hJywgJzIwMCcsICctbWV0YWxfYmluZGluZycsICctaW1hZScsICc8aW5maWxlLm1hZT4nLCAnLW9tYWUnLCAnPG91dGZpbGUubWFlPic=

> <r_epik_Ionization_Penalty>
0.458428

> <r_epik_Ionization_Penalty_Charging>
0

> <r_epik_Ionization_Penalty_Neutral>
0.458428

> <r_epik_State_Penalty>
0.443707

> <r_epik_Charging_Adjusted_Penalty>
0.443707

> <i_epik_Tot_Q>
0

> <i_epik_Tot_abs_Q>
0

> <r_epik_Metal_State_Penalty>
0.312856

> <b_epik_Metal_Only>
0

> <s_lp_Force_Field>
OPLS_2005

> <r_lp_Energy>
10.7043

> <b_lp_Chiralities_Consistent>
1

> <s_lp_Variant>
AV-unprocessed.smi:912-1

> <Gold.Version>
5.8.1

> <Gold.Id.Protein>
6NUR|6NUR_protein|mol2

> <Gold.PLP.Fitness>
30.4658

> <Gold.PLP.PLP>
-20.7228

> <Gold.PLP.part.hbond>
-2.8472

> <Gold.PLP.part.metal>
0.0000

> <Gold.PLP.part.buried>
-3.6026

> <Gold.PLP.part.nonpolar>
-15.5851

> <Gold.PLP.part.repulsive>
0.2278

> <Gold.PLP.ligand.clash>
0.0000

> <Gold.PLP.ligand.torsion>
1.4215

> <Gold.PLP.Chemscore.Hbond>
1.7977

> <Gold.PLP.Chemscore.CHOScore>
2.3865

> <Gold.PLP.Chemscore.Metal>
0.0000

> <Gold.Chemscore.Hbonds>
donor molecule, donor type, donor heavy atom, donor atom, acceptor molecule, acceptor atom, score
      L1  H     2    17       P1 10957  0.86
      L1  H     6    22       P1  7948  0.68
      P1  H 10785 10796       L1    11  0.25
      L1  C    10    24       P1 10186  0.86
      L1  C    10    24       P1 10952  0.57
      L1  C    12    25       P1 10747  0.85

> <Gold.PLP.Chemscore.Internal.Correction>
0.0336

> <Gold.Rescore>
     Score         DG    S(hbond)    S(metal)    S(lipo)     H(rot)  DE(clash)    DE(int)     intcor
     13.24     -14.91       2.40        0.00      50.88       1.77       0.17       1.50       ----

> <Gold.Chemscore.Fitness>
13.2373

> <Gold.Chemscore.DG>
-14.9067

> <Gold.Chemscore.ZeroCoef>
-5.4800

> <Gold.Chemscore.Hbond>
2.3978

> <Gold.Chemscore.Metal>
0.0000

> <Gold.Chemscore.Lipo>
50.8755

> <Gold.Chemscore.Internal_Hbond>
0.0000

> <Gold.Chemscore.DEClash>
0.1656

> <Gold.Chemscore.DEInternal>
1.5038

> <Gold.Chemscore.Rot>
1.7712

> <Gold.Chemscore.Internal.Correction>
   9.000000E+99

> <Gold.Chemscore.Hbonds>
donor molecule, donor type, donor heavy atom, donor atom, acceptor molecule, acceptor atom, score
      L1  H     2    17       P1 10957  0.84
      L1  H     6    22       P1  7948  0.65
      P1  H 10785 10796       L1    11  0.05

> <Gold.Chemscore.Hbond.Weighted>
-8.0086

> <Gold.Chemscore.Metal.Weighted>
-0.0000

> <Gold.Chemscore.Lipo.Weighted>
-5.9524

> <Gold.Chemscore.Internal_Hbond.Weighted>
0.0000

> <Gold.Chemscore.DEClash.Weighted>
0.1656

> <Gold.Chemscore.DEInternal.Weighted>
1.5038

> <Gold.Chemscore.Rot.Weighted>
4.5343

> <Gold.Chemscore.Internal.Correction.Weighted>
   9.000000E+99

> <Gold.Protein.RotatedTorsions>
[ 6907 6896 6895 6894 ] final  -27.62 input  -60.11 | X-H torsion
[ 7974 7965 7964 7962 ] final  -45.47 input  175.53 | X-H torsion
[ 8008 7997 7996 7995 ] final -159.51 input   59.86 | X-H torsion
[ 10167 10162 10161 10158 ] final   22.02 input  -65.29 | X-H torsion
[ 10718 10713 10712 10709 ] final -100.14 input   66.30 | X-H torsion
[ 10763 10752 10751 10750 ] final  -19.71 input  -60.55 | X-H torsion
[ 11005 11000 10999 10996 ] final  129.99 input  -57.11 | X-H torsion

> <Gold.Protein.ActiveResidues>
 VAL166  LYS551  ARG553  GLY616  TRP617  ASP618  TYR619  PRO620  LYS621  CYS622 
 ASP623  PHE694  ASN695  SER759  ASP760  ASP761  ALA762  ILE779  LEU786  VAL792 
 PHE793  MET794  SER795  GLU796  ALA797  LYS798  CYS799  TRP800  GLU811  SER814 

> <Gold.Protein.RotatedAtoms>
  151.1444  135.0196  159.8639 H   0  0  0  0  0  0  0  0  0  0  0  0  # atno 6907 bound_to 6896
  152.5453  134.1461  159.8509 H   0  0  0  0  0  0  0  0  0  0  0  0  # atno 6908 bound_to 6896
  151.1540  133.4843  159.2627 H   0  0  0  0  0  0  0  0  0  0  0  0  # atno 6909 bound_to 6896
  145.9817  140.7276  142.9360 H   0  0  0  0  0  0  0  0  0  0  0  0  # atno 7974 bound_to 7965
  155.7637  140.0842  157.2142 H   0  0  0  0  0  0  0  0  0  0  0  0  # atno 8008 bound_to 7997
  154.4001  140.1538  156.2918 H   0  0  0  0  0  0  0  0  0  0  0  0  # atno 8009 bound_to 7997
  155.8815  140.3420  155.5893 H   0  0  0  0  0  0  0  0  0  0  0  0  # atno 8010 bound_to 7997
  140.5381  143.9725  150.6503 H   0  0  0  0  0  0  0  0  0  0  0  0  # atno 10167 bound_to 10162
  156.0154  130.5314  150.6773 H   0  0  0  0  0  0  0  0  0  0  0  0  # atno 10718 bound_to 10713
  153.6090  135.6997  153.5354 H   0  0  0  0  0  0  0  0  0  0  0  0  # atno 10763 bound_to 10752
  153.3033  135.4122  155.1271 H   0  0  0  0  0  0  0  0  0  0  0  0  # atno 10764 bound_to 10752
  154.8567  135.3654  154.5628 H   0  0  0  0  0  0  0  0  0  0  0  0  # atno 10765 bound_to 10752
  139.9647  134.9593  156.9229 H   0  0  0  0  0  0  0  0  0  0  0  0  # atno 11005 bound_to 11000
  144.6863  140.2920  143.7276 LP  0  0  0  0  0  0  0  0  0  0  0  0  # atno 17320 bound_to 7965
  145.7759  139.1874  143.2185 LP  0  0  0  0  0  0  0  0  0  0  0  0  # atno 17321 bound_to 7965
  140.3118  143.3193  152.0871 LP  0  0  0  0  0  0  0  0  0  0  0  0  # atno 17342 bound_to 10162
  139.4978  144.6631  151.6419 LP  0  0  0  0  0  0  0  0  0  0  0  0  # atno 17343 bound_to 10162
  157.4483  131.0869  151.0873 LP  0  0  0  0  0  0  0  0  0  0  0  0  # atno 17370 bound_to 10713
  157.1396  130.6137  149.5551 LP  0  0  0  0  0  0  0  0  0  0  0  0  # atno 17371 bound_to 10713
  140.5423  134.0708  155.7345 LP  0  0  0  0  0  0  0  0  0  0  0  0  # atno 17394 bound_to 11000
  141.1326  133.9276  157.2503 LP  0  0  0  0  0  0  0  0  0  0  0  0  # atno 17395 bound_to 11000

$$$$
