AV-unprocessed.smi:1459|AV-procd|sdf|5925|dock10
  -GOLD-   22720 6 13D 1   1.00000     0.00000
 Structure written by MMmdl.
 34 35  0  0  0  0  0  0  0  0  1 V2000
  147.0420  139.1227  153.0286 C   0  0  0  0  0  0  0  0  0  0  0  0
  148.0887  139.8154  153.8313 C   0  0  0  0  0  0  0  0  0  0  0  0
  148.1028  140.9943  154.5223 C   0  0  0  0  0  0  0  0  0  0  0  0
  149.4199  141.0386  155.0515 C   0  0  0  0  0  0  0  0  0  0  0  0
  149.8475  142.1323  155.8463 N   0  0  0  0  0  0  0  0  0  0  0  0
  150.9305  142.1946  156.6393 C   0  0  0  0  0  0  0  0  0  0  0  0
  151.7375  141.2801  156.8090 O   0  0  0  0  0  0  0  0  0  0  0  0
  151.0243  143.3914  157.2377 N   0  0  0  0  0  0  0  0  0  0  0  0
  152.0625  143.7894  158.1858 C   0  0  1  0  0  0  0  0  0  0  0  0
  151.8291  145.2561  158.5798 C   0  0  0  0  0  0  0  0  0  0  0  0
  152.0478  142.8431  159.4044 C   0  0  2  0  0  0  0  0  0  0  0  0
  152.7702  143.3863  160.6391 C   0  0  0  0  0  0  0  0  0  0  0  0
  153.1392  142.1148  161.3668 C   0  0  0  0  0  0  0  0  0  0  0  0
  153.5151  141.1976  160.2086 C   0  0  0  0  0  0  0  0  0  0  0  0
  152.7202  141.6202  159.1043 O   0  0  0  0  0  0  0  0  0  0  0  0
  150.1445  139.9828  154.7139 N   0  0  0  0  0  0  0  0  0  0  0  0
  149.2948  139.1933  153.9303 O   0  0  0  0  0  0  0  0  0  0  0  0
  146.1242  139.7100  152.9956 H   0  0  0  0  0  0  0  0  0  0  0  0
  146.8061  138.1492  153.4588 H   0  0  0  0  0  0  0  0  0  0  0  0
  147.3810  138.9673  152.0042 H   0  0  0  0  0  0  0  0  0  0  0  0
  147.2988  141.7072  154.6302 H   0  0  0  0  0  0  0  0  0  0  0  0
  149.2647  142.9551  155.8096 H   0  0  0  0  0  0  0  0  0  0  0  0
  150.3116  144.0772  157.0370 H   0  0  0  0  0  0  0  0  0  0  0  0
  153.0422  143.7289  157.7084 H   0  0  0  0  0  0  0  0  0  0  0  0
  152.6151  145.6207  159.2411 H   0  0  0  0  0  0  0  0  0  0  0  0
  150.8756  145.3833  159.0933 H   0  0  0  0  0  0  0  0  0  0  0  0
  151.8226  145.9010  157.7003 H   0  0  0  0  0  0  0  0  0  0  0  0
  151.0205  142.5933  159.6756 H   0  0  0  0  0  0  0  0  0  0  0  0
  153.6742  143.9251  160.3511 H   0  0  0  0  0  0  0  0  0  0  0  0
  152.1494  144.0537  161.2373 H   0  0  0  0  0  0  0  0  0  0  0  0
  153.9475  142.2482  162.0862 H   0  0  0  0  0  0  0  0  0  0  0  0
  152.2701  141.7197  161.8943 H   0  0  0  0  0  0  0  0  0  0  0  0
  154.5659  141.3257  159.9460 H   0  0  0  0  0  0  0  0  0  0  0  0
  153.3492  140.1453  160.4404 H   0  0  0  0  0  0  0  0  0  0  0  0
  1  2  1  0  0  0  0
  1 18  1  0  0  0  0
  1 19  1  0  0  0  0
  1 20  1  0  0  0  0
  2 17  1  0  0  0  0
  2  3  2  0  0  0  0
  3  4  1  0  0  0  0
  3 21  1  0  0  0  0
  4  5  1  0  0  0  0
  4 16  2  0  0  0  0
  5  6  1  0  0  0  0
  5 22  1  0  0  0  0
  6  7  2  0  0  0  0
  6  8  1  0  0  0  0
  8  9  1  0  0  0  0
  8 23  1  0  0  0  0
  9 10  1  0  0  0  0
  9 11  1  0  0  0  0
  9 24  1  0  0  0  0
 10 25  1  0  0  0  0
 10 26  1  0  0  0  0
 10 27  1  0  0  0  0
 11 15  1  0  0  0  0
 11 12  1  0  0  0  0
 11 28  1  0  0  0  0
 12 13  1  0  0  0  0
 12 29  1  0  0  0  0
 12 30  1  0  0  0  0
 13 14  1  0  0  0  0
 13 31  1  0  0  0  0
 13 32  1  0  0  0  0
 14 15  1  0  0  0  0
 14 33  1  0  0  0  0
 14 34  1  0  0  0  0
 16 17  1  0  0  0  0
M  END
> <s_m_source_file>
AV-unprocessed.smi

> <i_m_source_file_index>
1459

> <i_lp_mmshare_version>
43012

> <i_f3d_flags>
0

> <s_epik_input>
W0NIM11jMVtjSF1jKG5vMSlbTkhdQyg9TylbTkhdW0NASF0oW0NIM10pW0NAQEhdMltDSDJdW0NIMl1bQ0gyXU8y

> <s_epik_cmdline>
J2VwaWtfcHl0aG9uJywgJy1waCcsICc3LjAnLCAnLXRuJywgJzgnLCAnLW1hJywgJzIwMCcsICctbWV0YWxfYmluZGluZycsICctaW1hZScsICc8aW5maWxlLm1hZT4nLCAnLW9tYWUnLCAnPG91dGZpbGUubWFlPic=

> <r_lp_tautomer_probability>
1

> <r_epik_Ionization_Penalty>
2.20869e-05

> <r_epik_Ionization_Penalty_Charging>
0

> <r_epik_Ionization_Penalty_Neutral>
2.20869e-05

> <r_epik_State_Penalty>
-0

> <r_epik_Charging_Adjusted_Penalty>
0

> <i_epik_Tot_Q>
0

> <i_epik_Tot_abs_Q>
0

> <r_epik_Metal_State_Penalty>
-0

> <b_epik_Metal_Only>
0

> <s_lp_Force_Field>
OPLS_2005

> <r_lp_Energy>
15.9423

> <b_lp_Chiralities_Consistent>
1

> <s_lp_Variant>
AV-unprocessed.smi:1459-2

> <Gold.Version>
5.8.1

> <Gold.Id.Protein>
6NUR|6NUR_protein|mol2

> <Gold.PLP.Fitness>
44.0835

> <Gold.PLP.PLP>
-36.2617

> <Gold.PLP.part.hbond>
-3.0000

> <Gold.PLP.part.metal>
0.0000

> <Gold.PLP.part.buried>
-2.4581

> <Gold.PLP.part.nonpolar>
-31.8220

> <Gold.PLP.part.repulsive>
2.3741

> <Gold.PLP.ligand.clash>
0.0000

> <Gold.PLP.ligand.torsion>
0.4059

> <Gold.PLP.Chemscore.Hbond>
2.8746

> <Gold.PLP.Chemscore.CHOScore>
0.0000

> <Gold.PLP.Chemscore.Metal>
0.0000

> <Gold.Chemscore.Hbonds>
donor molecule, donor type, donor heavy atom, donor atom, acceptor molecule, acceptor atom, score
      L1  H     5    22       P1  8028  1.00
      L1  H     8    23       P1  8028  0.86
      P1  H  7989  7998       L1    16  0.80

> <Gold.PLP.Chemscore.Internal.Correction>
0.0097

> <Gold.Rescore>
     Score         DG    S(hbond)    S(metal)    S(lipo)     H(rot)  DE(clash)    DE(int)     intcor
     15.25     -20.93       2.51        0.00      88.42       1.28       2.47       3.22       ----

> <Gold.Chemscore.Fitness>
15.2477

> <Gold.Chemscore.DG>
-20.9345

> <Gold.Chemscore.ZeroCoef>
-5.4800

> <Gold.Chemscore.Hbond>
2.5091

> <Gold.Chemscore.Metal>
0.0000

> <Gold.Chemscore.Lipo>
88.4179

> <Gold.Chemscore.Internal_Hbond>
0.0000

> <Gold.Chemscore.DEClash>
2.4686

> <Gold.Chemscore.DEInternal>
3.2182

> <Gold.Chemscore.Rot>
1.2776

> <Gold.Chemscore.Internal.Correction>
   9.000000E+99

> <Gold.Chemscore.Hbonds>
donor molecule, donor type, donor heavy atom, donor atom, acceptor molecule, acceptor atom, score
      L1  H     5    22       P1  8028  0.99
      L1  H     8    23       P1  8028  0.77
      P1  H  7989  7998       L1    16  0.17

> <Gold.Chemscore.Hbond.Weighted>
-8.3803

> <Gold.Chemscore.Metal.Weighted>
-0.0000

> <Gold.Chemscore.Lipo.Weighted>
-10.3449

> <Gold.Chemscore.Internal_Hbond.Weighted>
0.0000

> <Gold.Chemscore.DEClash.Weighted>
2.4686

> <Gold.Chemscore.DEInternal.Weighted>
3.2182

> <Gold.Chemscore.Rot.Weighted>
3.2707

> <Gold.Chemscore.Internal.Correction.Weighted>
   9.000000E+99

> <Gold.Protein.RotatedTorsions>
[ 6907 6896 6895 6894 ] final  173.88 input  -60.11 | X-H torsion
[ 7974 7965 7964 7962 ] final  106.80 input  175.53 | X-H torsion
[ 8008 7997 7996 7995 ] final  -33.21 input   59.86 | X-H torsion
[ 10167 10162 10161 10158 ] final -178.19 input  -65.29 | X-H torsion
[ 10718 10713 10712 10709 ] final -154.79 input   66.30 | X-H torsion
[ 10763 10752 10751 10750 ] final  -14.16 input  -60.55 | X-H torsion
[ 11005 11000 10999 10996 ] final   27.40 input  -57.11 | X-H torsion

> <Gold.Protein.ActiveResidues>
 VAL166  LYS551  ARG553  GLY616  TRP617  ASP618  TYR619  PRO620  LYS621  CYS622 
 ASP623  PHE694  ASN695  SER759  ASP760  ASP761  ALA762  ILE779  LEU786  VAL792 
 PHE793  MET794  SER795  GLU796  ALA797  LYS798  CYS799  TRP800  GLU811  SER814 

> <Gold.Protein.RotatedAtoms>
  151.7612  133.3334  159.3417 H   0  0  0  0  0  0  0  0  0  0  0  0  # atno 6907 bound_to 6896
  150.7497  134.6104  159.6092 H   0  0  0  0  0  0  0  0  0  0  0  0  # atno 6908 bound_to 6896
  152.3404  134.7144  160.0317 H   0  0  0  0  0  0  0  0  0  0  0  0  # atno 6909 bound_to 6896
  145.3019  139.2567  143.3809 H   0  0  0  0  0  0  0  0  0  0  0  0  # atno 7974 bound_to 7965
  154.4156  140.1716  156.1852 H   0  0  0  0  0  0  0  0  0  0  0  0  # atno 8008 bound_to 7997
  155.9649  140.3390  155.6500 H   0  0  0  0  0  0  0  0  0  0  0  0  # atno 8009 bound_to 7997
  155.6701  140.0710  157.2514 H   0  0  0  0  0  0  0  0  0  0  0  0  # atno 8010 bound_to 7997
  139.5444  144.2275  152.0959 H   0  0  0  0  0  0  0  0  0  0  0  0  # atno 10167 bound_to 10162
  156.5041  130.8404  151.2621 H   0  0  0  0  0  0  0  0  0  0  0  0  # atno 10718 bound_to 10713
  153.5242  135.7015  153.5716 H   0  0  0  0  0  0  0  0  0  0  0  0  # atno 10763 bound_to 10752
  153.3752  135.3934  155.1817 H   0  0  0  0  0  0  0  0  0  0  0  0  # atno 10764 bound_to 10752
  154.8691  135.3821  154.4733 H   0  0  0  0  0  0  0  0  0  0  0  0  # atno 10765 bound_to 10752
  140.3266  134.2484  155.7708 H   0  0  0  0  0  0  0  0  0  0  0  0  # atno 11005 bound_to 11000
  146.3149  140.3535  142.8658 LP  0  0  0  0  0  0  0  0  0  0  0  0  # atno 17320 bound_to 7965
  144.9086  140.7730  143.5821 LP  0  0  0  0  0  0  0  0  0  0  0  0  # atno 17321 bound_to 7965
  140.1759  144.4891  150.6554 LP  0  0  0  0  0  0  0  0  0  0  0  0  # atno 17342 bound_to 10162
  140.6687  143.2277  151.5680 LP  0  0  0  0  0  0  0  0  0  0  0  0  # atno 17343 bound_to 10162
  157.7459  130.9972  150.2807 LP  0  0  0  0  0  0  0  0  0  0  0  0  # atno 17370 bound_to 10713
  156.3304  130.3799  149.7496 LP  0  0  0  0  0  0  0  0  0  0  0  0  # atno 17371 bound_to 10713
  141.2073  133.7808  157.0124 LP  0  0  0  0  0  0  0  0  0  0  0  0  # atno 17394 bound_to 11000
  140.0896  134.9600  157.1755 LP  0  0  0  0  0  0  0  0  0  0  0  0  # atno 17395 bound_to 11000

$$$$
