AV-unprocessed.smi:1008|AV-procd|sdf|4412|dock9
  -GOLD-   22720 2353D 1   1.00000     0.00000
 Structure written by MMmdl.
 23 23  0  0  0  0  0  0  0  0  1 V2000
  152.4160  141.2192  159.1587 C   0  0  0  0  0  0  0  0  0  0  0  0
  151.8613  140.9901  157.7646 C   0  0  0  0  0  0  0  0  0  0  0  0
  152.4426  139.9970  157.0557 N   0  0  0  0  0  0  0  0  0  0  0  0
  151.9763  139.7809  155.8258 C   0  0  0  0  0  0  0  0  0  0  0  0
  152.5701  138.7686  155.1128 N   0  0  0  0  0  0  0  0  0  0  0  0
  150.9943  140.4453  155.2156 N   0  0  0  0  0  0  0  0  0  0  0  0
  150.4002  141.4408  155.9084 C   0  0  0  0  0  0  0  0  0  0  0  0
  149.3983  142.1362  155.2956 O   0  0  0  0  0  0  0  0  0  0  0  0
  150.8016  141.7648  157.2281 C   0  0  0  0  0  0  0  0  0  0  0  0
  150.1347  142.8885  158.0110 C   0  0  0  0  0  0  0  0  0  0  0  0
  151.0846  144.0709  158.2458 C   0  0  0  0  0  0  0  0  0  0  0  0
  150.3609  145.1723  158.7491 O   0  0  0  0  0  0  0  0  0  0  0  0
  149.4091  143.0555  155.5135 H   0  0  0  0  0  0  0  0  0  0  0  0
  152.6880  142.2656  159.2969 H   0  0  0  0  0  0  0  0  0  0  0  0
  153.3075  140.6166  159.3365 H   0  0  0  0  0  0  0  0  0  0  0  0
  151.6735  140.9511  159.9103 H   0  0  0  0  0  0  0  0  0  0  0  0
  153.3199  138.2286  155.5195 H   0  0  0  0  0  0  0  0  0  0  0  0
  152.2751  138.5684  154.1682 H   0  0  0  0  0  0  0  0  0  0  0  0
  149.7653  142.5101  158.9640 H   0  0  0  0  0  0  0  0  0  0  0  0
  149.2488  143.2254  157.4717 H   0  0  0  0  0  0  0  0  0  0  0  0
  151.8656  143.8050  158.9586 H   0  0  0  0  0  0  0  0  0  0  0  0
  151.5753  144.3623  157.3167 H   0  0  0  0  0  0  0  0  0  0  0  0
  149.6102  145.3177  158.1936 H   0  0  0  0  0  0  0  0  0  0  0  0
  1 14  1  0  0  0  0
  1 15  1  0  0  0  0
  1 16  1  0  0  0  0
  1  2  1  0  0  0  0
  2  9  2  0  0  0  0
  2  3  1  0  0  0  0
  3  4  2  0  0  0  0
  4  5  1  0  0  0  0
  4  6  1  0  0  0  0
  5 17  1  0  0  0  0
  5 18  1  0  0  0  0
  6  7  2  0  0  0  0
  7  8  1  0  0  0  0
  7  9  1  0  0  0  0
  8 13  1  0  0  0  0
  9 10  1  0  0  0  0
 10 11  1  0  0  0  0
 10 19  1  0  0  0  0
 10 20  1  0  0  0  0
 11 12  1  0  0  0  0
 11 21  1  0  0  0  0
 11 22  1  0  0  0  0
 12 23  1  0  0  0  0
M  END
> <s_m_source_file>
AV-unprocessed.smi

> <i_m_source_file_index>
1008

> <i_lp_mmshare_version>
43012

> <i_f3d_flags>
0

> <s_epik_input>
W0NIM11jMW5jKFtOSDJdKVtuSF1jKD1PKWMxW0NIMl1bQ0gyXVtPSF0=

> <s_epik_cmdline>
J2VwaWtfcHl0aG9uJywgJy1waCcsICc3LjAnLCAnLXRuJywgJzgnLCAnLW1hJywgJzIwMCcsICctbWV0YWxfYmluZGluZycsICctaW1hZScsICc8aW5maWxlLm1hZT4nLCAnLW9tYWUnLCAnPG91dGZpbGUubWFlPic=

> <r_lp_tautomer_probability>
0.0131372

> <r_epik_Ionization_Penalty>
8.55637

> <r_epik_Ionization_Penalty_Charging>
0

> <r_epik_Ionization_Penalty_Neutral>
8.55637

> <r_epik_State_Penalty>
2.72329

> <r_epik_Charging_Adjusted_Penalty>
2.72329

> <i_epik_Tot_Q>
0

> <i_epik_Tot_abs_Q>
0

> <r_epik_Metal_State_Penalty>
2.85363

> <b_epik_Metal_Only>
0

> <s_lp_Force_Field>
OPLS_2005

> <r_lp_Energy>
-5.16374

> <b_lp_Chiralities_Consistent>
1

> <s_lp_Variant>
AV-unprocessed.smi:1008-3

> <Gold.Version>
5.8.1

> <Gold.Id.Protein>
6NUR|6NUR_protein|mol2

> <Gold.PLP.Fitness>
34.3728

> <Gold.PLP.PLP>
-22.5445

> <Gold.PLP.part.hbond>
-4.0000

> <Gold.PLP.part.metal>
0.0000

> <Gold.PLP.part.buried>
-4.4681

> <Gold.PLP.part.nonpolar>
-15.0495

> <Gold.PLP.part.repulsive>
0.2602

> <Gold.PLP.ligand.clash>
0.0000

> <Gold.PLP.ligand.torsion>
0.0859

> <Gold.PLP.Chemscore.Hbond>
4.0000

> <Gold.PLP.Chemscore.CHOScore>
0.0000

> <Gold.PLP.Chemscore.Metal>
0.0000

> <Gold.Chemscore.Hbonds>
donor molecule, donor type, donor heavy atom, donor atom, acceptor molecule, acceptor atom, score
      L1  H     8    13       P1  8028  1.00
      L1  H    12    23       P1  8029  1.00
      P1  H  7989  7998       L1     6  1.00
      P1  H  7997  8010       L1     3  1.00

> <Gold.PLP.Chemscore.Internal.Correction>
0.0001

> <Gold.Rescore>
     Score         DG    S(hbond)    S(metal)    S(lipo)     H(rot)  DE(clash)    DE(int)     intcor
     11.99     -12.10       2.78        0.00      36.97       2.73       0.01       0.10       ----

> <Gold.Chemscore.Fitness>
11.9919

> <Gold.Chemscore.DG>
-12.1026

> <Gold.Chemscore.ZeroCoef>
-5.4800

> <Gold.Chemscore.Hbond>
2.7785

> <Gold.Chemscore.Metal>
0.0000

> <Gold.Chemscore.Lipo>
36.9676

> <Gold.Chemscore.Internal_Hbond>
0.0000

> <Gold.Chemscore.DEClash>
0.0107

> <Gold.Chemscore.DEInternal>
0.1000

> <Gold.Chemscore.Rot>
2.7277

> <Gold.Chemscore.Internal.Correction>
   9.000000E+99

> <Gold.Chemscore.Hbonds>
donor molecule, donor type, donor heavy atom, donor atom, acceptor molecule, acceptor atom, score
      L1  H     8    13       P1  8028  1.00
      L1  H    12    23       P1  8029  0.42
      P1  H  7989  7998       L1     6  0.49
      P1  H  7997  8010       L1     3  0.35

> <Gold.Chemscore.Hbond.Weighted>
-9.2803

> <Gold.Chemscore.Metal.Weighted>
-0.0000

> <Gold.Chemscore.Lipo.Weighted>
-4.3252

> <Gold.Chemscore.Internal_Hbond.Weighted>
0.0000

> <Gold.Chemscore.DEClash.Weighted>
0.0107

> <Gold.Chemscore.DEInternal.Weighted>
0.1000

> <Gold.Chemscore.Rot.Weighted>
6.9829

> <Gold.Chemscore.Internal.Correction.Weighted>
   9.000000E+99

> <Gold.Protein.RotatedTorsions>
[ 6907 6896 6895 6894 ] final  124.11 input  -60.11 | X-H torsion
[ 7974 7965 7964 7962 ] final -101.50 input  175.53 | X-H torsion
[ 8008 7997 7996 7995 ] final   50.02 input   59.86 | X-H torsion
[ 10167 10162 10161 10158 ] final  -84.98 input  -65.29 | X-H torsion
[ 10718 10713 10712 10709 ] final  147.86 input   66.30 | X-H torsion
[ 10763 10752 10751 10750 ] final  -38.05 input  -60.55 | X-H torsion
[ 11005 11000 10999 10996 ] final   24.45 input  -57.11 | X-H torsion

> <Gold.Protein.ActiveResidues>
 VAL166  LYS551  ARG553  GLY616  TRP617  ASP618  TYR619  PRO620  LYS621  CYS622 
 ASP623  PHE694  ASN695  SER759  ASP760  ASP761  ALA762  ILE779  LEU786  VAL792 
 PHE793  MET794  SER795  GLU796  ALA797  LYS798  CYS799  TRP800  GLU811  SER814 

> <Gold.Protein.RotatedAtoms>
  152.4106  133.6957  159.6394 H   0  0  0  0  0  0  0  0  0  0  0  0  # atno 6907 bound_to 6896
  150.7986  133.8631  159.3246 H   0  0  0  0  0  0  0  0  0  0  0  0  # atno 6908 bound_to 6896
  151.6374  135.1018  160.0186 H   0  0  0  0  0  0  0  0  0  0  0  0  # atno 6909 bound_to 6896
  145.2807  140.9326  143.2933 H   0  0  0  0  0  0  0  0  0  0  0  0  # atno 7974 bound_to 7965
  155.4118  140.3442  155.4264 H   0  0  0  0  0  0  0  0  0  0  0  0  # atno 8008 bound_to 7997
  156.1444  140.1552  156.8901 H   0  0  0  0  0  0  0  0  0  0  0  0  # atno 8009 bound_to 7997
  154.4998  140.0818  156.7755 H   0  0  0  0  0  0  0  0  0  0  0  0  # atno 8010 bound_to 7997
  140.4081  143.2634  151.9054 H   0  0  0  0  0  0  0  0  0  0  0  0  # atno 10167 bound_to 10162
  157.3158  131.0896  151.1280 H   0  0  0  0  0  0  0  0  0  0  0  0  # atno 10718 bound_to 10713
  153.9065  135.6797  153.4753 H   0  0  0  0  0  0  0  0  0  0  0  0  # atno 10763 bound_to 10752
  153.1101  135.4787  154.9018 H   0  0  0  0  0  0  0  0  0  0  0  0  # atno 10764 bound_to 10752
  154.7549  135.3194  154.8444 H   0  0  0  0  0  0  0  0  0  0  0  0  # atno 10765 bound_to 10752
  140.3585  134.2151  155.7674 H   0  0  0  0  0  0  0  0  0  0  0  0  # atno 11005 bound_to 11000
  144.9255  139.4360  143.6520 LP  0  0  0  0  0  0  0  0  0  0  0  0  # atno 17320 bound_to 7965
  146.3217  139.8139  142.8940 LP  0  0  0  0  0  0  0  0  0  0  0  0  # atno 17321 bound_to 7965
  139.4783  144.5565  151.8305 LP  0  0  0  0  0  0  0  0  0  0  0  0  # atno 17342 bound_to 10162
  140.4667  144.1644  150.5912 LP  0  0  0  0  0  0  0  0  0  0  0  0  # atno 17343 bound_to 10162
  157.2584  130.6647  149.5963 LP  0  0  0  0  0  0  0  0  0  0  0  0  # atno 17370 bound_to 10713
  155.9681  130.4516  150.5742 LP  0  0  0  0  0  0  0  0  0  0  0  0  # atno 17371 bound_to 10713
  141.1991  133.8019  157.0552 LP  0  0  0  0  0  0  0  0  0  0  0  0  # atno 17394 bound_to 11000
  140.0645  134.9736  157.1363 LP  0  0  0  0  0  0  0  0  0  0  0  0  # atno 17395 bound_to 11000

$$$$
