AV-unprocessed.smi:1136|AV-procd|sdf|4862|dock1
  -GOLD-   22720 3433D 1   1.00000     0.00000
 Structure written by MMmdl.
 42 43  0  0  0  0  0  0  0  0  1 V2000
  154.1099  141.0753  160.7852 C   0  0  0  0  0  0  0  0  0  0  0  0
  153.2385  142.1732  160.2507 C   0  0  0  0  0  0  0  0  0  0  0  0
  152.8569  143.3869  160.8881 C   0  0  0  0  0  0  0  0  0  0  0  0
  152.0659  144.0171  159.9691 C   0  0  0  0  0  0  0  0  0  0  0  0
  151.3601  145.3311  160.0449 C   0  0  0  0  0  0  0  0  0  0  0  0
  152.0035  143.1916  158.8600 N   0  0  0  0  0  0  0  0  0  0  0  0
  151.2901  143.3882  157.6054 C   0  0  0  0  0  0  0  0  0  0  0  0
  150.7236  142.0776  157.0499 C   0  0  0  0  0  0  0  0  0  0  0  0
  150.9192  141.0228  157.6530 O   0  0  0  0  0  0  0  0  0  0  0  0
  150.0170  142.1550  155.9105 N   0  0  0  0  0  0  0  0  0  0  0  0
  149.3872  141.0294  155.2245 C   0  0  0  0  0  0  0  0  0  0  0  0
  150.3644  139.8828  154.9031 C   0  0  0  0  0  0  0  0  0  0  0  0
  151.5751  140.1137  154.8833 O   0  0  0  0  0  0  0  0  0  0  0  0
  149.8631  138.6464  154.6627 N   0  0  0  0  0  0  0  0  0  0  0  0
  148.4428  138.2741  154.7245 C   0  0  0  0  0  0  0  0  0  0  0  0
  148.2162  137.3969  155.9692 C   0  0  0  0  0  0  0  0  0  0  0  0
  149.1374  136.1620  155.9460 C   0  0  0  0  0  0  0  0  0  0  0  0
  150.6048  136.5500  155.6793 C   0  0  0  0  0  0  0  0  0  0  0  0
  150.7185  137.4714  154.4504 C   0  0  0  0  0  0  0  0  0  0  0  0
  152.7245  142.0624  159.0370 N   0  0  0  0  0  0  0  0  0  0  0  0
  154.5313  141.3427  161.7545 H   0  0  0  0  0  0  0  0  0  0  0  0
  154.9401  140.8677  160.1096 H   0  0  0  0  0  0  0  0  0  0  0  0
  153.5437  140.1525  160.9124 H   0  0  0  0  0  0  0  0  0  0  0  0
  153.1239  143.7409  161.8729 H   0  0  0  0  0  0  0  0  0  0  0  0
  151.5096  145.7975  161.0188 H   0  0  0  0  0  0  0  0  0  0  0  0
  150.2873  145.2075  159.8962 H   0  0  0  0  0  0  0  0  0  0  0  0
  151.7324  146.0165  159.2835 H   0  0  0  0  0  0  0  0  0  0  0  0
  150.4839  144.1041  157.7700 H   0  0  0  0  0  0  0  0  0  0  0  0
  151.9616  143.8309  156.8679 H   0  0  0  0  0  0  0  0  0  0  0  0
  149.9021  143.0660  155.4899 H   0  0  0  0  0  0  0  0  0  0  0  0
  148.5996  140.6523  155.8772 H   0  0  0  0  0  0  0  0  0  0  0  0
  148.9073  141.3735  154.3068 H   0  0  0  0  0  0  0  0  0  0  0  0
  147.7641  139.1251  154.7419 H   0  0  0  0  0  0  0  0  0  0  0  0
  148.1804  137.7164  153.8244 H   0  0  0  0  0  0  0  0  0  0  0  0
  148.4115  137.9834  156.8682 H   0  0  0  0  0  0  0  0  0  0  0  0
  147.1734  137.0834  156.0234 H   0  0  0  0  0  0  0  0  0  0  0  0
  149.0563  135.6126  156.8842 H   0  0  0  0  0  0  0  0  0  0  0  0
  148.8013  135.4831  155.1613 H   0  0  0  0  0  0  0  0  0  0  0  0
  151.0119  137.0602  156.5535 H   0  0  0  0  0  0  0  0  0  0  0  0
  151.2080  135.6535  155.5350 H   0  0  0  0  0  0  0  0  0  0  0  0
  150.3936  136.9435  153.5527 H   0  0  0  0  0  0  0  0  0  0  0  0
  151.7636  137.7318  154.2779 H   0  0  0  0  0  0  0  0  0  0  0  0
  1  2  1  0  0  0  0
  1 21  1  0  0  0  0
  1 22  1  0  0  0  0
  1 23  1  0  0  0  0
  2 20  2  0  0  0  0
  2  3  1  0  0  0  0
  3  4  2  0  0  0  0
  3 24  1  0  0  0  0
  4  5  1  0  0  0  0
  4  6  1  0  0  0  0
  5 25  1  0  0  0  0
  5 26  1  0  0  0  0
  5 27  1  0  0  0  0
  6  7  1  0  0  0  0
  6 20  1  0  0  0  0
  7  8  1  0  0  0  0
  7 28  1  0  0  0  0
  7 29  1  0  0  0  0
  8  9  2  0  0  0  0
  8 10  1  0  0  0  0
 10 11  1  0  0  0  0
 10 30  1  0  0  0  0
 11 12  1  0  0  0  0
 11 31  1  0  0  0  0
 11 32  1  0  0  0  0
 12 13  2  0  0  0  0
 12 14  1  0  0  0  0
 14 19  1  0  0  0  0
 14 15  1  0  0  0  0
 15 16  1  0  0  0  0
 15 33  1  0  0  0  0
 15 34  1  0  0  0  0
 16 17  1  0  0  0  0
 16 35  1  0  0  0  0
 16 36  1  0  0  0  0
 17 18  1  0  0  0  0
 17 37  1  0  0  0  0
 17 38  1  0  0  0  0
 18 19  1  0  0  0  0
 18 39  1  0  0  0  0
 18 40  1  0  0  0  0
 19 41  1  0  0  0  0
 19 42  1  0  0  0  0
M  END
> <s_m_source_file>
AV-unprocessed.smi

> <i_m_source_file_index>
1136

> <i_lp_mmshare_version>
43012

> <i_f3d_flags>
0

> <s_epik_input>
W0NIM11jMVtjSF1jKFtDSDNdKW4objEpW0NIMl1DKD1PKVtOSF1bQ0gyXUMoPU8pTjJbQ0gyXVtDSDJdW0NIMl1bQ0gyXVtDSDJdMg==

> <s_epik_cmdline>
J2VwaWtfcHl0aG9uJywgJy1waCcsICc3LjAnLCAnLXRuJywgJzgnLCAnLW1hJywgJzIwMCcsICctbWV0YWxfYmluZGluZycsICctaW1hZScsICc8aW5maWxlLm1hZT4nLCAnLW9tYWUnLCAnPG91dGZpbGUubWFlPic=

> <r_lp_tautomer_probability>
1

> <r_epik_Ionization_Penalty>
0.000263643

> <r_epik_Ionization_Penalty_Charging>
0

> <r_epik_Ionization_Penalty_Neutral>
0.000263643

> <r_epik_State_Penalty>
-0

> <r_epik_Charging_Adjusted_Penalty>
0

> <i_epik_Tot_Q>
0

> <i_epik_Tot_abs_Q>
0

> <r_epik_Metal_State_Penalty>
-0

> <b_epik_Metal_Only>
0

> <s_lp_Force_Field>
OPLS_2005

> <r_lp_Energy>
19.7074

> <b_lp_Chiralities_Consistent>
1

> <s_lp_Variant>
AV-unprocessed.smi:1136-1

> <Gold.Version>
5.8.1

> <Gold.Id.Protein>
6NUR|6NUR_protein|mol2

> <Gold.PLP.Fitness>
47.4423

> <Gold.PLP.PLP>
-43.1164

> <Gold.PLP.part.hbond>
-1.8013

> <Gold.PLP.part.metal>
0.0000

> <Gold.PLP.part.buried>
-5.6902

> <Gold.PLP.part.nonpolar>
-36.7030

> <Gold.PLP.part.repulsive>
0.2038

> <Gold.PLP.ligand.clash>
0.0000

> <Gold.PLP.ligand.torsion>
0.6425

> <Gold.PLP.Chemscore.Hbond>
1.8620

> <Gold.PLP.Chemscore.CHOScore>
0.0000

> <Gold.PLP.Chemscore.Metal>
0.0000

> <Gold.Chemscore.Hbonds>
donor molecule, donor type, donor heavy atom, donor atom, acceptor molecule, acceptor atom, score
      L1  H    10    30       P1  8028  0.86
      P1  H  7989  7998       L1    13  0.95

> <Gold.PLP.Chemscore.Internal.Correction>
0.0248

> <Gold.Rescore>
     Score         DG    S(hbond)    S(metal)    S(lipo)     H(rot)  DE(clash)    DE(int)     intcor
     15.70     -18.12       1.98        0.00      86.74       1.61       0.01       2.40       ----

> <Gold.Chemscore.Fitness>
15.7013

> <Gold.Chemscore.DG>
-18.1154

> <Gold.Chemscore.ZeroCoef>
-5.4800

> <Gold.Chemscore.Hbond>
1.9814

> <Gold.Chemscore.Metal>
0.0000

> <Gold.Chemscore.Lipo>
86.7350

> <Gold.Chemscore.Internal_Hbond>
0.0000

> <Gold.Chemscore.DEClash>
0.0135

> <Gold.Chemscore.DEInternal>
2.4007

> <Gold.Chemscore.Rot>
1.6134

> <Gold.Chemscore.Internal.Correction>
   9.000000E+99

> <Gold.Chemscore.Hbonds>
donor molecule, donor type, donor heavy atom, donor atom, acceptor molecule, acceptor atom, score
      L1  H    10    30       P1  8028  0.84
      P1  H  7989  7998       L1    13  0.20

> <Gold.Chemscore.Hbond.Weighted>
-6.6177

> <Gold.Chemscore.Metal.Weighted>
-0.0000

> <Gold.Chemscore.Lipo.Weighted>
-10.1480

> <Gold.Chemscore.Internal_Hbond.Weighted>
0.0000

> <Gold.Chemscore.DEClash.Weighted>
0.0135

> <Gold.Chemscore.DEInternal.Weighted>
2.4007

> <Gold.Chemscore.Rot.Weighted>
4.1303

> <Gold.Chemscore.Internal.Correction.Weighted>
   9.000000E+99

> <Gold.Protein.RotatedTorsions>
[ 6907 6896 6895 6894 ] final -109.53 input  -60.11 | X-H torsion
[ 7974 7965 7964 7962 ] final   21.13 input  175.53 | X-H torsion
[ 8008 7997 7996 7995 ] final  139.54 input   59.86 | X-H torsion
[ 10167 10162 10161 10158 ] final   49.58 input  -65.29 | X-H torsion
[ 10718 10713 10712 10709 ] final   75.53 input   66.30 | X-H torsion
[ 10763 10752 10751 10750 ] final   50.83 input  -60.55 | X-H torsion
[ 11005 11000 10999 10996 ] final  -39.28 input  -57.11 | X-H torsion

> <Gold.Protein.ActiveResidues>
 VAL166  LYS551  ARG553  GLY616  TRP617  ASP618  TYR619  PRO620  LYS621  CYS622 
 ASP623  PHE694  ASN695  SER759  ASP760  ASP761  ALA762  ILE779  LEU786  VAL792 
 PHE793  MET794  SER795  GLU796  ALA797  LYS798  CYS799  TRP800  GLU811  SER814 

> <Gold.Protein.RotatedAtoms>
  150.7568  133.9515  159.3487 H   0  0  0  0  0  0  0  0  0  0  0  0  # atno 6907 bound_to 6896
  151.7433  135.0847  160.0328 H   0  0  0  0  0  0  0  0  0  0  0  0  # atno 6908 bound_to 6896
  152.3514  133.6147  159.5983 H   0  0  0  0  0  0  0  0  0  0  0  0  # atno 6909 bound_to 6896
  146.2084  139.8071  142.8708 H   0  0  0  0  0  0  0  0  0  0  0  0  # atno 7974 bound_to 7965
  156.2988  140.2365  156.4254 H   0  0  0  0  0  0  0  0  0  0  0  0  # atno 8008 bound_to 7997
  154.8318  140.0432  157.1502 H   0  0  0  0  0  0  0  0  0  0  0  0  # atno 8009 bound_to 7997
  154.9200  140.3002  155.5225 H   0  0  0  0  0  0  0  0  0  0  0  0  # atno 8010 bound_to 7997
  140.2814  144.3152  150.6263 H   0  0  0  0  0  0  0  0  0  0  0  0  # atno 10167 bound_to 10162
  157.6638  130.9731  150.1367 H   0  0  0  0  0  0  0  0  0  0  0  0  # atno 10718 bound_to 10713
  152.9784  135.5866  154.4316 H   0  0  0  0  0  0  0  0  0  0  0  0  # atno 10763 bound_to 10752
  154.3928  135.2768  155.2146 H   0  0  0  0  0  0  0  0  0  0  0  0  # atno 10764 bound_to 10752
  154.4011  135.6103  153.5952 H   0  0  0  0  0  0  0  0  0  0  0  0  # atno 10765 bound_to 10752
  141.0090  133.6917  156.2165 H   0  0  0  0  0  0  0  0  0  0  0  0  # atno 11005 bound_to 11000
  145.3235  141.0249  143.3487 LP  0  0  0  0  0  0  0  0  0  0  0  0  # atno 17320 bound_to 7965
  144.8850  139.4852  143.6705 LP  0  0  0  0  0  0  0  0  0  0  0  0  # atno 17321 bound_to 7965
  140.5808  143.2173  151.7431 LP  0  0  0  0  0  0  0  0  0  0  0  0  # atno 17342 bound_to 10162
  139.4961  144.4082  152.0108 LP  0  0  0  0  0  0  0  0  0  0  0  0  # atno 17343 bound_to 10162
  156.2200  130.3673  149.8568 LP  0  0  0  0  0  0  0  0  0  0  0  0  # atno 17370 bound_to 10713
  156.6423  130.8710  151.3516 LP  0  0  0  0  0  0  0  0  0  0  0  0  # atno 17371 bound_to 10713
  140.6765  134.4813  157.5588 LP  0  0  0  0  0  0  0  0  0  0  0  0  # atno 17394 bound_to 11000
  139.9079  134.8408  156.1636 LP  0  0  0  0  0  0  0  0  0  0  0  0  # atno 17395 bound_to 11000

$$$$
