AV-unprocessed.smi:3208|AV-procd|sdf|12267|dock4
  -GOLD-   2272018103D 1   1.00000     0.00000
 Structure written by MMmdl.
 29 29  0  0  0  0  0  0  0  0  2 V2000
  152.8730  142.4168  162.4933 C   0  0  0  0  0  0  0  0  0  0  0  0
  152.2658  143.2176  161.6047 C   0  0  0  0  0  0  0  0  0  0  0  0
  152.2679  142.9962  160.1082 C   0  0  0  0  0  0  0  0  0  0  0  0
  150.9604  143.1873  159.5816 O   0  0  0  0  0  0  0  0  0  0  0  0
  150.8503  143.0899  158.1632 C   0  0  1  0  0  0  0  0  0  0  0  0
  151.9526  143.9676  157.5521 C   0  0  0  0  0  0  0  0  0  0  0  0
  150.9861  141.6271  157.7104 C   0  0  0  0  0  0  0  0  0  0  0  0
  151.0221  140.7286  158.5523 O   0  0  0  0  0  0  0  0  0  0  0  0
  151.0411  141.4345  156.3797 N   0  0  0  0  0  0  0  0  0  0  0  0
  151.1750  140.2155  155.6595 C   0  0  0  0  0  0  0  0  0  0  0  0
  150.4479  139.9313  154.5496 N   0  0  0  0  0  0  0  0  0  0  0  0
  150.6292  138.7494  153.9253 C   0  0  0  0  0  0  0  0  0  0  0  0
  151.5442  137.7770  154.3657 C   0  0  0  0  0  0  0  0  0  0  0  0
  152.3056  138.0573  155.5134 C   0  0  0  0  0  0  0  0  0  0  0  0
  152.1227  139.2901  156.1716 C   0  0  0  0  0  0  0  0  0  0  0  0
  152.8645  139.5623  157.2893 O   0  5  0  0  0  0  0  0  0  0  0  0
  153.4169  141.5384  162.1774 H   0  0  0  0  0  0  0  0  0  0  0  0
  152.8332  142.6316  163.5509 H   0  0  0  0  0  0  0  0  0  0  0  0
  151.7314  144.0879  161.9567 H   0  0  0  0  0  0  0  0  0  0  0  0
  152.9823  143.6755  159.6410 H   0  0  0  0  0  0  0  0  0  0  0  0
  152.6062  141.9776  159.9140 H   0  0  0  0  0  0  0  0  0  0  0  0
  149.8838  143.4881  157.8481 H   0  0  0  0  0  0  0  0  0  0  0  0
  151.9342  143.9246  156.4624 H   0  0  0  0  0  0  0  0  0  0  0  0
  152.9439  143.6565  157.8837 H   0  0  0  0  0  0  0  0  0  0  0  0
  151.8212  145.0100  157.8424 H   0  0  0  0  0  0  0  0  0  0  0  0
  150.9879  142.2610  155.8016 H   0  0  0  0  0  0  0  0  0  0  0  0
  150.0250  138.5737  153.0476 H   0  0  0  0  0  0  0  0  0  0  0  0
  151.6591  136.8420  153.8380 H   0  0  0  0  0  0  0  0  0  0  0  0
  153.0189  137.3350  155.8825 H   0  0  0  0  0  0  0  0  0  0  0  0
  1  2  2  0  0  0  0
  1 17  1  0  0  0  0
  1 18  1  0  0  0  0
  2  3  1  0  0  0  0
  2 19  1  0  0  0  0
  3  4  1  0  0  0  0
  3 20  1  0  0  0  0
  3 21  1  0  0  0  0
  4  5  1  0  0  0  0
  5  6  1  0  0  0  0
  5  7  1  0  0  0  0
  5 22  1  0  0  0  0
  6 23  1  0  0  0  0
  6 24  1  0  0  0  0
  6 25  1  0  0  0  0
  7  8  2  0  0  0  0
  7  9  1  0  0  0  0
  9 26  1  0  0  0  0
  9 10  1  0  0  0  0
 10 15  2  0  0  0  0
 10 11  1  0  0  0  0
 11 12  2  0  0  0  0
 12 27  1  0  0  0  0
 12 13  1  0  0  0  0
 13 28  1  0  0  0  0
 13 14  2  0  0  0  0
 14 15  1  0  0  0  0
 14 29  1  0  0  0  0
 15 16  1  0  0  0  0
M  CHG  1  16  -1
M  END
> <s_m_source_file>
AV-unprocessed.smi

> <i_m_source_file_index>
3208

> <i_lp_mmshare_version>
43012

> <i_f3d_flags>
0

> <s_epik_input>
W0NIMl09W0NIXVtDSDJdT1tDQEhdKFtDSDNdKUMoPU8pW05IXWMxbltjSF1bY0hdW2NIXWMxW09IXQ==

> <s_epik_cmdline>
J2VwaWtfcHl0aG9uJywgJy1waCcsICc3LjAnLCAnLXRuJywgJzgnLCAnLW1hJywgJzIwMCcsICctbWV0YWxfYmluZGluZycsICctaW1hZScsICc8aW5maWxlLm1hZT4nLCAnLW9tYWUnLCAnPG91dGZpbGUubWFlPic=

> <r_epik_Ionization_Penalty>
4.05889

> <r_epik_Ionization_Penalty_Charging>
2.07983

> <r_epik_Ionization_Penalty_Neutral>
1.97905

> <r_epik_State_Penalty>
2.65143

> <r_epik_Charging_Adjusted_Penalty>
4.73126

> <i_epik_Tot_Q>
-1

> <i_epik_Tot_abs_Q>
1

> <r_epik_Metal_State_Penalty>
0.650759

> <b_epik_Metal_Only>
0

> <s_lp_Force_Field>
OPLS_2005

> <r_lp_Energy>
4.10408

> <b_lp_Chiralities_Consistent>
1

> <s_lp_Variant>
AV-unprocessed.smi:3208-8

> <Gold.Version>
5.8.1

> <Gold.Id.Protein>
6NUR|6NUR_protein|mol2

> <Gold.PLP.Fitness>
47.7741

> <Gold.PLP.PLP>
-37.8478

> <Gold.PLP.part.hbond>
-2.0000

> <Gold.PLP.part.metal>
0.0000

> <Gold.PLP.part.buried>
-4.7891

> <Gold.PLP.part.nonpolar>
-30.9729

> <Gold.PLP.part.repulsive>
0.2314

> <Gold.PLP.ligand.clash>
0.0000

> <Gold.PLP.ligand.torsion>
0.6121

> <Gold.PLP.Chemscore.Hbond>
2.3750

> <Gold.PLP.Chemscore.CHOScore>
1.3371

> <Gold.PLP.Chemscore.Metal>
0.0000

> <Gold.Chemscore.Hbonds>
donor molecule, donor type, donor heavy atom, donor atom, acceptor molecule, acceptor atom, score
      P1  H  7989  7998       L1    11  0.41
      P1  H  7997  8008       L1    16  2.00
      L1  C    12    27       P1  7948  0.36
      L1  C    12    27       P1  7957  0.99

> <Gold.PLP.Chemscore.Internal.Correction>
0.0141

> <Gold.Rescore>
     Score         DG    S(hbond)    S(metal)    S(lipo)     H(rot)  DE(clash)    DE(int)     intcor
      9.84     -14.92       0.96        0.00      89.45       1.65       0.01       5.07       ----

> <Gold.Chemscore.Fitness>
9.8359

> <Gold.Chemscore.DG>
-14.9155

> <Gold.Chemscore.ZeroCoef>
-5.4800

> <Gold.Chemscore.Hbond>
0.9586

> <Gold.Chemscore.Metal>
0.0000

> <Gold.Chemscore.Lipo>
89.4539

> <Gold.Chemscore.Internal_Hbond>
0.0000

> <Gold.Chemscore.DEClash>
0.0073

> <Gold.Chemscore.DEInternal>
5.0723

> <Gold.Chemscore.Rot>
1.6533

> <Gold.Chemscore.Internal.Correction>
   9.000000E+99

> <Gold.Chemscore.Hbonds>
donor molecule, donor type, donor heavy atom, donor atom, acceptor molecule, acceptor atom, score
      P1  H  7997  8008       L1    16  0.78

> <Gold.Chemscore.Hbond.Weighted>
-3.2018

> <Gold.Chemscore.Metal.Weighted>
-0.0000

> <Gold.Chemscore.Lipo.Weighted>
-10.4661

> <Gold.Chemscore.Internal_Hbond.Weighted>
0.0000

> <Gold.Chemscore.DEClash.Weighted>
0.0073

> <Gold.Chemscore.DEInternal.Weighted>
5.0723

> <Gold.Chemscore.Rot.Weighted>
4.2324

> <Gold.Chemscore.Internal.Correction.Weighted>
   9.000000E+99

> <Gold.Protein.RotatedTorsions>
[ 6907 6896 6895 6894 ] final  102.63 input  -60.11 | X-H torsion
[ 7974 7965 7964 7962 ] final   89.81 input  175.53 | X-H torsion
[ 8008 7997 7996 7995 ] final  -75.05 input   59.86 | X-H torsion
[ 10167 10162 10161 10158 ] final   85.19 input  -65.29 | X-H torsion
[ 10718 10713 10712 10709 ] final  -98.48 input   66.30 | X-H torsion
[ 10763 10752 10751 10750 ] final  -61.56 input  -60.55 | X-H torsion
[ 11005 11000 10999 10996 ] final  -19.95 input  -57.11 | X-H torsion

> <Gold.Protein.ActiveResidues>
 VAL166  LYS551  ARG553  GLY616  TRP617  ASP618  TYR619  PRO620  LYS621  CYS622 
 ASP623  PHE694  ASN695  SER759  ASP760  ASP761  ALA762  ILE779  LEU786  VAL792 
 PHE793  MET794  SER795  GLU796  ALA797  LYS798  CYS799  TRP800  GLU811  SER814 

> <Gold.Protein.RotatedAtoms>
  152.5318  133.9947  159.7866 H   0  0  0  0  0  0  0  0  0  0  0  0  # atno 6907 bound_to 6896
  151.0177  133.5898  159.2682 H   0  0  0  0  0  0  0  0  0  0  0  0  # atno 6908 bound_to 6896
  151.2949  135.0759  159.9271 H   0  0  0  0  0  0  0  0  0  0  0  0  # atno 6909 bound_to 6896
  145.5273  139.2281  143.2638 H   0  0  0  0  0  0  0  0  0  0  0  0  # atno 7974 bound_to 7965
  154.5383  140.0751  156.8465 H   0  0  0  0  0  0  0  0  0  0  0  0  # atno 8008 bound_to 7997
  155.3233  140.3397  155.4222 H   0  0  0  0  0  0  0  0  0  0  0  0  # atno 8009 bound_to 7997
  156.1849  140.1665  156.8190 H   0  0  0  0  0  0  0  0  0  0  0  0  # atno 8010 bound_to 7997
  139.9003  144.6333  150.8644 H   0  0  0  0  0  0  0  0  0  0  0  0  # atno 10167 bound_to 10162
  156.0109  130.5240  150.6529 H   0  0  0  0  0  0  0  0  0  0  0  0  # atno 10718 bound_to 10713
  154.2865  135.6262  153.5368 H   0  0  0  0  0  0  0  0  0  0  0  0  # atno 10763 bound_to 10752
  152.9858  135.5645  154.5437 H   0  0  0  0  0  0  0  0  0  0  0  0  # atno 10764 bound_to 10752
  154.5039  135.2873  155.1374 H   0  0  0  0  0  0  0  0  0  0  0  0  # atno 10765 bound_to 10752
  140.8416  133.7922  155.9867 H   0  0  0  0  0  0  0  0  0  0  0  0  # atno 11005 bound_to 11000
  146.2067  140.6088  142.9078 LP  0  0  0  0  0  0  0  0  0  0  0  0  # atno 17320 bound_to 7965
  144.7644  140.5496  143.6713 LP  0  0  0  0  0  0  0  0  0  0  0  0  # atno 17321 bound_to 7965
  140.7708  143.3442  151.2145 LP  0  0  0  0  0  0  0  0  0  0  0  0  # atno 17342 bound_to 10162
  139.7031  143.9499  152.2914 LP  0  0  0  0  0  0  0  0  0  0  0  0  # atno 17343 bound_to 10162
  157.4287  131.0846  151.1060 LP  0  0  0  0  0  0  0  0  0  0  0  0  # atno 17370 bound_to 10713
  157.1640  130.6238  149.5619 LP  0  0  0  0  0  0  0  0  0  0  0  0  # atno 17371 bound_to 10713
  140.8888  134.2520  157.5105 LP  0  0  0  0  0  0  0  0  0  0  0  0  # atno 17394 bound_to 11000
  139.8703  134.9651  156.4519 LP  0  0  0  0  0  0  0  0  0  0  0  0  # atno 17395 bound_to 11000

$$$$
