#       Name:                AV-unprocessed.smi:3176
#       Creating user name   scv26
#       Creation time:       Fri Mar 27 17:56:37 2020


#       File generated by GOLD software.
#

@<TRIPOS>MOLECULE
AV-unprocessed.smi:3176
    37    38     1
SMALL
NO_CHARGES


@<TRIPOS>ATOM
      1 ****         0.5531   2.5686   1.2583 O.2            1 S1                 0.0000
      2 ****         0.1208   1.4447   1.5148 C.2            1 S1                 0.0000
      3 ****         0.9176   0.3740   1.6570 N.am           1 S1                 0.0000
      4 ****         2.3604   0.3592   1.4379 C.3            1 S1                 0.0000
      5 ****         2.7318   0.3737  -0.0589 C.3            1 S1                 0.0000
      6 ****         1.9895  -0.6706  -0.8768 C.ar           1 S1                 0.0000
      7 ****         0.8891  -0.3054  -1.6821 C.ar           1 S1                 0.0000
      8 ****         0.2169  -1.3139  -2.3984 C.ar           1 S1                 0.0000
      9 ****         0.6715  -2.6418  -2.2867 C.ar           1 S1                 0.0000
     10 ****         1.7824  -2.9027  -1.4597 C.ar           1 S1                 0.0000
     11 ****         2.4323  -1.9433  -0.7660 N.ar           1 S1                 0.0000
     12 ****        -1.3897   1.2129   1.6870 C.3            1 S1                 0.0000
     13 ****        -2.2605   1.9777   0.6726 C.3            1 S1                 0.0000
     14 ****        -2.6764   0.9051  -0.3118 C.3            1 S1                 0.0000
     15 ****        -2.7852  -0.3111   0.5951 C.3            1 S1                 0.0000
     16 ****        -1.6844  -0.1728   1.4816 O.3            1 S1                 0.0000
     17 ****         0.4802  -0.5095   1.8772 H              1 S1                 0.0000
     18 ****         2.8344   1.1923   1.9589 H              1 S1                 0.0000
     19 ****         2.7470  -0.5511   1.8964 H              1 S1                 0.0000
     20 ****         2.5251   1.3596  -0.4771 H              1 S1                 0.0000
     21 ****         3.8055   0.2204  -0.1731 H              1 S1                 0.0000
     22 ****         0.5597   0.7216  -1.7406 H              1 S1                 0.0000
     23 ****        -0.6330  -1.0731  -3.0197 H              1 S1                 0.0000
     24 ****         0.1810  -3.4413  -2.8217 H              1 S1                 0.0000
     25 ****         2.1579  -3.9094  -1.3509 H              1 S1                 0.0000
     26 ****        -1.6674   1.4934   2.7035 H              1 S1                 0.0000
     27 ****        -3.1410   2.3785   1.1764 H              1 S1                 0.0000
     28 ****        -1.7614   2.8129   0.1798 H              1 S1                 0.0000
     29 ****        -3.6065   1.1360  -0.8311 H              1 S1                 0.0000
     30 ****        -1.8949   0.7514  -1.0565 H              1 S1                 0.0000
     31 ****        -3.7141  -0.2844   1.1666 H              1 S1                 0.0000
     32 ****        -2.7430  -1.2524   0.0473 H              1 S1                 0.0000
     33 ****         1.5364   2.7127   1.1470 LP             1 S1                 0.0000
     34 ****        -0.0790   3.3374   1.1613 LP             1 S1                 0.0000
     35 ****         3.2171  -2.1674  -0.1881 LP             1 S1                 0.0000
     36 ****        -1.9107  -0.5964   2.3587 LP             1 S1                 0.0000
     37 ****        -0.8844  -0.6265   1.0890 LP             1 S1                 0.0000
@<TRIPOS>BOND
    1    1    2 2     
    2    2    3 am    
    3    2   12 1     
    4    3    4 1     
    5    3   17 1     
    6    4    5 1     
    7    4   18 1     
    8    4   19 1     
    9    5    6 1     
   10    5   20 1     
   11    5   21 1     
   12    6   11 ar    
   13    6    7 ar    
   14    7    8 ar    
   15    7   22 1     
   16    8    9 ar    
   17    8   23 1     
   18    9   10 ar    
   19    9   24 1     
   20   10   11 ar    
   21   10   25 1     
   22   12   16 1     
   23   12   13 1     
   24   12   26 1     
   25   13   14 1     
   26   13   27 1     
   27   13   28 1     
   28   14   15 1     
   29   14   29 1     
   30   14   30 1     
   31   15   16 1     
   32   15   31 1     
   33   15   32 1     
   34    1   33 1     
   35    1   34 1     
   36   11   35 1     
   37   16   36 1     
   38   16   37 1     
@<TRIPOS>SUBSTRUCTURE
      1 S1             1
@<TRIPOS>SET
LONE_PAIRS      STATIC     ATOMS    <user>   **** ""
5 33 34 35 36 37
DONOR_HYDROGENS      STATIC     ATOMS    <user>   **** ""
1 17
ATOM$BLUE        STATIC     ATOMS    COLORGROUP SYSTEM
5 33 34 35 36 37
ATOM$RED        STATIC     ATOMS    COLORGROUP SYSTEM
1 17
