AV-unprocessed.smi:104|AV-procd|sdf|1005|dock9
  -GOLD-   2262018 03D 1   1.00000     0.00000
 Structure written by MMmdl.
 47 49  0  0  0  0  0  0  0  0  1 V2000
  146.2634  134.9952  161.7669 C   0  0  0  0  0  0  0  0  0  0  0  0
  146.6337  136.2952  161.0654 C   0  0  0  0  0  0  0  0  0  0  0  0
  147.0461  137.2684  161.6957 O   0  0  0  0  0  0  0  0  0  0  0  0
  146.4555  136.2272  159.7349 O   0  0  0  0  0  0  0  0  0  0  0  0
  146.8950  137.2804  158.8875 C   0  0  0  0  0  0  0  0  0  0  0  0
  147.1875  136.7555  157.4706 C   0  0  2  0  0  0  0  0  0  0  0  0
  145.9819  136.4506  156.7709 O   0  0  0  0  0  0  0  0  0  0  0  0
  146.2206  135.4225  155.8549 C   0  0  1  0  0  0  0  0  0  0  0  0
  145.8603  135.8742  154.4765 N   0  0  0  0  0  0  0  0  0  0  0  0
  145.3347  137.0831  154.0817 C   0  0  0  0  0  0  0  0  0  0  0  0
  144.9419  138.4739  155.3221 Br  0  0  0  0  0  0  0  0  0  0  0  0
  145.0918  137.2418  152.8110 N   0  0  0  0  0  0  0  0  0  0  0  0
  145.4730  136.0193  152.2727 C   0  0  0  0  0  0  0  0  0  0  0  0
  145.4789  135.4808  150.9612 C   0  0  0  0  0  0  0  0  0  0  0  0
  145.0654  136.1668  149.8868 N   0  0  0  0  0  0  0  0  0  0  0  0
  145.9194  134.2134  150.7838 N   0  0  0  0  0  0  0  0  0  0  0  0
  146.3346  133.5063  151.8393 C   0  0  0  0  0  0  0  0  0  0  0  0
  146.3893  133.8741  153.1220 N   0  0  0  0  0  0  0  0  0  0  0  0
  145.9485  135.1536  153.3015 C   0  0  0  0  0  0  0  0  0  0  0  0
  147.7070  135.0800  155.9268 C   0  0  2  0  0  0  0  0  0  0  0  0
  147.9272  133.7061  155.6360 O   0  0  0  0  0  0  0  0  0  0  0  0
  149.1196  133.2971  155.1755 C   0  0  0  0  0  0  0  0  0  0  0  0
  149.0834  131.8600  154.6741 C   0  0  0  0  0  0  0  0  0  0  0  0
  150.1537  133.9641  155.1467 O   0  0  0  0  0  0  0  0  0  0  0  0
  148.0379  135.4849  157.3569 C   0  0  2  0  0  0  0  0  0  0  0  0
  147.5843  134.5165  158.3017 O   0  0  0  0  0  0  0  0  0  0  0  0
  148.2617  133.3687  158.4874 C   0  0  0  0  0  0  0  0  0  0  0  0
  147.5617  132.4354  159.4651 C   0  0  0  0  0  0  0  0  0  0  0  0
  149.3264  133.0595  157.9527 O   0  0  0  0  0  0  0  0  0  0  0  0
  145.1811  134.9180  161.8693 H   0  0  0  0  0  0  0  0  0  0  0  0
  146.7089  134.9575  162.7613 H   0  0  0  0  0  0  0  0  0  0  0  0
  146.6205  134.1375  161.1969 H   0  0  0  0  0  0  0  0  0  0  0  0
  146.2081  138.1276  158.8794 H   0  0  0  0  0  0  0  0  0  0  0  0
  147.8249  137.6521  159.3180 H   0  0  0  0  0  0  0  0  0  0  0  0
  147.6774  137.5489  156.9047 H   0  0  0  0  0  0  0  0  0  0  0  0
  145.5623  134.5834  156.0800 H   0  0  0  0  0  0  0  0  0  0  0  0
  144.7298  137.1134  149.9926 H   0  0  0  0  0  0  0  0  0  0  0  0
  145.0905  135.7362  148.9737 H   0  0  0  0  0  0  0  0  0  0  0  0
  146.6713  132.5024  151.6260 H   0  0  0  0  0  0  0  0  0  0  0  0
  148.2392  135.7309  155.2302 H   0  0  0  0  0  0  0  0  0  0  0  0
  148.3680  131.7621  153.8574 H   0  0  0  0  0  0  0  0  0  0  0  0
  148.7865  131.1870  155.4786 H   0  0  0  0  0  0  0  0  0  0  0  0
  150.0656  131.5549  154.3129 H   0  0  0  0  0  0  0  0  0  0  0  0
  149.0978  135.7076  157.4887 H   0  0  0  0  0  0  0  0  0  0  0  0
  146.5652  132.1843  159.1015 H   0  0  0  0  0  0  0  0  0  0  0  0
  147.4667  132.9129  160.4405 H   0  0  0  0  0  0  0  0  0  0  0  0
  148.1288  131.5119  159.5857 H   0  0  0  0  0  0  0  0  0  0  0  0
  1  2  1  0  0  0  0
  1 30  1  0  0  0  0
  1 31  1  0  0  0  0
  1 32  1  0  0  0  0
  2  3  2  0  0  0  0
  2  4  1  0  0  0  0
  4  5  1  0  0  0  0
  5  6  1  0  0  0  0
  5 33  1  0  0  0  0
  5 34  1  0  0  0  0
  6 25  1  0  0  0  0
  6  7  1  0  0  0  0
  6 35  1  0  0  0  0
  7  8  1  0  0  0  0
  8  9  1  0  0  0  0
  8 20  1  0  0  0  0
  8 36  1  0  0  0  0
  9 19  1  0  0  0  0
  9 10  1  0  0  0  0
 10 11  1  0  0  0  0
 10 12  2  0  0  0  0
 12 13  1  0  0  0  0
 13 19  2  0  0  0  0
 13 14  1  0  0  0  0
 14 15  1  0  0  0  0
 14 16  2  0  0  0  0
 15 37  1  0  0  0  0
 15 38  1  0  0  0  0
 16 17  1  0  0  0  0
 17 18  2  0  0  0  0
 17 39  1  0  0  0  0
 18 19  1  0  0  0  0
 20 21  1  0  0  0  0
 20 25  1  0  0  0  0
 20 40  1  0  0  0  0
 21 22  1  0  0  0  0
 22 23  1  0  0  0  0
 22 24  2  0  0  0  0
 23 41  1  0  0  0  0
 23 42  1  0  0  0  0
 23 43  1  0  0  0  0
 25 26  1  0  0  0  0
 25 44  1  0  0  0  0
 26 27  1  0  0  0  0
 27 28  1  0  0  0  0
 27 29  2  0  0  0  0
 28 45  1  0  0  0  0
 28 46  1  0  0  0  0
 28 47  1  0  0  0  0
M  END
> <s_m_source_file>
AV-unprocessed.smi

> <i_m_source_file_index>
104

> <i_lp_mmshare_version>
43012

> <i_f3d_flags>
0

> <s_epik_input>
W0NIM11DKD1PKU9bQ0gyXVtDQEBIXTFPW0NASF0oW0NAQEhdKE9DKD1PKVtDSDNdKVtDQEhdMU9DKD1PKVtDSDNdKW4oYyhCciluMiljKGMyMyluW2NIXW5jM1tOSDJd

> <s_epik_cmdline>
J2VwaWtfcHl0aG9uJywgJy1waCcsICc3LjAnLCAnLXRuJywgJzgnLCAnLW1hJywgJzIwMCcsICctbWV0YWxfYmluZGluZycsICctaW1hZScsICc8aW5maWxlLm1hZT4nLCAnLW9tYWUnLCAnPG91dGZpbGUubWFlPic=

> <r_lp_tautomer_probability>
1

> <r_epik_Ionization_Penalty>
7.36622e-05

> <r_epik_Ionization_Penalty_Charging>
0

> <r_epik_Ionization_Penalty_Neutral>
7.36622e-05

> <r_epik_State_Penalty>
-0

> <r_epik_Charging_Adjusted_Penalty>
0

> <i_epik_Tot_Q>
0

> <i_epik_Tot_abs_Q>
0

> <r_epik_Metal_State_Penalty>
-0

> <b_epik_Metal_Only>
0

> <s_epik_Chemistry_Notes>
This compound has an ester and may undergo hydrolysis at high or low pH. This compound contains an acetal/aminal-like group ( X-CH(R)-Y where X, Y are N, S, or O) that may be acid/base labile, releasing an aldehyde.

> <s_lp_Force_Field>
OPLS_2005

> <r_lp_Energy>
18.0917

> <b_lp_Chiralities_Consistent>
1

> <s_lp_Variant>
AV-unprocessed.smi:104-13

> <Gold.Version>
5.8.1

> <Gold.Id.Protein>
6NUR|6NUR_protein|mol2

> <Gold.PLP.Fitness>
38.3279

> <Gold.PLP.PLP>
-26.0119

> <Gold.PLP.part.hbond>
-5.0000

> <Gold.PLP.part.metal>
0.0000

> <Gold.PLP.part.buried>
-5.2272

> <Gold.PLP.part.nonpolar>
-16.9359

> <Gold.PLP.part.repulsive>
0.7379

> <Gold.PLP.ligand.clash>
0.0000

> <Gold.PLP.ligand.torsion>
0.8171

> <Gold.PLP.Chemscore.Hbond>
4.5460

> <Gold.PLP.Chemscore.CHOScore>
0.0000

> <Gold.PLP.Chemscore.Metal>
0.0000

> <Gold.Chemscore.Hbonds>
donor molecule, donor type, donor heavy atom, donor atom, acceptor molecule, acceptor atom, score
      L1  H    15    37       P1 10171  1.00
      L1  H    15    38       P1  7921  0.96
      P1  H  6896  6908       L1    29  0.83
      P1  H  6931  6943       L1     3  0.42
      P1  H  6934  6947       L1     3  0.93

> <Gold.PLP.Chemscore.Internal.Correction>
0.3122

> <Gold.Rescore>
     Score         DG    S(hbond)    S(metal)    S(lipo)     H(rot)  DE(clash)    DE(int)     intcor
      7.11     -11.76       4.31        0.00      24.86       4.31       0.02       4.64       ----

> <Gold.Chemscore.Fitness>
7.1067

> <Gold.Chemscore.DG>
-11.7639

> <Gold.Chemscore.ZeroCoef>
-5.4800

> <Gold.Chemscore.Hbond>
4.3118

> <Gold.Chemscore.Metal>
0.0000

> <Gold.Chemscore.Lipo>
24.8573

> <Gold.Chemscore.Internal_Hbond>
0.0000

> <Gold.Chemscore.DEClash>
0.0202

> <Gold.Chemscore.DEInternal>
4.6369

> <Gold.Chemscore.Rot>
4.3070

> <Gold.Chemscore.Internal.Correction>
   9.000000E+99

> <Gold.Chemscore.Hbonds>
donor molecule, donor type, donor heavy atom, donor atom, acceptor molecule, acceptor atom, score
      L1  H    15    37       P1 10171  1.00
      L1  H    15    38       P1  7921  0.92
      P1  H  6896  6908       L1    29  0.33
      P1  H  6931  6943       L1     3  0.40
      P1  H  6934  6947       L1     3  0.89

> <Gold.Chemscore.Hbond.Weighted>
-14.4014

> <Gold.Chemscore.Metal.Weighted>
-0.0000

> <Gold.Chemscore.Lipo.Weighted>
-2.9083

> <Gold.Chemscore.Internal_Hbond.Weighted>
0.0000

> <Gold.Chemscore.DEClash.Weighted>
0.0202

> <Gold.Chemscore.DEInternal.Weighted>
4.6369

> <Gold.Chemscore.Rot.Weighted>
11.0259

> <Gold.Chemscore.Internal.Correction.Weighted>
   9.000000E+99

> <Gold.Protein.RotatedTorsions>
[ 6907 6896 6895 6894 ] final  123.51 input  -60.11 | X-H torsion
[ 7974 7965 7964 7962 ] final -150.84 input  175.53 | X-H torsion
[ 8008 7997 7996 7995 ] final  -40.00 input   59.86 | X-H torsion
[ 10167 10162 10161 10158 ] final   30.46 input  -65.29 | X-H torsion
[ 10718 10713 10712 10709 ] final -155.40 input   66.30 | X-H torsion
[ 10763 10752 10751 10750 ] final -167.98 input  -60.55 | X-H torsion
[ 11005 11000 10999 10996 ] final   38.95 input  -57.11 | X-H torsion

> <Gold.Protein.ActiveResidues>
 VAL166  LYS551  ARG553  GLY616  TRP617  ASP618  TYR619  PRO620  LYS621  CYS622 
 ASP623  PHE694  ASN695  SER759  ASP760  ASP761  ALA762  ILE779  LEU786  VAL792 
 PHE793  MET794  SER795  GLU796  ALA797  LYS798  CYS799  TRP800  GLU811  SER814 

> <Gold.Protein.RotatedAtoms>
  152.4155  133.7031  159.6435 H   0  0  0  0  0  0  0  0  0  0  0  0  # atno 6907 bound_to 6896
  150.8033  133.8547  159.3224 H   0  0  0  0  0  0  0  0  0  0  0  0  # atno 6908 bound_to 6896
  151.6278  135.1028  160.0167 H   0  0  0  0  0  0  0  0  0  0  0  0  # atno 6909 bound_to 6896
  144.7884  140.4878  143.5790 H   0  0  0  0  0  0  0  0  0  0  0  0  # atno 7974 bound_to 7965
  154.4016  140.1537  156.2955 H   0  0  0  0  0  0  0  0  0  0  0  0  # atno 8008 bound_to 7997
  155.8747  140.3447  155.5824 H   0  0  0  0  0  0  0  0  0  0  0  0  # atno 8009 bound_to 7997
  155.7735  140.0833  157.2086 H   0  0  0  0  0  0  0  0  0  0  0  0  # atno 8010 bound_to 7997
  140.4675  144.0813  150.6228 H   0  0  0  0  0  0  0  0  0  0  0  0  # atno 10167 bound_to 10162
  156.5124  130.8441  151.2651 H   0  0  0  0  0  0  0  0  0  0  0  0  # atno 10718 bound_to 10713
  154.6676  135.2934  154.9785 H   0  0  0  0  0  0  0  0  0  0  0  0  # atno 10763 bound_to 10752
  154.0823  135.6602  153.4843 H   0  0  0  0  0  0  0  0  0  0  0  0  # atno 10764 bound_to 10752
  153.0467  135.5200  154.7656 H   0  0  0  0  0  0  0  0  0  0  0  0  # atno 10765 bound_to 10752
  140.2076  134.3794  155.8065 H   0  0  0  0  0  0  0  0  0  0  0  0  # atno 11005 bound_to 11000
  145.5859  139.1492  143.3209 LP  0  0  0  0  0  0  0  0  0  0  0  0  # atno 17320 bound_to 7965
  146.2126  140.5987  142.9053 LP  0  0  0  0  0  0  0  0  0  0  0  0  # atno 17321 bound_to 7965
  140.4018  143.2700  151.9939 LP  0  0  0  0  0  0  0  0  0  0  0  0  # atno 17342 bound_to 10162
  139.4814  144.5991  151.7637 LP  0  0  0  0  0  0  0  0  0  0  0  0  # atno 17343 bound_to 10162
  157.7449  130.9945  150.2710 LP  0  0  0  0  0  0  0  0  0  0  0  0  # atno 17370 bound_to 10713
  156.3228  130.3788  149.7560 LP  0  0  0  0  0  0  0  0  0  0  0  0  # atno 17371 bound_to 10713
  141.2227  133.7126  156.8363 LP  0  0  0  0  0  0  0  0  0  0  0  0  # atno 17394 bound_to 11000
  140.1986  134.8913  157.3143 LP  0  0  0  0  0  0  0  0  0  0  0  0  # atno 17395 bound_to 11000

$$$$
