AV-unprocessed.smi:2536|AV-procd|sdf|9979|dock2
  -GOLD-   2272014 23D 1   1.00000     0.00000
 Structure written by MMmdl.
 32 33  0  0  0  0  0  0  0  0  1 V2000
  151.0479  137.8080  154.0887 C   0  0  0  0  0  0  0  0  0  0  0  0
  150.9021  139.1458  154.7889 C   0  0  0  0  0  0  0  0  0  0  0  0
  149.9361  140.0831  154.3643 C   0  0  0  0  0  0  0  0  0  0  0  0
  149.7890  141.2821  154.9680 N   0  0  0  0  0  0  0  0  0  0  0  0
  150.6016  141.5495  155.9922 C   0  0  0  0  0  0  0  0  0  0  0  0
  150.4244  142.7886  156.5816 N   0  0  0  0  0  0  0  0  0  0  0  0
  151.0170  143.2087  157.8454 C   0  0  1  0  0  0  0  0  0  0  0  0
  151.9508  144.4177  157.6614 C   0  0  0  0  0  0  0  0  0  0  0  0
  152.4733  144.8820  159.0250 C   0  0  0  0  0  0  0  0  0  0  0  0
  151.3033  145.1310  159.9896 C   0  0  0  0  0  0  0  0  0  0  0  0
  150.5106  143.9538  160.1041 O   0  0  0  0  0  0  0  0  0  0  0  0
  149.9210  143.5545  158.8707 C   0  0  0  0  0  0  0  0  0  0  0  0
  151.5474  140.7399  156.4818 N   0  0  0  0  0  0  0  0  0  0  0  0
  151.7060  139.5365  155.8878 C   0  0  0  0  0  0  0  0  0  0  0  0
  152.7954  138.6588  156.4773 C   0  0  0  0  0  0  0  0  0  0  0  0
  150.3452  137.7194  153.2598 H   0  0  0  0  0  0  0  0  0  0  0  0
  150.8535  136.9905  154.7834 H   0  0  0  0  0  0  0  0  0  0  0  0
  152.0560  137.6952  153.6892 H   0  0  0  0  0  0  0  0  0  0  0  0
  149.2773  139.8742  153.5344 H   0  0  0  0  0  0  0  0  0  0  0  0
  149.9091  143.4762  156.0516 H   0  0  0  0  0  0  0  0  0  0  0  0
  151.5952  142.3750  158.2460 H   0  0  0  0  0  0  0  0  0  0  0  0
  152.7879  144.1685  157.0089 H   0  0  0  0  0  0  0  0  0  0  0  0
  151.4115  145.2353  157.1808 H   0  0  0  0  0  0  0  0  0  0  0  0
  153.1346  144.1216  159.4421 H   0  0  0  0  0  0  0  0  0  0  0  0
  153.0691  145.7880  158.9119 H   0  0  0  0  0  0  0  0  0  0  0  0
  151.6816  145.3981  160.9765 H   0  0  0  0  0  0  0  0  0  0  0  0
  150.6882  145.9648  159.6477 H   0  0  0  0  0  0  0  0  0  0  0  0
  149.2677  144.3456  158.4982 H   0  0  0  0  0  0  0  0  0  0  0  0
  149.2914  142.6836  159.0558 H   0  0  0  0  0  0  0  0  0  0  0  0
  152.8356  137.6709  156.0214 H   0  0  0  0  0  0  0  0  0  0  0  0
  152.6302  138.5243  157.5466 H   0  0  0  0  0  0  0  0  0  0  0  0
  153.7684  139.1316  156.3415 H   0  0  0  0  0  0  0  0  0  0  0  0
  1  2  1  0  0  0  0
  1 16  1  0  0  0  0
  1 17  1  0  0  0  0
  1 18  1  0  0  0  0
  2 14  1  0  0  0  0
  2  3  2  0  0  0  0
  3  4  1  0  0  0  0
  3 19  1  0  0  0  0
  4  5  2  0  0  0  0
  5  6  1  0  0  0  0
  5 13  1  0  0  0  0
  6  7  1  0  0  0  0
  6 20  1  0  0  0  0
  7 12  1  0  0  0  0
  7  8  1  0  0  0  0
  7 21  1  0  0  0  0
  8  9  1  0  0  0  0
  8 22  1  0  0  0  0
  8 23  1  0  0  0  0
  9 10  1  0  0  0  0
  9 24  1  0  0  0  0
  9 25  1  0  0  0  0
 10 11  1  0  0  0  0
 10 26  1  0  0  0  0
 10 27  1  0  0  0  0
 11 12  1  0  0  0  0
 12 28  1  0  0  0  0
 12 29  1  0  0  0  0
 13 14  2  0  0  0  0
 14 15  1  0  0  0  0
 15 30  1  0  0  0  0
 15 31  1  0  0  0  0
 15 32  1  0  0  0  0
M  END
> <s_m_source_file>
AV-unprocessed.smi

> <i_m_source_file_index>
2536

> <i_lp_mmshare_version>
43012

> <i_f3d_flags>
0

> <s_epik_input>
W0NIM11jMVtjSF1uYyhuYzFbQ0gzXSlbTkhdW0NAQEhdMltDSDJdW0NIMl1bQ0gyXU9bQ0gyXTI=

> <s_epik_cmdline>
J2VwaWtfcHl0aG9uJywgJy1waCcsICc3LjAnLCAnLXRuJywgJzgnLCAnLW1hJywgJzIwMCcsICctbWV0YWxfYmluZGluZycsICctaW1hZScsICc8aW5maWxlLm1hZT4nLCAnLW9tYWUnLCAnPG91dGZpbGUubWFlPic=

> <r_lp_tautomer_probability>
1

> <r_epik_Ionization_Penalty>
0.00982357

> <r_epik_Ionization_Penalty_Charging>
0

> <r_epik_Ionization_Penalty_Neutral>
0.00982357

> <r_epik_State_Penalty>
0.0064698

> <r_epik_Charging_Adjusted_Penalty>
0.0064698

> <i_epik_Tot_Q>
0

> <i_epik_Tot_abs_Q>
0

> <r_epik_Metal_State_Penalty>
-0

> <b_epik_Metal_Only>
0

> <s_lp_Force_Field>
OPLS_2005

> <r_lp_Energy>
1.83983

> <b_lp_Chiralities_Consistent>
1

> <s_lp_Variant>
AV-unprocessed.smi:2536-2

> <Gold.Version>
5.8.1

> <Gold.Id.Protein>
6NUR|6NUR_protein|mol2

> <Gold.PLP.Fitness>
41.0069

> <Gold.PLP.PLP>
-35.0659

> <Gold.PLP.part.hbond>
-2.1029

> <Gold.PLP.part.metal>
0.0000

> <Gold.PLP.part.buried>
-1.5194

> <Gold.PLP.part.nonpolar>
-30.4821

> <Gold.PLP.part.repulsive>
0.3146

> <Gold.PLP.ligand.clash>
0.0000

> <Gold.PLP.ligand.torsion>
0.0309

> <Gold.PLP.Chemscore.Hbond>
1.0000

> <Gold.PLP.Chemscore.CHOScore>
1.0000

> <Gold.PLP.Chemscore.Metal>
0.0000

> <Gold.Chemscore.Hbonds>
donor molecule, donor type, donor heavy atom, donor atom, acceptor molecule, acceptor atom, score
      L1  H     6    20       P1  8028  1.00
      L1  C     3    19       P1  7957  1.00

> <Gold.PLP.Chemscore.Internal.Correction>
0.0029

> <Gold.Rescore>
     Score         DG    S(hbond)    S(metal)    S(lipo)     H(rot)  DE(clash)    DE(int)     intcor
     17.09     -17.40       1.00        0.00      95.23       1.00       0.27       0.04       ----

> <Gold.Chemscore.Fitness>
17.0920

> <Gold.Chemscore.DG>
-17.4010

> <Gold.Chemscore.ZeroCoef>
-5.4800

> <Gold.Chemscore.Hbond>
0.9997

> <Gold.Chemscore.Metal>
0.0000

> <Gold.Chemscore.Lipo>
95.2301

> <Gold.Chemscore.Internal_Hbond>
0.0000

> <Gold.Chemscore.DEClash>
0.2683

> <Gold.Chemscore.DEInternal>
0.0407

> <Gold.Chemscore.Rot>
1.0000

> <Gold.Chemscore.Internal.Correction>
   9.000000E+99

> <Gold.Chemscore.Hbonds>
donor molecule, donor type, donor heavy atom, donor atom, acceptor molecule, acceptor atom, score
      L1  H     6    20       P1  8028  1.00

> <Gold.Chemscore.Hbond.Weighted>
-3.3391

> <Gold.Chemscore.Metal.Weighted>
-0.0000

> <Gold.Chemscore.Lipo.Weighted>
-11.1419

> <Gold.Chemscore.Internal_Hbond.Weighted>
0.0000

> <Gold.Chemscore.DEClash.Weighted>
0.2683

> <Gold.Chemscore.DEInternal.Weighted>
0.0407

> <Gold.Chemscore.Rot.Weighted>
2.5600

> <Gold.Chemscore.Internal.Correction.Weighted>
   9.000000E+99

> <Gold.Protein.RotatedTorsions>
[ 6907 6896 6895 6894 ] final   57.56 input  -60.11 | X-H torsion
[ 7974 7965 7964 7962 ] final  102.44 input  175.53 | X-H torsion
[ 8008 7997 7996 7995 ] final  139.89 input   59.86 | X-H torsion
[ 10167 10162 10161 10158 ] final -169.93 input  -65.29 | X-H torsion
[ 10718 10713 10712 10709 ] final  110.15 input   66.30 | X-H torsion
[ 10763 10752 10751 10750 ] final  153.02 input  -60.55 | X-H torsion
[ 11005 11000 10999 10996 ] final -149.68 input  -57.11 | X-H torsion

> <Gold.Protein.ActiveResidues>
 VAL166  LYS551  ARG553  GLY616  TRP617  ASP618  TYR619  PRO620  LYS621  CYS622 
 ASP623  PHE694  ASN695  SER759  ASP760  ASP761  ALA762  ILE779  LEU786  VAL792 
 PHE793  MET794  SER795  GLU796  ALA797  LYS798  CYS799  TRP800  GLU811  SER814 

> <Gold.Protein.RotatedAtoms>
  152.3743  134.6687  160.0165 H   0  0  0  0  0  0  0  0  0  0  0  0  # atno 6907 bound_to 6896
  151.6970  133.3305  159.3265 H   0  0  0  0  0  0  0  0  0  0  0  0  # atno 6908 bound_to 6896
  150.7697  134.6584  159.6371 H   0  0  0  0  0  0  0  0  0  0  0  0  # atno 6909 bound_to 6896
  145.3591  139.2422  143.3516 H   0  0  0  0  0  0  0  0  0  0  0  0  # atno 7974 bound_to 7965
  156.2985  140.2356  156.4311 H   0  0  0  0  0  0  0  0  0  0  0  0  # atno 8008 bound_to 7997
  154.8270  140.0435  157.1471 H   0  0  0  0  0  0  0  0  0  0  0  0  # atno 8009 bound_to 7997
  154.9251  140.3009  155.5200 H   0  0  0  0  0  0  0  0  0  0  0  0  # atno 8010 bound_to 7997
  139.5892  144.1250  152.1613 H   0  0  0  0  0  0  0  0  0  0  0  0  # atno 10167 bound_to 10162
  157.6508  131.0927  150.6559 H   0  0  0  0  0  0  0  0  0  0  0  0  # atno 10718 bound_to 10713
  154.1294  135.2827  155.3189 H   0  0  0  0  0  0  0  0  0  0  0  0  # atno 10763 bound_to 10752
  154.6366  135.5417  153.7744 H   0  0  0  0  0  0  0  0  0  0  0  0  # atno 10764 bound_to 10752
  153.0286  135.6476  154.1445 H   0  0  0  0  0  0  0  0  0  0  0  0  # atno 10765 bound_to 10752
  140.7482  134.3437  157.5132 H   0  0  0  0  0  0  0  0  0  0  0  0  # atno 11005 bound_to 11000
  146.2935  140.4221  142.8730 LP  0  0  0  0  0  0  0  0  0  0  0  0  # atno 17320 bound_to 7965
  144.8660  140.7206  143.6077 LP  0  0  0  0  0  0  0  0  0  0  0  0  # atno 17321 bound_to 7965
  140.0821  144.5692  150.7115 LP  0  0  0  0  0  0  0  0  0  0  0  0  # atno 17342 bound_to 10162
  140.7158  143.2544  151.4437 LP  0  0  0  0  0  0  0  0  0  0  0  0  # atno 17343 bound_to 10162
  156.6870  130.4584  149.5611 LP  0  0  0  0  0  0  0  0  0  0  0  0  # atno 17370 bound_to 10713
  156.1888  130.6546  151.1037 LP  0  0  0  0  0  0  0  0  0  0  0  0  # atno 17371 bound_to 10713
  139.8792  134.9125  156.3061 LP  0  0  0  0  0  0  0  0  0  0  0  0  # atno 17394 bound_to 11000
  140.9775  133.7288  156.0623 LP  0  0  0  0  0  0  0  0  0  0  0  0  # atno 17395 bound_to 11000

$$$$
