AV-unprocessed.smi:1403|AV-procd|sdf|5704|dock9
  -GOLD-   22720 5333D 1   1.00000     0.00000
 Structure written by MMmdl.
 35 36  0  0  0  0  0  0  0  0  2 V2000
  152.0307  144.7923  159.2572 C   0  0  0  0  0  0  0  0  0  0  0  0
  151.3142  143.4348  159.1873 C   0  0  1  0  0  0  0  0  0  0  0  0
  151.2981  142.9910  157.7955 N   0  0  0  0  0  0  0  0  0  0  0  0
  150.4671  142.0755  157.2739 C   0  0  0  0  0  0  0  0  0  0  0  0
  149.6065  141.4879  157.9309 O   0  0  0  0  0  0  0  0  0  0  0  0
  150.6701  141.7549  155.7870 C   0  0  0  0  0  0  0  0  0  0  0  0
  150.8906  140.3223  155.5334 N   0  0  0  0  0  0  0  0  0  0  0  0
  150.1245  139.7109  154.5253 C   0  0  0  0  0  0  0  0  0  0  0  0
  150.2613  138.4060  154.2223 C   0  0  0  0  0  0  0  0  0  0  0  0
  151.2351  137.6218  154.9715 C   0  0  0  0  0  0  0  0  0  0  0  0
  151.3693  136.4274  154.7124 O   0  0  0  0  0  0  0  0  0  0  0  0
  151.9582  138.2620  155.9366 N   0  5  0  0  0  0  0  0  0  0  0  0
  151.8109  139.5909  156.2316 C   0  0  0  0  0  0  0  0  0  0  0  0
  152.4763  140.1497  157.1046 O   0  0  0  0  0  0  0  0  0  0  0  0
  151.9904  142.3652  160.0710 C   0  0  1  0  0  0  0  0  0  0  0  0
  153.5025  142.2380  159.8704 C   0  0  0  0  0  0  0  0  0  0  0  0
  153.9469  141.6785  161.2018 C   0  0  0  0  0  0  0  0  0  0  0  0
  153.0453  142.4392  162.1666 C   0  0  0  0  0  0  0  0  0  0  0  0
  151.8345  142.6782  161.4556 O   0  0  0  0  0  0  0  0  0  0  0  0
  152.0278  145.1934  160.2709 H   0  0  0  0  0  0  0  0  0  0  0  0
  151.5392  145.5265  158.6178 H   0  0  0  0  0  0  0  0  0  0  0  0
  153.0690  144.7116  158.9336 H   0  0  0  0  0  0  0  0  0  0  0  0
  150.2912  143.5838  159.5376 H   0  0  0  0  0  0  0  0  0  0  0  0
  151.9761  143.4132  157.1781 H   0  0  0  0  0  0  0  0  0  0  0  0
  149.8145  142.1111  155.2100 H   0  0  0  0  0  0  0  0  0  0  0  0
  151.5184  142.3397  155.4293 H   0  0  0  0  0  0  0  0  0  0  0  0
  149.4319  140.3629  154.0142 H   0  0  0  0  0  0  0  0  0  0  0  0
  149.6674  137.9522  153.4428 H   0  0  0  0  0  0  0  0  0  0  0  0
  151.5274  141.3912  159.9029 H   0  0  0  0  0  0  0  0  0  0  0  0
  153.7688  141.5965  159.0299 H   0  0  0  0  0  0  0  0  0  0  0  0
  153.9547  143.2181  159.7106 H   0  0  0  0  0  0  0  0  0  0  0  0
  153.7344  140.6097  161.2497 H   0  0  0  0  0  0  0  0  0  0  0  0
  155.0083  141.8281  161.4004 H   0  0  0  0  0  0  0  0  0  0  0  0
  152.8648  141.8898  163.0908 H   0  0  0  0  0  0  0  0  0  0  0  0
  153.4893  143.4014  162.4246 H   0  0  0  0  0  0  0  0  0  0  0  0
  1  2  1  0  0  0  0
  1 20  1  0  0  0  0
  1 21  1  0  0  0  0
  1 22  1  0  0  0  0
  2  3  1  0  0  0  0
  2 15  1  0  0  0  0
  2 23  1  0  0  0  0
  3  4  1  0  0  0  0
  3 24  1  0  0  0  0
  4  5  2  0  0  0  0
  4  6  1  0  0  0  0
  6  7  1  0  0  0  0
  6 25  1  0  0  0  0
  6 26  1  0  0  0  0
  7 13  1  0  0  0  0
  7  8  1  0  0  0  0
  8  9  2  0  0  0  0
  8 27  1  0  0  0  0
  9 10  1  0  0  0  0
  9 28  1  0  0  0  0
 10 11  2  0  0  0  0
 10 12  1  0  0  0  0
 12 13  1  0  0  0  0
 13 14  2  0  0  0  0
 15 19  1  0  0  0  0
 15 16  1  0  0  0  0
 15 29  1  0  0  0  0
 16 17  1  0  0  0  0
 16 30  1  0  0  0  0
 16 31  1  0  0  0  0
 17 18  1  0  0  0  0
 17 32  1  0  0  0  0
 17 33  1  0  0  0  0
 18 19  1  0  0  0  0
 18 34  1  0  0  0  0
 18 35  1  0  0  0  0
M  CHG  1  12  -1
M  END
> <s_m_source_file>
AV-unprocessed.smi

> <i_m_source_file_index>
1403

> <i_lp_mmshare_version>
43012

> <i_f3d_flags>
0

> <s_epik_input>
TzFbQ0gyXVtDSDJdW0NIMl1bQ0BIXTFbQ0BIXShbQ0gzXSlbTkhdQyg9TylbQ0gyXW4yW2NIXVtjSF1jKD1PKVtuSF1jMj1P

> <s_epik_cmdline>
J2VwaWtfcHl0aG9uJywgJy1waCcsICc3LjAnLCAnLXRuJywgJzgnLCAnLW1hJywgJzIwMCcsICctbWV0YWxfYmluZGluZycsICctaW1hZScsICc8aW5maWxlLm1hZT4nLCAnLW9tYWUnLCAnPG91dGZpbGUubWFlPic=

> <r_lp_tautomer_probability>
0.999537

> <r_epik_Ionization_Penalty>
3.07438

> <r_epik_Ionization_Penalty_Charging>
2.82466e-08

> <r_epik_Ionization_Penalty_Neutral>
3.07438

> <r_epik_State_Penalty>
3.07341

> <r_epik_Charging_Adjusted_Penalty>
3.07341

> <i_epik_Tot_Q>
-1

> <i_epik_Tot_abs_Q>
1

> <r_epik_Metal_State_Penalty>
0.45947

> <b_epik_Metal_Only>
1

> <s_lp_Force_Field>
OPLS_2005

> <r_lp_Energy>
26.7212

> <b_lp_Chiralities_Consistent>
1

> <s_lp_Variant>
AV-unprocessed.smi:1403-8

> <Gold.Version>
5.8.1

> <Gold.Id.Protein>
6NUR|6NUR_protein|mol2

> <Gold.PLP.Fitness>
49.4652

> <Gold.PLP.PLP>
-42.6948

> <Gold.PLP.part.hbond>
-3.0000

> <Gold.PLP.part.metal>
0.0000

> <Gold.PLP.part.buried>
-2.6900

> <Gold.PLP.part.nonpolar>
-36.6544

> <Gold.PLP.part.repulsive>
0.3436

> <Gold.PLP.ligand.clash>
0.0000

> <Gold.PLP.ligand.torsion>
0.4670

> <Gold.PLP.Chemscore.Hbond>
2.4446

> <Gold.PLP.Chemscore.CHOScore>
0.1174

> <Gold.PLP.Chemscore.Metal>
0.0000

> <Gold.Chemscore.Hbonds>
donor molecule, donor type, donor heavy atom, donor atom, acceptor molecule, acceptor atom, score
      P1  H  6933  6945       L1    19  0.42
      P1  H  7997  8008       L1    14  1.00
      P1  H 10752 10763       L1    11  1.00
      L1  C     8    27       P1  7957  0.08

> <Gold.PLP.Chemscore.Internal.Correction>
0.0185

> <Gold.Rescore>
     Score         DG    S(hbond)    S(metal)    S(lipo)     H(rot)  DE(clash)    DE(int)     intcor
     17.12     -19.11       2.58        0.00      86.52       1.99       0.17       1.82       ----

> <Gold.Chemscore.Fitness>
17.1169

> <Gold.Chemscore.DG>
-19.1073

> <Gold.Chemscore.ZeroCoef>
-5.4800

> <Gold.Chemscore.Hbond>
2.5775

> <Gold.Chemscore.Metal>
0.0000

> <Gold.Chemscore.Lipo>
86.5233

> <Gold.Chemscore.Internal_Hbond>
0.0000

> <Gold.Chemscore.DEClash>
0.1673

> <Gold.Chemscore.DEInternal>
1.8231

> <Gold.Chemscore.Rot>
1.9940

> <Gold.Chemscore.Internal.Correction>
   9.000000E+99

> <Gold.Chemscore.Hbonds>
donor molecule, donor type, donor heavy atom, donor atom, acceptor molecule, acceptor atom, score
      P1  H  6933  6945       L1    19  0.29
      P1  H  7997  8008       L1    14  0.63
      P1  H 10752 10763       L1    11  1.00

> <Gold.Chemscore.Hbond.Weighted>
-8.6088

> <Gold.Chemscore.Metal.Weighted>
-0.0000

> <Gold.Chemscore.Lipo.Weighted>
-10.1232

> <Gold.Chemscore.Internal_Hbond.Weighted>
0.0000

> <Gold.Chemscore.DEClash.Weighted>
0.1673

> <Gold.Chemscore.DEInternal.Weighted>
1.8231

> <Gold.Chemscore.Rot.Weighted>
5.1047

> <Gold.Chemscore.Internal.Correction.Weighted>
   9.000000E+99

> <Gold.Protein.RotatedTorsions>
[ 6907 6896 6895 6894 ] final -129.76 input  -60.11 | X-H torsion
[ 7974 7965 7964 7962 ] final -143.70 input  175.53 | X-H torsion
[ 8008 7997 7996 7995 ] final  -54.73 input   59.86 | X-H torsion
[ 10167 10162 10161 10158 ] final  110.09 input  -65.29 | X-H torsion
[ 10718 10713 10712 10709 ] final -103.93 input   66.30 | X-H torsion
[ 10763 10752 10751 10750 ] final   61.78 input  -60.55 | X-H torsion
[ 11005 11000 10999 10996 ] final   95.98 input  -57.11 | X-H torsion

> <Gold.Protein.ActiveResidues>
 VAL166  LYS551  ARG553  GLY616  TRP617  ASP618  TYR619  PRO620  LYS621  CYS622 
 ASP623  PHE694  ASN695  SER759  ASP760  ASP761  ALA762  ILE779  LEU786  VAL792 
 PHE793  MET794  SER795  GLU796  ALA797  LYS798  CYS799  TRP800  GLU811  SER814 

> <Gold.Protein.RotatedAtoms>
  150.9323  133.6753  159.2807 H   0  0  0  0  0  0  0  0  0  0  0  0  # atno 6907 bound_to 6896
  151.4170  135.0991  159.9612 H   0  0  0  0  0  0  0  0  0  0  0  0  # atno 6908 bound_to 6896
  152.5031  133.8783  159.7388 H   0  0  0  0  0  0  0  0  0  0  0  0  # atno 6909 bound_to 6896
  144.8350  140.5802  143.5490 H   0  0  0  0  0  0  0  0  0  0  0  0  # atno 7974 bound_to 7965
  154.4172  140.1169  156.5363 H   0  0  0  0  0  0  0  0  0  0  0  0  # atno 8008 bound_to 7997
  155.6554  140.3496  155.4744 H   0  0  0  0  0  0  0  0  0  0  0  0  # atno 8009 bound_to 7997
  155.9758  140.1150  157.0761 H   0  0  0  0  0  0  0  0  0  0  0  0  # atno 8010 bound_to 7997
  139.6715  144.7125  151.1679 H   0  0  0  0  0  0  0  0  0  0  0  0  # atno 10167 bound_to 10162
  156.0284  130.5491  150.7324 H   0  0  0  0  0  0  0  0  0  0  0  0  # atno 10718 bound_to 10713
  152.9961  135.5488  154.6089 H   0  0  0  0  0  0  0  0  0  0  0  0  # atno 10763 bound_to 10752
  154.5414  135.2820  155.1094 H   0  0  0  0  0  0  0  0  0  0  0  0  # atno 10764 bound_to 10752
  154.2370  135.6423  153.5247 H   0  0  0  0  0  0  0  0  0  0  0  0  # atno 10765 bound_to 10752
  139.8785  134.8927  156.4091 H   0  0  0  0  0  0  0  0  0  0  0  0  # atno 11005 bound_to 11000
  145.4813  139.1495  143.3760 LP  0  0  0  0  0  0  0  0  0  0  0  0  # atno 17320 bound_to 7965
  146.2650  140.4949  142.8838 LP  0  0  0  0  0  0  0  0  0  0  0  0  # atno 17321 bound_to 7965
  140.7620  143.5837  150.8868 LP  0  0  0  0  0  0  0  0  0  0  0  0  # atno 17342 bound_to 10162
  139.9502  143.6280  152.3031 LP  0  0  0  0  0  0  0  0  0  0  0  0  # atno 17343 bound_to 10162
  157.4913  131.0911  151.0423 LP  0  0  0  0  0  0  0  0  0  0  0  0  # atno 17370 bound_to 10713
  157.0829  130.5910  149.5424 LP  0  0  0  0  0  0  0  0  0  0  0  0  # atno 17371 bound_to 10713
  140.9213  133.7643  155.9910 LP  0  0  0  0  0  0  0  0  0  0  0  0  # atno 17394 bound_to 11000
  140.8436  134.3037  157.5303 LP  0  0  0  0  0  0  0  0  0  0  0  0  # atno 17395 bound_to 11000

$$$$
