AV-unprocessed.smi:686|AV-procd|sdf|3351|dock2
  -GOLD-   22720 0323D 1   1.00000     0.00000
 Structure written by MMmdl.
 40 41  0  0  0  0  0  0  0  0  3 V2000
  151.8179  138.2134  155.4254 C   0  0  0  0  0  0  0  0  0  0  0  0
  150.4971  137.6632  154.8457 C   0  0  2  0  0  0  0  0  0  0  0  0
  149.6474  138.6931  154.1016 C   0  0  0  0  0  0  0  0  0  0  0  0
  148.3295  138.0413  153.9298 N   0  3  2  0  0  0  0  0  0  0  0  0
  147.1807  138.9619  153.6951 C   0  0  0  0  0  0  0  0  0  0  0  0
  146.7957  138.9985  152.2040 C   0  0  0  0  0  0  0  0  0  0  0  0
  147.4859  140.3925  154.1800 C   0  0  0  0  0  0  0  0  0  0  0  0
  148.1585  137.0858  155.0572 C   0  0  0  0  0  0  0  0  0  0  0  0
  149.4981  137.0090  155.8202 C   0  0  2  0  0  0  0  0  0  0  0  0
  149.4062  137.7659  157.0646 N   0  5  0  0  0  0  0  0  0  0  0  0
  149.5530  136.9915  158.4820 S   0  0  0  0  0  0  0  0  0  0  0  0
  150.0762  135.6247  158.3258 O   0  0  0  0  0  0  0  0  0  0  0  0
  150.1767  137.8295  159.5193 O   0  0  0  0  0  0  0  0  0  0  0  0
  147.7815  136.8134  158.9606 C   0  0  0  0  0  0  0  0  0  0  0  0
  147.6773  136.3725  160.3935 C   0  0  0  0  0  0  0  0  0  0  0  0
  147.4897  135.0571  160.9020 C   0  0  0  0  0  0  0  0  0  0  0  0
  147.4723  135.2370  162.2547 C   0  0  0  0  0  0  0  0  0  0  0  0
  147.6435  136.5475  162.5620 O   0  0  0  0  0  0  0  0  0  0  0  0
  147.7768  137.2645  161.3672 N   0  0  0  0  0  0  0  0  0  0  0  0
  151.6565  139.0465  156.1117 H   0  0  0  0  0  0  0  0  0  0  0  0
  152.4590  138.5818  154.6244 H   0  0  0  0  0  0  0  0  0  0  0  0
  152.3789  137.4436  155.9581 H   0  0  0  0  0  0  0  0  0  0  0  0
  150.7694  136.8944  154.1205 H   0  0  0  0  0  0  0  0  0  0  0  0
  149.5455  139.6130  154.6843 H   0  0  0  0  0  0  0  0  0  0  0  0
  150.0858  138.9577  153.1386 H   0  0  0  0  0  0  0  0  0  0  0  0
  146.3267  138.5877  154.2624 H   0  0  0  0  0  0  0  0  0  0  0  0
  145.9687  139.6880  152.0313 H   0  0  0  0  0  0  0  0  0  0  0  0
  146.4754  138.0239  151.8366 H   0  0  0  0  0  0  0  0  0  0  0  0
  147.6328  139.3275  151.5874 H   0  0  0  0  0  0  0  0  0  0  0  0
  146.6594  141.0661  153.9516 H   0  0  0  0  0  0  0  0  0  0  0  0
  148.3794  140.7921  153.6988 H   0  0  0  0  0  0  0  0  0  0  0  0
  147.6365  140.4366  155.2587 H   0  0  0  0  0  0  0  0  0  0  0  0
  147.3353  137.3775  155.7107 H   0  0  0  0  0  0  0  0  0  0  0  0
  147.9008  136.1115  154.6411 H   0  0  0  0  0  0  0  0  0  0  0  0
  149.7827  135.9713  155.9961 H   0  0  0  0  0  0  0  0  0  0  0  0
  147.2904  137.7752  158.8163 H   0  0  0  0  0  0  0  0  0  0  0  0
  147.3141  136.0967  158.2852 H   0  0  0  0  0  0  0  0  0  0  0  0
  147.3776  134.1310  160.3581 H   0  0  0  0  0  0  0  0  0  0  0  0
  147.3548  134.5641  163.0914 H   0  0  0  0  0  0  0  0  0  0  0  0
  148.4186  137.4690  153.1027 H   0  0  0  0  0  0  0  0  0  0  0  0
  1  2  1  0  0  0  0
  1 20  1  0  0  0  0
  1 21  1  0  0  0  0
  1 22  1  0  0  0  0
  2  9  1  0  0  0  0
  2  3  1  0  0  0  0
  2 23  1  0  0  0  0
  3  4  1  0  0  0  0
  3 24  1  0  0  0  0
  3 25  1  0  0  0  0
  4  5  1  0  0  0  0
  4  8  1  0  0  0  0
  4 40  1  0  0  0  0
  5  6  1  0  0  0  0
  5  7  1  0  0  0  0
  5 26  1  0  0  0  0
  6 27  1  0  0  0  0
  6 28  1  0  0  0  0
  6 29  1  0  0  0  0
  7 30  1  0  0  0  0
  7 31  1  0  0  0  0
  7 32  1  0  0  0  0
  8  9  1  0  0  0  0
  8 33  1  0  0  0  0
  8 34  1  0  0  0  0
  9 10  1  0  0  0  0
  9 35  1  0  0  0  0
 10 11  1  0  0  0  0
 11 12  2  0  0  0  0
 11 13  2  0  0  0  0
 11 14  1  0  0  0  0
 14 15  1  0  0  0  0
 14 36  1  0  0  0  0
 14 37  1  0  0  0  0
 15 19  2  0  0  0  0
 15 16  1  0  0  0  0
 16 17  2  0  0  0  0
 16 38  1  0  0  0  0
 17 18  1  0  0  0  0
 17 39  1  0  0  0  0
 18 19  1  0  0  0  0
M  CHG  1   4   1
M  CHG  1  10  -1
M  END
> <s_m_source_file>
AV-unprocessed.smi

> <i_m_source_file_index>
686

> <i_lp_mmshare_version>
43012

> <i_f3d_flags>
0

> <s_epik_input>
W0NIM11bQ0BASF0xW0NIMl1OKFtDSF0oW0NIM10pW0NIM10pW0NIMl1bQ0BIXTFbTkhdUyg9TykoPU8pW0NIMl1jMltjSF1bY0hdb24y

> <s_epik_cmdline>
J2VwaWtfcHl0aG9uJywgJy1waCcsICc3LjAnLCAnLXRuJywgJzgnLCAnLW1hJywgJzIwMCcsICctbWV0YWxfYmluZGluZycsICctaW1hZScsICc8aW5maWxlLm1hZT4nLCAnLW9tYWUnLCAnPG91dGZpbGUubWFlPic=

> <r_epik_Ionization_Penalty>
3.62478

> <r_epik_Ionization_Penalty_Charging>
3.62478

> <r_epik_Ionization_Penalty_Neutral>
2.03645e-10

> <r_epik_State_Penalty>
3.6247

> <r_epik_Charging_Adjusted_Penalty>
7.24949

> <i_epik_Tot_Q>
0

> <i_epik_Tot_abs_Q>
2

> <r_epik_Metal_State_Penalty>
0.530836

> <b_epik_Metal_Only>
1

> <s_lp_Force_Field>
OPLS_2005

> <r_lp_Energy>
19.6845

> <b_lp_Chiralities_Consistent>
1

> <s_lp_Variant>
AV-unprocessed.smi:686-15

> <Gold.Version>
5.8.1

> <Gold.Id.Protein>
6NUR|6NUR_protein|mol2

> <Gold.PLP.Fitness>
40.8455

> <Gold.PLP.PLP>
-30.6288

> <Gold.PLP.part.hbond>
-5.1648

> <Gold.PLP.part.metal>
0.0000

> <Gold.PLP.part.buried>
-3.9592

> <Gold.PLP.part.nonpolar>
-21.2752

> <Gold.PLP.part.repulsive>
0.0048

> <Gold.PLP.ligand.clash>
0.0000

> <Gold.PLP.ligand.torsion>
2.2734

> <Gold.PLP.Chemscore.Hbond>
4.5712

> <Gold.PLP.Chemscore.CHOScore>
0.0000

> <Gold.PLP.Chemscore.Metal>
0.0000

> <Gold.Chemscore.Hbonds>
donor molecule, donor type, donor heavy atom, donor atom, acceptor molecule, acceptor atom, score
      L1  H     4    40       P1  7948  2.00
      P1  H  6896  6907       L1    12  0.93
      P1  H  6931  6943       L1    19  0.78
      P1  H  6934  6947       L1    19  0.75

> <Gold.PLP.Chemscore.Internal.Correction>
1.0500

> <Gold.Rescore>
     Score         DG    S(hbond)    S(metal)    S(lipo)     H(rot)  DE(clash)    DE(int)     intcor
     16.86     -19.20       3.04        0.00      65.88       1.61       0.00       2.34       ----

> <Gold.Chemscore.Fitness>
16.8569

> <Gold.Chemscore.DG>
-19.2015

> <Gold.Chemscore.ZeroCoef>
-5.4800

> <Gold.Chemscore.Hbond>
3.0383

> <Gold.Chemscore.Metal>
0.0000

> <Gold.Chemscore.Lipo>
65.8788

> <Gold.Chemscore.Internal_Hbond>
0.0000

> <Gold.Chemscore.DEClash>
0.0038

> <Gold.Chemscore.DEInternal>
2.3408

> <Gold.Chemscore.Rot>
1.6149

> <Gold.Chemscore.Internal.Correction>
   9.000000E+99

> <Gold.Chemscore.Hbonds>
donor molecule, donor type, donor heavy atom, donor atom, acceptor molecule, acceptor atom, score
      L1  H     4    40       P1  7948  1.00
      P1  H  6896  6907       L1    12  0.91
      P1  H  6931  6943       L1    19  0.11
      P1  H  6934  6947       L1    19  0.70

> <Gold.Chemscore.Hbond.Weighted>
-10.1478

> <Gold.Chemscore.Metal.Weighted>
-0.0000

> <Gold.Chemscore.Lipo.Weighted>
-7.7078

> <Gold.Chemscore.Internal_Hbond.Weighted>
0.0000

> <Gold.Chemscore.DEClash.Weighted>
0.0038

> <Gold.Chemscore.DEInternal.Weighted>
2.3408

> <Gold.Chemscore.Rot.Weighted>
4.1341

> <Gold.Chemscore.Internal.Correction.Weighted>
   9.000000E+99

> <Gold.Protein.RotatedTorsions>
[ 6907 6896 6895 6894 ] final  -71.14 input  -60.11 | X-H torsion
[ 7974 7965 7964 7962 ] final   96.03 input  175.53 | X-H torsion
[ 8008 7997 7996 7995 ] final   75.90 input   59.86 | X-H torsion
[ 10167 10162 10161 10158 ] final -104.01 input  -65.29 | X-H torsion
[ 10718 10713 10712 10709 ] final    1.59 input   66.30 | X-H torsion
[ 10763 10752 10751 10750 ] final  -25.48 input  -60.55 | X-H torsion
[ 11005 11000 10999 10996 ] final  172.57 input  -57.11 | X-H torsion

> <Gold.Protein.ActiveResidues>
 VAL166  LYS551  ARG553  GLY616  TRP617  ASP618  TYR619  PRO620  LYS621  CYS622 
 ASP623  PHE694  ASN695  SER759  ASP760  ASP761  ALA762  ILE779  LEU786  VAL792 
 PHE793  MET794  SER795  GLU796  ALA797  LYS798  CYS799  TRP800  GLU811  SER814 

> <Gold.Protein.RotatedAtoms>
  150.7225  134.5351  159.5719 H   0  0  0  0  0  0  0  0  0  0  0  0  # atno 6907 bound_to 6896
  152.2875  134.7756  160.0393 H   0  0  0  0  0  0  0  0  0  0  0  0  # atno 6908 bound_to 6896
  151.8381  133.3384  159.3671 H   0  0  0  0  0  0  0  0  0  0  0  0  # atno 6909 bound_to 6896
  145.4443  139.2298  143.3074 H   0  0  0  0  0  0  0  0  0  0  0  0  # atno 7974 bound_to 7965
  155.8196  140.3470  155.5506 H   0  0  0  0  0  0  0  0  0  0  0  0  # atno 8008 bound_to 7997
  155.8356  140.0933  157.1786 H   0  0  0  0  0  0  0  0  0  0  0  0  # atno 8009 bound_to 7997
  154.4004  140.1404  156.3654 H   0  0  0  0  0  0  0  0  0  0  0  0  # atno 8010 bound_to 7997
  140.2139  143.3726  152.1027 H   0  0  0  0  0  0  0  0  0  0  0  0  # atno 10167 bound_to 10162
  156.8505  130.5552  149.5670 H   0  0  0  0  0  0  0  0  0  0  0  0  # atno 10718 bound_to 10713
  153.7005  135.6956  153.5064 H   0  0  0  0  0  0  0  0  0  0  0  0  # atno 10763 bound_to 10752
  153.2346  135.4326  155.0631 H   0  0  0  0  0  0  0  0  0  0  0  0  # atno 10764 bound_to 10752
  154.8345  135.3492  154.6544 H   0  0  0  0  0  0  0  0  0  0  0  0  # atno 10765 bound_to 10752
  140.3311  134.7356  157.4135 H   0  0  0  0  0  0  0  0  0  0  0  0  # atno 11005 bound_to 11000
  146.2539  140.5195  142.8882 LP  0  0  0  0  0  0  0  0  0  0  0  0  # atno 17320 bound_to 7965
  144.8101  140.6371  143.6421 LP  0  0  0  0  0  0  0  0  0  0  0  0  # atno 17321 bound_to 7965
  139.5169  144.6985  151.5563 LP  0  0  0  0  0  0  0  0  0  0  0  0  # atno 17342 bound_to 10162
  140.6304  143.9088  150.6600 LP  0  0  0  0  0  0  0  0  0  0  0  0  # atno 17343 bound_to 10162
  156.0831  130.5836  150.9599 LP  0  0  0  0  0  0  0  0  0  0  0  0  # atno 17370 bound_to 10713
  157.6306  131.0921  150.8448 LP  0  0  0  0  0  0  0  0  0  0  0  0  # atno 17371 bound_to 10713
  140.0860  134.5666  155.8492 LP  0  0  0  0  0  0  0  0  0  0  0  0  # atno 17394 bound_to 11000
  141.2063  133.6654  156.6233 LP  0  0  0  0  0  0  0  0  0  0  0  0  # atno 17395 bound_to 11000

$$$$
