#       Name:                AV-unprocessed.smi:53
#       Creating user name   scv26
#       Creation time:       Thu Mar 26 16:39:23 2020


#       File generated by GOLD software.
#

@<TRIPOS>MOLECULE
AV-unprocessed.smi:53
    41    42     1
SMALL
NO_CHARGES


@<TRIPOS>ATOM
      1 ****        -4.9924  -0.6103   0.1542 N.pl3          1 S1                 0.0000
      2 ****        -3.6542  -0.6728   0.1938 C.2            1 S1                 0.0000
      3 ****        -2.8812   0.4820   0.5913 C.2            1 S1                 0.0000
      4 ****        -1.5373   0.3421   0.6070 C.2            1 S1                 0.0000
      5 ****        -0.9141  -0.8502   0.2611 N.am           1 S1                 0.0000
      6 ****         0.5958  -1.0081   0.2746 C.3            1 S1                 0.0000
      7 ****         1.1663  -0.0154   1.0785 O.3            1 S1                 0.0000
      8 ****         1.8424   0.9447   0.2708 C.3            1 S1                 0.0000
      9 ****         2.9276   1.6483   1.0997 C.3            1 S1                 0.0000
     10 ****         2.3561   2.6965   1.8532 O.3            1 S1                 0.0000
     11 ****         2.3952   0.0671  -0.8510 C.3            1 S1                 0.0000
     12 ****         2.8073   0.8066  -1.9855 O.3            1 S1                 0.0000
     13 ****         1.2342  -0.8822  -1.1303 C.3            1 S1                 0.0000
     14 ****         0.3497  -0.3648  -2.1140 O.3            1 S1                 0.0000
     15 ****        -1.6995  -1.9619  -0.1275 C.2            1 S1                 0.0000
     16 ****        -1.1865  -3.0308  -0.4571 O.2            1 S1                 0.0000
     17 ****        -3.0589  -1.8024  -0.1362 N.2            1 S1                 0.0000
     18 ****         0.7925  -1.9675   0.7570 H              1 S1                 0.0000
     19 ****         1.1304   1.6621  -0.1418 H              1 S1                 0.0000
     20 ****         3.2437  -0.5090  -0.4781 H              1 S1                 0.0000
     21 ****         1.5858  -1.8597  -1.4618 H              1 S1                 0.0000
     22 ****        -5.5289  -1.4189  -0.1247 H              1 S1                 0.0000
     23 ****        -5.4619   0.2482   0.4037 H              1 S1                 0.0000
     24 ****        -3.3247   1.4277   0.8687 H              1 S1                 0.0000
     25 ****        -0.9557   1.2021   0.9018 H              1 S1                 0.0000
     26 ****         3.4451   0.9465   1.7545 H              1 S1                 0.0000
     27 ****         3.6763   2.0902   0.4415 H              1 S1                 0.0000
     28 ****         3.0430   3.1263   2.3396 H              1 S1                 0.0000
     29 ****         3.0086   0.1998  -2.6814 H              1 S1                 0.0000
     30 ****        -0.4057  -0.9313  -2.1615 H              1 S1                 0.0000
     31 ****         1.8195  -0.4355   1.7085 LP             1 S1                 0.0000
     32 ****         0.4460   0.4411   1.6007 LP             1 S1                 0.0000
     33 ****         1.6766   2.3252   2.4860 LP             1 S1                 0.0000
     34 ****         1.9167   3.3523   1.2393 LP             1 S1                 0.0000
     35 ****         3.6201   1.3442  -1.7609 LP             1 S1                 0.0000
     36 ****         2.0718   1.4194  -2.2743 LP             1 S1                 0.0000
     37 ****         0.8093  -0.3388  -3.0018 LP             1 S1                 0.0000
     38 ****         0.0641   0.5591  -1.8594 LP             1 S1                 0.0000
     39 ****        -0.1913  -3.1296  -0.4546 LP             1 S1                 0.0000
     40 ****        -1.7647  -3.8006  -0.7274 LP             1 S1                 0.0000
     41 ****        -3.6277  -2.5794  -0.4056 LP             1 S1                 0.0000
@<TRIPOS>BOND
    1    1    2 1     
    2    1   22 1     
    3    1   23 1     
    4    2   17 2     
    5    2    3 1     
    6    3    4 2     
    7    3   24 1     
    8    4    5 1     
    9    4   25 1     
   10    5    6 1     
   11    5   15 am    
   12    6   18 1     
   13    6   13 1     
   14    6    7 1     
   15    7    8 1     
   16    8   19 1     
   17    8    9 1     
   18    8   11 1     
   19    9   10 1     
   20    9   26 1     
   21    9   27 1     
   22   10   28 1     
   23   11   20 1     
   24   11   12 1     
   25   11   13 1     
   26   12   29 1     
   27   13   21 1     
   28   13   14 1     
   29   14   30 1     
   30   15   16 2     
   31   15   17 1     
   32    7   31 1     
   33    7   32 1     
   34   10   33 1     
   35   10   34 1     
   36   12   35 1     
   37   12   36 1     
   38   14   37 1     
   39   14   38 1     
   40   16   39 1     
   41   16   40 1     
   42   17   41 1     
@<TRIPOS>SUBSTRUCTURE
      1 S1             1
@<TRIPOS>SET
LONE_PAIRS      STATIC     ATOMS    <user>   **** ""
11 31 32 33 34 35 36 37 38 39 40 41
DONOR_HYDROGENS      STATIC     ATOMS    <user>   **** ""
5 22 23 28 29 30
ATOM$BLUE        STATIC     ATOMS    COLORGROUP SYSTEM
11 31 32 33 34 35 36 37 38 39 40 41
ATOM$RED        STATIC     ATOMS    COLORGROUP SYSTEM
5 22 23 28 29 30
