AV-unprocessed.smi:730|AV-procd|sdf|3523|dock4
  -GOLD-   22720 0513D 1   1.00000     0.00000
 Structure written by MMmdl.
 40 41  0  0  0  0  0  0  0  0  1 V2000
  144.4955  130.9473  151.1258 C   0  0  0  0  0  0  0  0  0  0  0  0
  144.7220  132.2063  150.2649 C   0  0  0  0  0  0  0  0  0  0  0  0
  145.8979  131.9347  149.3077 C   0  0  0  0  0  0  0  0  0  0  0  0
  143.4473  132.4667  149.4412 C   0  0  0  0  0  0  0  0  0  0  0  0
  145.0283  133.3971  151.1297 C   0  0  0  0  0  0  0  0  0  0  0  0
  146.0801  134.2708  151.1913 C   0  0  0  0  0  0  0  0  0  0  0  0
  145.7083  135.1549  152.2382 C   0  0  0  0  0  0  0  0  0  0  0  0
  146.5520  136.2301  152.6155 N   0  0  0  0  0  0  0  0  0  0  0  0
  146.2919  137.2015  153.5066 C   0  0  0  0  0  0  0  0  0  0  0  0
  145.2508  137.3113  154.1550 O   0  0  0  0  0  0  0  0  0  0  0  0
  147.3151  138.0629  153.5992 N   0  0  0  0  0  0  0  0  0  0  0  0
  147.3450  139.2445  154.4629 C   0  0  1  0  0  0  0  0  0  0  0  0
  148.7506  139.4248  155.0643 C   0  0  0  0  0  0  0  0  0  0  0  0
  149.3633  140.6237  154.3426 C   0  0  0  0  0  0  0  0  0  0  0  0
  148.1709  141.5321  154.0588 C   0  0  0  0  0  0  0  0  0  0  0  0
  147.0188  140.5748  153.7273 C   0  0  1  0  0  0  0  0  0  0  0  0
  146.9357  140.4327  152.3196 O   0  0  0  0  0  0  0  0  0  0  0  0
  144.5376  134.8509  152.7749 N   0  0  0  0  0  0  0  0  0  0  0  0
  144.0973  133.7256  152.0695 O   0  0  0  0  0  0  0  0  0  0  0  0
  144.2702  130.0774  150.5077 H   0  0  0  0  0  0  0  0  0  0  0  0
  143.6615  131.0809  151.8162 H   0  0  0  0  0  0  0  0  0  0  0  0
  145.3788  130.7059  151.7185 H   0  0  0  0  0  0  0  0  0  0  0  0
  146.8192  131.7406  149.8583 H   0  0  0  0  0  0  0  0  0  0  0  0
  146.0828  132.7846  148.6496 H   0  0  0  0  0  0  0  0  0  0  0  0
  145.7048  131.0684  148.6740 H   0  0  0  0  0  0  0  0  0  0  0  0
  143.1991  131.6122  148.8104 H   0  0  0  0  0  0  0  0  0  0  0  0
  143.5633  133.3317  148.7872 H   0  0  0  0  0  0  0  0  0  0  0  0
  142.5903  132.6577  150.0881 H   0  0  0  0  0  0  0  0  0  0  0  0
  146.9713  134.2777  150.5816 H   0  0  0  0  0  0  0  0  0  0  0  0
  147.4457  136.2703  152.1484 H   0  0  0  0  0  0  0  0  0  0  0  0
  148.1287  137.9018  153.0239 H   0  0  0  0  0  0  0  0  0  0  0  0
  146.6426  139.0995  155.2861 H   0  0  0  0  0  0  0  0  0  0  0  0
  148.6595  139.6574  156.1262 H   0  0  0  0  0  0  0  0  0  0  0  0
  149.3752  138.5337  154.9855 H   0  0  0  0  0  0  0  0  0  0  0  0
  150.1385  141.1170  154.9298 H   0  0  0  0  0  0  0  0  0  0  0  0
  149.8110  140.2992  153.4022 H   0  0  0  0  0  0  0  0  0  0  0  0
  147.9266  142.0904  154.9635 H   0  0  0  0  0  0  0  0  0  0  0  0
  148.3713  142.2614  153.2725 H   0  0  0  0  0  0  0  0  0  0  0  0
  146.0691  140.9854  154.0724 H   0  0  0  0  0  0  0  0  0  0  0  0
  147.8045  140.5290  151.9597 H   0  0  0  0  0  0  0  0  0  0  0  0
  1  2  1  0  0  0  0
  1 20  1  0  0  0  0
  1 21  1  0  0  0  0
  1 22  1  0  0  0  0
  2  3  1  0  0  0  0
  2  4  1  0  0  0  0
  2  5  1  0  0  0  0
  3 23  1  0  0  0  0
  3 24  1  0  0  0  0
  3 25  1  0  0  0  0
  4 26  1  0  0  0  0
  4 27  1  0  0  0  0
  4 28  1  0  0  0  0
  5 19  1  0  0  0  0
  5  6  2  0  0  0  0
  6  7  1  0  0  0  0
  6 29  1  0  0  0  0
  7  8  1  0  0  0  0
  7 18  2  0  0  0  0
  8  9  1  0  0  0  0
  8 30  1  0  0  0  0
  9 10  2  0  0  0  0
  9 11  1  0  0  0  0
 11 12  1  0  0  0  0
 11 31  1  0  0  0  0
 12 16  1  0  0  0  0
 12 13  1  0  0  0  0
 12 32  1  0  0  0  0
 13 14  1  0  0  0  0
 13 33  1  0  0  0  0
 13 34  1  0  0  0  0
 14 15  1  0  0  0  0
 14 35  1  0  0  0  0
 14 36  1  0  0  0  0
 15 16  1  0  0  0  0
 15 37  1  0  0  0  0
 15 38  1  0  0  0  0
 16 17  1  0  0  0  0
 16 39  1  0  0  0  0
 17 40  1  0  0  0  0
 18 19  1  0  0  0  0
M  END
> <s_m_source_file>
AV-unprocessed.smi

> <i_m_source_file_index>
730

> <i_lp_mmshare_version>
43012

> <i_f3d_flags>
0

> <s_epik_input>
W0NIM11DKFtDSDNdKShbQ0gzXSljMVtjSF1jKG5vMSlbTkhdQyg9TylbTkhdW0NAQEhdMltDSDJdW0NIMl1bQ0gyXVtDQEhdMltPSF0=

> <s_epik_cmdline>
J2VwaWtfcHl0aG9uJywgJy1waCcsICc3LjAnLCAnLXRuJywgJzgnLCAnLW1hJywgJzIwMCcsICctbWV0YWxfYmluZGluZycsICctaW1hZScsICc8aW5maWxlLm1hZT4nLCAnLW9tYWUnLCAnPG91dGZpbGUubWFlPic=

> <r_lp_tautomer_probability>
1

> <r_epik_Ionization_Penalty>
2.23071e-05

> <r_epik_Ionization_Penalty_Charging>
0

> <r_epik_Ionization_Penalty_Neutral>
2.23071e-05

> <r_epik_State_Penalty>
-0

> <r_epik_Charging_Adjusted_Penalty>
0

> <i_epik_Tot_Q>
0

> <i_epik_Tot_abs_Q>
0

> <r_epik_Metal_State_Penalty>
-0

> <b_epik_Metal_Only>
0

> <s_lp_Force_Field>
OPLS_2005

> <r_lp_Energy>
21.0344

> <b_lp_Chiralities_Consistent>
1

> <s_lp_Variant>
AV-unprocessed.smi:730-2

> <Gold.Version>
5.8.1

> <Gold.Id.Protein>
6NUR|6NUR_protein|mol2

> <Gold.PLP.Fitness>
37.9469

> <Gold.PLP.PLP>
-31.3817

> <Gold.PLP.part.hbond>
-3.4489

> <Gold.PLP.part.metal>
0.0000

> <Gold.PLP.part.buried>
-3.7207

> <Gold.PLP.part.nonpolar>
-26.4575

> <Gold.PLP.part.repulsive>
0.3414

> <Gold.PLP.ligand.clash>
0.0000

> <Gold.PLP.ligand.torsion>
0.3235

> <Gold.PLP.Chemscore.Hbond>
2.4033

> <Gold.PLP.Chemscore.CHOScore>
0.0000

> <Gold.PLP.Chemscore.Metal>
0.0000

> <Gold.Chemscore.Hbonds>
donor molecule, donor type, donor heavy atom, donor atom, acceptor molecule, acceptor atom, score
      L1  H     8    30       P1  7948  0.98
      L1  H    11    31       P1  7948  0.46
      L1  H    17    40       P1  7957  1.00

> <Gold.PLP.Chemscore.Internal.Correction>
0.0024

> <Gold.Rescore>
     Score         DG    S(hbond)    S(metal)    S(lipo)     H(rot)  DE(clash)    DE(int)     intcor
     19.19     -20.79       2.81        0.00      88.26       1.71       0.10       1.51       ----

> <Gold.Chemscore.Fitness>
19.1918

> <Gold.Chemscore.DG>
-20.7931

> <Gold.Chemscore.ZeroCoef>
-5.4800

> <Gold.Chemscore.Hbond>
2.8056

> <Gold.Chemscore.Metal>
0.0000

> <Gold.Chemscore.Lipo>
88.2610

> <Gold.Chemscore.Internal_Hbond>
0.0000

> <Gold.Chemscore.DEClash>
0.0952

> <Gold.Chemscore.DEInternal>
1.5061

> <Gold.Chemscore.Rot>
1.7125

> <Gold.Chemscore.Internal.Correction>
   9.000000E+99

> <Gold.Chemscore.Hbonds>
donor molecule, donor type, donor heavy atom, donor atom, acceptor molecule, acceptor atom, score
      L1  H     8    30       P1  7948  0.91
      L1  H    11    31       P1  7948  0.47
      L1  H    17    40       P1  7957  0.96

> <Gold.Chemscore.Hbond.Weighted>
-9.3706

> <Gold.Chemscore.Metal.Weighted>
-0.0000

> <Gold.Chemscore.Lipo.Weighted>
-10.3265

> <Gold.Chemscore.Internal_Hbond.Weighted>
0.0000

> <Gold.Chemscore.DEClash.Weighted>
0.0952

> <Gold.Chemscore.DEInternal.Weighted>
1.5061

> <Gold.Chemscore.Rot.Weighted>
4.3841

> <Gold.Chemscore.Internal.Correction.Weighted>
   9.000000E+99

> <Gold.Protein.RotatedTorsions>
[ 6907 6896 6895 6894 ] final  173.42 input  -60.11 | X-H torsion
[ 7974 7965 7964 7962 ] final   45.47 input  175.53 | X-H torsion
[ 8008 7997 7996 7995 ] final  -88.57 input   59.86 | X-H torsion
[ 10167 10162 10161 10158 ] final  -14.77 input  -65.29 | X-H torsion
[ 10718 10713 10712 10709 ] final -107.64 input   66.30 | X-H torsion
[ 10763 10752 10751 10750 ] final  -48.27 input  -60.55 | X-H torsion
[ 11005 11000 10999 10996 ] final -139.92 input  -57.11 | X-H torsion

> <Gold.Protein.ActiveResidues>
 VAL166  LYS551  ARG553  GLY616  TRP617  ASP618  TYR619  PRO620  LYS621  CYS622 
 ASP623  PHE694  ASN695  SER759  ASP760  ASP761  ALA762  ILE779  LEU786  VAL792 
 PHE793  MET794  SER795  GLU796  ALA797  LYS798  CYS799  TRP800  GLU811  SER814 

> <Gold.Protein.RotatedAtoms>
  151.7685  133.3339  159.3437 H   0  0  0  0  0  0  0  0  0  0  0  0  # atno 6907 bound_to 6896
  150.7470  134.6040  159.6061 H   0  0  0  0  0  0  0  0  0  0  0  0  # atno 6908 bound_to 6896
  152.3357  134.7203  160.0329 H   0  0  0  0  0  0  0  0  0  0  0  0  # atno 6909 bound_to 6896
  146.0477  139.4961  142.9738 H   0  0  0  0  0  0  0  0  0  0  0  0  # atno 7974 bound_to 7965
  154.6764  140.0552  157.0220 H   0  0  0  0  0  0  0  0  0  0  0  0  # atno 8008 bound_to 7997
  155.1014  140.3229  155.4527 H   0  0  0  0  0  0  0  0  0  0  0  0  # atno 8009 bound_to 7997
  156.2677  140.2030  156.6140 H   0  0  0  0  0  0  0  0  0  0  0  0  # atno 8010 bound_to 7997
  140.7207  143.5287  150.9546 H   0  0  0  0  0  0  0  0  0  0  0  0  # atno 10167 bound_to 10162
  156.0446  130.5673  150.7850 H   0  0  0  0  0  0  0  0  0  0  0  0  # atno 10718 bound_to 10713
  154.0751  135.6599  153.4830 H   0  0  0  0  0  0  0  0  0  0  0  0  # atno 10763 bound_to 10752
  153.0376  135.5166  154.7529 H   0  0  0  0  0  0  0  0  0  0  0  0  # atno 10764 bound_to 10752
  154.6606  135.3014  154.9838 H   0  0  0  0  0  0  0  0  0  0  0  0  # atno 10765 bound_to 10752
  140.8473  134.2328  157.4779 H   0  0  0  0  0  0  0  0  0  0  0  0  # atno 11005 bound_to 11000
  145.6777  141.0199  143.1623 LP  0  0  0  0  0  0  0  0  0  0  0  0  # atno 17320 bound_to 7965
  144.7106  139.8385  143.7415 LP  0  0  0  0  0  0  0  0  0  0  0  0  # atno 17321 bound_to 7965
  139.9006  143.6840  152.3132 LP  0  0  0  0  0  0  0  0  0  0  0  0  # atno 17342 bound_to 10162
  139.7188  144.7606  151.0989 LP  0  0  0  0  0  0  0  0  0  0  0  0  # atno 17343 bound_to 10162
  157.5307  131.0936  150.9959 LP  0  0  0  0  0  0  0  0  0  0  0  0  # atno 17370 bound_to 10713
  157.0266  130.5695  149.5338 LP  0  0  0  0  0  0  0  0  0  0  0  0  # atno 17371 bound_to 10713
  139.8703  134.9666  156.4567 LP  0  0  0  0  0  0  0  0  0  0  0  0  # atno 17394 bound_to 11000
  140.8829  133.7904  155.9486 LP  0  0  0  0  0  0  0  0  0  0  0  0  # atno 17395 bound_to 11000

$$$$
