AV-unprocessed.smi:716|AV-procd|sdf|3488|dock1
  -GOLD-   22720 0483D 1   1.00000     0.00000
 Structure written by MMmdl.
 48 50  0  0  0  0  0  0  0  0  1 V2000
  147.5660  137.2238  155.8495 C   0  0  0  0  0  0  0  0  0  0  0  0
  147.2814  138.1684  157.0190 C   0  0  0  0  0  0  0  0  0  0  0  0
  146.9837  139.4551  156.5048 O   0  0  0  0  0  0  0  0  0  0  0  0
  148.0263  139.9833  155.7001 C   0  0  2  0  0  0  0  0  0  0  0  0
  149.3402  140.2382  156.4454 C   0  0  0  0  0  0  0  0  0  0  0  0
  149.4649  141.4912  155.5773 C   0  0  2  0  0  0  0  0  0  0  0  0
  150.0472  142.6142  156.3025 N   0  0  0  0  0  0  0  0  0  0  0  0
  151.0959  142.5225  157.1324 C   0  0  0  0  0  0  0  0  0  0  0  0
  151.6886  141.4664  157.3569 O   0  0  0  0  0  0  0  0  0  0  0  0
  151.5547  143.8338  157.7859 C   0  0  0  0  0  0  0  0  0  0  0  0
  151.9713  143.6687  159.1857 N   0  0  0  0  0  0  0  0  0  0  0  0
  152.7881  142.5727  159.4106 N   0  0  0  0  0  0  0  0  0  0  0  0
  153.2264  142.3006  160.5960 C   0  0  0  0  0  0  0  0  0  0  0  0
  154.1038  141.0945  160.7534 C   0  0  0  0  0  0  0  0  0  0  0  0
  152.8594  143.1566  161.7080 C   0  0  0  0  0  0  0  0  0  0  0  0
  152.0676  144.2273  161.4852 C   0  0  0  0  0  0  0  0  0  0  0  0
  151.5683  144.5487  160.1503 C   0  0  0  0  0  0  0  0  0  0  0  0
  150.8525  145.5216  159.9132 O   0  0  0  0  0  0  0  0  0  0  0  0
  147.9182  141.5117  155.4705 C   0  0  0  0  0  0  0  0  0  0  0  0
  147.1007  142.3181  156.4886 C   0  0  0  0  0  0  0  0  0  0  0  0
  145.6729  142.3953  155.9425 C   0  0  0  0  0  0  0  0  0  0  0  0
  145.8003  142.2009  154.4277 C   0  0  0  0  0  0  0  0  0  0  0  0
  147.2905  141.9674  154.1579 C   0  0  0  0  0  0  0  0  0  0  0  0
  147.8028  136.2217  156.2069 H   0  0  0  0  0  0  0  0  0  0  0  0
  148.4111  137.5769  155.2581 H   0  0  0  0  0  0  0  0  0  0  0  0
  146.7020  137.1485  155.1887 H   0  0  0  0  0  0  0  0  0  0  0  0
  146.4434  137.7895  157.6055 H   0  0  0  0  0  0  0  0  0  0  0  0
  148.1499  138.2195  157.6771 H   0  0  0  0  0  0  0  0  0  0  0  0
  148.1707  139.4330  154.7674 H   0  0  0  0  0  0  0  0  0  0  0  0
  149.1976  140.4480  157.5071 H   0  0  0  0  0  0  0  0  0  0  0  0
  150.1128  139.4872  156.2790 H   0  0  0  0  0  0  0  0  0  0  0  0
  149.9489  141.2732  154.6219 H   0  0  0  0  0  0  0  0  0  0  0  0
  149.6217  143.5199  156.1675 H   0  0  0  0  0  0  0  0  0  0  0  0
  152.3760  144.2354  157.1896 H   0  0  0  0  0  0  0  0  0  0  0  0
  150.7576  144.5773  157.7238 H   0  0  0  0  0  0  0  0  0  0  0  0
  154.4706  141.0043  161.7762 H   0  0  0  0  0  0  0  0  0  0  0  0
  154.9693  141.1540  160.0932 H   0  0  0  0  0  0  0  0  0  0  0  0
  153.5560  140.1830  160.5130 H   0  0  0  0  0  0  0  0  0  0  0  0
  153.2204  142.9326  162.7010 H   0  0  0  0  0  0  0  0  0  0  0  0
  151.7947  144.8638  162.3139 H   0  0  0  0  0  0  0  0  0  0  0  0
  147.1223  141.8877  157.4903 H   0  0  0  0  0  0  0  0  0  0  0  0
  147.4920  143.3322  156.5749 H   0  0  0  0  0  0  0  0  0  0  0  0
  145.0654  141.5951  156.3670 H   0  0  0  0  0  0  0  0  0  0  0  0
  145.1948  143.3413  156.1980 H   0  0  0  0  0  0  0  0  0  0  0  0
  145.2184  141.3325  154.1165 H   0  0  0  0  0  0  0  0  0  0  0  0
  145.4273  143.0618  153.8724 H   0  0  0  0  0  0  0  0  0  0  0  0
  147.7503  142.9020  153.8337 H   0  0  0  0  0  0  0  0  0  0  0  0
  147.4403  141.2490  153.3515 H   0  0  0  0  0  0  0  0  0  0  0  0
  1  2  1  0  0  0  0
  1 24  1  0  0  0  0
  1 25  1  0  0  0  0
  1 26  1  0  0  0  0
  2  3  1  0  0  0  0
  2 27  1  0  0  0  0
  2 28  1  0  0  0  0
  3  4  1  0  0  0  0
  4 19  1  0  0  0  0
  4  5  1  0  0  0  0
  4 29  1  0  0  0  0
  5  6  1  0  0  0  0
  5 30  1  0  0  0  0
  5 31  1  0  0  0  0
  6  7  1  0  0  0  0
  6 19  1  0  0  0  0
  6 32  1  0  0  0  0
  7  8  1  0  0  0  0
  7 33  1  0  0  0  0
  8  9  2  0  0  0  0
  8 10  1  0  0  0  0
 10 11  1  0  0  0  0
 10 34  1  0  0  0  0
 10 35  1  0  0  0  0
 11 17  1  0  0  0  0
 11 12  1  0  0  0  0
 12 13  2  0  0  0  0
 13 14  1  0  0  0  0
 13 15  1  0  0  0  0
 14 36  1  0  0  0  0
 14 37  1  0  0  0  0
 14 38  1  0  0  0  0
 15 16  2  0  0  0  0
 15 39  1  0  0  0  0
 16 17  1  0  0  0  0
 16 40  1  0  0  0  0
 17 18  2  0  0  0  0
 19 23  1  0  0  0  0
 19 20  1  0  0  0  0
 20 21  1  0  0  0  0
 20 41  1  0  0  0  0
 20 42  1  0  0  0  0
 21 22  1  0  0  0  0
 21 43  1  0  0  0  0
 21 44  1  0  0  0  0
 22 23  1  0  0  0  0
 22 45  1  0  0  0  0
 22 46  1  0  0  0  0
 23 47  1  0  0  0  0
 23 48  1  0  0  0  0
M  END
> <s_m_source_file>
AV-unprocessed.smi

> <i_m_source_file_index>
716

> <i_lp_mmshare_version>
43012

> <i_f3d_flags>
0

> <s_epik_input>
W0NIMl0xW0NIMl1bQ0gyXVtDSDJdQzEyW0NASF0oT1tDSDJdW0NIM10pW0NIMl1bQ0BIXTJbTkhdQyg9TylbQ0gyXW4zbmMoW0NIM10pW2NIXVtjSF1jMz1P

> <s_epik_cmdline>
J2VwaWtfcHl0aG9uJywgJy1waCcsICc3LjAnLCAnLXRuJywgJzgnLCAnLW1hJywgJzIwMCcsICctbWV0YWxfYmluZGluZycsICctaW1hZScsICc8aW5maWxlLm1hZT4nLCAnLW9tYWUnLCAnPG91dGZpbGUubWFlPic=

> <r_lp_tautomer_probability>
1

> <r_epik_Ionization_Penalty>
4.75561e-08

> <r_epik_Ionization_Penalty_Charging>
2.86617e-08

> <r_epik_Ionization_Penalty_Neutral>
1.88944e-08

> <r_epik_State_Penalty>
-0

> <r_epik_Charging_Adjusted_Penalty>
2.86617e-08

> <i_epik_Tot_Q>
0

> <i_epik_Tot_abs_Q>
0

> <r_epik_Metal_State_Penalty>
-0

> <b_epik_Metal_Only>
0

> <s_lp_Force_Field>
OPLS_2005

> <r_lp_Energy>
50.3273

> <b_lp_Chiralities_Consistent>
1

> <s_lp_Variant>
AV-unprocessed.smi:716-3

> <Gold.Version>
5.8.1

> <Gold.Id.Protein>
6NUR|6NUR_protein|mol2

> <Gold.PLP.Fitness>
45.6116

> <Gold.PLP.PLP>
-43.9010

> <Gold.PLP.part.hbond>
-1.9176

> <Gold.PLP.part.metal>
0.0000

> <Gold.PLP.part.buried>
-5.3969

> <Gold.PLP.part.nonpolar>
-37.6330

> <Gold.PLP.part.repulsive>
0.3201

> <Gold.PLP.ligand.clash>
0.0000

> <Gold.PLP.ligand.torsion>
0.8282

> <Gold.PLP.Chemscore.Hbond>
1.0000

> <Gold.PLP.Chemscore.CHOScore>
0.0000

> <Gold.PLP.Chemscore.Metal>
0.0000

> <Gold.Chemscore.Hbonds>
donor molecule, donor type, donor heavy atom, donor atom, acceptor molecule, acceptor atom, score
      L1  H     7    33       P1  8028  0.91

> <Gold.PLP.Chemscore.Internal.Correction>
0.3671

> <Gold.Rescore>
     Score         DG    S(hbond)    S(metal)    S(lipo)     H(rot)  DE(clash)    DE(int)     intcor
     11.26     -15.54       0.98        0.00      96.01       1.73       0.70       3.58       ----

> <Gold.Chemscore.Fitness>
11.2600

> <Gold.Chemscore.DG>
-15.5376

> <Gold.Chemscore.ZeroCoef>
-5.4800

> <Gold.Chemscore.Hbond>
0.9775

> <Gold.Chemscore.Metal>
0.0000

> <Gold.Chemscore.Lipo>
96.0147

> <Gold.Chemscore.Internal_Hbond>
0.0000

> <Gold.Chemscore.DEClash>
0.7009

> <Gold.Chemscore.DEInternal>
3.5767

> <Gold.Chemscore.Rot>
1.7348

> <Gold.Chemscore.Internal.Correction>
   9.000000E+99

> <Gold.Chemscore.Hbonds>
donor molecule, donor type, donor heavy atom, donor atom, acceptor molecule, acceptor atom, score
      L1  H     7    33       P1  8028  0.87

> <Gold.Chemscore.Hbond.Weighted>
-3.2650

> <Gold.Chemscore.Metal.Weighted>
-0.0000

> <Gold.Chemscore.Lipo.Weighted>
-11.2337

> <Gold.Chemscore.Internal_Hbond.Weighted>
0.0000

> <Gold.Chemscore.DEClash.Weighted>
0.7009

> <Gold.Chemscore.DEInternal.Weighted>
3.5767

> <Gold.Chemscore.Rot.Weighted>
4.4411

> <Gold.Chemscore.Internal.Correction.Weighted>
   9.000000E+99

> <Gold.Protein.RotatedTorsions>
[ 6907 6896 6895 6894 ] final  -51.88 input  -60.11 | X-H torsion
[ 7974 7965 7964 7962 ] final   68.60 input  175.53 | X-H torsion
[ 8008 7997 7996 7995 ] final -166.88 input   59.86 | X-H torsion
[ 10167 10162 10161 10158 ] final  104.38 input  -65.29 | X-H torsion
[ 10718 10713 10712 10709 ] final  119.23 input   66.30 | X-H torsion
[ 10763 10752 10751 10750 ] final  129.83 input  -60.55 | X-H torsion
[ 11005 11000 10999 10996 ] final -164.78 input  -57.11 | X-H torsion

> <Gold.Protein.ActiveResidues>
 VAL166  LYS551  ARG553  GLY616  TRP617  ASP618  TYR619  PRO620  LYS621  CYS622 
 ASP623  PHE694  ASN695  SER759  ASP760  ASP761  ALA762  ILE779  LEU786  VAL792 
 PHE793  MET794  SER795  GLU796  ALA797  LYS798  CYS799  TRP800  GLU811  SER814 

> <Gold.Protein.RotatedAtoms>
  150.8570  134.7912  159.7053 H   0  0  0  0  0  0  0  0  0  0  0  0  # atno 6907 bound_to 6896
  152.4619  134.5162  159.9778 H   0  0  0  0  0  0  0  0  0  0  0  0  # atno 6908 bound_to 6896
  151.5273  133.3417  159.2947 H   0  0  0  0  0  0  0  0  0  0  0  0  # atno 6909 bound_to 6896
  145.8006  139.2980  143.1157 H   0  0  0  0  0  0  0  0  0  0  0  0  # atno 7974 bound_to 7965
  155.8700  140.0992  157.1556 H   0  0  0  0  0  0  0  0  0  0  0  0  # atno 8008 bound_to 7997
  154.3996  140.1349  156.4129 H   0  0  0  0  0  0  0  0  0  0  0  0  # atno 8009 bound_to 7997
  155.7761  140.3459  155.5275 H   0  0  0  0  0  0  0  0  0  0  0  0  # atno 8010 bound_to 7997
  139.7182  144.7064  151.0916 H   0  0  0  0  0  0  0  0  0  0  0  0  # atno 10167 bound_to 10162
  157.5976  131.1056  150.7867 H   0  0  0  0  0  0  0  0  0  0  0  0  # atno 10718 bound_to 10713
  153.7481  135.3214  155.3316 H   0  0  0  0  0  0  0  0  0  0  0  0  # atno 10763 bound_to 10752
  154.8272  135.4561  154.0959 H   0  0  0  0  0  0  0  0  0  0  0  0  # atno 10764 bound_to 10752
  153.2154  135.6941  153.8146 H   0  0  0  0  0  0  0  0  0  0  0  0  # atno 10765 bound_to 10752
  140.5831  134.5121  157.5181 H   0  0  0  0  0  0  0  0  0  0  0  0  # atno 11005 bound_to 11000
  145.9881  140.8626  143.0080 LP  0  0  0  0  0  0  0  0  0  0  0  0  # atno 17320 bound_to 7965
  144.6769  140.2177  143.7370 LP  0  0  0  0  0  0  0  0  0  0  0  0  # atno 17321 bound_to 7965
  140.7748  143.5201  150.9546 LP  0  0  0  0  0  0  0  0  0  0  0  0  # atno 17342 bound_to 10162
  139.8888  143.6979  152.3148 LP  0  0  0  0  0  0  0  0  0  0  0  0  # atno 17343 bound_to 10162
  156.8274  130.5004  149.5335 LP  0  0  0  0  0  0  0  0  0  0  0  0  # atno 17370 bound_to 10713
  156.1042  130.5992  150.9943 LP  0  0  0  0  0  0  0  0  0  0  0  0  # atno 17371 bound_to 10713
  139.9308  134.7967  156.0937 LP  0  0  0  0  0  0  0  0  0  0  0  0  # atno 17394 bound_to 11000
  141.0983  133.6687  156.2696 LP  0  0  0  0  0  0  0  0  0  0  0  0  # atno 17395 bound_to 11000

$$$$
