AV-unprocessed.smi:137|AV-procd|sdf|1175|dock5
  -GOLD-   2262018323D 1   1.00000     0.00000
 Structure written by MMmdl.
 51 54  0  0  0  0  0  0  0  0  1 V2000
  154.0968  141.1128  160.9505 C   0  0  0  0  0  0  0  0  0  0  0  0
  153.0676  141.8995  160.1234 C   0  0  2  0  0  0  0  0  0  0  0  0
  152.4925  140.9838  159.0229 C   0  0  0  0  0  0  0  0  0  0  0  0
  151.5997  141.6369  158.0603 N   0  0  0  0  0  0  0  0  0  0  0  0
  151.2917  140.9647  156.9122 C   0  0  0  0  0  0  0  0  0  0  0  0
  152.2396  140.1677  156.3467 N   0  0  0  0  0  0  0  0  0  0  0  0
  151.9811  139.4741  155.2355 C   0  0  0  0  0  0  0  0  0  0  0  0
  150.8556  139.4316  154.5240 N   0  0  0  0  0  0  0  0  0  0  0  0
  149.8995  140.2371  155.0667 C   0  0  0  0  0  0  0  0  0  0  0  0
  150.0280  141.0280  156.2466 C   0  0  0  0  0  0  0  0  0  0  0  0
  148.8348  141.7059  156.4767 N   0  0  0  0  0  0  0  0  0  0  0  0
  148.0481  141.3253  155.5085 C   0  0  0  0  0  0  0  0  0  0  0  0
  148.6158  140.4629  154.6004 N   0  0  0  0  0  0  0  0  0  0  0  0
  147.9675  139.8539  153.4762 C   0  0  0  0  0  0  0  0  0  0  0  0
  146.4489  139.9227  153.2978 C   0  0  0  0  0  0  0  0  0  0  0  0
  146.4772  138.5407  152.6082 C   0  0  0  0  0  0  0  0  0  0  0  0
  145.3299  137.5922  152.9925 C   0  0  0  0  0  0  0  0  0  0  0  0
  144.1153  137.9863  152.3867 O   0  0  0  0  0  0  0  0  0  0  0  0
  146.6095  138.5762  151.0719 C   0  0  0  0  0  0  0  0  0  0  0  0
  146.5026  137.2816  150.5158 O   0  0  0  0  0  0  0  0  0  0  0  0
  147.8007  138.3356  153.3805 C   0  0  0  0  0  0  0  0  0  0  0  0
  150.7083  142.7135  158.4894 C   0  0  0  0  0  0  0  0  0  0  0  0
  151.3200  144.1023  158.2350 C   0  0  0  0  0  0  0  0  0  0  0  0
  152.4590  144.5916  159.6182 S   0  0  1  0  0  0  0  0  0  0  0  0
  151.6705  144.5043  160.9267 O   0  0  0  0  0  0  0  0  0  0  0  0
  153.6939  143.1999  159.5695 C   0  0  0  0  0  0  0  0  0  0  0  0
  154.9571  140.8248  160.3452 H   0  0  0  0  0  0  0  0  0  0  0  0
  153.6586  140.2027  161.3613 H   0  0  0  0  0  0  0  0  0  0  0  0
  154.4628  141.7047  161.7901 H   0  0  0  0  0  0  0  0  0  0  0  0
  152.2660  142.1459  160.8183 H   0  0  0  0  0  0  0  0  0  0  0  0
  153.3303  140.5531  158.4719 H   0  0  0  0  0  0  0  0  0  0  0  0
  151.9614  140.1509  159.4861 H   0  0  0  0  0  0  0  0  0  0  0  0
  152.7922  138.8649  154.8648 H   0  0  0  0  0  0  0  0  0  0  0  0
  147.0273  141.6702  155.4292 H   0  0  0  0  0  0  0  0  0  0  0  0
  148.4773  140.2417  152.5928 H   0  0  0  0  0  0  0  0  0  0  0  0
  145.9173  139.9136  154.2514 H   0  0  0  0  0  0  0  0  0  0  0  0
  146.1044  140.7432  152.6675 H   0  0  0  0  0  0  0  0  0  0  0  0
  145.5482  136.5619  152.7107 H   0  0  0  0  0  0  0  0  0  0  0  0
  145.1760  137.5867  154.0718 H   0  0  0  0  0  0  0  0  0  0  0  0
  144.0348  138.9250  152.4602 H   0  0  0  0  0  0  0  0  0  0  0  0
  145.8513  139.2155  150.6193 H   0  0  0  0  0  0  0  0  0  0  0  0
  147.5711  138.9891  150.7670 H   0  0  0  0  0  0  0  0  0  0  0  0
  147.1966  136.7455  150.8685 H   0  0  0  0  0  0  0  0  0  0  0  0
  148.5907  137.8314  152.8229 H   0  0  0  0  0  0  0  0  0  0  0  0
  147.6559  137.8692  154.3568 H   0  0  0  0  0  0  0  0  0  0  0  0
  149.7554  142.6348  157.9661 H   0  0  0  0  0  0  0  0  0  0  0  0
  150.4506  142.5949  159.5417 H   0  0  0  0  0  0  0  0  0  0  0  0
  151.8571  144.1391  157.2873 H   0  0  0  0  0  0  0  0  0  0  0  0
  150.5276  144.8488  158.1837 H   0  0  0  0  0  0  0  0  0  0  0  0
  154.5288  143.5119  160.1977 H   0  0  0  0  0  0  0  0  0  0  0  0
  154.0907  143.0702  158.5620 H   0  0  0  0  0  0  0  0  0  0  0  0
  1  2  1  0  0  0  0
  1 27  1  0  0  0  0
  1 28  1  0  0  0  0
  1 29  1  0  0  0  0
  2 26  1  0  0  0  0
  2  3  1  0  0  0  0
  2 30  1  0  0  0  0
  3  4  1  0  0  0  0
  3 31  1  0  0  0  0
  3 32  1  0  0  0  0
  4  5  1  0  0  0  0
  4 22  1  0  0  0  0
  5 10  1  0  0  0  0
  5  6  2  0  0  0  0
  6  7  1  0  0  0  0
  7  8  2  0  0  0  0
  7 33  1  0  0  0  0
  8  9  1  0  0  0  0
  9 13  1  0  0  0  0
  9 10  2  0  0  0  0
 10 11  1  0  0  0  0
 11 12  2  0  0  0  0
 12 13  1  0  0  0  0
 12 34  1  0  0  0  0
 13 14  1  0  0  0  0
 14 21  1  0  0  0  0
 14 15  1  0  0  0  0
 14 35  1  0  0  0  0
 15 16  1  0  0  0  0
 15 36  1  0  0  0  0
 15 37  1  0  0  0  0
 16 17  1  0  0  0  0
 16 19  1  0  0  0  0
 16 21  1  0  0  0  0
 17 18  1  0  0  0  0
 17 38  1  0  0  0  0
 17 39  1  0  0  0  0
 18 40  1  0  0  0  0
 19 20  1  0  0  0  0
 19 41  1  0  0  0  0
 19 42  1  0  0  0  0
 20 43  1  0  0  0  0
 21 44  1  0  0  0  0
 21 45  1  0  0  0  0
 22 23  1  0  0  0  0
 22 46  1  0  0  0  0
 22 47  1  0  0  0  0
 23 24  1  0  0  0  0
 23 48  1  0  0  0  0
 23 49  1  0  0  0  0
 24 25  2  0  0  0  0
 24 26  1  0  0  0  0
 26 50  1  0  0  0  0
 26 51  1  0  0  0  0
M  END
> <s_m_source_file>
AV-unprocessed.smi

> <i_m_source_file_index>
137

> <i_lp_mmshare_version>
43012

> <i_f3d_flags>
0

> <s_epik_input>
Tz1bU0BAXShbQ0gyXTEpW0NIMl1bQ0gyXU4oW0NIMl1bQ0BIXTFbQ0gzXSljKG5bY0hdbjIpYyhjMjMpbltjSF1uM1tDSF0oW0NIMl00KVtDSDJdQzQoW0NIMl1bT0hdKVtDSDJdW09IXQ==

> <s_epik_cmdline>
J2VwaWtfcHl0aG9uJywgJy1waCcsICc3LjAnLCAnLXRuJywgJzgnLCAnLW1hJywgJzIwMCcsICctbWV0YWxfYmluZGluZycsICctaW1hZScsICc8aW5maWxlLm1hZT4nLCAnLW9tYWUnLCAnPG91dGZpbGUubWFlPic=

> <r_lp_tautomer_probability>
1

> <r_epik_Ionization_Penalty>
0.000811024

> <r_epik_Ionization_Penalty_Charging>
0

> <r_epik_Ionization_Penalty_Neutral>
0.000811024

> <r_epik_State_Penalty>
0.000429598

> <r_epik_Charging_Adjusted_Penalty>
0.000429598

> <i_epik_Tot_Q>
0

> <i_epik_Tot_abs_Q>
0

> <r_epik_Metal_State_Penalty>
-0

> <b_epik_Metal_Only>
0

> <s_lp_Force_Field>
OPLS_2005

> <r_lp_Energy>
41.7942

> <b_lp_Chiralities_Consistent>
1

> <s_lp_Variant>
AV-unprocessed.smi:137-1

> <Gold.Version>
5.8.1

> <Gold.Id.Protein>
6NUR|6NUR_protein|mol2

> <Gold.PLP.Fitness>
54.7742

> <Gold.PLP.PLP>
-46.5684

> <Gold.PLP.part.hbond>
-6.8100

> <Gold.PLP.part.metal>
0.0000

> <Gold.PLP.part.buried>
5.2502

> <Gold.PLP.part.nonpolar>
-45.0155

> <Gold.PLP.part.repulsive>
0.4850

> <Gold.PLP.ligand.clash>
0.0000

> <Gold.PLP.ligand.torsion>
0.7780

> <Gold.PLP.Chemscore.Hbond>
3.0550

> <Gold.PLP.Chemscore.CHOScore>
0.0000

> <Gold.PLP.Chemscore.Metal>
0.0000

> <Gold.Chemscore.Hbonds>
donor molecule, donor type, donor heavy atom, donor atom, acceptor molecule, acceptor atom, score
      L1  H    18    40       P1 10175  1.00
      L1  H    20    43       P1  7948  1.00
      P1  H  7989  7998       L1     8  0.21
      P1  H  7997  8010       L1     6  0.84

> <Gold.PLP.Chemscore.Internal.Correction>
0.5967

> <Gold.Rescore>
     Score         DG    S(hbond)    S(metal)    S(lipo)     H(rot)  DE(clash)    DE(int)     intcor
     14.33     -17.31       2.20        0.00     101.24       2.87       1.03       1.95       ----

> <Gold.Chemscore.Fitness>
14.3309

> <Gold.Chemscore.DG>
-17.3118

> <Gold.Chemscore.ZeroCoef>
-5.4800

> <Gold.Chemscore.Hbond>
2.1976

> <Gold.Chemscore.Metal>
0.0000

> <Gold.Chemscore.Lipo>
101.2428

> <Gold.Chemscore.Internal_Hbond>
0.0000

> <Gold.Chemscore.DEClash>
1.0327

> <Gold.Chemscore.DEInternal>
1.9482

> <Gold.Chemscore.Rot>
2.8725

> <Gold.Chemscore.Internal.Correction>
   9.000000E+99

> <Gold.Chemscore.Hbonds>
donor molecule, donor type, donor heavy atom, donor atom, acceptor molecule, acceptor atom, score
      L1  H    18    40       P1 10175  0.96
      L1  H    20    43       P1  7948  0.92
      P1  H  7997  8010       L1     6  0.24

> <Gold.Chemscore.Hbond.Weighted>
-7.3399

> <Gold.Chemscore.Metal.Weighted>
-0.0000

> <Gold.Chemscore.Lipo.Weighted>
-11.8454

> <Gold.Chemscore.Internal_Hbond.Weighted>
0.0000

> <Gold.Chemscore.DEClash.Weighted>
1.0327

> <Gold.Chemscore.DEInternal.Weighted>
1.9482

> <Gold.Chemscore.Rot.Weighted>
7.3535

> <Gold.Chemscore.Internal.Correction.Weighted>
   9.000000E+99

> <Gold.Protein.RotatedTorsions>
[ 6907 6896 6895 6894 ] final    4.52 input  -60.11 | X-H torsion
[ 7974 7965 7964 7962 ] final   90.51 input  175.53 | X-H torsion
[ 8008 7997 7996 7995 ] final   75.32 input   59.86 | X-H torsion
[ 10167 10162 10161 10158 ] final -146.82 input  -65.29 | X-H torsion
[ 10718 10713 10712 10709 ] final   11.05 input   66.30 | X-H torsion
[ 10763 10752 10751 10750 ] final   -1.87 input  -60.55 | X-H torsion
[ 11005 11000 10999 10996 ] final  -38.16 input  -57.11 | X-H torsion

> <Gold.Protein.ActiveResidues>
 VAL166  LYS551  ARG553  GLY616  TRP617  ASP618  TYR619  PRO620  LYS621  CYS622 
 ASP623  PHE694  ASN695  SER759  ASP760  ASP761  ALA762  ILE779  LEU786  VAL792 
 PHE793  MET794  SER795  GLU796  ALA797  LYS798  CYS799  TRP800  GLU811  SER814 

> <Gold.Protein.RotatedAtoms>
  151.6426  135.1011  160.0144 H   0  0  0  0  0  0  0  0  0  0  0  0  # atno 6907 bound_to 6896
  152.4046  133.6864  159.6353 H   0  0  0  0  0  0  0  0  0  0  0  0  # atno 6908 bound_to 6896
  150.7941  133.8649  159.3283 H   0  0  0  0  0  0  0  0  0  0  0  0  # atno 6909 bound_to 6896
  145.5181  139.2278  143.2687 H   0  0  0  0  0  0  0  0  0  0  0  0  # atno 7974 bound_to 7965
  155.8112  140.3473  155.5459 H   0  0  0  0  0  0  0  0  0  0  0  0  # atno 8008 bound_to 7997
  155.8438  140.0945  157.1738 H   0  0  0  0  0  0  0  0  0  0  0  0  # atno 8009 bound_to 7997
  154.4006  140.1389  156.3749 H   0  0  0  0  0  0  0  0  0  0  0  0  # atno 8010 bound_to 7997
  139.7678  143.8281  152.2619 H   0  0  0  0  0  0  0  0  0  0  0  0  # atno 10167 bound_to 10162
  156.9899  130.6038  149.5685 H   0  0  0  0  0  0  0  0  0  0  0  0  # atno 10718 bound_to 10713
  153.3505  135.6985  153.6792 H   0  0  0  0  0  0  0  0  0  0  0  0  # atno 10763 bound_to 10752
  153.5521  135.3552  155.2764 H   0  0  0  0  0  0  0  0  0  0  0  0  # atno 10764 bound_to 10752
  154.8652  135.4229  154.2740 H   0  0  0  0  0  0  0  0  0  0  0  0  # atno 10765 bound_to 10752
  141.0006  133.6957  156.2016 H   0  0  0  0  0  0  0  0  0  0  0  0  # atno 11005 bound_to 11000
  146.2124  140.5991  142.9054 LP  0  0  0  0  0  0  0  0  0  0  0  0  # atno 17320 bound_to 7965
  144.7691  140.5597  143.6683 LP  0  0  0  0  0  0  0  0  0  0  0  0  # atno 17321 bound_to 7965
  139.8307  144.7255  150.9454 LP  0  0  0  0  0  0  0  0  0  0  0  0  # atno 17342 bound_to 10162
  140.7812  143.4073  151.1051 LP  0  0  0  0  0  0  0  0  0  0  0  0  # atno 17343 bound_to 10162
  156.0211  130.5306  150.8278 LP  0  0  0  0  0  0  0  0  0  0  0  0  # atno 17370 bound_to 10713
  157.5466  131.0942  150.9754 LP  0  0  0  0  0  0  0  0  0  0  0  0  # atno 17371 bound_to 10713
  140.6894  134.4682  157.5589 LP  0  0  0  0  0  0  0  0  0  0  0  0  # atno 17394 bound_to 11000
  139.9037  134.8497  156.1791 LP  0  0  0  0  0  0  0  0  0  0  0  0  # atno 17395 bound_to 11000

$$$$
