AV-unprocessed.smi:1702|AV-procd|sdf|6845|dock10
  -GOLD-   22720 8 23D 1   1.00000     0.00000
 Structure written by MMmdl.
 44 46  0  0  0  0  0  0  0  0  2 V2000
  147.5165  131.4611  153.4180 C   0  0  0  0  0  0  0  0  0  0  0  0
  146.6315  132.6828  153.1333 C   0  0  2  0  0  0  0  0  0  0  0  0
  146.7343  133.1324  151.6661 C   0  0  0  0  0  0  0  0  0  0  0  0
  145.8676  134.3747  151.3999 C   0  0  0  0  0  0  0  0  0  0  0  0
  146.2338  135.4920  152.3109 N   0  3  1  0  0  0  0  0  0  0  0  0
  145.5085  136.7544  152.0142 C   0  0  0  0  0  0  0  0  0  0  0  0
  145.8867  137.8956  152.9790 C   0  0  2  0  0  0  0  0  0  0  0  0
  144.7064  138.5826  153.3491 O   0  0  0  0  0  0  0  0  0  0  0  0
  146.8722  138.8869  152.3306 C   0  0  0  0  0  0  0  0  0  0  0  0
  147.4567  139.8007  153.2963 N   0  0  0  0  0  0  0  0  0  0  0  0
  146.9450  140.9766  153.7082 C   0  0  0  0  0  0  0  0  0  0  0  0
  147.6459  141.6661  154.6032 N   0  0  0  0  0  0  0  0  0  0  0  0
  148.7386  140.8395  154.8006 C   0  0  0  0  0  0  0  0  0  0  0  0
  149.8656  140.9943  155.6388 C   0  0  0  0  0  0  0  0  0  0  0  0
  150.8711  140.0059  155.6748 C   0  0  0  0  0  0  0  0  0  0  0  0
  151.9445  140.1704  156.4838 F   0  0  0  0  0  0  0  0  0  0  0  0
  150.7652  138.8499  154.8732 C   0  0  0  0  0  0  0  0  0  0  0  0
  151.7350  137.9059  154.9132 F   0  0  0  0  0  0  0  0  0  0  0  0
  149.6518  138.6741  154.0290 C   0  0  0  0  0  0  0  0  0  0  0  0
  148.6505  139.6624  153.9974 C   0  0  0  0  0  0  0  0  0  0  0  0
  146.1123  135.0945  153.7371 C   0  0  0  0  0  0  0  0  0  0  0  0
  146.9836  133.8662  154.0497 C   0  0  0  0  0  0  0  0  0  0  0  0
  148.5691  131.6811  153.2368 H   0  0  0  0  0  0  0  0  0  0  0  0
  147.2387  130.6190  152.7835 H   0  0  0  0  0  0  0  0  0  0  0  0
  147.4182  131.1379  154.4549 H   0  0  0  0  0  0  0  0  0  0  0  0
  145.5973  132.3959  153.3298 H   0  0  0  0  0  0  0  0  0  0  0  0
  147.7735  133.3532  151.4173 H   0  0  0  0  0  0  0  0  0  0  0  0
  146.4249  132.3220  151.0051 H   0  0  0  0  0  0  0  0  0  0  0  0
  145.9927  134.6748  150.3603 H   0  0  0  0  0  0  0  0  0  0  0  0
  144.8125  134.1283  151.5298 H   0  0  0  0  0  0  0  0  0  0  0  0
  145.7016  137.0447  150.9802 H   0  0  0  0  0  0  0  0  0  0  0  0
  144.4319  136.5898  152.0846 H   0  0  0  0  0  0  0  0  0  0  0  0
  146.3444  137.4950  153.8830 H   0  0  0  0  0  0  0  0  0  0  0  0
  144.6470  139.3763  152.8382 H   0  0  0  0  0  0  0  0  0  0  0  0
  147.6841  138.3450  151.8436 H   0  0  0  0  0  0  0  0  0  0  0  0
  146.3769  139.4684  151.5519 H   0  0  0  0  0  0  0  0  0  0  0  0
  146.0060  141.3499  153.3259 H   0  0  0  0  0  0  0  0  0  0  0  0
  149.9580  141.8752  156.2564 H   0  0  0  0  0  0  0  0  0  0  0  0
  149.5714  137.7902  153.4143 H   0  0  0  0  0  0  0  0  0  0  0  0
  146.4233  135.9213  154.3770 H   0  0  0  0  0  0  0  0  0  0  0  0
  145.0670  134.8865  153.9714 H   0  0  0  0  0  0  0  0  0  0  0  0
  146.8540  133.5814  155.0944 H   0  0  0  0  0  0  0  0  0  0  0  0
  148.0364  134.1270  153.9300 H   0  0  0  0  0  0  0  0  0  0  0  0
  147.2130  135.6900  152.1596 H   0  0  0  0  0  0  0  0  0  0  0  0
  1  2  1  0  0  0  0
  1 23  1  0  0  0  0
  1 24  1  0  0  0  0
  1 25  1  0  0  0  0
  2 22  1  0  0  0  0
  2  3  1  0  0  0  0
  2 26  1  0  0  0  0
  3  4  1  0  0  0  0
  3 27  1  0  0  0  0
  3 28  1  0  0  0  0
  4  5  1  0  0  0  0
  4 29  1  0  0  0  0
  4 30  1  0  0  0  0
  5  6  1  0  0  0  0
  5 21  1  0  0  0  0
  5 44  1  0  0  0  0
  6  7  1  0  0  0  0
  6 31  1  0  0  0  0
  6 32  1  0  0  0  0
  7  8  1  0  0  0  0
  7  9  1  0  0  0  0
  7 33  1  0  0  0  0
  8 34  1  0  0  0  0
  9 10  1  0  0  0  0
  9 35  1  0  0  0  0
  9 36  1  0  0  0  0
 10 20  1  0  0  0  0
 10 11  1  0  0  0  0
 11 12  2  0  0  0  0
 11 37  1  0  0  0  0
 12 13  1  0  0  0  0
 13 20  2  0  0  0  0
 13 14  1  0  0  0  0
 14 15  2  0  0  0  0
 14 38  1  0  0  0  0
 15 16  1  0  0  0  0
 15 17  1  0  0  0  0
 17 18  1  0  0  0  0
 17 19  2  0  0  0  0
 19 20  1  0  0  0  0
 19 39  1  0  0  0  0
 21 22  1  0  0  0  0
 21 40  1  0  0  0  0
 21 41  1  0  0  0  0
 22 42  1  0  0  0  0
 22 43  1  0  0  0  0
M  CHG  1   5   1
M  END
> <s_m_source_file>
AV-unprocessed.smi

> <i_m_source_file_index>
1702

> <i_lp_mmshare_version>
43012

> <i_f3d_flags>
0

> <s_epik_input>
W0NIM11bQ0hdMVtDSDJdW0NIMl1OKFtDSDJdW0NIMl0xKVtDSDJdW0NASF0oW09IXSlbQ0gyXW4oW2NIXW4yKWMoYzIzKVtjSF1jKEYpYyhGKVtjSF0z

> <s_epik_cmdline>
J2VwaWtfcHl0aG9uJywgJy1waCcsICc3LjAnLCAnLXRuJywgJzgnLCAnLW1hJywgJzIwMCcsICctbWV0YWxfYmluZGluZycsICctaW1hZScsICc8aW5maWxlLm1hZT4nLCAnLW9tYWUnLCAnPG91dGZpbGUubWFlPic=

> <r_epik_Ionization_Penalty>
0.0135195

> <r_epik_Ionization_Penalty_Charging>
0.00181365

> <r_epik_Ionization_Penalty_Neutral>
0.0117059

> <r_epik_State_Penalty>
0.00902283

> <r_epik_Charging_Adjusted_Penalty>
0.0108365

> <i_epik_Tot_Q>
1

> <i_epik_Tot_abs_Q>
1

> <r_epik_Metal_State_Penalty>
9.09181e-06

> <b_epik_Metal_Only>
0

> <s_lp_Force_Field>
OPLS_2005

> <r_lp_Energy>
21.6828

> <b_lp_Chiralities_Consistent>
1

> <s_lp_Variant>
AV-unprocessed.smi:1702-1

> <Gold.Version>
5.8.1

> <Gold.Id.Protein>
6NUR|6NUR_protein|mol2

> <Gold.PLP.Fitness>
50.8979

> <Gold.PLP.PLP>
-40.9692

> <Gold.PLP.part.hbond>
-1.5511

> <Gold.PLP.part.metal>
0.0000

> <Gold.PLP.part.buried>
-1.6535

> <Gold.PLP.part.nonpolar>
-38.2399

> <Gold.PLP.part.repulsive>
0.1563

> <Gold.PLP.ligand.clash>
0.0000

> <Gold.PLP.ligand.torsion>
1.0542

> <Gold.PLP.Chemscore.Hbond>
3.0000

> <Gold.PLP.Chemscore.CHOScore>
1.0000

> <Gold.PLP.Chemscore.Metal>
0.0000

> <Gold.Chemscore.Hbonds>
donor molecule, donor type, donor heavy atom, donor atom, acceptor molecule, acceptor atom, score
      L1  H     5    44       P1  7948  2.00
      L1  H     8    34       P1 10175  0.76
      L1  C    11    37       P1 10175  0.77

> <Gold.PLP.Chemscore.Internal.Correction>
0.0370

> <Gold.Rescore>
     Score         DG    S(hbond)    S(metal)    S(lipo)     H(rot)  DE(clash)    DE(int)     intcor
     14.84     -16.14       1.95        0.00      85.00       2.26       0.03       1.27       ----

> <Gold.Chemscore.Fitness>
14.8445

> <Gold.Chemscore.DG>
-16.1427

> <Gold.Chemscore.ZeroCoef>
-5.4800

> <Gold.Chemscore.Hbond>
1.9485

> <Gold.Chemscore.Metal>
0.0000

> <Gold.Chemscore.Lipo>
85.0024

> <Gold.Chemscore.Internal_Hbond>
0.0000

> <Gold.Chemscore.DEClash>
0.0275

> <Gold.Chemscore.DEInternal>
1.2707

> <Gold.Chemscore.Rot>
2.2619

> <Gold.Chemscore.Internal.Correction>
   9.000000E+99

> <Gold.Chemscore.Hbonds>
donor molecule, donor type, donor heavy atom, donor atom, acceptor molecule, acceptor atom, score
      L1  H     5    44       P1  7948  1.00
      L1  H     8    34       P1 10175  0.72

> <Gold.Chemscore.Hbond.Weighted>
-6.5079

> <Gold.Chemscore.Metal.Weighted>
-0.0000

> <Gold.Chemscore.Lipo.Weighted>
-9.9453

> <Gold.Chemscore.Internal_Hbond.Weighted>
0.0000

> <Gold.Chemscore.DEClash.Weighted>
0.0275

> <Gold.Chemscore.DEInternal.Weighted>
1.2707

> <Gold.Chemscore.Rot.Weighted>
5.7904

> <Gold.Chemscore.Internal.Correction.Weighted>
   9.000000E+99

> <Gold.Protein.RotatedTorsions>
[ 6907 6896 6895 6894 ] final  100.48 input  -60.11 | X-H torsion
[ 7974 7965 7964 7962 ] final   81.63 input  175.53 | X-H torsion
[ 8008 7997 7996 7995 ] final   -2.81 input   59.86 | X-H torsion
[ 10167 10162 10161 10158 ] final  -79.49 input  -65.29 | X-H torsion
[ 10718 10713 10712 10709 ] final  -60.11 input   66.30 | X-H torsion
[ 10763 10752 10751 10750 ] final  -91.29 input  -60.55 | X-H torsion
[ 11005 11000 10999 10996 ] final  163.63 input  -57.11 | X-H torsion

> <Gold.Protein.ActiveResidues>
 VAL166  LYS551  ARG553  GLY616  TRP617  ASP618  TYR619  PRO620  LYS621  CYS622 
 ASP623  PHE694  ASN695  SER759  ASP760  ASP761  ALA762  ILE779  LEU786  VAL792 
 PHE793  MET794  SER795  GLU796  ALA797  LYS798  CYS799  TRP800  GLU811  SER814 

> <Gold.Protein.RotatedAtoms>
  152.5371  134.0271  159.8007 H   0  0  0  0  0  0  0  0  0  0  0  0  # atno 6907 bound_to 6896
  151.0448  133.5667  159.2655 H   0  0  0  0  0  0  0  0  0  0  0  0  # atno 6908 bound_to 6896
  151.2623  135.0665  159.9156 H   0  0  0  0  0  0  0  0  0  0  0  0  # atno 6909 bound_to 6896
  145.6356  139.2414  143.2060 H   0  0  0  0  0  0  0  0  0  0  0  0  # atno 7974 bound_to 7965
  154.6317  140.2525  155.7426 H   0  0  0  0  0  0  0  0  0  0  0  0  # atno 8008 bound_to 7997
  156.2483  140.2905  156.0592 H   0  0  0  0  0  0  0  0  0  0  0  0  # atno 8009 bound_to 7997
  155.1734  140.0387  157.2858 H   0  0  0  0  0  0  0  0  0  0  0  0  # atno 8010 bound_to 7997
  140.4588  143.2460  151.8379 H   0  0  0  0  0  0  0  0  0  0  0  0  # atno 10167 bound_to 10162
  156.1014  130.4186  150.0808 H   0  0  0  0  0  0  0  0  0  0  0  0  # atno 10718 bound_to 10713
  154.6745  135.5273  153.8182 H   0  0  0  0  0  0  0  0  0  0  0  0  # atno 10763 bound_to 10752
  153.0523  135.6537  154.0672 H   0  0  0  0  0  0  0  0  0  0  0  0  # atno 10764 bound_to 10752
  154.0567  135.2965  155.3311 H   0  0  0  0  0  0  0  0  0  0  0  0  # atno 10765 bound_to 10752
  140.2377  134.8075  157.3380 H   0  0  0  0  0  0  0  0  0  0  0  0  # atno 11005 bound_to 11000
  146.1322  140.7170  142.9407 LP  0  0  0  0  0  0  0  0  0  0  0  0  # atno 17320 bound_to 7965
  144.7177  140.4266  143.7032 LP  0  0  0  0  0  0  0  0  0  0  0  0  # atno 17321 bound_to 7965
  139.4804  144.5032  151.9032 LP  0  0  0  0  0  0  0  0  0  0  0  0  # atno 17342 bound_to 10162
  140.4118  144.2359  150.5888 LP  0  0  0  0  0  0  0  0  0  0  0  0  # atno 17343 bound_to 10162
  156.8795  130.9551  151.3601 LP  0  0  0  0  0  0  0  0  0  0  0  0  # atno 17370 bound_to 10713
  157.6184  130.8636  149.9067 LP  0  0  0  0  0  0  0  0  0  0  0  0  # atno 17371 bound_to 10713
  140.1685  134.4638  155.7847 LP  0  0  0  0  0  0  0  0  0  0  0  0  # atno 17394 bound_to 11000
  141.2213  133.6931  156.7667 LP  0  0  0  0  0  0  0  0  0  0  0  0  # atno 17395 bound_to 11000

$$$$
