AV-unprocessed.smi:777|AV-procd|sdf|3701|dock3
  -GOLD-   22720 1123D 1   1.00000     0.00000
 Structure written by MMmdl.
 37 38  0  0  0  0  0  0  0  0  2 V2000
  154.5056  140.9405  160.8671 C   0  0  0  0  0  0  0  0  0  0  0  0
  153.1507  140.7737  160.1469 C   0  0  2  0  0  0  0  0  0  0  0  0
  153.2213  139.7858  158.9723 C   0  0  0  0  0  0  0  0  0  0  0  0
  154.3095  139.3460  158.6021 O   0  0  0  0  0  0  0  0  0  0  0  0
  152.0343  139.4793  158.4144 N   0  0  0  0  0  0  0  0  0  0  0  0
  151.6663  138.6577  157.2508 C   0  0  0  0  0  0  0  0  0  0  0  0
  152.1695  137.2345  157.6058 C   0  0  0  0  0  0  0  0  0  0  0  0
  152.9206  136.6555  156.7894 O   0  0  0  0  0  0  0  0  0  0  0  0
  151.7556  136.7173  158.6679 O   0  5  0  0  0  0  0  0  0  0  0  0
  150.1418  138.6483  156.9074 C   0  0  0  0  0  0  0  0  0  0  0  0
  149.8195  137.9022  155.5978 C   0  0  0  0  0  0  0  0  0  0  0  0
  150.6058  138.4913  154.4177 C   0  0  0  0  0  0  0  0  0  0  0  0
  152.1142  138.5015  154.7050 C   0  0  0  0  0  0  0  0  0  0  0  0
  152.4282  139.2357  156.0238 C   0  0  0  0  0  0  0  0  0  0  0  0
  152.5862  142.0415  159.6948 N   0  0  0  0  0  0  0  0  0  0  0  0
  153.1986  143.0115  158.9262 C   0  0  0  0  0  0  0  0  0  0  0  0
  152.3204  144.0484  158.7933 C   0  0  0  0  0  0  0  0  0  0  0  0
  151.1863  143.6267  159.5404 C   0  0  0  0  0  0  0  0  0  0  0  0
  151.3502  142.4326  160.0854 N   0  0  0  0  0  0  0  0  0  0  0  0
  154.8665  139.9840  161.2466 H   0  0  0  0  0  0  0  0  0  0  0  0
  154.4121  141.6144  161.7189 H   0  0  0  0  0  0  0  0  0  0  0  0
  155.2762  141.3445  160.2091 H   0  0  0  0  0  0  0  0  0  0  0  0
  152.4537  140.3624  160.8791 H   0  0  0  0  0  0  0  0  0  0  0  0
  151.2407  139.9356  158.8400 H   0  0  0  0  0  0  0  0  0  0  0  0
  149.5537  138.2235  157.7223 H   0  0  0  0  0  0  0  0  0  0  0  0
  149.7907  139.6735  156.7855 H   0  0  0  0  0  0  0  0  0  0  0  0
  150.0472  136.8406  155.7000 H   0  0  0  0  0  0  0  0  0  0  0  0
  148.7502  137.9641  155.3940 H   0  0  0  0  0  0  0  0  0  0  0  0
  150.4022  137.9205  153.5114 H   0  0  0  0  0  0  0  0  0  0  0  0
  150.2650  139.5094  154.2256 H   0  0  0  0  0  0  0  0  0  0  0  0
  152.4868  137.4775  154.7463 H   0  0  0  0  0  0  0  0  0  0  0  0
  152.6418  138.9828  153.8813 H   0  0  0  0  0  0  0  0  0  0  0  0
  152.1616  140.2870  155.9046 H   0  0  0  0  0  0  0  0  0  0  0  0
  153.5061  139.2322  156.1934 H   0  0  0  0  0  0  0  0  0  0  0  0
  154.2014  142.8855  158.5449 H   0  0  0  0  0  0  0  0  0  0  0  0
  152.4705  144.9715  158.2539 H   0  0  0  0  0  0  0  0  0  0  0  0
  150.2573  144.1517  159.7071 H   0  0  0  0  0  0  0  0  0  0  0  0
  1  2  1  0  0  0  0
  1 20  1  0  0  0  0
  1 21  1  0  0  0  0
  1 22  1  0  0  0  0
  2  3  1  0  0  0  0
  2 15  1  0  0  0  0
  2 23  1  0  0  0  0
  3  4  2  0  0  0  0
  3  5  1  0  0  0  0
  5  6  1  0  0  0  0
  5 24  1  0  0  0  0
  6 14  1  0  0  0  0
  6  7  1  0  0  0  0
  6 10  1  0  0  0  0
  7  8  2  0  0  0  0
  7  9  1  0  0  0  0
 10 11  1  0  0  0  0
 10 25  1  0  0  0  0
 10 26  1  0  0  0  0
 11 12  1  0  0  0  0
 11 27  1  0  0  0  0
 11 28  1  0  0  0  0
 12 13  1  0  0  0  0
 12 29  1  0  0  0  0
 12 30  1  0  0  0  0
 13 14  1  0  0  0  0
 13 31  1  0  0  0  0
 13 32  1  0  0  0  0
 14 33  1  0  0  0  0
 14 34  1  0  0  0  0
 15 19  1  0  0  0  0
 15 16  1  0  0  0  0
 16 17  2  0  0  0  0
 16 35  1  0  0  0  0
 17 18  1  0  0  0  0
 17 36  1  0  0  0  0
 18 19  2  0  0  0  0
 18 37  1  0  0  0  0
M  CHG  1   9  -1
M  END
> <s_m_source_file>
AV-unprocessed.smi

> <i_m_source_file_index>
777

> <i_lp_mmshare_version>
43012

> <i_f3d_flags>
0

> <s_epik_input>
bjFbY0hdW2NIXVtjSF1uMVtDQEhdKFtDSDNdKUMoPU8pW05IXUMyKEMoPU8pW09IXSlbQ0gyXVtDSDJdW0NIMl1bQ0gyXVtDSDJdMg==

> <s_epik_cmdline>
J2VwaWtfcHl0aG9uJywgJy1waCcsICc3LjAnLCAnLXRuJywgJzgnLCAnLW1hJywgJzIwMCcsICctbWV0YWxfYmluZGluZycsICctaW1hZScsICc8aW5maWxlLm1hZT4nLCAnLW9tYWUnLCAnPG91dGZpbGUubWFlPic=

> <r_lp_tautomer_probability>
1

> <r_epik_Ionization_Penalty>
0.000371068

> <r_epik_Ionization_Penalty_Charging>
0.000323848

> <r_epik_Ionization_Penalty_Neutral>
4.72198e-05

> <r_epik_State_Penalty>
0.000195685

> <r_epik_Charging_Adjusted_Penalty>
0.000519533

> <i_epik_Tot_Q>
-1

> <i_epik_Tot_abs_Q>
1

> <r_epik_Metal_State_Penalty>
-0

> <b_epik_Metal_Only>
0

> <s_lp_Force_Field>
OPLS_2005

> <r_lp_Energy>
8.44032

> <b_lp_Chiralities_Consistent>
1

> <s_lp_Variant>
AV-unprocessed.smi:777-1

> <Gold.Version>
5.8.1

> <Gold.Id.Protein>
6NUR|6NUR_protein|mol2

> <Gold.PLP.Fitness>
48.0618

> <Gold.PLP.PLP>
-35.2688

> <Gold.PLP.part.hbond>
-4.0000

> <Gold.PLP.part.metal>
0.0000

> <Gold.PLP.part.buried>
-4.1894

> <Gold.PLP.part.nonpolar>
-27.4688

> <Gold.PLP.part.repulsive>
0.1114

> <Gold.PLP.ligand.clash>
0.0000

> <Gold.PLP.ligand.torsion>
0.4536

> <Gold.PLP.Chemscore.Hbond>
4.5033

> <Gold.PLP.Chemscore.CHOScore>
0.0000

> <Gold.PLP.Chemscore.Metal>
0.0000

> <Gold.Chemscore.Hbonds>
donor molecule, donor type, donor heavy atom, donor atom, acceptor molecule, acceptor atom, score
      P1  H  6896  6909       L1     9  1.52
      P1  H  7997  8010       L1     4  1.00
      P1  H 10752 10763       L1     8  2.00

> <Gold.PLP.Chemscore.Internal.Correction>
0.1904

> <Gold.Rescore>
     Score         DG    S(hbond)    S(metal)    S(lipo)     H(rot)  DE(clash)    DE(int)     intcor
     17.87     -19.44       2.65        0.00      86.99       1.98       0.02       1.54       ----

> <Gold.Chemscore.Fitness>
17.8739

> <Gold.Chemscore.DG>
-19.4352

> <Gold.Chemscore.ZeroCoef>
-5.4800

> <Gold.Chemscore.Hbond>
2.6467

> <Gold.Chemscore.Metal>
0.0000

> <Gold.Chemscore.Lipo>
86.9862

> <Gold.Chemscore.Internal_Hbond>
0.0000

> <Gold.Chemscore.DEClash>
0.0207

> <Gold.Chemscore.DEInternal>
1.5406

> <Gold.Chemscore.Rot>
1.9774

> <Gold.Chemscore.Internal.Correction>
   9.000000E+99

> <Gold.Chemscore.Hbonds>
donor molecule, donor type, donor heavy atom, donor atom, acceptor molecule, acceptor atom, score
      P1  H  6896  6909       L1     9  0.71
      P1  H  7997  8010       L1     4  0.92
      P1  H 10752 10763       L1     8  0.92

> <Gold.Chemscore.Hbond.Weighted>
-8.8398

> <Gold.Chemscore.Metal.Weighted>
-0.0000

> <Gold.Chemscore.Lipo.Weighted>
-10.1774

> <Gold.Chemscore.Internal_Hbond.Weighted>
0.0000

> <Gold.Chemscore.DEClash.Weighted>
0.0207

> <Gold.Chemscore.DEInternal.Weighted>
1.5406

> <Gold.Chemscore.Rot.Weighted>
5.0620

> <Gold.Chemscore.Internal.Correction.Weighted>
   9.000000E+99

> <Gold.Protein.RotatedTorsions>
[ 6907 6896 6895 6894 ] final  111.10 input  -60.11 | X-H torsion
[ 7974 7965 7964 7962 ] final  129.14 input  175.53 | X-H torsion
[ 8008 7997 7996 7995 ] final   12.47 input   59.86 | X-H torsion
[ 10167 10162 10161 10158 ] final  101.36 input  -65.29 | X-H torsion
[ 10718 10713 10712 10709 ] final    9.54 input   66.30 | X-H torsion
[ 10763 10752 10751 10750 ] final  108.44 input  -60.55 | X-H torsion
[ 11005 11000 10999 10996 ] final  120.79 input  -57.11 | X-H torsion

> <Gold.Protein.ActiveResidues>
 VAL166  LYS551  ARG553  GLY616  TRP617  ASP618  TYR619  PRO620  LYS621  CYS622 
 ASP623  PHE694  ASN695  SER759  ASP760  ASP761  ALA762  ILE779  LEU786  VAL792 
 PHE793  MET794  SER795  GLU796  ALA797  LYS798  CYS799  TRP800  GLU811  SER814 

> <Gold.Protein.RotatedAtoms>
  152.4986  133.8705  159.7295 H   0  0  0  0  0  0  0  0  0  0  0  0  # atno 6907 bound_to 6896
  150.9193  133.6891  159.2842 H   0  0  0  0  0  0  0  0  0  0  0  0  # atno 6908 bound_to 6896
  151.4273  135.1010  159.9684 H   0  0  0  0  0  0  0  0  0  0  0  0  # atno 6909 bound_to 6896
  145.0318  139.4039  143.5146 H   0  0  0  0  0  0  0  0  0  0  0  0  # atno 7974 bound_to 7965
  154.8210  140.2884  155.5787 H   0  0  0  0  0  0  0  0  0  0  0  0  # atno 8008 bound_to 7997
  156.2997  140.2550  156.3048 H   0  0  0  0  0  0  0  0  0  0  0  0  # atno 8009 bound_to 7997
  154.9338  140.0383  157.2051 H   0  0  0  0  0  0  0  0  0  0  0  0  # atno 8010 bound_to 7997
  139.7445  144.7002  151.0525 H   0  0  0  0  0  0  0  0  0  0  0  0  # atno 10167 bound_to 10162
  156.9679  130.5958  149.5666 H   0  0  0  0  0  0  0  0  0  0  0  0  # atno 10718 bound_to 10713
  153.4208  135.3812  155.2109 H   0  0  0  0  0  0  0  0  0  0  0  0  # atno 10763 bound_to 10752
  154.8744  135.3816  154.4387 H   0  0  0  0  0  0  0  0  0  0  0  0  # atno 10764 bound_to 10752
  153.4907  135.7088  153.5948 H   0  0  0  0  0  0  0  0  0  0  0  0  # atno 10765 bound_to 10752
  139.9199  134.9636  156.7860 H   0  0  0  0  0  0  0  0  0  0  0  0  # atno 11005 bound_to 11000
  146.3499  139.9873  142.8689 LP  0  0  0  0  0  0  0  0  0  0  0  0  # atno 17320 bound_to 7965
  145.1760  140.9744  143.4294 LP  0  0  0  0  0  0  0  0  0  0  0  0  # atno 17321 bound_to 7965
  140.7790  143.4884  150.9926 LP  0  0  0  0  0  0  0  0  0  0  0  0  # atno 17342 bound_to 10162
  139.8572  143.7361  152.3175 LP  0  0  0  0  0  0  0  0  0  0  0  0  # atno 17343 bound_to 10162
  156.0295  130.5387  150.8496 LP  0  0  0  0  0  0  0  0  0  0  0  0  # atno 17370 bound_to 10713
  157.5613  131.0946  150.9555 LP  0  0  0  0  0  0  0  0  0  0  0  0  # atno 17371 bound_to 10713
  140.6505  133.9735  155.7753 LP  0  0  0  0  0  0  0  0  0  0  0  0  # atno 17394 bound_to 11000
  141.0711  134.0204  157.3525 LP  0  0  0  0  0  0  0  0  0  0  0  0  # atno 17395 bound_to 11000

$$$$
