#       Name:                AV-unprocessed.smi:2535
#       Creating user name   scv26
#       Creation time:       Fri Mar 27 14:02:32 2020


#       File generated by GOLD software.
#

@<TRIPOS>MOLECULE
AV-unprocessed.smi:2535
    29    30     1
SMALL
NO_CHARGES


@<TRIPOS>ATOM
      1 ****        -1.4648   2.6577  -0.6504 C.3            1 S1                 0.0000
      2 ****        -2.0368   1.7290   0.3047 N.pl3          1 S1                 0.0000
      3 ****        -3.3761   1.6724   0.5032 N.2            1 S1                 0.0000
      4 ****        -3.5822   0.7627   1.4115 N.2            1 S1                 0.0000
      5 ****        -2.3944   0.1975   1.8349 N.2            1 S1                 0.0000
      6 ****        -1.4717   0.8264   1.1186 C.2            1 S1                 0.0000
      7 ****         0.0008   0.5668   1.2023 C.3            1 S1                 0.0000
      8 ****         0.4123  -0.7635   0.5484 C.3            1 S1                 0.0000
      9 ****         0.1224  -0.8609  -0.9525 C.3            1 S1                 0.0000
     10 ****         1.0975  -1.9370  -1.4134 C.3            1 S1                 0.0000
     11 ****         2.3361  -1.6846  -0.5499 C.3            1 S1                 0.0000
     12 ****         1.8600  -1.0226   0.6819 N.4            1 S1                 1.0000
     13 ****        -0.7851   3.3385  -0.1384 H              1 S1                 0.0000
     14 ****        -2.2494   3.2418  -1.1334 H              1 S1                 0.0000
     15 ****        -0.9153   2.1099  -1.4149 H              1 S1                 0.0000
     16 ****         0.5447   1.3949   0.7467 H              1 S1                 0.0000
     17 ****         0.2826   0.5616   2.2558 H              1 S1                 0.0000
     18 ****        -0.0997  -1.5861   1.0507 H              1 S1                 0.0000
     19 ****        -0.9173  -1.1081  -1.1700 H              1 S1                 0.0000
     20 ****         0.3581   0.0808  -1.4495 H              1 S1                 0.0000
     21 ****         0.6868  -2.9239  -1.1949 H              1 S1                 0.0000
     22 ****         1.3092  -1.8903  -2.4821 H              1 S1                 0.0000
     23 ****         2.8750  -2.6051  -0.3241 H              1 S1                 0.0000
     24 ****         3.0230  -1.0082  -1.0596 H              1 S1                 0.0000
     25 ****         2.3515  -0.1464   0.7852 H              1 S1                 0.0000
     26 ****         2.0324  -1.6044   1.4897 H              1 S1                 0.0000
     27 ****        -4.0715   2.2229   0.0414 LP             1 S1                 0.0000
     28 ****        -4.4843   0.5060   1.7582 LP             1 S1                 0.0000
     29 ****        -2.2614  -0.5180   2.5207 LP             1 S1                 0.0000
@<TRIPOS>BOND
    1    1    2 1     
    2    1   13 1     
    3    1   14 1     
    4    1   15 1     
    5    2    6 1     
    6    2    3 1     
    7    3    4 2     
    8    4    5 1     
    9    5    6 2     
   10    6    7 1     
   11    7    8 1     
   12    7   16 1     
   13    7   17 1     
   14    8   12 1     
   15    8    9 1     
   16    8   18 1     
   17    9   10 1     
   18    9   19 1     
   19    9   20 1     
   20   10   11 1     
   21   10   21 1     
   22   10   22 1     
   23   11   12 1     
   24   11   23 1     
   25   11   24 1     
   26   12   25 1     
   27   12   26 1     
   28    3   27 1     
   29    4   28 1     
   30    5   29 1     
@<TRIPOS>SUBSTRUCTURE
      1 S1             1
@<TRIPOS>SET
LONE_PAIRS      STATIC     ATOMS    <user>   **** ""
3 27 28 29
DONOR_HYDROGENS      STATIC     ATOMS    <user>   **** ""
2 25 26
ATOM$BLUE        STATIC     ATOMS    COLORGROUP SYSTEM
3 27 28 29
ATOM$RED        STATIC     ATOMS    COLORGROUP SYSTEM
2 25 26
