#       Name:                AV-unprocessed.smi:2752
#       Creating user name   scv26
#       Creation time:       Fri Mar 27 15:05:55 2020


#       File generated by GOLD software.
#

@<TRIPOS>MOLECULE
AV-unprocessed.smi:2752
    39    40     1
SMALL
NO_CHARGES


@<TRIPOS>ATOM
      1 ****        -1.3280   0.7848   3.0069 C.3            1 S1                 0.0000
      2 ****        -0.7012  -0.2343   2.2451 O.3            1 S1                 0.0000
      3 ****         0.7121  -0.2947   2.4191 C.3            1 S1                 0.0000
      4 ****         1.0291  -1.2073   3.6088 C.3            1 S1                 0.0000
      5 ****         0.9419  -2.6169   3.0302 C.3            1 S1                 0.0000
      6 ****         1.5017  -2.4923   1.6103 C.3            1 S1                 0.0000
      7 ****         1.3638  -1.0092   1.2133 C.3            1 S1                 0.0000
      8 ****         0.5991  -0.8583  -0.0229 N.am           1 S1                 0.0000
      9 ****         0.5637   0.2557  -0.7678 C.2            1 S1                 0.0000
     10 ****         1.1953   1.2760  -0.4912 O.2            1 S1                 0.0000
     11 ****        -0.2457   0.1048  -1.8307 N.am           1 S1                 0.0000
     12 ****        -0.5437   1.0498  -2.8482 C.ar           1 S1                 0.0000
     13 ****        -1.4508   0.6006  -3.8349 C.ar           1 S1                 0.0000
     14 ****        -1.8112   1.4624  -4.8892 C.ar           1 S1                 0.0000
     15 ****        -1.2532   2.7525  -4.9279 C.ar           1 S1                 0.0000
     16 ****        -1.5698   3.6161  -5.9217 F              1 S1                 0.0000
     17 ****        -0.3578   3.1223  -3.9074 C.ar           1 S1                 0.0000
     18 ****        -0.0117   2.2972  -2.8967 N.ar           1 S1                 0.0000
     19 ****        -2.4049   0.7515   2.8424 H              1 S1                 0.0000
     20 ****        -0.9746   1.7710   2.7038 H              1 S1                 0.0000
     21 ****        -1.1480   0.6623   4.0750 H              1 S1                 0.0000
     22 ****         1.1299   0.7065   2.5414 H              1 S1                 0.0000
     23 ****         2.0477  -1.0186   3.9501 H              1 S1                 0.0000
     24 ****         0.3661  -1.0626   4.4616 H              1 S1                 0.0000
     25 ****         1.4817  -3.3502   3.6300 H              1 S1                 0.0000
     26 ****        -0.1027  -2.9280   2.9867 H              1 S1                 0.0000
     27 ****         2.5549  -2.7750   1.6008 H              1 S1                 0.0000
     28 ****         0.9843  -3.1669   0.9269 H              1 S1                 0.0000
     29 ****         2.3686  -0.6089   1.0645 H              1 S1                 0.0000
     30 ****         0.0455  -1.6497  -0.3157 H              1 S1                 0.0000
     31 ****        -0.7031  -0.7902  -1.9214 H              1 S1                 0.0000
     32 ****        -1.8695  -0.3943  -3.7884 H              1 S1                 0.0000
     33 ****        -2.5028   1.1386  -5.6527 H              1 S1                 0.0000
     34 ****         0.0923   4.1040  -3.9013 H              1 S1                 0.0000
     35 ****        -0.8931  -0.0682   1.2779 LP             1 S1                 0.0000
     36 ****        -1.0902  -1.1148   2.5158 LP             1 S1                 0.0000
     37 ****         1.7718   1.3012   0.3256 LP             1 S1                 0.0000
     38 ****         1.1318   2.0794  -1.0833 LP             1 S1                 0.0000
     39 ****         0.6292   2.6016  -2.1920 LP             1 S1                 0.0000
@<TRIPOS>BOND
    1    1    2 1     
    2    1   19 1     
    3    1   20 1     
    4    1   21 1     
    5    2    3 1     
    6    3    7 1     
    7    3    4 1     
    8    3   22 1     
    9    4    5 1     
   10    4   23 1     
   11    4   24 1     
   12    5    6 1     
   13    5   25 1     
   14    5   26 1     
   15    6    7 1     
   16    6   27 1     
   17    6   28 1     
   18    7    8 1     
   19    7   29 1     
   20    8    9 am    
   21    8   30 1     
   22    9   10 2     
   23    9   11 am    
   24   11   12 1     
   25   11   31 1     
   26   12   18 ar    
   27   12   13 ar    
   28   13   14 ar    
   29   13   32 1     
   30   14   15 ar    
   31   14   33 1     
   32   15   16 1     
   33   15   17 ar    
   34   17   18 ar    
   35   17   34 1     
   36    2   35 1     
   37    2   36 1     
   38   10   37 1     
   39   10   38 1     
   40   18   39 1     
@<TRIPOS>SUBSTRUCTURE
      1 S1             1
@<TRIPOS>SET
LONE_PAIRS      STATIC     ATOMS    <user>   **** ""
5 35 36 37 38 39
DONOR_HYDROGENS      STATIC     ATOMS    <user>   **** ""
2 30 31
ATOM$BLUE        STATIC     ATOMS    COLORGROUP SYSTEM
5 35 36 37 38 39
ATOM$RED        STATIC     ATOMS    COLORGROUP SYSTEM
2 30 31
