AV-unprocessed.smi:3221|AV-procd|sdf|12302|dock5
  -GOLD-   2272018143D 1   1.00000     0.00000
 Structure written by MMmdl.
 27 28  0  0  0  0  0  0  0  0  2 V2000
  154.5084  138.3766  160.9165 F   0  0  0  0  0  0  0  0  0  0  0  0
  155.0297  139.6005  160.8308 C   0  0  0  0  0  0  0  0  0  0  0  0
  155.4254  139.9555  162.0529 F   0  0  0  0  0  0  0  0  0  0  0  0
  156.1139  139.5226  160.0597 F   0  0  0  0  0  0  0  0  0  0  0  0
  154.0417  140.5848  160.2744 C   0  0  0  0  0  0  0  0  0  0  0  0
  153.5856  141.7341  160.8728 C   0  0  0  0  0  0  0  0  0  0  0  0
  152.4348  142.5788  159.8741 S   0  0  0  0  0  0  0  0  0  0  0  0
  152.6136  141.3206  158.6570 C   0  0  0  0  0  0  0  0  0  0  0  0
  151.8700  141.3237  157.3590 C   0  0  1  0  0  0  0  0  0  0  0  0
  151.0647  140.0297  157.1371 C   0  0  0  0  0  0  0  0  0  0  0  0
  150.3212  140.0840  155.7935 C   0  0  0  0  0  0  0  0  0  0  0  0
  149.4598  141.3540  155.6928 C   0  0  0  0  0  0  0  0  0  0  0  0
  150.2879  142.5641  155.8884 N   0  3  0  0  0  0  0  0  0  0  0  0
  150.9917  142.5801  157.1898 C   0  0  0  0  0  0  0  0  0  0  0  0
  153.4800  140.3672  159.0115 N   0  0  0  0  0  0  0  0  0  0  0  0
  153.8557  142.1331  161.8394 H   0  0  0  0  0  0  0  0  0  0  0  0
  152.6282  141.3612  156.5753 H   0  0  0  0  0  0  0  0  0  0  0  0
  151.7256  139.1624  157.1621 H   0  0  0  0  0  0  0  0  0  0  0  0
  150.3440  139.8965  157.9450 H   0  0  0  0  0  0  0  0  0  0  0  0
  151.0413  140.0630  154.9743 H   0  0  0  0  0  0  0  0  0  0  0  0
  149.6959  139.1984  155.6775 H   0  0  0  0  0  0  0  0  0  0  0  0
  148.9765  141.4075  154.7170 H   0  0  0  0  0  0  0  0  0  0  0  0
  148.6668  141.3358  156.4417 H   0  0  0  0  0  0  0  0  0  0  0  0
  150.9762  142.6045  155.1504 H   0  0  0  0  0  0  0  0  0  0  0  0
  150.2514  142.6400  157.9891 H   0  0  0  0  0  0  0  0  0  0  0  0
  151.6005  143.4826  157.2505 H   0  0  0  0  0  0  0  0  0  0  0  0
  149.6961  143.3803  155.8265 H   0  0  0  0  0  0  0  0  0  0  0  0
  1  2  1  0  0  0  0
  2  3  1  0  0  0  0
  2  4  1  0  0  0  0
  2  5  1  0  0  0  0
  5 15  1  0  0  0  0
  5  6  2  0  0  0  0
  6  7  1  0  0  0  0
  6 16  1  0  0  0  0
  7  8  1  0  0  0  0
  8  9  1  0  0  0  0
  8 15  2  0  0  0  0
  9 14  1  0  0  0  0
  9 10  1  0  0  0  0
  9 17  1  0  0  0  0
 10 11  1  0  0  0  0
 10 18  1  0  0  0  0
 10 19  1  0  0  0  0
 11 12  1  0  0  0  0
 11 20  1  0  0  0  0
 11 21  1  0  0  0  0
 12 13  1  0  0  0  0
 12 22  1  0  0  0  0
 12 23  1  0  0  0  0
 13 14  1  0  0  0  0
 13 24  1  0  0  0  0
 13 27  1  0  0  0  0
 14 25  1  0  0  0  0
 14 26  1  0  0  0  0
M  CHG  1  13   1
M  END
> <s_m_source_file>
AV-unprocessed.smi

> <i_m_source_file_index>
3221

> <i_lp_mmshare_version>
43012

> <i_f3d_flags>
0

> <s_epik_input>
RkMoRikoRiljMVtjSF1zYyhuMSlbQ0BASF0yW0NIMl1bQ0gyXVtDSDJdW05IXVtDSDJdMg==

> <s_epik_cmdline>
J2VwaWtfcHl0aG9uJywgJy1waCcsICc3LjAnLCAnLXRuJywgJzgnLCAnLW1hJywgJzIwMCcsICctbWV0YWxfYmluZGluZycsICctaW1hZScsICc8aW5maWxlLm1hZT4nLCAnLW9tYWUnLCAnPG91dGZpbGUubWFlPic=

> <r_epik_Ionization_Penalty>
0.000426856

> <r_epik_Ionization_Penalty_Charging>
0.000426856

> <r_epik_Ionization_Penalty_Neutral>
2.38238e-11

> <r_epik_State_Penalty>
0.00026276

> <r_epik_Charging_Adjusted_Penalty>
0.000689616

> <i_epik_Tot_Q>
1

> <i_epik_Tot_abs_Q>
1

> <r_epik_Metal_State_Penalty>
-0

> <b_epik_Metal_Only>
0

> <s_lp_Force_Field>
OPLS_2005

> <r_lp_Energy>
6.82196

> <b_lp_Chiralities_Consistent>
1

> <s_lp_Variant>
AV-unprocessed.smi:3221-2

> <Gold.Version>
5.8.1

> <Gold.Id.Protein>
6NUR|6NUR_protein|mol2

> <Gold.PLP.Fitness>
35.6832

> <Gold.PLP.PLP>
-28.4399

> <Gold.PLP.part.hbond>
-1.7607

> <Gold.PLP.part.metal>
0.0000

> <Gold.PLP.part.buried>
-2.8725

> <Gold.PLP.part.nonpolar>
-23.0651

> <Gold.PLP.part.repulsive>
0.1531

> <Gold.PLP.ligand.clash>
0.0000

> <Gold.PLP.ligand.torsion>
0.0366

> <Gold.PLP.Chemscore.Hbond>
2.4212

> <Gold.PLP.Chemscore.CHOScore>
0.0000

> <Gold.PLP.Chemscore.Metal>
0.0000

> <Gold.Chemscore.Hbonds>
donor molecule, donor type, donor heavy atom, donor atom, acceptor molecule, acceptor atom, score
      L1  H    13    27       P1  8028  2.00
      P1  H  7997  8010       L1    15  0.38

> <Gold.PLP.Chemscore.Internal.Correction>
0.0528

> <Gold.Rescore>
     Score         DG    S(hbond)    S(metal)    S(lipo)     H(rot)  DE(clash)    DE(int)     intcor
     16.99     -17.13       1.68        0.00      73.38       1.00       0.01       0.13       ----

> <Gold.Chemscore.Fitness>
16.9902

> <Gold.Chemscore.DG>
-17.1280

> <Gold.Chemscore.ZeroCoef>
-5.4800

> <Gold.Chemscore.Hbond>
1.6832

> <Gold.Chemscore.Metal>
0.0000

> <Gold.Chemscore.Lipo>
73.3849

> <Gold.Chemscore.Internal_Hbond>
0.0000

> <Gold.Chemscore.DEClash>
0.0126

> <Gold.Chemscore.DEInternal>
0.1252

> <Gold.Chemscore.Rot>
1.0000

> <Gold.Chemscore.Internal.Correction>
   9.000000E+99

> <Gold.Chemscore.Hbonds>
donor molecule, donor type, donor heavy atom, donor atom, acceptor molecule, acceptor atom, score
      L1  H    13    27       P1  8028  0.97
      P1  H  7997  8010       L1    15  0.16

> <Gold.Chemscore.Hbond.Weighted>
-5.6220

> <Gold.Chemscore.Metal.Weighted>
-0.0000

> <Gold.Chemscore.Lipo.Weighted>
-8.5860

> <Gold.Chemscore.Internal_Hbond.Weighted>
0.0000

> <Gold.Chemscore.DEClash.Weighted>
0.0126

> <Gold.Chemscore.DEInternal.Weighted>
0.1252

> <Gold.Chemscore.Rot.Weighted>
2.5600

> <Gold.Chemscore.Internal.Correction.Weighted>
   9.000000E+99

> <Gold.Protein.RotatedTorsions>
[ 6907 6896 6895 6894 ] final  100.65 input  -60.11 | X-H torsion
[ 7974 7965 7964 7962 ] final  -11.78 input  175.53 | X-H torsion
[ 8008 7997 7996 7995 ] final   24.27 input   59.86 | X-H torsion
[ 10167 10162 10161 10158 ] final -135.44 input  -65.29 | X-H torsion
[ 10718 10713 10712 10709 ] final  -84.15 input   66.30 | X-H torsion
[ 10763 10752 10751 10750 ] final -104.36 input  -60.55 | X-H torsion
[ 11005 11000 10999 10996 ] final   69.64 input  -57.11 | X-H torsion

> <Gold.Protein.ActiveResidues>
 VAL166  LYS551  ARG553  GLY616  TRP617  ASP618  TYR619  PRO620  LYS621  CYS622 
 ASP623  PHE694  ASN695  SER759  ASP760  ASP761  ALA762  ILE779  LEU786  VAL792 
 PHE793  MET794  SER795  GLU796  ALA797  LYS798  CYS799  TRP800  GLU811  SER814 

> <Gold.Protein.RotatedAtoms>
  152.5367  134.0245  159.7996 H   0  0  0  0  0  0  0  0  0  0  0  0  # atno 6907 bound_to 6896
  151.0426  133.5685  159.2657 H   0  0  0  0  0  0  0  0  0  0  0  0  # atno 6908 bound_to 6896
  151.2649  135.0673  159.9166 H   0  0  0  0  0  0  0  0  0  0  0  0  # atno 6909 bound_to 6896
  146.2175  140.2961  142.8372 H   0  0  0  0  0  0  0  0  0  0  0  0  # atno 7974 bound_to 7965
  154.9936  140.3117  155.4896 H   0  0  0  0  0  0  0  0  0  0  0  0  # atno 8008 bound_to 7997
  156.2936  140.2244  156.4983 H   0  0  0  0  0  0  0  0  0  0  0  0  # atno 8009 bound_to 7997
  154.7681  140.0454  157.1017 H   0  0  0  0  0  0  0  0  0  0  0  0  # atno 8010 bound_to 7997
  139.8779  143.6876  152.2631 H   0  0  0  0  0  0  0  0  0  0  0  0  # atno 10167 bound_to 10162
  156.0009  130.4688  150.4366 H   0  0  0  0  0  0  0  0  0  0  0  0  # atno 10718 bound_to 10713
  154.7873  135.4789  153.9973 H   0  0  0  0  0  0  0  0  0  0  0  0  # atno 10763 bound_to 10752
  153.1578  135.6803  153.8794 H   0  0  0  0  0  0  0  0  0  0  0  0  # atno 10764 bound_to 10752
  153.8417  135.3178  155.3404 H   0  0  0  0  0  0  0  0  0  0  0  0  # atno 10765 bound_to 10752
  139.9642  134.7008  156.0580 H   0  0  0  0  0  0  0  0  0  0  0  0  # atno 11005 bound_to 11000
  144.9091  140.7735  143.5819 LP  0  0  0  0  0  0  0  0  0  0  0  0  # atno 17320 bound_to 7965
  145.2891  139.1890  143.4750 LP  0  0  0  0  0  0  0  0  0  0  0  0  # atno 17321 bound_to 7965
  139.7223  144.7600  151.0935 LP  0  0  0  0  0  0  0  0  0  0  0  0  # atno 17342 bound_to 10162
  140.7750  143.5192  150.9558 LP  0  0  0  0  0  0  0  0  0  0  0  0  # atno 17343 bound_to 10162
  157.2410  131.0525  151.2436 LP  0  0  0  0  0  0  0  0  0  0  0  0  # atno 17370 bound_to 10713
  157.3620  130.7136  149.6508 LP  0  0  0  0  0  0  0  0  0  0  0  0  # atno 17371 bound_to 10713
  141.1321  133.6584  156.3494 LP  0  0  0  0  0  0  0  0  0  0  0  0  # atno 17394 bound_to 11000
  140.5432  134.6100  157.5386 LP  0  0  0  0  0  0  0  0  0  0  0  0  # atno 17395 bound_to 11000

$$$$
