#       Name:                AV-unprocessed.smi:1010
#       Creating user name   scv26
#       Creation time:       Fri Mar 27 02:36:18 2020


#       File generated by GOLD software.
#

@<TRIPOS>MOLECULE
AV-unprocessed.smi:1010
    61    63     1
SMALL
NO_CHARGES


@<TRIPOS>ATOM
      1 ****        -3.8618  -0.1129  -1.9793 C.3            1 S1                 0.0000
      2 ****        -2.4331  -0.3184  -2.3295 N.4            1 S1                 1.0000
      3 ****        -2.1457   0.2679  -3.6652 C.3            1 S1                 0.0000
      4 ****        -1.8688  -1.7015  -2.0989 C.3            1 S1                 0.0000
      5 ****        -0.3229  -1.5736  -1.9034 C.3            1 S1                 0.0000
      6 ****         0.0572  -0.7660  -0.7439 N.am           1 S1                 0.0000
      7 ****         0.3675   0.5380  -0.7581 C.2            1 S1                 0.0000
      8 ****         0.3365   1.2330  -1.7726 O.2            1 S1                 0.0000
      9 ****         0.7188   0.9677   0.4650 N.am           1 S1                 0.0000
     10 ****         1.1291   2.2740   0.8574 C.ar           1 S1                 0.0000
     11 ****         0.6921   3.4479   0.1913 C.ar           1 S1                 0.0000
     12 ****         1.1194   4.7104   0.6480 C.ar           1 S1                 0.0000
     13 ****         1.9676   4.7828   1.7681 C.ar           1 S1                 0.0000
     14 ****         2.3541   3.6487   2.3887 N.pl3          1 S1                 1.0000
     15 ****         1.9735   2.4104   1.9890 C.ar           1 S1                 0.0000
     16 ****         2.4327   1.2921   2.7065 N.3            1 S1                 0.0000
     17 ****         3.8763   1.1280   2.7532 C.3            1 S1                 0.0000
     18 ****         4.1352   0.1171   3.8732 C.3            1 S1                 0.0000
     19 ****         2.8796   0.1715   4.7524 C.3            1 S1                 0.0000
     20 ****         1.9745   1.2091   4.0831 C.3            1 S1                 0.0000
     21 ****        -2.4952  -2.3828  -0.8415 C.3            1 S1                 0.0000
     22 ****        -2.0804  -3.8564  -0.6856 C.3            1 S1                 0.0000
     23 ****        -2.4624  -4.5765  -1.8497 O.3            1 S1                 0.0000
     24 ****        -1.8172  -4.1119  -3.0278 C.3            1 S1                 0.0000
     25 ****        -2.1803  -2.6382  -3.2992 C.3            1 S1                 0.0000
     26 ****        -4.5078  -0.8062  -2.5190 H              1 S1                 0.0000
     27 ****        -4.1786   0.8999  -2.2306 H              1 S1                 0.0000
     28 ****        -4.0339  -0.2249  -0.9089 H              1 S1                 0.0000
     29 ****        -2.7534  -0.1959  -4.4432 H              1 S1                 0.0000
     30 ****        -1.0994   0.1732  -3.9492 H              1 S1                 0.0000
     31 ****        -2.3741   1.3341  -3.6633 H              1 S1                 0.0000
     32 ****         0.1379  -2.5478  -1.7547 H              1 S1                 0.0000
     33 ****         0.1616  -1.1895  -2.8008 H              1 S1                 0.0000
     34 ****         0.1171  -1.2533   0.1389 H              1 S1                 0.0000
     35 ****         0.7857   0.2602   1.1823 H              1 S1                 0.0000
     36 ****         0.0240   3.4052  -0.6550 H              1 S1                 0.0000
     37 ****         0.7952   5.6118   0.1483 H              1 S1                 0.0000
     38 ****         2.3406   5.7062   2.1875 H              1 S1                 0.0000
     39 ****         4.2631   0.7751   1.7967 H              1 S1                 0.0000
     40 ****         4.3640   2.0759   2.9852 H              1 S1                 0.0000
     41 ****         4.2557  -0.8851   3.4600 H              1 S1                 0.0000
     42 ****         5.0422   0.3580   4.4286 H              1 S1                 0.0000
     43 ****         2.3935  -0.8048   4.7651 H              1 S1                 0.0000
     44 ****         3.1062   0.4428   5.7839 H              1 S1                 0.0000
     45 ****         2.0790   2.1748   4.5797 H              1 S1                 0.0000
     46 ****         0.9251   0.9169   4.1319 H              1 S1                 0.0000
     47 ****        -2.2600  -1.8290   0.0678 H              1 S1                 0.0000
     48 ****        -3.5824  -2.4028  -0.9114 H              1 S1                 0.0000
     49 ****        -1.0132  -3.9686  -0.4950 H              1 S1                 0.0000
     50 ****        -2.5926  -4.2943   0.1712 H              1 S1                 0.0000
     51 ****        -0.7392  -4.2520  -2.9450 H              1 S1                 0.0000
     52 ****        -2.1423  -4.7303  -3.8646 H              1 S1                 0.0000
     53 ****        -3.2439  -2.5899  -3.5359 H              1 S1                 0.0000
     54 ****        -1.6525  -2.3135  -4.1962 H              1 S1                 0.0000
     55 ****        -1.9298   0.2668  -1.6780 H              1 S1                 0.0000
     56 ****         2.9650   3.7286   3.2019 H              1 S1                 0.0000
     57 ****         0.0689   0.8291  -2.6474 LP             1 S1                 0.0000
     58 ****         0.5789   2.2019  -1.7225 LP             1 S1                 0.0000
     59 ****         2.0230   0.5622   2.1593 LP             1 S1                 0.0000
     60 ****        -3.4508  -4.4851  -1.9707 LP             1 S1                 0.0000
     61 ****        -2.2304  -5.5404  -1.7185 LP             1 S1                 0.0000
@<TRIPOS>BOND
    1    1    2 1     
    2    1   26 1     
    3    1   27 1     
    4    1   28 1     
    5    2    3 1     
    6    2    4 1     
    7    2   55 1     
    8    3   29 1     
    9    3   30 1     
   10    3   31 1     
   11    4   25 1     
   12    4    5 1     
   13    4   21 1     
   14    5    6 1     
   15    5   32 1     
   16    5   33 1     
   17    6    7 am    
   18    6   34 1     
   19    7    8 2     
   20    7    9 am    
   21    9   10 1     
   22    9   35 1     
   23   10   15 ar    
   24   10   11 ar    
   25   11   12 ar    
   26   11   36 1     
   27   12   13 ar    
   28   12   37 1     
   29   13   14 ar    
   30   13   38 1     
   31   14   15 ar    
   32   14   56 1     
   33   15   16 1     
   34   16   20 1     
   35   16   17 1     
   36   17   18 1     
   37   17   39 1     
   38   17   40 1     
   39   18   19 1     
   40   18   41 1     
   41   18   42 1     
   42   19   20 1     
   43   19   43 1     
   44   19   44 1     
   45   20   45 1     
   46   20   46 1     
   47   21   22 1     
   48   21   47 1     
   49   21   48 1     
   50   22   23 1     
   51   22   49 1     
   52   22   50 1     
   53   23   24 1     
   54   24   25 1     
   55   24   51 1     
   56   24   52 1     
   57   25   53 1     
   58   25   54 1     
   59    8   57 1     
   60    8   58 1     
   61   16   59 1     
   62   23   60 1     
   63   23   61 1     
@<TRIPOS>SUBSTRUCTURE
      1 S1             1
@<TRIPOS>SET
LONE_PAIRS      STATIC     ATOMS    <user>   **** ""
5 57 58 59 60 61
DONOR_HYDROGENS      STATIC     ATOMS    <user>   **** ""
4 55 34 35 56
ATOM$BLUE        STATIC     ATOMS    COLORGROUP SYSTEM
5 57 58 59 60 61
ATOM$RED        STATIC     ATOMS    COLORGROUP SYSTEM
4 55 34 35 56
