AV-unprocessed.smi:462|AV-procd|sdf|2633|dock4
  -GOLD-   2262023 43D 1   1.00000     0.00000
 Structure written by MMmdl.
 47 49  0  0  0  0  0  0  0  0  2 V2000
  151.9601  145.5254  160.1832 C   0  0  0  0  0  0  0  0  0  0  0  0
  151.6751  144.4771  159.2698 O   0  0  0  0  0  0  0  0  0  0  0  0
  152.1878  143.2228  159.5309 C   0  0  0  0  0  0  0  0  0  0  0  0
  153.0743  142.9414  160.6011 C   0  0  0  0  0  0  0  0  0  0  0  0
  153.5521  141.6343  160.8067 C   0  0  0  0  0  0  0  0  0  0  0  0
  153.1527  140.5963  159.9476 C   0  0  0  0  0  0  0  0  0  0  0  0
  152.2734  140.8639  158.8827 C   0  0  0  0  0  0  0  0  0  0  0  0
  151.7850  142.1769  158.6695 C   0  0  0  0  0  0  0  0  0  0  0  0
  150.9225  142.5149  157.6502 O   0  0  0  0  0  0  0  0  0  0  0  0
  150.1698  141.4909  157.0169 C   0  0  0  0  0  0  0  0  0  0  0  0
  151.0240  140.8483  155.9109 C   0  0  0  0  0  0  0  0  0  0  0  0
  150.2423  139.9444  155.0466 N   0  0  0  0  0  0  0  0  0  0  0  0
  150.4772  138.6544  154.6474 C   0  0  0  0  0  0  0  0  0  0  0  0
  151.6802  137.7938  154.9469 C   0  0  0  0  0  0  0  0  0  0  0  0
  152.9886  138.5960  154.8035 C   0  0  0  0  0  0  0  0  0  0  0  0
  151.5607  137.2097  156.3648 C   0  0  0  0  0  0  0  0  0  0  0  0
  151.7960  136.7112  154.0460 O   0  0  0  0  0  0  0  0  0  0  0  0
  149.4317  138.2964  153.8450 N   0  3  0  0  0  0  0  0  0  0  0  0
  148.5168  139.3425  153.7475 C   0  0  0  0  0  0  0  0  0  0  0  0
  147.3079  139.4333  153.0646 C   0  0  0  0  0  0  0  0  0  0  0  0
  146.6112  140.6546  153.1709 C   0  0  0  0  0  0  0  0  0  0  0  0
  147.1239  141.7272  153.9282 C   0  0  0  0  0  0  0  0  0  0  0  0
  148.3536  141.6232  154.6105 C   0  0  0  0  0  0  0  0  0  0  0  0
  149.0335  140.4086  154.5086 C   0  0  0  0  0  0  0  0  0  0  0  0
  151.4707  146.4382  159.8440 H   0  0  0  0  0  0  0  0  0  0  0  0
  153.0307  145.7262  160.2392 H   0  0  0  0  0  0  0  0  0  0  0  0
  151.5805  145.2994  161.1805 H   0  0  0  0  0  0  0  0  0  0  0  0
  153.4035  143.7126  161.2804 H   0  0  0  0  0  0  0  0  0  0  0  0
  154.2266  141.4285  161.6248 H   0  0  0  0  0  0  0  0  0  0  0  0
  153.5212  139.5934  160.1050 H   0  0  0  0  0  0  0  0  0  0  0  0
  151.9894  140.0451  158.2394 H   0  0  0  0  0  0  0  0  0  0  0  0
  149.8785  140.7332  157.7453 H   0  0  0  0  0  0  0  0  0  0  0  0
  149.2603  141.9070  156.5821 H   0  0  0  0  0  0  0  0  0  0  0  0
  151.4947  141.6114  155.2909 H   0  0  0  0  0  0  0  0  0  0  0  0
  151.8396  140.2780  156.3531 H   0  0  0  0  0  0  0  0  0  0  0  0
  153.0278  139.4305  155.5044 H   0  0  0  0  0  0  0  0  0  0  0  0
  153.0982  139.0020  153.7968 H   0  0  0  0  0  0  0  0  0  0  0  0
  153.8608  137.9714  155.0010 H   0  0  0  0  0  0  0  0  0  0  0  0
  151.5022  138.0019  157.1120 H   0  0  0  0  0  0  0  0  0  0  0  0
  152.4217  136.5884  156.6137 H   0  0  0  0  0  0  0  0  0  0  0  0
  150.6692  136.5920  156.4744 H   0  0  0  0  0  0  0  0  0  0  0  0
  151.2013  136.8536  153.3255 H   0  0  0  0  0  0  0  0  0  0  0  0
  146.9142  138.6128  152.4828 H   0  0  0  0  0  0  0  0  0  0  0  0
  145.6655  140.7710  152.6619 H   0  0  0  0  0  0  0  0  0  0  0  0
  146.5629  142.6482  153.9900 H   0  0  0  0  0  0  0  0  0  0  0  0
  148.7310  142.4501  155.1935 H   0  0  0  0  0  0  0  0  0  0  0  0
  149.3520  137.3913  153.4005 H   0  0  0  0  0  0  0  0  0  0  0  0
  1  2  1  0  0  0  0
  1 25  1  0  0  0  0
  1 26  1  0  0  0  0
  1 27  1  0  0  0  0
  2  3  1  0  0  0  0
  3  8  1  0  0  0  0
  3  4  2  0  0  0  0
  4  5  1  0  0  0  0
  4 28  1  0  0  0  0
  5  6  2  0  0  0  0
  5 29  1  0  0  0  0
  6  7  1  0  0  0  0
  6 30  1  0  0  0  0
  7  8  2  0  0  0  0
  7 31  1  0  0  0  0
  8  9  1  0  0  0  0
  9 10  1  0  0  0  0
 10 11  1  0  0  0  0
 10 32  1  0  0  0  0
 10 33  1  0  0  0  0
 11 12  1  0  0  0  0
 11 34  1  0  0  0  0
 11 35  1  0  0  0  0
 12 24  1  0  0  0  0
 12 13  1  0  0  0  0
 13 14  1  0  0  0  0
 13 18  2  0  0  0  0
 14 15  1  0  0  0  0
 14 16  1  0  0  0  0
 14 17  1  0  0  0  0
 15 36  1  0  0  0  0
 15 37  1  0  0  0  0
 15 38  1  0  0  0  0
 16 39  1  0  0  0  0
 16 40  1  0  0  0  0
 16 41  1  0  0  0  0
 17 42  1  0  0  0  0
 18 19  1  0  0  0  0
 18 47  1  0  0  0  0
 19 24  2  0  0  0  0
 19 20  1  0  0  0  0
 20 21  2  0  0  0  0
 20 43  1  0  0  0  0
 21 22  1  0  0  0  0
 21 44  1  0  0  0  0
 22 23  2  0  0  0  0
 22 45  1  0  0  0  0
 23 24  1  0  0  0  0
 23 46  1  0  0  0  0
M  CHG  1  18   1
M  END
> <s_m_source_file>
AV-unprocessed.smi

> <i_m_source_file_index>
462

> <i_lp_mmshare_version>
43012

> <i_f3d_flags>
0

> <s_epik_input>
W0NIM11PYzFbY0hdW2NIXVtjSF1bY0hdYzFPW0NIMl1bQ0gyXW4oYyhuMilDKFtDSDNdKShbQ0gzXSlbT0hdKWMoYzIzKVtjSF1bY0hdW2NIXVtjSF0z

> <s_epik_cmdline>
J2VwaWtfcHl0aG9uJywgJy1waCcsICc3LjAnLCAnLXRuJywgJzgnLCAnLW1hJywgJzIwMCcsICctbWV0YWxfYmluZGluZycsICctaW1hZScsICc8aW5maWxlLm1hZT4nLCAnLW9tYWUnLCAnPG91dGZpbGUubWFlPic=

> <r_lp_tautomer_probability>
1

> <r_epik_Ionization_Penalty>
1.32796

> <r_epik_Ionization_Penalty_Charging>
1.32796

> <r_epik_Ionization_Penalty_Neutral>
1.51811e-06

> <r_epik_State_Penalty>
1.40413

> <r_epik_Charging_Adjusted_Penalty>
2.73209

> <i_epik_Tot_Q>
1

> <i_epik_Tot_abs_Q>
1

> <r_epik_Metal_State_Penalty>
5.43878

> <b_epik_Metal_Only>
0

> <s_lp_Force_Field>
OPLS_2005

> <r_lp_Energy>
22.2215

> <b_lp_Chiralities_Consistent>
1

> <s_lp_Variant>
AV-unprocessed.smi:462-2

> <Gold.Version>
5.8.1

> <Gold.Id.Protein>
6NUR|6NUR_protein|mol2

> <Gold.PLP.Fitness>
65.1201

> <Gold.PLP.PLP>
-56.5926

> <Gold.PLP.part.hbond>
-3.8752

> <Gold.PLP.part.metal>
0.0000

> <Gold.PLP.part.buried>
-0.3190

> <Gold.PLP.part.nonpolar>
-52.1520

> <Gold.PLP.part.repulsive>
0.2375

> <Gold.PLP.ligand.clash>
0.0000

> <Gold.PLP.ligand.torsion>
1.2171

> <Gold.PLP.Chemscore.Hbond>
3.5920

> <Gold.PLP.Chemscore.CHOScore>
0.0000

> <Gold.PLP.Chemscore.Metal>
0.0000

> <Gold.Chemscore.Hbonds>
donor molecule, donor type, donor heavy atom, donor atom, acceptor molecule, acceptor atom, score
      L1  H    17    42       P1  7949  0.59
      L1  H    18    47       P1  7948  2.00
      P1  H 10752 10763       L1    17  1.00

> <Gold.PLP.Chemscore.Internal.Correction>
0.1857

> <Gold.Rescore>
     Score         DG    S(hbond)    S(metal)    S(lipo)     H(rot)  DE(clash)    DE(int)     intcor
     21.55     -24.54       2.21        0.00     150.78       2.33       1.71       1.27       ----

> <Gold.Chemscore.Fitness>
21.5508

> <Gold.Chemscore.DG>
-24.5352

> <Gold.Chemscore.ZeroCoef>
-5.4800

> <Gold.Chemscore.Hbond>
2.2092

> <Gold.Chemscore.Metal>
0.0000

> <Gold.Chemscore.Lipo>
150.7757

> <Gold.Chemscore.Internal_Hbond>
0.0000

> <Gold.Chemscore.DEClash>
1.7129

> <Gold.Chemscore.DEInternal>
1.2715

> <Gold.Chemscore.Rot>
2.3298

> <Gold.Chemscore.Internal.Correction>
   9.000000E+99

> <Gold.Chemscore.Hbonds>
donor molecule, donor type, donor heavy atom, donor atom, acceptor molecule, acceptor atom, score
      L1  H    17    42       P1  7949  0.30
      L1  H    18    47       P1  7948  0.92
      P1  H 10752 10763       L1    17  0.96

> <Gold.Chemscore.Hbond.Weighted>
-7.3788

> <Gold.Chemscore.Metal.Weighted>
-0.0000

> <Gold.Chemscore.Lipo.Weighted>
-17.6408

> <Gold.Chemscore.Internal_Hbond.Weighted>
0.0000

> <Gold.Chemscore.DEClash.Weighted>
1.7129

> <Gold.Chemscore.DEInternal.Weighted>
1.2715

> <Gold.Chemscore.Rot.Weighted>
5.9643

> <Gold.Chemscore.Internal.Correction.Weighted>
   9.000000E+99

> <Gold.Protein.RotatedTorsions>
[ 6907 6896 6895 6894 ] final -121.62 input  -60.11 | X-H torsion
[ 7974 7965 7964 7962 ] final   98.06 input  175.53 | X-H torsion
[ 8008 7997 7996 7995 ] final  117.13 input   59.86 | X-H torsion
[ 10167 10162 10161 10158 ] final  177.86 input  -65.29 | X-H torsion
[ 10718 10713 10712 10709 ] final  178.95 input   66.30 | X-H torsion
[ 10763 10752 10751 10750 ] final   21.75 input  -60.55 | X-H torsion
[ 11005 11000 10999 10996 ] final -116.97 input  -57.11 | X-H torsion

> <Gold.Protein.ActiveResidues>
 VAL166  LYS551  ARG553  GLY616  TRP617  ASP618  TYR619  PRO620  LYS621  CYS622 
 ASP623  PHE694  ASN695  SER759  ASP760  ASP761  ALA762  ILE779  LEU786  VAL792 
 PHE793  MET794  SER795  GLU796  ALA797  LYS798  CYS799  TRP800  GLU811  SER814 

> <Gold.Protein.RotatedAtoms>
  150.8500  133.7801  159.3028 H   0  0  0  0  0  0  0  0  0  0  0  0  # atno 6907 bound_to 6896
  151.5476  135.1066  159.9951 H   0  0  0  0  0  0  0  0  0  0  0  0  # atno 6908 bound_to 6896
  152.4545  133.7652  159.6824 H   0  0  0  0  0  0  0  0  0  0  0  0  # atno 6909 bound_to 6896
  145.4172  139.2326  143.3216 H   0  0  0  0  0  0  0  0  0  0  0  0  # atno 7974 bound_to 7965
  156.2477  140.2903  156.0631 H   0  0  0  0  0  0  0  0  0  0  0  0  # atno 8008 bound_to 7997
  155.1754  140.0403  157.2888 H   0  0  0  0  0  0  0  0  0  0  0  0  # atno 8009 bound_to 7997
  154.6297  140.2496  155.7456 H   0  0  0  0  0  0  0  0  0  0  0  0  # atno 8010 bound_to 7997
  139.5270  144.2749  152.0597 H   0  0  0  0  0  0  0  0  0  0  0  0  # atno 10167 bound_to 10162
  156.8829  130.9822  151.3059 H   0  0  0  0  0  0  0  0  0  0  0  0  # atno 10718 bound_to 10713
  153.0970  135.6662  153.9744 H   0  0  0  0  0  0  0  0  0  0  0  0  # atno 10763 bound_to 10752
  153.9325  135.3002  155.3446 H   0  0  0  0  0  0  0  0  0  0  0  0  # atno 10764 bound_to 10752
  154.7389  135.5088  153.9163 H   0  0  0  0  0  0  0  0  0  0  0  0  # atno 10765 bound_to 10752
  141.0386  133.9871  157.3031 H   0  0  0  0  0  0  0  0  0  0  0  0  # atno 11005 bound_to 11000
  146.2675  140.4891  142.8828 LP  0  0  0  0  0  0  0  0  0  0  0  0  # atno 17320 bound_to 7965
  144.8269  140.6644  143.6316 LP  0  0  0  0  0  0  0  0  0  0  0  0  # atno 17321 bound_to 7965
  140.2207  144.4469  150.6343 LP  0  0  0  0  0  0  0  0  0  0  0  0  # atno 17342 bound_to 10162
  140.6421  143.2205  151.6268 LP  0  0  0  0  0  0  0  0  0  0  0  0  # atno 17343 bound_to 10162
  157.6129  130.8597  149.8981 LP  0  0  0  0  0  0  0  0  0  0  0  0  # atno 17370 bound_to 10713
  156.0668  130.3691  150.0862 LP  0  0  0  0  0  0  0  0  0  0  0  0  # atno 17371 bound_to 10713
  139.9259  135.0201  156.8232 LP  0  0  0  0  0  0  0  0  0  0  0  0  # atno 17394 bound_to 11000
  140.6276  133.9935  155.7647 LP  0  0  0  0  0  0  0  0  0  0  0  0  # atno 17395 bound_to 11000

$$$$
