AV-unprocessed.smi:1345|AV-procd|sdf|5511|dock9
  -GOLD-   22720 5 93D 1   1.00000     0.00000
 Structure written by MMmdl.
 40 41  0  0  0  0  0  0  0  0  1 V2000
  151.2187  144.5014  160.6782 C   0  0  0  0  0  0  0  0  0  0  0  0
  152.4696  144.1304  159.8575 C   0  0  0  0  0  0  0  0  0  0  0  0
  152.1750  144.3275  158.3594 C   0  0  0  0  0  0  0  0  0  0  0  0
  152.9790  142.7002  160.1782 C   0  0  1  0  0  0  0  0  0  0  0  0
  153.1633  142.4429  161.6861 C   0  0  0  0  0  0  0  0  0  0  0  0
  152.0509  141.7050  159.6439 N   0  0  0  0  0  0  0  0  0  0  0  0
  152.3889  140.6123  158.9402 C   0  0  0  0  0  0  0  0  0  0  0  0
  153.5484  140.3270  158.6415 O   0  0  0  0  0  0  0  0  0  0  0  0
  151.2402  139.6992  158.5087 C   0  0  0  0  0  0  0  0  0  0  0  0
  150.4045  140.3767  157.4612 C   0  0  0  0  0  0  0  0  0  0  0  0
  150.7932  140.7107  156.1869 C   0  0  0  0  0  0  0  0  0  0  0  0
  149.5079  141.4709  155.2898 S   0  0  0  0  0  0  0  0  0  0  0  0
  148.4677  141.3090  156.7080 C   0  0  0  0  0  0  0  0  0  0  0  0
  147.1072  141.7247  156.8120 N   0  0  0  0  0  0  0  0  0  0  0  0
  146.3684  142.2282  155.6580 C   0  0  0  0  0  0  0  0  0  0  0  0
  144.9872  142.5511  156.2199 C   0  0  0  0  0  0  0  0  0  0  0  0
  145.1323  142.1875  157.6096 N   0  0  0  0  0  0  0  0  0  0  0  0
  146.3437  141.7219  157.9230 C   0  0  0  0  0  0  0  0  0  0  0  0
  146.6701  141.3601  159.0520 O   0  0  0  0  0  0  0  0  0  0  0  0
  149.0806  140.7294  157.7455 N   0  0  0  0  0  0  0  0  0  0  0  0
  150.4019  143.8045  160.4886 H   0  0  0  0  0  0  0  0  0  0  0  0
  150.8652  145.5015  160.4255 H   0  0  0  0  0  0  0  0  0  0  0  0
  151.4176  144.4980  161.7499 H   0  0  0  0  0  0  0  0  0  0  0  0
  153.2548  144.8373  160.1296 H   0  0  0  0  0  0  0  0  0  0  0  0
  151.4443  143.6019  158.0004 H   0  0  0  0  0  0  0  0  0  0  0  0
  153.0739  144.2285  157.7519 H   0  0  0  0  0  0  0  0  0  0  0  0
  151.7742  145.3230  158.1665 H   0  0  0  0  0  0  0  0  0  0  0  0
  153.9469  142.5729  159.6894 H   0  0  0  0  0  0  0  0  0  0  0  0
  153.9359  143.0805  162.1142 H   0  0  0  0  0  0  0  0  0  0  0  0
  153.4673  141.4130  161.8759 H   0  0  0  0  0  0  0  0  0  0  0  0
  152.2379  142.6200  162.2351 H   0  0  0  0  0  0  0  0  0  0  0  0
  151.0709  141.8508  159.8396 H   0  0  0  0  0  0  0  0  0  0  0  0
  151.6500  138.7594  158.1363 H   0  0  0  0  0  0  0  0  0  0  0  0
  150.6321  139.4467  159.3783 H   0  0  0  0  0  0  0  0  0  0  0  0
  151.7542  140.5491  155.7210 H   0  0  0  0  0  0  0  0  0  0  0  0
  146.8506  143.1175  155.2493 H   0  0  0  0  0  0  0  0  0  0  0  0
  146.3128  141.4703  154.8751 H   0  0  0  0  0  0  0  0  0  0  0  0
  144.7415  143.6093  156.1230 H   0  0  0  0  0  0  0  0  0  0  0  0
  144.2028  141.9580  155.7480 H   0  0  0  0  0  0  0  0  0  0  0  0
  144.3782  142.2816  158.2748 H   0  0  0  0  0  0  0  0  0  0  0  0
  1  2  1  0  0  0  0
  1 21  1  0  0  0  0
  1 22  1  0  0  0  0
  1 23  1  0  0  0  0
  2  3  1  0  0  0  0
  2  4  1  0  0  0  0
  2 24  1  0  0  0  0
  3 25  1  0  0  0  0
  3 26  1  0  0  0  0
  3 27  1  0  0  0  0
  4  5  1  0  0  0  0
  4  6  1  0  0  0  0
  4 28  1  0  0  0  0
  5 29  1  0  0  0  0
  5 30  1  0  0  0  0
  5 31  1  0  0  0  0
  6  7  1  0  0  0  0
  6 32  1  0  0  0  0
  7  8  2  0  0  0  0
  7  9  1  0  0  0  0
  9 10  1  0  0  0  0
  9 33  1  0  0  0  0
  9 34  1  0  0  0  0
 10 20  1  0  0  0  0
 10 11  2  0  0  0  0
 11 12  1  0  0  0  0
 11 35  1  0  0  0  0
 12 13  1  0  0  0  0
 13 14  1  0  0  0  0
 13 20  2  0  0  0  0
 14 18  1  0  0  0  0
 14 15  1  0  0  0  0
 15 16  1  0  0  0  0
 15 36  1  0  0  0  0
 15 37  1  0  0  0  0
 16 17  1  0  0  0  0
 16 38  1  0  0  0  0
 16 39  1  0  0  0  0
 17 18  1  0  0  0  0
 17 40  1  0  0  0  0
 18 19  2  0  0  0  0
M  END
> <s_m_source_file>
AV-unprocessed.smi

> <i_m_source_file_index>
1345

> <i_lp_mmshare_version>
43012

> <i_f3d_flags>
0

> <s_epik_input>
W0NIM11bQ0hdKFtDSDNdKVtDQEhdKFtDSDNdKVtOSF1DKD1PKVtDSDJdYzFbY0hdc2MobjEpTjJbQ0gyXVtDSDJdW05IXUMyPU8=

> <s_epik_cmdline>
J2VwaWtfcHl0aG9uJywgJy1waCcsICc3LjAnLCAnLXRuJywgJzgnLCAnLW1hJywgJzIwMCcsICctbWV0YWxfYmluZGluZycsICctaW1hZScsICc8aW5maWxlLm1hZT4nLCAnLW9tYWUnLCAnPG91dGZpbGUubWFlPic=

> <r_lp_tautomer_probability>
1

> <r_epik_Ionization_Penalty>
0.000122034

> <r_epik_Ionization_Penalty_Charging>
0

> <r_epik_Ionization_Penalty_Neutral>
0.000122034

> <r_epik_State_Penalty>
-0

> <r_epik_Charging_Adjusted_Penalty>
0

> <i_epik_Tot_Q>
0

> <i_epik_Tot_abs_Q>
0

> <r_epik_Metal_State_Penalty>
-0

> <b_epik_Metal_Only>
0

> <s_lp_Force_Field>
OPLS_2005

> <r_lp_Energy>
32.8432

> <b_lp_Chiralities_Consistent>
1

> <s_lp_Variant>
AV-unprocessed.smi:1345-2

> <Gold.Version>
5.8.1

> <Gold.Id.Protein>
6NUR|6NUR_protein|mol2

> <Gold.PLP.Fitness>
43.2298

> <Gold.PLP.PLP>
-39.4828

> <Gold.PLP.part.hbond>
-2.0000

> <Gold.PLP.part.metal>
0.0000

> <Gold.PLP.part.buried>
-5.6473

> <Gold.PLP.part.nonpolar>
-32.6790

> <Gold.PLP.part.repulsive>
0.1732

> <Gold.PLP.ligand.clash>
0.0000

> <Gold.PLP.ligand.torsion>
0.4099

> <Gold.PLP.Chemscore.Hbond>
1.5114

> <Gold.PLP.Chemscore.CHOScore>
0.0000

> <Gold.PLP.Chemscore.Metal>
0.0000

> <Gold.Chemscore.Hbonds>
donor molecule, donor type, donor heavy atom, donor atom, acceptor molecule, acceptor atom, score
      P1  H  6934  6946       L1    19  0.58
      P1  H  7997  8009       L1     8  0.86

> <Gold.PLP.Chemscore.Internal.Correction>
0.0325

> <Gold.Rescore>
     Score         DG    S(hbond)    S(metal)    S(lipo)     H(rot)  DE(clash)    DE(int)     intcor
     15.66     -17.42       1.79        0.00      89.05       1.74       0.00       1.76       ----

> <Gold.Chemscore.Fitness>
15.6586

> <Gold.Chemscore.DG>
-17.4212

> <Gold.Chemscore.ZeroCoef>
-5.4800

> <Gold.Chemscore.Hbond>
1.7860

> <Gold.Chemscore.Metal>
0.0000

> <Gold.Chemscore.Lipo>
89.0457

> <Gold.Chemscore.Internal_Hbond>
0.0000

> <Gold.Chemscore.DEClash>
0.0048

> <Gold.Chemscore.DEInternal>
1.7577

> <Gold.Chemscore.Rot>
1.7353

> <Gold.Chemscore.Internal.Correction>
   9.000000E+99

> <Gold.Chemscore.Hbonds>
donor molecule, donor type, donor heavy atom, donor atom, acceptor molecule, acceptor atom, score
      P1  H  6934  6946       L1    19  0.56
      P1  H  7997  8009       L1     8  0.85

> <Gold.Chemscore.Hbond.Weighted>
-5.9651

> <Gold.Chemscore.Metal.Weighted>
-0.0000

> <Gold.Chemscore.Lipo.Weighted>
-10.4184

> <Gold.Chemscore.Internal_Hbond.Weighted>
0.0000

> <Gold.Chemscore.DEClash.Weighted>
0.0048

> <Gold.Chemscore.DEInternal.Weighted>
1.7577

> <Gold.Chemscore.Rot.Weighted>
4.4423

> <Gold.Chemscore.Internal.Correction.Weighted>
   9.000000E+99

> <Gold.Protein.RotatedTorsions>
[ 6907 6896 6895 6894 ] final  157.51 input  -60.11 | X-H torsion
[ 7974 7965 7964 7962 ] final  123.82 input  175.53 | X-H torsion
[ 8008 7997 7996 7995 ] final  147.02 input   59.86 | X-H torsion
[ 10167 10162 10161 10158 ] final -105.25 input  -65.29 | X-H torsion
[ 10718 10713 10712 10709 ] final  -56.82 input   66.30 | X-H torsion
[ 10763 10752 10751 10750 ] final  -93.13 input  -60.55 | X-H torsion
[ 11005 11000 10999 10996 ] final   23.58 input  -57.11 | X-H torsion

> <Gold.Protein.ActiveResidues>
 VAL166  LYS551  ARG553  GLY616  TRP617  ASP618  TYR619  PRO620  LYS621  CYS622 
 ASP623  PHE694  ASN695  SER759  ASP760  ASP761  ALA762  ILE779  LEU786  VAL792 
 PHE793  MET794  SER795  GLU796  ALA797  LYS798  CYS799  TRP800  GLU811  SER814 

> <Gold.Protein.RotatedAtoms>
  152.0141  133.3873  159.4231 H   0  0  0  0  0  0  0  0  0  0  0  0  # atno 6907 bound_to 6896
  150.6896  134.3698  159.4996 H   0  0  0  0  0  0  0  0  0  0  0  0  # atno 6908 bound_to 6896
  152.1463  134.9023  160.0601 H   0  0  0  0  0  0  0  0  0  0  0  0  # atno 6909 bound_to 6896
  145.0915  139.3583  143.4858 H   0  0  0  0  0  0  0  0  0  0  0  0  # atno 7974 bound_to 7965
  156.2838  140.2167  156.5470 H   0  0  0  0  0  0  0  0  0  0  0  0  # atno 8008 bound_to 7997
  154.7322  140.0494  157.0759 H   0  0  0  0  0  0  0  0  0  0  0  0  # atno 8009 bound_to 7997
  155.0338  140.3138  155.4752 H   0  0  0  0  0  0  0  0  0  0  0  0  # atno 8010 bound_to 7997
  140.2006  143.3822  152.1133 H   0  0  0  0  0  0  0  0  0  0  0  0  # atno 10167 bound_to 10162
  156.1259  130.4162  150.0357 H   0  0  0  0  0  0  0  0  0  0  0  0  # atno 10718 bound_to 10713
  154.6929  135.5206  153.8417 H   0  0  0  0  0  0  0  0  0  0  0  0  # atno 10763 bound_to 10752
  153.0645  135.6580  154.0395 H   0  0  0  0  0  0  0  0  0  0  0  0  # atno 10764 bound_to 10752
  154.0266  135.2989  155.3354 H   0  0  0  0  0  0  0  0  0  0  0  0  # atno 10765 bound_to 10752
  140.3680  134.2053  155.7668 H   0  0  0  0  0  0  0  0  0  0  0  0  # atno 11005 bound_to 11000
  146.3531  140.0752  142.8621 LP  0  0  0  0  0  0  0  0  0  0  0  0  # atno 17320 bound_to 7965
  145.1060  140.9375  143.4684 LP  0  0  0  0  0  0  0  0  0  0  0  0  # atno 17321 bound_to 7965
  139.5219  144.7052  151.5376 LP  0  0  0  0  0  0  0  0  0  0  0  0  # atno 17342 bound_to 10162
  140.6393  143.8921  150.6677 LP  0  0  0  0  0  0  0  0  0  0  0  0  # atno 17343 bound_to 10162
  156.8282  130.9383  151.3638 LP  0  0  0  0  0  0  0  0  0  0  0  0  # atno 17370 bound_to 10713
  157.6440  130.8829  149.9503 LP  0  0  0  0  0  0  0  0  0  0  0  0  # atno 17371 bound_to 10713
  141.1963  133.8085  157.0676 LP  0  0  0  0  0  0  0  0  0  0  0  0  # atno 17394 bound_to 11000
  140.0574  134.9773  157.1244 LP  0  0  0  0  0  0  0  0  0  0  0  0  # atno 17395 bound_to 11000

$$$$
