AV-unprocessed.smi:37|AV-procd|sdf|320|dock6
  -GOLD-   2262016143D 1   1.00000     0.00000
 Structure written by MMmdl.
 43 44  0  0  0  0  0  0  0  0  2 V2000
  147.3151  134.6674  162.3861 C   0  0  0  0  0  0  0  0  0  0  0  0
  147.7413  134.7387  160.9122 C   0  0  0  0  0  0  0  0  0  0  0  0
  148.0393  136.1593  160.4283 C   0  0  0  0  0  0  0  0  0  0  0  0
  147.8686  137.1511  161.1396 O   0  0  0  0  0  0  0  0  0  0  0  0
  148.4936  136.1699  159.1684 O   0  0  0  0  0  0  0  0  0  0  0  0
  149.3881  137.1856  158.7439 C   0  0  0  0  0  0  0  0  0  0  0  0
  150.4891  136.6023  157.8409 C   0  0  1  0  0  0  0  0  0  0  0  0
  150.2181  135.2316  157.5586 O   0  0  0  0  0  0  0  0  0  0  0  0
  150.8247  134.9381  156.3402 C   0  0  1  0  0  0  0  0  0  0  0  0
  150.3673  133.5777  155.8402 N   0  0  0  0  0  0  0  0  0  0  0  0
  149.7022  133.4360  154.6317 C   0  0  0  0  0  0  0  0  0  0  0  0
  149.3384  132.2249  154.1633 C   0  0  0  0  0  0  0  0  0  0  0  0
  148.6910  132.1282  152.9892 F   0  0  0  0  0  0  0  0  0  0  0  0
  149.6682  131.0259  154.9286 C   0  0  0  0  0  0  0  0  0  0  0  0
  149.3031  129.9260  154.5161 O   0  0  0  0  0  0  0  0  0  0  0  0
  150.3862  131.1842  156.0772 N   0  5  0  0  0  0  0  0  0  0  0  0
  150.7753  132.4075  156.5430 C   0  0  0  0  0  0  0  0  0  0  0  0
  151.4797  132.5436  157.5431 O   0  0  0  0  0  0  0  0  0  0  0  0
  150.4154  136.1434  155.4811 C   0  0  1  0  0  0  0  0  0  0  0  0
  148.4554  136.1326  155.0554 Br  0  0  0  0  0  0  0  0  0  0  0  0
  150.7165  137.2719  156.4668 C   0  0  1  0  0  0  0  0  0  0  0  0
  149.9361  138.4432  156.2477 O   0  0  0  0  0  0  0  0  0  0  0  0
  150.2272  139.2757  155.2336 C   0  0  0  0  0  0  0  0  0  0  0  0
  151.3494  139.4687  154.7624 O   0  0  0  0  0  0  0  0  0  0  0  0
  148.9789  139.9787  154.6971 C   0  0  0  0  0  0  0  0  0  0  0  0
  149.1019  141.5096  154.6643 C   0  0  0  0  0  0  0  0  0  0  0  0
  147.1270  133.6352  162.6811 H   0  0  0  0  0  0  0  0  0  0  0  0
  146.3997  135.2329  162.5638 H   0  0  0  0  0  0  0  0  0  0  0  0
  148.0908  135.0616  163.0440 H   0  0  0  0  0  0  0  0  0  0  0  0
  148.6321  134.1289  160.7585 H   0  0  0  0  0  0  0  0  0  0  0  0
  146.9589  134.3156  160.2817 H   0  0  0  0  0  0  0  0  0  0  0  0
  148.8428  137.9595  158.2017 H   0  0  0  0  0  0  0  0  0  0  0  0
  149.8360  137.6583  159.6187 H   0  0  0  0  0  0  0  0  0  0  0  0
  151.4302  136.6409  158.3911 H   0  0  0  0  0  0  0  0  0  0  0  0
  151.9065  134.8434  156.4556 H   0  0  0  0  0  0  0  0  0  0  0  0
  149.4715  134.3007  154.0299 H   0  0  0  0  0  0  0  0  0  0  0  0
  150.9881  136.2048  154.5555 H   0  0  0  0  0  0  0  0  0  0  0  0
  151.7773  137.5213  156.4041 H   0  0  0  0  0  0  0  0  0  0  0  0
  148.7787  139.6051  153.6924 H   0  0  0  0  0  0  0  0  0  0  0  0
  148.1284  139.6917  155.3156 H   0  0  0  0  0  0  0  0  0  0  0  0
  148.1948  141.9593  154.2606 H   0  0  0  0  0  0  0  0  0  0  0  0
  149.9346  141.8289  154.0360 H   0  0  0  0  0  0  0  0  0  0  0  0
  149.2551  141.9180  155.6639 H   0  0  0  0  0  0  0  0  0  0  0  0
  1  2  1  0  0  0  0
  1 27  1  0  0  0  0
  1 28  1  0  0  0  0
  1 29  1  0  0  0  0
  2  3  1  0  0  0  0
  2 30  1  0  0  0  0
  2 31  1  0  0  0  0
  3  4  2  0  0  0  0
  3  5  1  0  0  0  0
  5  6  1  0  0  0  0
  6  7  1  0  0  0  0
  6 32  1  0  0  0  0
  6 33  1  0  0  0  0
  7 21  1  0  0  0  0
  7  8  1  0  0  0  0
  7 34  1  0  0  0  0
  8  9  1  0  0  0  0
  9 10  1  0  0  0  0
  9 19  1  0  0  0  0
  9 35  1  0  0  0  0
 10 17  1  0  0  0  0
 10 11  1  0  0  0  0
 11 12  2  0  0  0  0
 11 36  1  0  0  0  0
 12 13  1  0  0  0  0
 12 14  1  0  0  0  0
 14 15  2  0  0  0  0
 14 16  1  0  0  0  0
 16 17  1  0  0  0  0
 17 18  2  0  0  0  0
 19 20  1  0  0  0  0
 19 21  1  0  0  0  0
 19 37  1  0  0  0  0
 21 22  1  0  0  0  0
 21 38  1  0  0  0  0
 22 23  1  0  0  0  0
 23 24  2  0  0  0  0
 23 25  1  0  0  0  0
 25 26  1  0  0  0  0
 25 39  1  0  0  0  0
 25 40  1  0  0  0  0
 26 41  1  0  0  0  0
 26 42  1  0  0  0  0
 26 43  1  0  0  0  0
M  CHG  1  16  -1
M  END
> <s_m_source_file>
AV-unprocessed.smi

> <i_m_source_file_index>
37

> <i_lp_mmshare_version>
43012

> <i_f3d_flags>
0

> <s_epik_input>
W0NIM11bQ0gyXUMoPU8pT1tDSDJdW0NAQEhdMU9bQ0BASF0objJbY0hdYyhGKWMoPU8pW25IXWMyPU8pW0NAQEhdKEJyKVtDQEhdMU9DKD1PKVtDSDJdW0NIM10=

> <s_epik_cmdline>
J2VwaWtfcHl0aG9uJywgJy1waCcsICc3LjAnLCAnLXRuJywgJzgnLCAnLW1hJywgJzIwMCcsICctbWV0YWxfYmluZGluZycsICctaW1hZScsICc8aW5maWxlLm1hZT4nLCAnLW9tYWUnLCAnPG91dGZpbGUubWFlPic=

> <r_epik_Ionization_Penalty>
1.08158

> <r_epik_Ionization_Penalty_Charging>
9.05154e-09

> <r_epik_Ionization_Penalty_Neutral>
1.08158

> <r_epik_State_Penalty>
1.13706

> <r_epik_Charging_Adjusted_Penalty>
1.13706

> <i_epik_Tot_Q>
-1

> <i_epik_Tot_abs_Q>
1

> <r_epik_Metal_State_Penalty>
0.00343535

> <b_epik_Metal_Only>
0

> <s_epik_Chemistry_Notes>
This compound has an ester and may undergo hydrolysis at high or low pH. This compound contains an acetal/aminal-like group ( X-CH(R)-Y where X, Y are N, S, or O) that may be acid/base labile, releasing an aldehyde.

> <s_lp_Force_Field>
OPLS_2005

> <r_lp_Energy>
41.8028

> <b_lp_Chiralities_Consistent>
1

> <s_lp_Variant>
AV-unprocessed.smi:37-18

> <Gold.Version>
5.8.1

> <Gold.Id.Protein>
6NUR|6NUR_protein|mol2

> <Gold.PLP.Fitness>
48.8820

> <Gold.PLP.PLP>
-40.1592

> <Gold.PLP.part.hbond>
-4.9193

> <Gold.PLP.part.metal>
0.0000

> <Gold.PLP.part.buried>
-3.1543

> <Gold.PLP.part.nonpolar>
-32.2064

> <Gold.PLP.part.repulsive>
0.1319

> <Gold.PLP.ligand.clash>
0.0000

> <Gold.PLP.ligand.torsion>
1.9749

> <Gold.PLP.Chemscore.Hbond>
3.7460

> <Gold.PLP.Chemscore.CHOScore>
0.4067

> <Gold.PLP.Chemscore.Metal>
0.0000

> <Gold.Chemscore.Hbonds>
donor molecule, donor type, donor heavy atom, donor atom, acceptor molecule, acceptor atom, score
      P1  H  6896  6907       L1    18  1.00
      P1  H  6896  6908       L1     8  0.03
      P1  H  6931  6943       L1     4  0.99
      P1  H  6934  6947       L1     4  0.78
      P1  H  7989  7998       L1    24  1.00
      L1  C    11    36       P1  7948  0.04

> <Gold.PLP.Chemscore.Internal.Correction>
0.2145

> <Gold.Rescore>
     Score         DG    S(hbond)    S(metal)    S(lipo)     H(rot)  DE(clash)    DE(int)     intcor
     12.44     -16.35       3.74        0.00      57.58       3.27       0.63       3.27       ----

> <Gold.Chemscore.Fitness>
12.4420

> <Gold.Chemscore.DG>
-16.3512

> <Gold.Chemscore.ZeroCoef>
-5.4800

> <Gold.Chemscore.Hbond>
3.7419

> <Gold.Chemscore.Metal>
0.0000

> <Gold.Chemscore.Lipo>
57.5768

> <Gold.Chemscore.Internal_Hbond>
0.0000

> <Gold.Chemscore.DEClash>
0.6344

> <Gold.Chemscore.DEInternal>
3.2747

> <Gold.Chemscore.Rot>
3.2669

> <Gold.Chemscore.Internal.Correction>
   9.000000E+99

> <Gold.Chemscore.Hbonds>
donor molecule, donor type, donor heavy atom, donor atom, acceptor molecule, acceptor atom, score
      P1  H  6896  6907       L1    18  0.99
      P1  H  6931  6943       L1     4  0.93
      P1  H  6934  6947       L1     4  0.75
      P1  H  7989  7998       L1    24  0.98

> <Gold.Chemscore.Hbond.Weighted>
-12.4980

> <Gold.Chemscore.Metal.Weighted>
-0.0000

> <Gold.Chemscore.Lipo.Weighted>
-6.7365

> <Gold.Chemscore.Internal_Hbond.Weighted>
0.0000

> <Gold.Chemscore.DEClash.Weighted>
0.6344

> <Gold.Chemscore.DEInternal.Weighted>
3.2747

> <Gold.Chemscore.Rot.Weighted>
8.3634

> <Gold.Chemscore.Internal.Correction.Weighted>
   9.000000E+99

> <Gold.Protein.RotatedTorsions>
[ 6907 6896 6895 6894 ] final -164.17 input  -60.11 | X-H torsion
[ 7974 7965 7964 7962 ] final   67.15 input  175.53 | X-H torsion
[ 8008 7997 7996 7995 ] final   96.63 input   59.86 | X-H torsion
[ 10167 10162 10161 10158 ] final  -94.73 input  -65.29 | X-H torsion
[ 10718 10713 10712 10709 ] final  160.81 input   66.30 | X-H torsion
[ 10763 10752 10751 10750 ] final  105.03 input  -60.55 | X-H torsion
[ 11005 11000 10999 10996 ] final -138.16 input  -57.11 | X-H torsion

> <Gold.Protein.ActiveResidues>
 VAL166  LYS551  ARG553  GLY616  TRP617  ASP618  TYR619  PRO620  LYS621  CYS622 
 ASP623  PHE694  ASN695  SER759  ASP760  ASP761  ALA762  ILE779  LEU786  VAL792 
 PHE793  MET794  SER795  GLU796  ALA797  LYS798  CYS799  TRP800  GLU811  SER814 

> <Gold.Protein.RotatedAtoms>
  151.4077  133.3737  159.2739 H   0  0  0  0  0  0  0  0  0  0  0  0  # atno 6907 bound_to 6896
  150.9386  134.8798  159.7608 H   0  0  0  0  0  0  0  0  0  0  0  0  # atno 6908 bound_to 6896
  152.5061  134.4026  159.9473 H   0  0  0  0  0  0  0  0  0  0  0  0  # atno 6909 bound_to 6896
  145.8180  139.3069  143.1060 H   0  0  0  0  0  0  0  0  0  0  0  0  # atno 7974 bound_to 7965
  156.0816  140.3270  155.7701 H   0  0  0  0  0  0  0  0  0  0  0  0  # atno 8008 bound_to 7997
  155.5143  140.0579  157.2935 H   0  0  0  0  0  0  0  0  0  0  0  0  # atno 8009 bound_to 7997
  154.4585  140.1955  156.0327 H   0  0  0  0  0  0  0  0  0  0  0  0  # atno 8010 bound_to 7997
  140.3114  143.3103  152.0144 H   0  0  0  0  0  0  0  0  0  0  0  0  # atno 10167 bound_to 10162
  157.1453  131.0550  151.2307 H   0  0  0  0  0  0  0  0  0  0  0  0  # atno 10718 bound_to 10713
  153.3739  135.3923  155.1809 H   0  0  0  0  0  0  0  0  0  0  0  0  # atno 10763 bound_to 10752
  154.8698  135.3709  154.4942 H   0  0  0  0  0  0  0  0  0  0  0  0  # atno 10764 bound_to 10752
  153.5413  135.7084  153.5696 H   0  0  0  0  0  0  0  0  0  0  0  0  # atno 10765 bound_to 10752
  140.8642  134.2131  157.4689 H   0  0  0  0  0  0  0  0  0  0  0  0  # atno 11005 bound_to 11000
  145.9705  140.8764  143.0165 LP  0  0  0  0  0  0  0  0  0  0  0  0  # atno 17320 bound_to 7965
  144.6750  140.1939  143.7394 LP  0  0  0  0  0  0  0  0  0  0  0  0  # atno 17321 bound_to 7965
  139.4893  144.6382  151.6933 LP  0  0  0  0  0  0  0  0  0  0  0  0  # atno 17342 bound_to 10162
  140.5565  144.0340  150.6150 LP  0  0  0  0  0  0  0  0  0  0  0  0  # atno 17343 bound_to 10162
  157.4270  130.7469  149.6959 LP  0  0  0  0  0  0  0  0  0  0  0  0  # atno 17370 bound_to 10713
  155.9781  130.4055  150.3672 LP  0  0  0  0  0  0  0  0  0  0  0  0  # atno 17371 bound_to 10713
  139.8708  134.9744  156.4844 LP  0  0  0  0  0  0  0  0  0  0  0  0  # atno 17394 bound_to 11000
  140.8648  133.8032  155.9302 LP  0  0  0  0  0  0  0  0  0  0  0  0  # atno 17395 bound_to 11000

$$$$
