#       Name:                AV-unprocessed.smi:93
#       Creating user name   scv26
#       Creation time:       Thu Mar 26 17:28:58 2020


#       File generated by GOLD software.
#

@<TRIPOS>MOLECULE
AV-unprocessed.smi:93
    61    63     1
SMALL
NO_CHARGES


@<TRIPOS>ATOM
      1 ****         0.4835   3.3678  -1.1178 C.3            1 S1                 0.0000
      2 ****         1.1576   2.0967  -1.3594 N.pl3          1 S1                 0.0000
      3 ****         2.6160   2.0746  -1.5317 C.3            1 S1                 0.0000
      4 ****         3.4309   1.7484  -0.2432 C.3            1 S1                 0.0000
      5 ****         3.1521   0.3057   0.2382 C.3            1 S1                 0.0000
      6 ****         4.9392   1.9012  -0.5769 C.3            1 S1                 0.0000
      7 ****         5.3577   1.0333  -1.6126 O.3            1 S1                 0.0000
      8 ****         3.0615   2.7521   0.8818 C.3            1 S1                 0.0000
      9 ****         3.8294   2.5680   2.0552 O.3            1 S1                 0.0000
     10 ****         0.4147   0.9606  -1.4751 C.ar           1 S1                 0.0000
     11 ****         0.9081  -0.0704  -2.2113 N.ar           1 S1                 0.0000
     12 ****         0.2195  -1.2062  -2.3466 C.ar           1 S1                 0.0000
     13 ****        -0.9683  -1.5258  -1.8331 N.ar           1 S1                 0.0000
     14 ****        -1.4735  -0.5035  -1.0861 C.ar           1 S1                 0.0000
     15 ****        -0.8598   0.7635  -0.8612 C.ar           1 S1                 0.0000
     16 ****        -1.6801   1.5352  -0.0442 N.2            1 S1                 0.0000
     17 ****        -2.7132   0.7754   0.1929 C.2            1 S1                 0.0000
     18 ****        -2.6657  -0.4729  -0.3831 N.pl3          1 S1                 0.0000
     19 ****        -3.6692  -1.5212  -0.2730 C.3            1 S1                 0.0000
     20 ****        -3.5889  -2.3140   1.0532 C.3            1 S1                 0.0000
     21 ****        -3.8738  -1.4372   2.1302 O.3            1 S1                 0.0000
     22 ****        -4.5704  -3.4772   1.1120 C.3            1 S1                 0.0000
     23 ****        -3.8760  -4.4529   2.0524 C.3            1 S1                 0.0000
     24 ****        -2.5142  -4.3473   1.6729 O.3            1 S1                 0.0000
     25 ****        -2.2308  -2.9952   1.3234 C.3            1 S1                 0.0000
     26 ****        -0.4143   3.4530  -1.7309 H              1 S1                 0.0000
     27 ****         1.1305   4.2098  -1.3638 H              1 S1                 0.0000
     28 ****         0.1988   3.4628  -0.0702 H              1 S1                 0.0000
     29 ****         2.8906   1.3915  -2.3353 H              1 S1                 0.0000
     30 ****         2.9215   3.0554  -1.8973 H              1 S1                 0.0000
     31 ****         3.8092   0.0253   1.0617 H              1 S1                 0.0000
     32 ****         3.3069  -0.4205  -0.5602 H              1 S1                 0.0000
     33 ****         2.1278   0.1898   0.5922 H              1 S1                 0.0000
     34 ****         5.1610   2.9254  -0.8782 H              1 S1                 0.0000
     35 ****         5.5576   1.6920   0.2966 H              1 S1                 0.0000
     36 ****         6.2825   1.1628  -1.7573 H              1 S1                 0.0000
     37 ****         3.1961   3.7788   0.5396 H              1 S1                 0.0000
     38 ****         2.0147   2.6469   1.1661 H              1 S1                 0.0000
     39 ****         3.5356   3.1866   2.7064 H              1 S1                 0.0000
     40 ****         0.6890  -1.9681  -2.9512 H              1 S1                 0.0000
     41 ****        -3.5393   1.1030   0.8075 H              1 S1                 0.0000
     42 ****        -4.6540  -1.0649  -0.3822 H              1 S1                 0.0000
     43 ****        -3.5518  -2.1968  -1.1212 H              1 S1                 0.0000
     44 ****        -3.8116  -1.9248   2.9372 H              1 S1                 0.0000
     45 ****        -5.5695  -3.1944   1.4464 H              1 S1                 0.0000
     46 ****        -4.6677  -3.9403   0.1291 H              1 S1                 0.0000
     47 ****        -3.9915  -4.1447   3.0927 H              1 S1                 0.0000
     48 ****        -4.2440  -5.4738   1.9510 H              1 S1                 0.0000
     49 ****        -1.5928  -3.0084   0.4406 H              1 S1                 0.0000
     50 ****        -1.6719  -2.5055   2.1223 H              1 S1                 0.0000
     51 ****         4.8530   1.2403  -2.4507 LP             1 S1                 0.0000
     52 ****         5.1876   0.0844  -1.3468 LP             1 S1                 0.0000
     53 ****         4.7963   2.7244   1.8535 LP             1 S1                 0.0000
     54 ****         3.7065   1.6359   2.3959 LP             1 S1                 0.0000
     55 ****         1.7983   0.0232  -2.6572 LP             1 S1                 0.0000
     56 ****        -1.4289  -2.4016  -1.9771 LP             1 S1                 0.0000
     57 ****        -1.5146   2.4642   0.2870 LP             1 S1                 0.0000
     58 ****        -4.7976  -1.0678   2.0294 LP             1 S1                 0.0000
     59 ****        -3.2135  -0.6862   2.1379 LP             1 S1                 0.0000
     60 ****        -2.3387  -4.9401   0.8870 LP             1 S1                 0.0000
     61 ****        -1.9313  -4.6250   2.4366 LP             1 S1                 0.0000
@<TRIPOS>BOND
    1    1    2 1     
    2    1   26 1     
    3    1   27 1     
    4    1   28 1     
    5    2    3 1     
    6    2   10 1     
    7    3    4 1     
    8    3   29 1     
    9    3   30 1     
   10    4    5 1     
   11    4    6 1     
   12    4    8 1     
   13    5   31 1     
   14    5   32 1     
   15    5   33 1     
   16    6    7 1     
   17    6   34 1     
   18    6   35 1     
   19    7   36 1     
   20    8    9 1     
   21    8   37 1     
   22    8   38 1     
   23    9   39 1     
   24   10   15 ar    
   25   10   11 ar    
   26   11   12 ar    
   27   12   13 ar    
   28   12   40 1     
   29   13   14 ar    
   30   14   18 1     
   31   14   15 ar    
   32   15   16 1     
   33   16   17 2     
   34   17   18 1     
   35   17   41 1     
   36   18   19 1     
   37   19   20 1     
   38   19   42 1     
   39   19   43 1     
   40   20   25 1     
   41   20   21 1     
   42   20   22 1     
   43   21   44 1     
   44   22   23 1     
   45   22   45 1     
   46   22   46 1     
   47   23   24 1     
   48   23   47 1     
   49   23   48 1     
   50   24   25 1     
   51   25   49 1     
   52   25   50 1     
   53    7   51 1     
   54    7   52 1     
   55    9   53 1     
   56    9   54 1     
   57   11   55 1     
   58   13   56 1     
   59   16   57 1     
   60   21   58 1     
   61   21   59 1     
   62   24   60 1     
   63   24   61 1     
@<TRIPOS>SUBSTRUCTURE
      1 S1             1
@<TRIPOS>SET
LONE_PAIRS      STATIC     ATOMS    <user>   **** ""
11 51 52 53 54 55 56 57 58 59 60 61
DONOR_HYDROGENS      STATIC     ATOMS    <user>   **** ""
3 36 39 44
ATOM$BLUE        STATIC     ATOMS    COLORGROUP SYSTEM
11 51 52 53 54 55 56 57 58 59 60 61
ATOM$RED        STATIC     ATOMS    COLORGROUP SYSTEM
3 36 39 44
