AV-unprocessed.smi:1083|AV-procd|sdf|4715|dock2
  -GOLD-   22720 3243D 1   1.00000     0.00000
 Structure written by MMmdl.
 43 45  0  0  0  0  0  0  0  0  1 V2000
  145.1707  137.9286  153.4668 O   0  0  0  0  0  0  0  0  0  0  0  0
  146.2276  137.4332  153.0754 C   0  0  0  0  0  0  0  0  0  0  0  0
  147.4300  138.0279  153.1361 N   0  0  0  0  0  0  0  0  0  0  0  0
  147.7331  139.3356  153.6087 C   0  0  0  0  0  0  0  0  0  0  0  0
  146.7810  140.3829  153.5860 C   0  0  0  0  0  0  0  0  0  0  0  0
  147.1294  141.6379  154.1162 C   0  0  0  0  0  0  0  0  0  0  0  0
  148.4153  141.7984  154.6615 C   0  0  0  0  0  0  0  0  0  0  0  0
  149.3287  140.8071  154.7021 N   0  0  0  0  0  0  0  0  0  0  0  0
  149.0037  139.5949  154.1898 C   0  0  0  0  0  0  0  0  0  0  0  0
  149.9899  138.5888  154.2262 N   0  0  0  0  0  0  0  0  0  0  0  0
  151.3349  139.0969  154.4725 C   0  0  0  0  0  0  0  0  0  0  0  0
  152.3694  137.9838  154.2333 C   0  0  0  0  0  0  0  0  0  0  0  0
  152.0547  136.8539  155.0427 O   0  0  0  0  0  0  0  0  0  0  0  0
  150.7687  136.3190  154.7417 C   0  0  0  0  0  0  0  0  0  0  0  0
  149.6920  137.3870  154.9994 C   0  0  0  0  0  0  0  0  0  0  0  0
  146.3157  136.2239  152.5046 N   0  0  0  0  0  0  0  0  0  0  0  0
  145.1895  135.3300  152.2487 C   0  0  0  0  0  0  0  0  0  0  0  0
  145.4804  133.9159  152.7887 C   0  0  0  0  0  0  0  0  0  0  0  0
  145.1715  132.9499  151.6431 C   0  0  0  0  0  0  0  0  0  0  0  0
  145.4272  133.7647  150.3794 C   0  0  0  0  0  0  0  0  0  0  0  0
  144.9374  135.1677  150.7367 C   0  0  0  0  0  0  0  0  0  0  0  0
  148.1925  137.5413  152.6879 H   0  0  0  0  0  0  0  0  0  0  0  0
  145.7878  140.2373  153.1891 H   0  0  0  0  0  0  0  0  0  0  0  0
  146.4239  142.4556  154.1126 H   0  0  0  0  0  0  0  0  0  0  0  0
  148.7174  142.7464  155.0812 H   0  0  0  0  0  0  0  0  0  0  0  0
  151.5553  139.9497  153.8304 H   0  0  0  0  0  0  0  0  0  0  0  0
  151.3986  139.4509  155.5024 H   0  0  0  0  0  0  0  0  0  0  0  0
  152.3931  137.6957  153.1810 H   0  0  0  0  0  0  0  0  0  0  0  0
  153.3681  138.3372  154.4894 H   0  0  0  0  0  0  0  0  0  0  0  0
  150.7383  135.9777  153.7056 H   0  0  0  0  0  0  0  0  0  0  0  0
  150.5907  135.4464  155.3703 H   0  0  0  0  0  0  0  0  0  0  0  0
  149.6629  137.6300  156.0626 H   0  0  0  0  0  0  0  0  0  0  0  0
  148.7091  137.0021  154.7251 H   0  0  0  0  0  0  0  0  0  0  0  0
  147.2262  135.9016  152.2114 H   0  0  0  0  0  0  0  0  0  0  0  0
  144.2910  135.7236  152.7279 H   0  0  0  0  0  0  0  0  0  0  0  0
  146.5314  133.8157  153.0645 H   0  0  0  0  0  0  0  0  0  0  0  0
  144.8929  133.6883  153.6788 H   0  0  0  0  0  0  0  0  0  0  0  0
  145.7722  132.0412  151.6865 H   0  0  0  0  0  0  0  0  0  0  0  0
  144.1215  132.6567  151.6827 H   0  0  0  0  0  0  0  0  0  0  0  0
  146.4971  133.7909  150.1684 H   0  0  0  0  0  0  0  0  0  0  0  0
  144.9234  133.3538  149.5041 H   0  0  0  0  0  0  0  0  0  0  0  0
  143.8658  135.2328  150.5441 H   0  0  0  0  0  0  0  0  0  0  0  0
  145.4171  135.9365  150.1290 H   0  0  0  0  0  0  0  0  0  0  0  0
  1  2  2  0  0  0  0
  2  3  1  0  0  0  0
  2 16  1  0  0  0  0
  3  4  1  0  0  0  0
  3 22  1  0  0  0  0
  4  9  1  0  0  0  0
  4  5  2  0  0  0  0
  5  6  1  0  0  0  0
  5 23  1  0  0  0  0
  6  7  2  0  0  0  0
  6 24  1  0  0  0  0
  7  8  1  0  0  0  0
  7 25  1  0  0  0  0
  8  9  2  0  0  0  0
  9 10  1  0  0  0  0
 10 15  1  0  0  0  0
 10 11  1  0  0  0  0
 11 12  1  0  0  0  0
 11 26  1  0  0  0  0
 11 27  1  0  0  0  0
 12 13  1  0  0  0  0
 12 28  1  0  0  0  0
 12 29  1  0  0  0  0
 13 14  1  0  0  0  0
 14 15  1  0  0  0  0
 14 30  1  0  0  0  0
 14 31  1  0  0  0  0
 15 32  1  0  0  0  0
 15 33  1  0  0  0  0
 16 17  1  0  0  0  0
 16 34  1  0  0  0  0
 17 21  1  0  0  0  0
 17 18  1  0  0  0  0
 17 35  1  0  0  0  0
 18 19  1  0  0  0  0
 18 36  1  0  0  0  0
 18 37  1  0  0  0  0
 19 20  1  0  0  0  0
 19 38  1  0  0  0  0
 19 39  1  0  0  0  0
 20 21  1  0  0  0  0
 20 40  1  0  0  0  0
 20 41  1  0  0  0  0
 21 42  1  0  0  0  0
 21 43  1  0  0  0  0
M  END
> <s_m_source_file>
AV-unprocessed.smi

> <i_m_source_file_index>
1083

> <i_lp_mmshare_version>
43012

> <i_f3d_flags>
0

> <s_epik_input>
W0NIMl0xW0NIMl1bQ0gyXVtDSDJdW0NIXTFbTkhdQyg9TylbTkhdYzJbY0hdW2NIXVtjSF1uYzJOM1tDSDJdW0NIMl1PW0NIMl1bQ0gyXTM=

> <s_epik_cmdline>
J2VwaWtfcHl0aG9uJywgJy1waCcsICc3LjAnLCAnLXRuJywgJzgnLCAnLW1hJywgJzIwMCcsICctbWV0YWxfYmluZGluZycsICctaW1hZScsICc8aW5maWxlLm1hZT4nLCAnLW9tYWUnLCAnPG91dGZpbGUubWFlPic=

> <r_lp_tautomer_probability>
1

> <r_epik_Ionization_Penalty>
0.00217669

> <r_epik_Ionization_Penalty_Charging>
0

> <r_epik_Ionization_Penalty_Neutral>
0.00217669

> <r_epik_State_Penalty>
0.00146536

> <r_epik_Charging_Adjusted_Penalty>
0.00146536

> <i_epik_Tot_Q>
0

> <i_epik_Tot_abs_Q>
0

> <r_epik_Metal_State_Penalty>
-0

> <b_epik_Metal_Only>
0

> <s_lp_Force_Field>
OPLS_2005

> <r_lp_Energy>
35.5183

> <b_lp_Chiralities_Consistent>
1

> <s_lp_Variant>
AV-unprocessed.smi:1083-1

> <Gold.Version>
5.8.1

> <Gold.Id.Protein>
6NUR|6NUR_protein|mol2

> <Gold.PLP.Fitness>
42.8443

> <Gold.PLP.PLP>
-31.6358

> <Gold.PLP.part.hbond>
-3.0000

> <Gold.PLP.part.metal>
0.0000

> <Gold.PLP.part.buried>
-2.0729

> <Gold.PLP.part.nonpolar>
-27.9003

> <Gold.PLP.part.repulsive>
0.8069

> <Gold.PLP.ligand.clash>
0.0025

> <Gold.PLP.ligand.torsion>
0.4633

> <Gold.PLP.Chemscore.Hbond>
2.9760

> <Gold.PLP.Chemscore.CHOScore>
1.0000

> <Gold.PLP.Chemscore.Metal>
0.0000

> <Gold.Chemscore.Hbonds>
donor molecule, donor type, donor heavy atom, donor atom, acceptor molecule, acceptor atom, score
      L1  H     3    22       P1  7948  1.00
      L1  H    16    34       P1  7948  1.00
      P1  H 10752 10765       L1    13  0.94
      L1  C     7    25       P1  8028  1.00

> <Gold.PLP.Chemscore.Internal.Correction>
0.2095

> <Gold.Rescore>
     Score         DG    S(hbond)    S(metal)    S(lipo)     H(rot)  DE(clash)    DE(int)     intcor
     15.76     -18.76       2.26        0.00      74.89       1.19       0.37       2.63       ----

> <Gold.Chemscore.Fitness>
15.7579

> <Gold.Chemscore.DG>
-18.7562

> <Gold.Chemscore.ZeroCoef>
-5.4800

> <Gold.Chemscore.Hbond>
2.2642

> <Gold.Chemscore.Metal>
0.0000

> <Gold.Chemscore.Lipo>
74.8928

> <Gold.Chemscore.Internal_Hbond>
0.0000

> <Gold.Chemscore.DEClash>
0.3722

> <Gold.Chemscore.DEInternal>
2.6261

> <Gold.Chemscore.Rot>
1.1909

> <Gold.Chemscore.Internal.Correction>
   9.000000E+99

> <Gold.Chemscore.Hbonds>
donor molecule, donor type, donor heavy atom, donor atom, acceptor molecule, acceptor atom, score
      L1  H     3    22       P1  7948  0.99
      L1  H    16    34       P1  7948  0.95
      P1  H 10752 10765       L1    13  0.28

> <Gold.Chemscore.Hbond.Weighted>
-7.5624

> <Gold.Chemscore.Metal.Weighted>
-0.0000

> <Gold.Chemscore.Lipo.Weighted>
-8.7625

> <Gold.Chemscore.Internal_Hbond.Weighted>
0.0000

> <Gold.Chemscore.DEClash.Weighted>
0.3722

> <Gold.Chemscore.DEInternal.Weighted>
2.6261

> <Gold.Chemscore.Rot.Weighted>
3.0487

> <Gold.Chemscore.Internal.Correction.Weighted>
   9.000000E+99

> <Gold.Protein.RotatedTorsions>
[ 6907 6896 6895 6894 ] final  -45.99 input  -60.11 | X-H torsion
[ 7974 7965 7964 7962 ] final   13.99 input  175.53 | X-H torsion
[ 8008 7997 7996 7995 ] final -129.96 input   59.86 | X-H torsion
[ 10167 10162 10161 10158 ] final  -93.70 input  -65.29 | X-H torsion
[ 10718 10713 10712 10709 ] final -165.82 input   66.30 | X-H torsion
[ 10763 10752 10751 10750 ] final -167.95 input  -60.55 | X-H torsion
[ 11005 11000 10999 10996 ] final  110.62 input  -57.11 | X-H torsion

> <Gold.Protein.ActiveResidues>
 VAL166  LYS551  ARG553  GLY616  TRP617  ASP618  TYR619  PRO620  LYS621  CYS622 
 ASP623  PHE694  ASN695  SER759  ASP760  ASP761  ALA762  ILE779  LEU786  VAL792 
 PHE793  MET794  SER795  GLU796  ALA797  LYS798  CYS799  TRP800  GLU811  SER814 

> <Gold.Protein.RotatedAtoms>
  150.9160  134.8577  159.7456 H   0  0  0  0  0  0  0  0  0  0  0  0  # atno 6907 bound_to 6896
  152.4968  134.4289  159.9515 H   0  0  0  0  0  0  0  0  0  0  0  0  # atno 6908 bound_to 6896
  151.4327  133.3626  159.2806 H   0  0  0  0  0  0  0  0  0  0  0  0  # atno 6909 bound_to 6896
  146.2316  139.9108  142.8525 H   0  0  0  0  0  0  0  0  0  0  0  0  # atno 7974 bound_to 7965
  155.2879  140.0447  157.3021 H   0  0  0  0  0  0  0  0  0  0  0  0  # atno 8008 bound_to 7997
  154.5558  140.2331  155.8380 H   0  0  0  0  0  0  0  0  0  0  0  0  # atno 8009 bound_to 7997
  156.2006  140.3026  155.9526 H   0  0  0  0  0  0  0  0  0  0  0  0  # atno 8010 bound_to 7997
  140.3220  143.3044  152.0036 H   0  0  0  0  0  0  0  0  0  0  0  0  # atno 10167 bound_to 10162
  156.6590  130.9038  151.3026 H   0  0  0  0  0  0  0  0  0  0  0  0  # atno 10718 bound_to 10713
  154.6679  135.2935  154.9781 H   0  0  0  0  0  0  0  0  0  0  0  0  # atno 10763 bound_to 10752
  154.0818  135.6603  153.4843 H   0  0  0  0  0  0  0  0  0  0  0  0  # atno 10764 bound_to 10752
  153.0469  135.5199  154.7661 H   0  0  0  0  0  0  0  0  0  0  0  0  # atno 10765 bound_to 10752
  139.8886  134.9488  156.6307 H   0  0  0  0  0  0  0  0  0  0  0  0  # atno 11005 bound_to 11000
  145.2232  140.9943  143.4033 LP  0  0  0  0  0  0  0  0  0  0  0  0  # atno 17320 bound_to 7965
  144.9593  139.3997  143.6364 LP  0  0  0  0  0  0  0  0  0  0  0  0  # atno 17321 bound_to 7965
  139.4872  144.6303  151.7082 LP  0  0  0  0  0  0  0  0  0  0  0  0  # atno 17342 bound_to 10162
  140.5475  144.0479  150.6113 LP  0  0  0  0  0  0  0  0  0  0  0  0  # atno 17343 bound_to 10162
  157.7116  130.9447  150.1108 LP  0  0  0  0  0  0  0  0  0  0  0  0  # atno 17370 bound_to 10713
  156.2026  130.3661  149.8770 LP  0  0  0  0  0  0  0  0  0  0  0  0  # atno 17371 bound_to 10713
  140.7669  133.8771  155.8461 LP  0  0  0  0  0  0  0  0  0  0  0  0  # atno 17394 bound_to 11000
  140.9875  134.1323  157.4439 LP  0  0  0  0  0  0  0  0  0  0  0  0  # atno 17395 bound_to 11000

$$$$
