AV-unprocessed.smi:331|AV-procd|sdf|2351|dock5
  -GOLD-   2262022263D 1   1.00000     0.00000
 Structure written by MMmdl.
 37 38  0  0  0  0  0  0  0  0  2 V2000
  153.2375  136.7535  159.7639 O   0  0  0  0  0  0  0  0  0  0  0  0
  153.5126  137.8877  160.1495 C   0  0  0  0  0  0  0  0  0  0  0  0
  153.0403  139.0019  159.5661 N   0  0  0  0  0  0  0  0  0  0  0  0
  152.1917  139.0339  158.3792 C   0  0  0  0  0  0  0  0  0  0  0  0
  150.9252  139.8905  158.5763 C   0  0  0  0  0  0  0  0  0  0  0  0
  151.1968  141.3853  158.5502 C   0  0  0  0  0  0  0  0  0  0  0  0
  152.1920  141.9514  159.3782 C   0  0  0  0  0  0  0  0  0  0  0  0
  152.4111  143.3441  159.3434 C   0  0  0  0  0  0  0  0  0  0  0  0
  151.6329  144.1396  158.4778 C   0  0  0  0  0  0  0  0  0  0  0  0
  150.6920  143.5626  157.6982 N   0  3  0  0  0  0  0  0  0  0  0  0
  150.4502  142.2333  157.7041 C   0  0  0  0  0  0  0  0  0  0  0  0
  154.3228  138.1055  161.2006 N   0  0  0  0  0  0  0  0  0  0  0  0
  154.9934  137.1118  162.0429 C   0  0  0  0  0  0  0  0  0  0  0  0
  153.9699  136.3557  162.9118 C   0  0  0  0  0  0  0  0  0  0  0  0
  154.5336  136.3613  164.3335 C   0  0  0  0  0  0  0  0  0  0  0  0
  155.3459  137.6495  164.4100 C   0  0  0  0  0  0  0  0  0  0  0  0
  155.9821  137.7723  163.0254 C   0  0  0  0  0  0  0  0  0  0  0  0
  153.3049  139.8917  159.9630 H   0  0  0  0  0  0  0  0  0  0  0  0
  152.7603  139.3856  157.5169 H   0  0  0  0  0  0  0  0  0  0  0  0
  151.9038  138.0057  158.1589 H   0  0  0  0  0  0  0  0  0  0  0  0
  150.1939  139.6507  157.8033 H   0  0  0  0  0  0  0  0  0  0  0  0
  150.4525  139.6326  159.5247 H   0  0  0  0  0  0  0  0  0  0  0  0
  152.7764  141.3277  160.0394 H   0  0  0  0  0  0  0  0  0  0  0  0
  153.1649  143.7948  159.9723 H   0  0  0  0  0  0  0  0  0  0  0  0
  151.7335  145.2112  158.3868 H   0  0  0  0  0  0  0  0  0  0  0  0
  149.6700  141.8917  157.0393 H   0  0  0  0  0  0  0  0  0  0  0  0
  154.4562  139.0691  161.4719 H   0  0  0  0  0  0  0  0  0  0  0  0
  155.5243  136.3911  161.4180 H   0  0  0  0  0  0  0  0  0  0  0  0
  153.0080  136.8710  162.9115 H   0  0  0  0  0  0  0  0  0  0  0  0
  153.7909  135.3430  162.5496 H   0  0  0  0  0  0  0  0  0  0  0  0
  153.7547  136.3088  165.0947 H   0  0  0  0  0  0  0  0  0  0  0  0
  155.1929  135.5037  164.4721 H   0  0  0  0  0  0  0  0  0  0  0  0
  154.6785  138.4945  164.5844 H   0  0  0  0  0  0  0  0  0  0  0  0
  156.0841  137.6357  165.2121 H   0  0  0  0  0  0  0  0  0  0  0  0
  156.9225  137.2200  163.0123 H   0  0  0  0  0  0  0  0  0  0  0  0
  156.2177  138.8082  162.7775 H   0  0  0  0  0  0  0  0  0  0  0  0
  150.1399  144.1563  157.0788 H   0  0  0  0  0  0  0  0  0  0  0  0
  1  2  2  0  0  0  0
  2  3  1  0  0  0  0
  2 12  1  0  0  0  0
  3  4  1  0  0  0  0
  3 18  1  0  0  0  0
  4  5  1  0  0  0  0
  4 19  1  0  0  0  0
  4 20  1  0  0  0  0
  5  6  1  0  0  0  0
  5 21  1  0  0  0  0
  5 22  1  0  0  0  0
  6 11  1  0  0  0  0
  6  7  2  0  0  0  0
  7  8  1  0  0  0  0
  7 23  1  0  0  0  0
  8  9  2  0  0  0  0
  8 24  1  0  0  0  0
  9 10  1  0  0  0  0
  9 25  1  0  0  0  0
 10 11  2  0  0  0  0
 10 37  1  0  0  0  0
 11 26  1  0  0  0  0
 12 13  1  0  0  0  0
 12 27  1  0  0  0  0
 13 17  1  0  0  0  0
 13 14  1  0  0  0  0
 13 28  1  0  0  0  0
 14 15  1  0  0  0  0
 14 29  1  0  0  0  0
 14 30  1  0  0  0  0
 15 16  1  0  0  0  0
 15 31  1  0  0  0  0
 15 32  1  0  0  0  0
 16 17  1  0  0  0  0
 16 33  1  0  0  0  0
 16 34  1  0  0  0  0
 17 35  1  0  0  0  0
 17 36  1  0  0  0  0
M  CHG  1  10   1
M  END
> <s_m_source_file>
AV-unprocessed.smi

> <i_m_source_file_index>
331

> <i_lp_mmshare_version>
43012

> <i_f3d_flags>
0

> <s_epik_input>
W0NIMl0xW0NIMl1bQ0gyXVtDSDJdW0NIXTFbTkhdQyg9TylbTkhdW0NIMl1bQ0gyXWMyW2NIXVtjSF1bY0hdbltjSF0y

> <s_epik_cmdline>
J2VwaWtfcHl0aG9uJywgJy1waCcsICc3LjAnLCAnLXRuJywgJzgnLCAnLW1hJywgJzIwMCcsICctbWV0YWxfYmluZGluZycsICctaW1hZScsICc8aW5maWxlLm1hZT4nLCAnLW9tYWUnLCAnPG91dGZpbGUubWFlPic=

> <r_epik_Ionization_Penalty>
2.21063

> <r_epik_Ionization_Penalty_Charging>
2.21057

> <r_epik_Ionization_Penalty_Neutral>
5.76468e-05

> <r_epik_State_Penalty>
2.35476

> <r_epik_Charging_Adjusted_Penalty>
4.56533

> <i_epik_Tot_Q>
1

> <i_epik_Tot_abs_Q>
1

> <r_epik_Metal_State_Penalty>
2.36886

> <b_epik_Metal_Only>
0

> <s_lp_Force_Field>
OPLS_2005

> <r_lp_Energy>
33.3407

> <b_lp_Chiralities_Consistent>
1

> <s_lp_Variant>
AV-unprocessed.smi:331-2

> <Gold.Version>
5.8.1

> <Gold.Id.Protein>
6NUR|6NUR_protein|mol2

> <Gold.PLP.Fitness>
44.1391

> <Gold.PLP.PLP>
-35.9467

> <Gold.PLP.part.hbond>
-2.0000

> <Gold.PLP.part.metal>
0.0000

> <Gold.PLP.part.buried>
-4.7348

> <Gold.PLP.part.nonpolar>
-30.6559

> <Gold.PLP.part.repulsive>
0.0867

> <Gold.PLP.ligand.clash>
0.0000

> <Gold.PLP.ligand.torsion>
0.2255

> <Gold.PLP.Chemscore.Hbond>
2.8775

> <Gold.PLP.Chemscore.CHOScore>
0.0000

> <Gold.PLP.Chemscore.Metal>
0.0000

> <Gold.Chemscore.Hbonds>
donor molecule, donor type, donor heavy atom, donor atom, acceptor molecule, acceptor atom, score
      L1  H    10    37       P1  8028  2.00
      P1  H  6896  6907       L1     1  0.59

> <Gold.PLP.Chemscore.Internal.Correction>
0.0109

> <Gold.Rescore>
     Score         DG    S(hbond)    S(metal)    S(lipo)     H(rot)  DE(clash)    DE(int)     intcor
     18.70     -19.04       1.96        0.00      94.78       1.59       0.11       0.23       ----

> <Gold.Chemscore.Fitness>
18.6996

> <Gold.Chemscore.DG>
-19.0357

> <Gold.Chemscore.ZeroCoef>
-5.4800

> <Gold.Chemscore.Hbond>
1.9595

> <Gold.Chemscore.Metal>
0.0000

> <Gold.Chemscore.Lipo>
94.7807

> <Gold.Chemscore.Internal_Hbond>
0.0000

> <Gold.Chemscore.DEClash>
0.1107

> <Gold.Chemscore.DEInternal>
0.2255

> <Gold.Chemscore.Rot>
1.5932

> <Gold.Chemscore.Internal.Correction>
   9.000000E+99

> <Gold.Chemscore.Hbonds>
donor molecule, donor type, donor heavy atom, donor atom, acceptor molecule, acceptor atom, score
      L1  H    10    37       P1  8028  0.87
      P1  H  6896  6907       L1     1  0.56

> <Gold.Chemscore.Hbond.Weighted>
-6.5449

> <Gold.Chemscore.Metal.Weighted>
-0.0000

> <Gold.Chemscore.Lipo.Weighted>
-11.0893

> <Gold.Chemscore.Internal_Hbond.Weighted>
0.0000

> <Gold.Chemscore.DEClash.Weighted>
0.1107

> <Gold.Chemscore.DEInternal.Weighted>
0.2255

> <Gold.Chemscore.Rot.Weighted>
4.0785

> <Gold.Chemscore.Internal.Correction.Weighted>
   9.000000E+99

> <Gold.Protein.RotatedTorsions>
[ 6907 6896 6895 6894 ] final   10.86 input  -60.11 | X-H torsion
[ 7974 7965 7964 7962 ] final  -17.22 input  175.53 | X-H torsion
[ 8008 7997 7996 7995 ] final    1.53 input   59.86 | X-H torsion
[ 10167 10162 10161 10158 ] final -110.88 input  -65.29 | X-H torsion
[ 10718 10713 10712 10709 ] final -121.46 input   66.30 | X-H torsion
[ 10763 10752 10751 10750 ] final  127.90 input  -60.55 | X-H torsion
[ 11005 11000 10999 10996 ] final -160.72 input  -57.11 | X-H torsion

> <Gold.Protein.ActiveResidues>
 VAL166  LYS551  ARG553  GLY616  TRP617  ASP618  TYR619  PRO620  LYS621  CYS622 
 ASP623  PHE694  ASN695  SER759  ASP760  ASP761  ALA762  ILE779  LEU786  VAL792 
 PHE793  MET794  SER795  GLU796  ALA797  LYS798  CYS799  TRP800  GLU811  SER814 

> <Gold.Protein.RotatedAtoms>
  151.7450  135.0845  160.0321 H   0  0  0  0  0  0  0  0  0  0  0  0  # atno 6907 bound_to 6896
  152.3454  133.6112  159.5915 H   0  0  0  0  0  0  0  0  0  0  0  0  # atno 6908 bound_to 6896
  150.7505  133.9573  159.3546 H   0  0  0  0  0  0  0  0  0  0  0  0  # atno 6909 bound_to 6896
  146.1951  140.3748  142.8443 H   0  0  0  0  0  0  0  0  0  0  0  0  # atno 7974 bound_to 7965
  154.6808  140.2632  155.6910 H   0  0  0  0  0  0  0  0  0  0  0  0  # atno 8008 bound_to 7997
  156.2696  140.2810  156.1274 H   0  0  0  0  0  0  0  0  0  0  0  0  # atno 8009 bound_to 7997
  155.1034  140.0375  157.2693 H   0  0  0  0  0  0  0  0  0  0  0  0  # atno 8010 bound_to 7997
  140.1397  143.4290  152.1571 H   0  0  0  0  0  0  0  0  0  0  0  0  # atno 10167 bound_to 10162
  156.1339  130.6416  150.9665 H   0  0  0  0  0  0  0  0  0  0  0  0  # atno 10718 bound_to 10713
  153.7168  135.3259  155.3258 H   0  0  0  0  0  0  0  0  0  0  0  0  # atno 10763 bound_to 10752
  154.8368  135.4490  154.1258 H   0  0  0  0  0  0  0  0  0  0  0  0  # atno 10764 bound_to 10752
  153.2367  135.6966  153.7908 H   0  0  0  0  0  0  0  0  0  0  0  0  # atno 10765 bound_to 10752
  140.6284  134.4677  157.5228 H   0  0  0  0  0  0  0  0  0  0  0  0  # atno 11005 bound_to 11000
  144.8564  140.7077  143.6135 LP  0  0  0  0  0  0  0  0  0  0  0  0  # atno 17320 bound_to 7965
  145.3669  139.1668  143.4353 LP  0  0  0  0  0  0  0  0  0  0  0  0  # atno 17321 bound_to 7965
  139.5478  144.7313  151.4528 LP  0  0  0  0  0  0  0  0  0  0  0  0  # atno 17342 bound_to 10162
  140.6768  143.8172  150.7069 LP  0  0  0  0  0  0  0  0  0  0  0  0  # atno 17343 bound_to 10162
  157.6514  131.0896  150.8042 LP  0  0  0  0  0  0  0  0  0  0  0  0  # atno 17370 bound_to 10713
  156.8124  130.4957  149.5354 LP  0  0  0  0  0  0  0  0  0  0  0  0  # atno 17371 bound_to 10713
  139.9126  134.8313  156.1477 LP  0  0  0  0  0  0  0  0  0  0  0  0  # atno 17394 bound_to 11000
  141.0693  133.6804  156.2108 LP  0  0  0  0  0  0  0  0  0  0  0  0  # atno 17395 bound_to 11000

$$$$
