AV-unprocessed.smi:2510|AV-procd|sdf|9883|dock8
  -GOLD-   2272013523D 1   1.00000     0.00000
 Structure written by MMmdl.
 48 49  0  0  0  0  0  0  0  0  1 V2000
  147.1450  141.3386  153.9218 C   0  0  0  0  0  0  0  0  0  0  0  0
  147.8251  139.9891  153.6349 C   0  0  0  0  0  0  0  0  0  0  0  0
  148.7944  139.4479  154.7142 C   0  0  0  0  0  0  0  0  0  0  0  0
  147.9234  139.0273  155.9329 C   0  0  0  0  0  0  0  0  0  0  0  0
  146.8294  137.9764  155.6624 C   0  0  0  0  0  0  0  0  0  0  0  0
  149.8549  138.4024  154.2541 C   0  0  2  0  0  0  0  0  0  0  0  0
  149.5342  137.0245  154.6155 N   0  0  0  0  0  0  0  0  0  0  0  0
  150.4337  136.0950  154.9680 C   0  0  0  0  0  0  0  0  0  0  0  0
  151.6453  136.3143  155.0104 O   0  0  0  0  0  0  0  0  0  0  0  0
  149.8595  134.7195  155.3285 C   0  0  0  0  0  0  0  0  0  0  0  0
  148.7909  134.2636  154.3839 C   0  0  0  0  0  0  0  0  0  0  0  0
  148.6730  133.1273  153.6330 C   0  0  0  0  0  0  0  0  0  0  0  0
  147.4367  133.2878  152.9411 C   0  0  0  0  0  0  0  0  0  0  0  0
  146.7887  132.3459  151.9698 C   0  0  0  0  0  0  0  0  0  0  0  0
  146.8366  134.4313  153.2362 N   0  0  0  0  0  0  0  0  0  0  0  0
  147.6704  135.0172  154.1153 N   0  0  0  0  0  0  0  0  0  0  0  0
  150.8858  139.0482  155.1894 C   0  0  1  0  0  0  0  0  0  0  0  0
  152.3530  139.0504  154.7761 C   0  0  0  0  0  0  0  0  0  0  0  0
  150.0432  140.3231  155.0220 C   0  0  2  0  0  0  0  0  0  0  0  0
  149.9123  141.1045  156.1996 O   0  0  0  0  0  0  0  0  0  0  0  0
  151.0782  141.8398  156.5260 C   0  0  0  0  0  0  0  0  0  0  0  0
  147.4632  135.9183  154.5221 H   0  0  0  0  0  0  0  0  0  0  0  0
  146.4166  141.5661  153.1433 H   0  0  0  0  0  0  0  0  0  0  0  0
  147.8630  142.1586  153.9305 H   0  0  0  0  0  0  0  0  0  0  0  0
  146.6112  141.3377  154.8714 H   0  0  0  0  0  0  0  0  0  0  0  0
  147.0300  139.2613  153.4704 H   0  0  0  0  0  0  0  0  0  0  0  0
  148.3424  140.0817  152.6790 H   0  0  0  0  0  0  0  0  0  0  0  0
  148.5626  138.6382  156.7263 H   0  0  0  0  0  0  0  0  0  0  0  0
  147.4354  139.9003  156.3662 H   0  0  0  0  0  0  0  0  0  0  0  0
  146.2281  137.8191  156.5579 H   0  0  0  0  0  0  0  0  0  0  0  0
  147.2518  137.0087  155.3931 H   0  0  0  0  0  0  0  0  0  0  0  0
  146.1496  138.2772  154.8671 H   0  0  0  0  0  0  0  0  0  0  0  0
  150.1654  138.5152  153.2145 H   0  0  0  0  0  0  0  0  0  0  0  0
  148.5589  136.7636  154.6019 H   0  0  0  0  0  0  0  0  0  0  0  0
  150.6731  133.9931  155.3454 H   0  0  0  0  0  0  0  0  0  0  0  0
  149.4577  134.7607  156.3417 H   0  0  0  0  0  0  0  0  0  0  0  0
  149.3675  132.3015  153.5858 H   0  0  0  0  0  0  0  0  0  0  0  0
  147.3904  131.4475  151.8305 H   0  0  0  0  0  0  0  0  0  0  0  0
  146.6618  132.8144  150.9935 H   0  0  0  0  0  0  0  0  0  0  0  0
  145.8048  132.0344  152.3214 H   0  0  0  0  0  0  0  0  0  0  0  0
  150.7730  138.6618  156.2040 H   0  0  0  0  0  0  0  0  0  0  0  0
  152.4863  139.4816  153.7838 H   0  0  0  0  0  0  0  0  0  0  0  0
  152.7553  138.0378  154.7509 H   0  0  0  0  0  0  0  0  0  0  0  0
  152.9648  139.6248  155.4705 H   0  0  0  0  0  0  0  0  0  0  0  0
  150.3578  140.9192  154.1634 H   0  0  0  0  0  0  0  0  0  0  0  0
  150.8793  142.4670  157.3946 H   0  0  0  0  0  0  0  0  0  0  0  0
  151.3821  142.4898  155.7047 H   0  0  0  0  0  0  0  0  0  0  0  0
  151.9070  141.1796  156.7788 H   0  0  0  0  0  0  0  0  0  0  0  0
  1  2  1  0  0  0  0
  1 23  1  0  0  0  0
  1 24  1  0  0  0  0
  1 25  1  0  0  0  0
  2  3  1  0  0  0  0
  2 26  1  0  0  0  0
  2 27  1  0  0  0  0
  3 19  1  0  0  0  0
  3  4  1  0  0  0  0
  3  6  1  0  0  0  0
  4  5  1  0  0  0  0
  4 28  1  0  0  0  0
  4 29  1  0  0  0  0
  5 30  1  0  0  0  0
  5 31  1  0  0  0  0
  5 32  1  0  0  0  0
  6  7  1  0  0  0  0
  6 17  1  0  0  0  0
  6 33  1  0  0  0  0
  7  8  1  0  0  0  0
  7 34  1  0  0  0  0
  8  9  2  0  0  0  0
  8 10  1  0  0  0  0
 10 35  1  0  0  0  0
 10 36  1  0  0  0  0
 10 11  1  0  0  0  0
 11 16  1  0  0  0  0
 11 12  2  0  0  0  0
 12 13  1  0  0  0  0
 12 37  1  0  0  0  0
 13 14  1  0  0  0  0
 13 15  2  0  0  0  0
 14 38  1  0  0  0  0
 14 39  1  0  0  0  0
 14 40  1  0  0  0  0
 15 16  1  0  0  0  0
 16 22  1  0  0  0  0
 17 18  1  0  0  0  0
 17 19  1  0  0  0  0
 17 41  1  0  0  0  0
 18 42  1  0  0  0  0
 18 43  1  0  0  0  0
 18 44  1  0  0  0  0
 19 20  1  0  0  0  0
 19 45  1  0  0  0  0
 20 21  1  0  0  0  0
 21 46  1  0  0  0  0
 21 47  1  0  0  0  0
 21 48  1  0  0  0  0
M  END
> <s_m_source_file>
AV-unprocessed.smi

> <i_m_source_file_index>
2510

> <i_lp_mmshare_version>
43012

> <i_f3d_flags>
0

> <s_epik_input>
W0NIM11PW0NAQEhdMVtDQEhdKFtDSDNdKVtDQEBIXShDMShbQ0gyXVtDSDNdKVtDSDJdW0NIM10pW05IXUMoPU8pW0NIMl1jMltjSF1jKFtDSDNdKVtuSF1uMg==

> <s_epik_cmdline>
J2VwaWtfcHl0aG9uJywgJy1waCcsICc3LjAnLCAnLXRuJywgJzgnLCAnLW1hJywgJzIwMCcsICctbWV0YWxfYmluZGluZycsICctaW1hZScsICc8aW5maWxlLm1hZT4nLCAnLW9tYWUnLCAnPG91dGZpbGUubWFlPic=

> <r_lp_tautomer_probability>
0.5

> <r_epik_Ionization_Penalty>
0.000134763

> <r_epik_Ionization_Penalty_Charging>
0

> <r_epik_Ionization_Penalty_Neutral>
0.000134763

> <r_epik_State_Penalty>
0.41068

> <r_epik_Charging_Adjusted_Penalty>
0.41068

> <i_epik_Tot_Q>
0

> <i_epik_Tot_abs_Q>
0

> <r_epik_Metal_State_Penalty>
0.410661

> <b_epik_Metal_Only>
0

> <s_lp_Force_Field>
OPLS_2005

> <r_lp_Energy>
25.9976

> <b_lp_Chiralities_Consistent>
1

> <s_lp_Variant>
AV-unprocessed.smi:2510-14

> <Gold.Version>
5.8.1

> <Gold.Id.Protein>
6NUR|6NUR_protein|mol2

> <Gold.PLP.Fitness>
35.7196

> <Gold.PLP.PLP>
-33.7480

> <Gold.PLP.part.hbond>
-3.0000

> <Gold.PLP.part.metal>
0.0000

> <Gold.PLP.part.buried>
-1.2073

> <Gold.PLP.part.nonpolar>
-30.0476

> <Gold.PLP.part.repulsive>
0.7996

> <Gold.PLP.ligand.clash>
0.0000

> <Gold.PLP.ligand.torsion>
0.7929

> <Gold.PLP.Chemscore.Hbond>
1.0000

> <Gold.PLP.Chemscore.CHOScore>
0.0000

> <Gold.PLP.Chemscore.Metal>
0.0000

> <Gold.Chemscore.Hbonds>
donor molecule, donor type, donor heavy atom, donor atom, acceptor molecule, acceptor atom, score
      P1  H 10752 10765       L1     9  1.00

> <Gold.PLP.Chemscore.Internal.Correction>
0.5573

> <Gold.Rescore>
     Score         DG    S(hbond)    S(metal)    S(lipo)     H(rot)  DE(clash)    DE(int)     intcor
      8.95     -13.55       0.97        0.00      80.87       1.81       0.02       4.58       ----

> <Gold.Chemscore.Fitness>
8.9542

> <Gold.Chemscore.DG>
-13.5516

> <Gold.Chemscore.ZeroCoef>
-5.4800

> <Gold.Chemscore.Hbond>
0.9713

> <Gold.Chemscore.Metal>
0.0000

> <Gold.Chemscore.Lipo>
80.8685

> <Gold.Chemscore.Internal_Hbond>
0.0000

> <Gold.Chemscore.DEClash>
0.0162

> <Gold.Chemscore.DEInternal>
4.5811

> <Gold.Chemscore.Rot>
1.8102

> <Gold.Chemscore.Internal.Correction>
   9.000000E+99

> <Gold.Chemscore.Hbonds>
donor molecule, donor type, donor heavy atom, donor atom, acceptor molecule, acceptor atom, score
      P1  H 10752 10765       L1     9  0.96

> <Gold.Chemscore.Hbond.Weighted>
-3.2440

> <Gold.Chemscore.Metal.Weighted>
-0.0000

> <Gold.Chemscore.Lipo.Weighted>
-9.4616

> <Gold.Chemscore.Internal_Hbond.Weighted>
0.0000

> <Gold.Chemscore.DEClash.Weighted>
0.0162

> <Gold.Chemscore.DEInternal.Weighted>
4.5811

> <Gold.Chemscore.Rot.Weighted>
4.6341

> <Gold.Chemscore.Internal.Correction.Weighted>
   9.000000E+99

> <Gold.Protein.RotatedTorsions>
[ 6907 6896 6895 6894 ] final  -20.58 input  -60.11 | X-H torsion
[ 7974 7965 7964 7962 ] final -103.42 input  175.53 | X-H torsion
[ 8008 7997 7996 7995 ] final  106.18 input   59.86 | X-H torsion
[ 10167 10162 10161 10158 ] final  137.97 input  -65.29 | X-H torsion
[ 10718 10713 10712 10709 ] final -127.63 input   66.30 | X-H torsion
[ 10763 10752 10751 10750 ] final  168.32 input  -60.55 | X-H torsion
[ 11005 11000 10999 10996 ] final -159.33 input  -57.11 | X-H torsion

> <Gold.Protein.ActiveResidues>
 VAL166  LYS551  ARG553  GLY616  TRP617  ASP618  TYR619  PRO620  LYS621  CYS622 
 ASP623  PHE694  ASN695  SER759  ASP760  ASP761  ALA762  ILE779  LEU786  VAL792 
 PHE793  MET794  SER795  GLU796  ALA797  LYS798  CYS799  TRP800  GLU811  SER814 

> <Gold.Protein.RotatedAtoms>
  151.2461  135.0606  159.9043 H   0  0  0  0  0  0  0  0  0  0  0  0  # atno 6907 bound_to 6896
  152.5386  134.0382  159.8066 H   0  0  0  0  0  0  0  0  0  0  0  0  # atno 6908 bound_to 6896
  151.0583  133.5516  159.2667 H   0  0  0  0  0  0  0  0  0  0  0  0  # atno 6909 bound_to 6896
  145.2562  140.9254  143.3067 H   0  0  0  0  0  0  0  0  0  0  0  0  # atno 7974 bound_to 7965
  156.1721  140.3117  155.8993 H   0  0  0  0  0  0  0  0  0  0  0  0  # atno 8008 bound_to 7997
  155.3564  140.0474  157.3063 H   0  0  0  0  0  0  0  0  0  0  0  0  # atno 8009 bound_to 7997
  154.5252  140.2212  155.8913 H   0  0  0  0  0  0  0  0  0  0  0  0  # atno 8010 bound_to 7997
  139.5126  144.6380  151.5645 H   0  0  0  0  0  0  0  0  0  0  0  0  # atno 10167 bound_to 10162
  156.1875  130.6773  151.0383 H   0  0  0  0  0  0  0  0  0  0  0  0  # atno 10718 bound_to 10713
  154.3668  135.2753  155.2289 H   0  0  0  0  0  0  0  0  0  0  0  0  # atno 10763 bound_to 10752
  154.4453  135.5944  153.6159 H   0  0  0  0  0  0  0  0  0  0  0  0  # atno 10764 bound_to 10752
  152.9840  135.6028  154.3895 H   0  0  0  0  0  0  0  0  0  0  0  0  # atno 10765 bound_to 10752
  140.6438  134.4523  157.5234 H   0  0  0  0  0  0  0  0  0  0  0  0  # atno 11005 bound_to 11000
  144.9459  139.4137  143.6426 LP  0  0  0  0  0  0  0  0  0  0  0  0  # atno 17320 bound_to 7965
  146.3288  139.8442  142.8885 LP  0  0  0  0  0  0  0  0  0  0  0  0  # atno 17321 bound_to 7965
  140.6136  143.9390  150.6472 LP  0  0  0  0  0  0  0  0  0  0  0  0  # atno 17342 bound_to 10162
  140.2641  143.3503  152.1297 LP  0  0  0  0  0  0  0  0  0  0  0  0  # atno 17343 bound_to 10162
  157.6908  131.0810  150.7113 LP  0  0  0  0  0  0  0  0  0  0  0  0  # atno 17370 bound_to 10713
  156.7169  130.4669  149.5533 LP  0  0  0  0  0  0  0  0  0  0  0  0  # atno 17371 bound_to 10713
  139.9070  134.8426  156.1667 LP  0  0  0  0  0  0  0  0  0  0  0  0  # atno 17394 bound_to 11000
  141.0587  133.6852  156.1911 LP  0  0  0  0  0  0  0  0  0  0  0  0  # atno 17395 bound_to 11000

$$$$
