AV-unprocessed.smi:2789|AV-procd|sdf|10763|dock7
  -GOLD-   2272015193D 1   1.00000     0.00000
 Structure written by MMmdl.
 35 36  0  0  0  0  0  0  0  0  1 V2000
  148.9996  141.2552  154.4725 C   0  0  0  0  0  0  0  0  0  0  0  0
  150.0940  140.4434  154.0753 O   0  0  0  0  0  0  0  0  0  0  0  0
  150.0489  139.1278  154.6150 C   0  0  1  0  0  0  0  0  0  0  0  0
  151.2171  138.2884  154.1016 C   0  0  0  0  0  0  0  0  0  0  0  0
  151.2850  137.1241  155.0870 C   0  0  0  0  0  0  0  0  0  0  0  0
  150.9009  137.7247  156.4450 C   0  0  0  0  0  0  0  0  0  0  0  0
  150.1686  139.0526  156.1513 C   0  0  1  0  0  0  0  0  0  0  0  0
  150.9161  140.1941  156.6770 N   0  0  0  0  0  0  0  0  0  0  0  0
  151.2082  140.3962  157.9690 C   0  0  0  0  0  0  0  0  0  0  0  0
  150.8919  139.6137  158.8651 O   0  0  0  0  0  0  0  0  0  0  0  0
  151.8763  141.5502  158.1388 N   0  0  0  0  0  0  0  0  0  0  0  0
  152.3443  142.0995  159.2910 C   0  0  0  0  0  0  0  0  0  0  0  0
  152.8659  141.4760  160.3916 C   0  0  0  0  0  0  0  0  0  0  0  0
  153.1758  142.5712  161.2478 C   0  0  0  0  0  0  0  0  0  0  0  0
  152.8729  143.7491  160.7163 N   0  0  0  0  0  0  0  0  0  0  0  0
  152.3566  143.4612  159.5014 N   0  0  0  0  0  0  0  0  0  0  0  0
  151.9118  144.5310  158.6295 C   0  0  0  0  0  0  0  0  0  0  0  0
  149.1013  142.2457  154.0296 H   0  0  0  0  0  0  0  0  0  0  0  0
  148.9599  141.3763  155.5555 H   0  0  0  0  0  0  0  0  0  0  0  0
  148.0530  140.8326  154.1342 H   0  0  0  0  0  0  0  0  0  0  0  0
  149.1272  138.6324  154.3024 H   0  0  0  0  0  0  0  0  0  0  0  0
  151.0794  137.9604  153.0710 H   0  0  0  0  0  0  0  0  0  0  0  0
  152.1417  138.8656  154.1501 H   0  0  0  0  0  0  0  0  0  0  0  0
  150.5547  136.3652  154.8036 H   0  0  0  0  0  0  0  0  0  0  0  0
  152.2655  136.6476  155.1024 H   0  0  0  0  0  0  0  0  0  0  0  0
  150.2663  137.0375  157.0056 H   0  0  0  0  0  0  0  0  0  0  0  0
  151.7966  137.8887  157.0464 H   0  0  0  0  0  0  0  0  0  0  0  0
  149.1692  139.0490  156.5903 H   0  0  0  0  0  0  0  0  0  0  0  0
  151.2103  140.8882  156.0053 H   0  0  0  0  0  0  0  0  0  0  0  0
  152.0490  142.0901  157.3036 H   0  0  0  0  0  0  0  0  0  0  0  0
  153.0114  140.4219  160.5734 H   0  0  0  0  0  0  0  0  0  0  0  0
  153.6118  142.5462  162.2355 H   0  0  0  0  0  0  0  0  0  0  0  0
  152.5194  144.5416  157.7245 H   0  0  0  0  0  0  0  0  0  0  0  0
  152.0023  145.4968  159.1284 H   0  0  0  0  0  0  0  0  0  0  0  0
  150.8682  144.3717  158.3569 H   0  0  0  0  0  0  0  0  0  0  0  0
  1  2  1  0  0  0  0
  1 18  1  0  0  0  0
  1 19  1  0  0  0  0
  1 20  1  0  0  0  0
  2  3  1  0  0  0  0
  3  7  1  0  0  0  0
  3  4  1  0  0  0  0
  3 21  1  0  0  0  0
  4  5  1  0  0  0  0
  4 22  1  0  0  0  0
  4 23  1  0  0  0  0
  5  6  1  0  0  0  0
  5 24  1  0  0  0  0
  5 25  1  0  0  0  0
  6  7  1  0  0  0  0
  6 26  1  0  0  0  0
  6 27  1  0  0  0  0
  7  8  1  0  0  0  0
  7 28  1  0  0  0  0
  8  9  1  0  0  0  0
  8 29  1  0  0  0  0
  9 10  2  0  0  0  0
  9 11  1  0  0  0  0
 11 12  1  0  0  0  0
 11 30  1  0  0  0  0
 12 16  1  0  0  0  0
 12 13  2  0  0  0  0
 13 14  1  0  0  0  0
 13 31  1  0  0  0  0
 14 15  2  0  0  0  0
 14 32  1  0  0  0  0
 15 16  1  0  0  0  0
 16 17  1  0  0  0  0
 17 33  1  0  0  0  0
 17 34  1  0  0  0  0
 17 35  1  0  0  0  0
M  END
> <s_m_source_file>
AV-unprocessed.smi

> <i_m_source_file_index>
2789

> <i_lp_mmshare_version>
43012

> <i_f3d_flags>
0

> <s_epik_input>
W0NIM11PW0NAQEhdMVtDSDJdW0NIMl1bQ0gyXVtDQEhdMVtOSF1DKD1PKVtOSF1jMltjSF1bY0hdbm4yW0NIM10=

> <s_epik_cmdline>
J2VwaWtfcHl0aG9uJywgJy1waCcsICc3LjAnLCAnLXRuJywgJzgnLCAnLW1hJywgJzIwMCcsICctbWV0YWxfYmluZGluZycsICctaW1hZScsICc8aW5maWxlLm1hZT4nLCAnLW9tYWUnLCAnPG91dGZpbGUubWFlPic=

> <r_lp_tautomer_probability>
1

> <r_epik_Ionization_Penalty>
4.40608e-05

> <r_epik_Ionization_Penalty_Charging>
0

> <r_epik_Ionization_Penalty_Neutral>
4.40608e-05

> <r_epik_State_Penalty>
-0

> <r_epik_Charging_Adjusted_Penalty>
0

> <i_epik_Tot_Q>
0

> <i_epik_Tot_abs_Q>
0

> <r_epik_Metal_State_Penalty>
-0

> <b_epik_Metal_Only>
0

> <s_lp_Force_Field>
OPLS_2005

> <r_lp_Energy>
22.0425

> <b_lp_Chiralities_Consistent>
1

> <s_lp_Variant>
AV-unprocessed.smi:2789-2

> <Gold.Version>
5.8.1

> <Gold.Id.Protein>
6NUR|6NUR_protein|mol2

> <Gold.PLP.Fitness>
34.8715

> <Gold.PLP.PLP>
-32.9853

> <Gold.PLP.part.hbond>
-1.0000

> <Gold.PLP.part.metal>
0.0000

> <Gold.PLP.part.buried>
-3.6591

> <Gold.PLP.part.nonpolar>
-28.5710

> <Gold.PLP.part.repulsive>
1.3192

> <Gold.PLP.ligand.clash>
0.0000

> <Gold.PLP.ligand.torsion>
0.2602

> <Gold.PLP.Chemscore.Hbond>
0.8000

> <Gold.PLP.Chemscore.CHOScore>
0.0000

> <Gold.PLP.Chemscore.Metal>
0.0000

> <Gold.Chemscore.Hbonds>
donor molecule, donor type, donor heavy atom, donor atom, acceptor molecule, acceptor atom, score
      P1  H  7989  7998       L1     2  0.80

> <Gold.PLP.Chemscore.Internal.Correction>
0.0067

> <Gold.Rescore>
     Score         DG    S(hbond)    S(metal)    S(lipo)     H(rot)  DE(clash)    DE(int)     intcor
     13.08     -13.59       0.90        0.00      71.34       1.27       0.21       0.30       ----

> <Gold.Chemscore.Fitness>
13.0818

> <Gold.Chemscore.DG>
-13.5925

> <Gold.Chemscore.ZeroCoef>
-5.4800

> <Gold.Chemscore.Hbond>
0.9042

> <Gold.Chemscore.Metal>
0.0000

> <Gold.Chemscore.Lipo>
71.3417

> <Gold.Chemscore.Internal_Hbond>
0.0000

> <Gold.Chemscore.DEClash>
0.2061

> <Gold.Chemscore.DEInternal>
0.3046

> <Gold.Chemscore.Rot>
1.2712

> <Gold.Chemscore.Internal.Correction>
   9.000000E+99

> <Gold.Chemscore.Hbonds>
donor molecule, donor type, donor heavy atom, donor atom, acceptor molecule, acceptor atom, score
      P1  H  7989  7998       L1     2  0.70

> <Gold.Chemscore.Hbond.Weighted>
-3.0199

> <Gold.Chemscore.Metal.Weighted>
-0.0000

> <Gold.Chemscore.Lipo.Weighted>
-8.3470

> <Gold.Chemscore.Internal_Hbond.Weighted>
0.0000

> <Gold.Chemscore.DEClash.Weighted>
0.2061

> <Gold.Chemscore.DEInternal.Weighted>
0.3046

> <Gold.Chemscore.Rot.Weighted>
3.2544

> <Gold.Chemscore.Internal.Correction.Weighted>
   9.000000E+99

> <Gold.Protein.RotatedTorsions>
[ 6907 6896 6895 6894 ] final  146.55 input  -60.11 | X-H torsion
[ 7974 7965 7964 7962 ] final   52.84 input  175.53 | X-H torsion
[ 8008 7997 7996 7995 ] final   61.12 input   59.86 | X-H torsion
[ 10167 10162 10161 10158 ] final  112.46 input  -65.29 | X-H torsion
[ 10718 10713 10712 10709 ] final   74.92 input   66.30 | X-H torsion
[ 10763 10752 10751 10750 ] final   24.35 input  -60.55 | X-H torsion
[ 11005 11000 10999 10996 ] final   86.02 input  -57.11 | X-H torsion

> <Gold.Protein.ActiveResidues>
 VAL166  LYS551  ARG553  GLY616  TRP617  ASP618  TYR619  PRO620  LYS621  CYS622 
 ASP623  PHE694  ASN695  SER759  ASP760  ASP761  ALA762  ILE779  LEU786  VAL792 
 PHE793  MET794  SER795  GLU796  ALA797  LYS798  CYS799  TRP800  GLU811  SER814 

> <Gold.Protein.RotatedAtoms>
  152.1664  133.4615  159.4886 H   0  0  0  0  0  0  0  0  0  0  0  0  # atno 6907 bound_to 6896
  150.6913  134.2007  159.4330 H   0  0  0  0  0  0  0  0  0  0  0  0  # atno 6908 bound_to 6896
  151.9912  134.9977  160.0612 H   0  0  0  0  0  0  0  0  0  0  0  0  # atno 6909 bound_to 6896
  145.9773  139.4207  143.0154 H   0  0  0  0  0  0  0  0  0  0  0  0  # atno 7974 bound_to 7965
  155.5933  140.3493  155.4573 H   0  0  0  0  0  0  0  0  0  0  0  0  # atno 8008 bound_to 7997
  156.0284  140.1269  157.0309 H   0  0  0  0  0  0  0  0  0  0  0  0  # atno 8009 bound_to 7997
  154.4342  140.1048  156.6050 H   0  0  0  0  0  0  0  0  0  0  0  0  # atno 8010 bound_to 7997
  139.6534  144.7129  151.2004 H   0  0  0  0  0  0  0  0  0  0  0  0  # atno 10167 bound_to 10162
  157.6612  130.9701  150.1279 H   0  0  0  0  0  0  0  0  0  0  0  0  # atno 10718 bound_to 10713
  153.0770  135.6607  154.0125 H   0  0  0  0  0  0  0  0  0  0  0  0  # atno 10763 bound_to 10752
  153.9756  135.2960  155.3425 H   0  0  0  0  0  0  0  0  0  0  0  0  # atno 10764 bound_to 10752
  154.7161  135.5185  153.8810 H   0  0  0  0  0  0  0  0  0  0  0  0  # atno 10765 bound_to 10752
  139.8956  134.8326  156.2662 H   0  0  0  0  0  0  0  0  0  0  0  0  # atno 11005 bound_to 11000
  145.7821  140.9852  143.1094 LP  0  0  0  0  0  0  0  0  0  0  0  0  # atno 17320 bound_to 7965
  144.6852  139.9577  143.7479 LP  0  0  0  0  0  0  0  0  0  0  0  0  # atno 17321 bound_to 7965
  140.7548  143.6113  150.8603 LP  0  0  0  0  0  0  0  0  0  0  0  0  # atno 17342 bound_to 10162
  139.9763  143.6001  152.2957 LP  0  0  0  0  0  0  0  0  0  0  0  0  # atno 17343 bound_to 10162
  156.2133  130.3668  149.8643 LP  0  0  0  0  0  0  0  0  0  0  0  0  # atno 17370 bound_to 10713
  156.6516  130.8746  151.3532 LP  0  0  0  0  0  0  0  0  0  0  0  0  # atno 17371 bound_to 10713
  141.0130  133.7084  156.1143 LP  0  0  0  0  0  0  0  0  0  0  0  0  # atno 17394 bound_to 11000
  140.7340  134.4223  157.5562 LP  0  0  0  0  0  0  0  0  0  0  0  0  # atno 17395 bound_to 11000

$$$$
