AV-unprocessed.smi:1270|AV-procd|sdf|5331|dock8
  -GOLD-   22720 4463D 1   1.00000     0.00000
 Structure written by MMmdl.
 42 43  0  0  0  0  0  0  0  0  1 V2000
  141.2948  136.2568  153.6397 C   0  0  0  0  0  0  0  0  0  0  0  0
  142.4869  136.9292  153.2481 O   0  0  0  0  0  0  0  0  0  0  0  0
  143.4547  136.2143  152.5682 C   0  0  0  0  0  0  0  0  0  0  0  0
  143.1498  134.9635  152.1394 N   0  0  0  0  0  0  0  0  0  0  0  0
  144.0945  134.2614  151.4809 C   0  0  0  0  0  0  0  0  0  0  0  0
  145.3841  134.7602  151.2224 C   0  0  0  0  0  0  0  0  0  0  0  0
  145.7031  136.0569  151.6661 C   0  0  0  0  0  0  0  0  0  0  0  0
  144.7174  136.8127  152.3469 C   0  0  0  0  0  0  0  0  0  0  0  0
  144.9362  138.1232  152.8563 N   0  0  0  0  0  0  0  0  0  0  0  0
  146.0250  138.6187  153.4685 C   0  0  0  0  0  0  0  0  0  0  0  0
  147.0698  138.0025  153.6768 O   0  0  0  0  0  0  0  0  0  0  0  0
  145.8417  139.9002  153.8171 N   0  0  0  0  0  0  0  0  0  0  0  0
  146.8233  140.7331  154.5060 C   0  0  0  0  0  0  0  0  0  0  0  0
  148.1339  140.7644  153.7061 C   0  0  0  0  0  0  0  0  0  0  0  0
  149.2142  141.5888  154.4285 C   0  0  0  0  0  0  0  0  0  0  0  0
  149.4231  141.1203  155.8134 N   0  0  0  0  0  0  0  0  0  0  0  0
  150.7913  140.1144  156.1955 S   0  0  0  0  0  0  0  0  0  0  0  0
  151.6853  141.0492  157.5033 C   0  0  0  0  0  0  0  0  0  0  0  0
  150.2823  138.8686  156.7890 O   0  0  0  0  0  0  0  0  0  0  0  0
  151.6528  140.0555  155.0047 O   0  0  0  0  0  0  0  0  0  0  0  0
  148.1927  141.0302  156.6249 C   0  0  0  0  0  0  0  0  0  0  0  0
  147.1059  140.1993  155.9208 C   0  0  0  0  0  0  0  0  0  0  0  0
  140.6416  136.9560  154.1615 H   0  0  0  0  0  0  0  0  0  0  0  0
  141.5079  135.4319  154.3213 H   0  0  0  0  0  0  0  0  0  0  0  0
  140.7481  135.8758  152.7757 H   0  0  0  0  0  0  0  0  0  0  0  0
  143.8165  133.2692  151.1570 H   0  0  0  0  0  0  0  0  0  0  0  0
  146.1142  134.1595  150.7004 H   0  0  0  0  0  0  0  0  0  0  0  0
  146.6979  136.4343  151.4887 H   0  0  0  0  0  0  0  0  0  0  0  0
  144.1873  138.7784  152.6858 H   0  0  0  0  0  0  0  0  0  0  0  0
  144.9543  140.3294  153.5990 H   0  0  0  0  0  0  0  0  0  0  0  0
  146.4384  141.7524  154.5772 H   0  0  0  0  0  0  0  0  0  0  0  0
  148.4919  139.7490  153.5392 H   0  0  0  0  0  0  0  0  0  0  0  0
  147.9559  141.1897  152.7176 H   0  0  0  0  0  0  0  0  0  0  0  0
  150.1501  141.5594  153.8715 H   0  0  0  0  0  0  0  0  0  0  0  0
  148.9106  142.6357  154.4623 H   0  0  0  0  0  0  0  0  0  0  0  0
  152.5643  140.4813  157.8071 H   0  0  0  0  0  0  0  0  0  0  0  0
  151.0389  141.1882  158.3678 H   0  0  0  0  0  0  0  0  0  0  0  0
  152.0059  142.0146  157.1159 H   0  0  0  0  0  0  0  0  0  0  0  0
  148.4137  140.6120  157.6064 H   0  0  0  0  0  0  0  0  0  0  0  0
  147.8211  142.0408  156.7988 H   0  0  0  0  0  0  0  0  0  0  0  0
  146.1948  140.2205  156.5198 H   0  0  0  0  0  0  0  0  0  0  0  0
  147.4099  139.1544  155.8695 H   0  0  0  0  0  0  0  0  0  0  0  0
  1  2  1  0  0  0  0
  1 23  1  0  0  0  0
  1 24  1  0  0  0  0
  1 25  1  0  0  0  0
  2  3  1  0  0  0  0
  3  8  1  0  0  0  0
  3  4  2  0  0  0  0
  4  5  1  0  0  0  0
  5  6  2  0  0  0  0
  5 26  1  0  0  0  0
  6  7  1  0  0  0  0
  6 27  1  0  0  0  0
  7  8  2  0  0  0  0
  7 28  1  0  0  0  0
  8  9  1  0  0  0  0
  9 10  1  0  0  0  0
  9 29  1  0  0  0  0
 10 11  2  0  0  0  0
 10 12  1  0  0  0  0
 12 13  1  0  0  0  0
 12 30  1  0  0  0  0
 13 22  1  0  0  0  0
 13 14  1  0  0  0  0
 13 31  1  0  0  0  0
 14 15  1  0  0  0  0
 14 32  1  0  0  0  0
 14 33  1  0  0  0  0
 15 16  1  0  0  0  0
 15 34  1  0  0  0  0
 15 35  1  0  0  0  0
 16 17  1  0  0  0  0
 16 21  1  0  0  0  0
 17 18  1  0  0  0  0
 17 19  2  0  0  0  0
 17 20  2  0  0  0  0
 18 36  1  0  0  0  0
 18 37  1  0  0  0  0
 18 38  1  0  0  0  0
 21 22  1  0  0  0  0
 21 39  1  0  0  0  0
 21 40  1  0  0  0  0
 22 41  1  0  0  0  0
 22 42  1  0  0  0  0
M  END
> <s_m_source_file>
AV-unprocessed.smi

> <i_m_source_file_index>
1270

> <i_lp_mmshare_version>
43012

> <i_f3d_flags>
0

> <s_epik_input>
W0NIM11PYzFuW2NIXVtjSF1bY0hdYzFbTkhdQyg9TylbTkhdW0NIXTJbQ0gyXVtDSDJdTihTKD1PKSg9TylbQ0gzXSlbQ0gyXVtDSDJdMg==

> <s_epik_cmdline>
J2VwaWtfcHl0aG9uJywgJy1waCcsICc3LjAnLCAnLXRuJywgJzgnLCAnLW1hJywgJzIwMCcsICctbWV0YWxfYmluZGluZycsICctaW1hZScsICc8aW5maWxlLm1hZT4nLCAnLW9tYWUnLCAnPG91dGZpbGUubWFlPic=

> <r_lp_tautomer_probability>
1

> <r_epik_Ionization_Penalty>
9.27336e-05

> <r_epik_Ionization_Penalty_Charging>
0

> <r_epik_Ionization_Penalty_Neutral>
9.27336e-05

> <r_epik_State_Penalty>
-0

> <r_epik_Charging_Adjusted_Penalty>
0

> <i_epik_Tot_Q>
0

> <i_epik_Tot_abs_Q>
0

> <r_epik_Metal_State_Penalty>
-0

> <b_epik_Metal_Only>
0

> <s_lp_Force_Field>
OPLS_2005

> <r_lp_Energy>
1.71558

> <b_lp_Chiralities_Consistent>
1

> <s_lp_Variant>
AV-unprocessed.smi:1270-1

> <Gold.Version>
5.8.1

> <Gold.Id.Protein>
6NUR|6NUR_protein|mol2

> <Gold.PLP.Fitness>
37.8328

> <Gold.PLP.PLP>
-29.8510

> <Gold.PLP.part.hbond>
-3.4039

> <Gold.PLP.part.metal>
0.0000

> <Gold.PLP.part.buried>
-1.4806

> <Gold.PLP.part.nonpolar>
-25.0293

> <Gold.PLP.part.repulsive>
0.7117

> <Gold.PLP.ligand.clash>
0.0000

> <Gold.PLP.ligand.torsion>
1.4655

> <Gold.PLP.Chemscore.Hbond>
2.9520

> <Gold.PLP.Chemscore.CHOScore>
0.0000

> <Gold.PLP.Chemscore.Metal>
0.0000

> <Gold.Chemscore.Hbonds>
donor molecule, donor type, donor heavy atom, donor atom, acceptor molecule, acceptor atom, score
      L1  H     9    29       P1 10175  0.99
      L1  H    12    30       P1 10175  0.94
      P1  H  7989  7998       L1    20  1.00

> <Gold.PLP.Chemscore.Internal.Correction>
2.0568

> <Gold.Rescore>
     Score         DG    S(hbond)    S(metal)    S(lipo)     H(rot)  DE(clash)    DE(int)     intcor
     15.78     -18.80       2.90        0.00      59.22       1.29       0.59       2.42       ----

> <Gold.Chemscore.Fitness>
15.7811

> <Gold.Chemscore.DG>
-18.7980

> <Gold.Chemscore.ZeroCoef>
-5.4800

> <Gold.Chemscore.Hbond>
2.9009

> <Gold.Chemscore.Metal>
0.0000

> <Gold.Chemscore.Lipo>
59.2205

> <Gold.Chemscore.Internal_Hbond>
0.0000

> <Gold.Chemscore.DEClash>
0.5924

> <Gold.Chemscore.DEInternal>
2.4245

> <Gold.Chemscore.Rot>
1.2890

> <Gold.Chemscore.Internal.Correction>
   9.000000E+99

> <Gold.Chemscore.Hbonds>
donor molecule, donor type, donor heavy atom, donor atom, acceptor molecule, acceptor atom, score
      L1  H     9    29       P1 10175  0.94
      L1  H    12    30       P1 10175  0.91
      P1  H  7989  7998       L1    20  0.95

> <Gold.Chemscore.Hbond.Weighted>
-9.6891

> <Gold.Chemscore.Metal.Weighted>
-0.0000

> <Gold.Chemscore.Lipo.Weighted>
-6.9288

> <Gold.Chemscore.Internal_Hbond.Weighted>
0.0000

> <Gold.Chemscore.DEClash.Weighted>
0.5924

> <Gold.Chemscore.DEInternal.Weighted>
2.4245

> <Gold.Chemscore.Rot.Weighted>
3.2999

> <Gold.Chemscore.Internal.Correction.Weighted>
   9.000000E+99

> <Gold.Protein.RotatedTorsions>
[ 6907 6896 6895 6894 ] final  -42.59 input  -60.11 | X-H torsion
[ 7974 7965 7964 7962 ] final -114.85 input  175.53 | X-H torsion
[ 8008 7997 7996 7995 ] final  113.09 input   59.86 | X-H torsion
[ 10167 10162 10161 10158 ] final   25.54 input  -65.29 | X-H torsion
[ 10718 10713 10712 10709 ] final  167.41 input   66.30 | X-H torsion
[ 10763 10752 10751 10750 ] final -126.09 input  -60.55 | X-H torsion
[ 11005 11000 10999 10996 ] final  -91.63 input  -57.11 | X-H torsion

> <Gold.Protein.ActiveResidues>
 VAL166  LYS551  ARG553  GLY616  TRP617  ASP618  TYR619  PRO620  LYS621  CYS622 
 ASP623  PHE694  ASN695  SER759  ASP760  ASP761  ALA762  ILE779  LEU786  VAL792 
 PHE793  MET794  SER795  GLU796  ALA797  LYS798  CYS799  TRP800  GLU811  SER814 

> <Gold.Protein.RotatedAtoms>
  150.9536  134.8933  159.7686 H   0  0  0  0  0  0  0  0  0  0  0  0  # atno 6907 bound_to 6896
  152.5129  134.3772  159.9348 H   0  0  0  0  0  0  0  0  0  0  0  0  # atno 6908 bound_to 6896
  151.3787  133.3788  159.2742 H   0  0  0  0  0  0  0  0  0  0  0  0  # atno 6909 bound_to 6896
  145.1152  140.8636  143.3846 H   0  0  0  0  0  0  0  0  0  0  0  0  # atno 7974 bound_to 7965
  156.2235  140.2986  156.0011 H   0  0  0  0  0  0  0  0  0  0  0  0  # atno 8008 bound_to 7997
  155.2417  140.0422  157.2993 H   0  0  0  0  0  0  0  0  0  0  0  0  # atno 8009 bound_to 7997
  154.5879  140.2393  155.7970 H   0  0  0  0  0  0  0  0  0  0  0  0  # atno 8010 bound_to 7997
  140.5097  144.0180  150.6367 H   0  0  0  0  0  0  0  0  0  0  0  0  # atno 10167 bound_to 10162
  157.0520  131.0316  151.2677 H   0  0  0  0  0  0  0  0  0  0  0  0  # atno 10718 bound_to 10713
  154.8742  135.4007  154.3374 H   0  0  0  0  0  0  0  0  0  0  0  0  # atno 10763 bound_to 10752
  153.4178  135.7022  153.6320 H   0  0  0  0  0  0  0  0  0  0  0  0  # atno 10764 bound_to 10752
  153.4995  135.3731  155.2503 H   0  0  0  0  0  0  0  0  0  0  0  0  # atno 10765 bound_to 10752
  141.1540  133.7768  156.9906 H   0  0  0  0  0  0  0  0  0  0  0  0  # atno 11005 bound_to 11000
  145.0801  139.2966  143.5788 LP  0  0  0  0  0  0  0  0  0  0  0  0  # atno 17320 bound_to 7965
  146.3524  140.0305  142.8651 LP  0  0  0  0  0  0  0  0  0  0  0  0  # atno 17321 bound_to 7965
  140.3499  143.2969  152.0498 LP  0  0  0  0  0  0  0  0  0  0  0  0  # atno 17342 bound_to 10162
  139.4893  144.6381  151.6933 LP  0  0  0  0  0  0  0  0  0  0  0  0  # atno 17343 bound_to 10162
  157.5023  130.7887  149.7617 LP  0  0  0  0  0  0  0  0  0  0  0  0  # atno 17370 bound_to 10713
  156.0005  130.3883  150.2626 LP  0  0  0  0  0  0  0  0  0  0  0  0  # atno 17371 bound_to 10713
  140.1005  134.9538  157.1916 LP  0  0  0  0  0  0  0  0  0  0  0  0  # atno 17394 bound_to 11000
  140.3325  134.2794  155.7225 LP  0  0  0  0  0  0  0  0  0  0  0  0  # atno 17395 bound_to 11000

$$$$
