#       Name:                AV-unprocessed.smi:582
#       Creating user name   scv26
#       Creation time:       Thu Mar 26 23:50:08 2020


#       File generated by GOLD software.
#

@<TRIPOS>MOLECULE
AV-unprocessed.smi:582
    34    35     1
SMALL
NO_CHARGES


@<TRIPOS>ATOM
      1 ****        -5.2209   1.6580  -0.0039 O.co2          1 S1                 0.0000
      2 ****        -4.6737   0.5327  -0.0045 C.2            1 S1                 0.0000
      3 ****        -5.3307  -0.5320  -0.0038 O.co2          1 S1                -1.0000
      4 ****        -3.1726   0.4584  -0.0059 C.ar           1 S1                 0.0000
      5 ****        -2.3826   1.6296  -0.0055 C.ar           1 S1                 0.0000
      6 ****        -0.9793   1.5114  -0.0061 C.ar           1 S1                 0.0000
      7 ****        -0.4073   0.2231  -0.0078 C.ar           1 S1                 0.0000
      8 ****         0.9892   0.0998  -0.0066 N.3            1 S1                 0.0000
      9 ****         1.5162  -0.4932   1.2160 C.3            1 S1                 0.0000
     10 ****         3.0542  -0.4769   1.1875 C.3            1 S1                 0.0000
     11 ****         3.5182  -1.1439   0.0169 O.3            1 S1                 0.0000
     12 ****         3.0569  -0.5156  -1.1761 C.3            1 S1                 0.0000
     13 ****         1.5190  -0.5343  -1.2075 C.3            1 S1                 0.0000
     14 ****        -1.1543  -0.9062  -0.0084 N.ar           1 S1                 0.0000
     15 ****        -2.4998  -0.7849  -0.0074 C.ar           1 S1                 0.0000
     16 ****        -2.8347   2.6107  -0.0045 H              1 S1                 0.0000
     17 ****        -0.3574   2.3945  -0.0054 H              1 S1                 0.0000
     18 ****         1.1509   0.0598   2.0824 H              1 S1                 0.0000
     19 ****         1.1589  -1.5194   1.3131 H              1 S1                 0.0000
     20 ****         3.4327   0.5463   1.2100 H              1 S1                 0.0000
     21 ****         3.4523  -0.9835   2.0668 H              1 S1                 0.0000
     22 ****         3.4345   0.5067  -1.2308 H              1 S1                 0.0000
     23 ****         3.4575  -1.0502  -2.0374 H              1 S1                 0.0000
     24 ****         1.1633  -1.5638  -1.2705 H              1 S1                 0.0000
     25 ****         1.1550  -0.0112  -2.0926 H              1 S1                 0.0000
     26 ****        -3.0461  -1.7168  -0.0076 H              1 S1                 0.0000
     27 ****        -6.2184   1.7290  -0.0028 LP             1 S1                 0.0000
     28 ****        -4.6607   2.4864  -0.0045 LP             1 S1                 0.0000
     29 ****        -6.3302  -0.5027  -0.0027 LP             1 S1                 0.0000
     30 ****        -4.8562  -1.4123  -0.0043 LP             1 S1                 0.0000
     31 ****         1.3275   1.0407  -0.0243 LP             1 S1                 0.0000
     32 ****         3.1894  -2.0881   0.0320 LP             1 S1                 0.0000
     33 ****         4.5182  -1.1391   0.0180 LP             1 S1                 0.0000
     34 ****        -0.7209  -1.8074  -0.0096 LP             1 S1                 0.0000
@<TRIPOS>BOND
    1    1    2 ar    
    2    2    3 ar    
    3    2    4 1     
    4    4   15 ar    
    5    4    5 ar    
    6    5    6 ar    
    7    5   16 1     
    8    6    7 ar    
    9    6   17 1     
   10    7    8 1     
   11    7   14 ar    
   12    8   13 1     
   13    8    9 1     
   14    9   10 1     
   15    9   18 1     
   16    9   19 1     
   17   10   11 1     
   18   10   20 1     
   19   10   21 1     
   20   11   12 1     
   21   12   13 1     
   22   12   22 1     
   23   12   23 1     
   24   13   24 1     
   25   13   25 1     
   26   14   15 ar    
   27   15   26 1     
   28    1   27 1     
   29    1   28 1     
   30    3   29 1     
   31    3   30 1     
   32    8   31 1     
   33   11   32 1     
   34   11   33 1     
   35   14   34 1     
@<TRIPOS>SUBSTRUCTURE
      1 S1             1
@<TRIPOS>SET
LONE_PAIRS      STATIC     ATOMS    <user>   **** ""
8 27 28 29 30 31 32 33 34
ATOM$BLUE        STATIC     ATOMS    COLORGROUP SYSTEM
8 27 28 29 30 31 32 33 34
