#       Name:                AV-unprocessed.smi:2682
#       Creating user name   scv26
#       Creation time:       Fri Mar 27 14:40:31 2020


#       File generated by GOLD software.
#

@<TRIPOS>MOLECULE
AV-unprocessed.smi:2682
    38    38     1
SMALL
NO_CHARGES


@<TRIPOS>ATOM
      1 ****        -3.5992   2.9302   1.7735 C.3            1 S1                 0.0000
      2 ****        -3.1761   1.5802   1.7009 O.3            1 S1                 0.0000
      3 ****        -3.3585   1.0231   0.4097 C.3            1 S1                 0.0000
      4 ****        -2.8767  -0.4306   0.4164 C.3            1 S1                 0.0000
      5 ****        -1.4593  -0.4494   0.4242 O.3            1 S1                 0.0000
      6 ****        -0.9292  -1.7659   0.4203 C.3            1 S1                 0.0000
      7 ****         0.5969  -1.6909   0.4020 C.2            1 S1                 0.0000
      8 ****         1.2367  -2.3461   1.2233 O.2            1 S1                 0.0000
      9 ****         1.1221  -0.8914  -0.5474 N.am           1 S1                 0.0000
     10 ****         2.4650  -0.6191  -0.8630 C.2            1 S1                 0.0000
     11 ****         3.5416  -1.2703  -0.3399 C.2            1 S1                 0.0000
     12 ****         4.8998  -0.9314  -0.7285 C.2            1 S1                 0.0000
     13 ****         4.9709   0.0824  -1.6578 C.2            1 S1                 0.0000
     14 ****         3.9566   0.7690  -2.2267 N.pl3          1 S1                -1.0000
     15 ****         2.6805   0.4535  -1.8601 C.2            1 S1                 0.0000
     16 ****         1.7108   1.0409  -2.3419 O.2            1 S1                 0.0000
     17 ****        -3.4326   3.3127   2.7804 H              1 S1                 0.0000
     18 ****        -4.6628   3.0225   1.5500 H              1 S1                 0.0000
     19 ****        -3.0391   3.5569   1.0782 H              1 S1                 0.0000
     20 ****        -4.4188   1.0526   0.1546 H              1 S1                 0.0000
     21 ****        -2.8231   1.5993  -0.3467 H              1 S1                 0.0000
     22 ****        -3.2817  -0.9652   1.2772 H              1 S1                 0.0000
     23 ****        -3.2352  -0.9350  -0.4821 H              1 S1                 0.0000
     24 ****        -1.2649  -2.3130   1.3031 H              1 S1                 0.0000
     25 ****        -1.2681  -2.3128  -0.4609 H              1 S1                 0.0000
     26 ****         0.4563  -0.3884  -1.1162 H              1 S1                 0.0000
     27 ****         3.4305  -2.0689   0.3739 H              1 S1                 0.0000
     28 ****         5.7702  -1.4273  -0.3256 H              1 S1                 0.0000
     29 ****         5.9876   0.3827  -1.9900 H              1 S1                 0.0000
     30 ****        -3.7032   1.0430   2.3594 LP             1 S1                 0.0000
     31 ****        -2.2050   1.5353   1.9353 LP             1 S1                 0.0000
     32 ****        -1.1376   0.0226   1.2449 LP             1 S1                 0.0000
     33 ****        -1.1285   0.0311  -0.3880 LP             1 S1                 0.0000
     34 ****         0.7575  -2.9171   1.8899 LP             1 S1                 0.0000
     35 ****         2.2360  -2.3078   1.2243 LP             1 S1                 0.0000
     36 ****         4.1356   1.4884  -2.8978 LP             1 S1                 0.0000
     37 ****         0.7844   0.7922  -2.0590 LP             1 S1                 0.0000
     38 ****         1.8500   1.7664  -3.0160 LP             1 S1                 0.0000
@<TRIPOS>BOND
    1    1    2 1     
    2    1   17 1     
    3    1   18 1     
    4    1   19 1     
    5    2    3 1     
    6    3    4 1     
    7    3   20 1     
    8    3   21 1     
    9    4    5 1     
   10    4   22 1     
   11    4   23 1     
   12    5    6 1     
   13    6    7 1     
   14    6   24 1     
   15    6   25 1     
   16    7    8 2     
   17    7    9 am    
   18    9   26 1     
   19    9   10 1     
   20   10   11 2     
   21   10   15 1     
   22   11   12 1     
   23   11   27 1     
   24   12   13 2     
   25   12   28 1     
   26   13   14 1     
   27   13   29 1     
   28   14   15 1     
   29   15   16 2     
   30    2   30 1     
   31    2   31 1     
   32    5   32 1     
   33    5   33 1     
   34    8   34 1     
   35    8   35 1     
   36   14   36 1     
   37   16   37 1     
   38   16   38 1     
@<TRIPOS>SUBSTRUCTURE
      1 S1             1
@<TRIPOS>SET
LONE_PAIRS      STATIC     ATOMS    <user>   **** ""
9 30 31 32 33 34 35 36 37 38
DONOR_HYDROGENS      STATIC     ATOMS    <user>   **** ""
1 26
ATOM$BLUE        STATIC     ATOMS    COLORGROUP SYSTEM
9 30 31 32 33 34 35 36 37 38
ATOM$RED        STATIC     ATOMS    COLORGROUP SYSTEM
1 26
