AV-unprocessed.smi:2014|AV-procd|sdf|8162|dock8
  -GOLD-   2272010413D 1   1.00000     0.00000
 Structure written by MMmdl.
 46 48  0  0  0  0  0  0  0  0  1 V2000
  143.2327  135.3676  162.2553 C   0  0  0  0  0  0  0  0  0  0  0  0
  144.7140  135.2500  162.6410 C   0  0  2  0  0  0  0  0  0  0  0  0
  145.4997  136.5182  162.2546 C   0  0  0  0  0  0  0  0  0  0  0  0
  146.9912  136.4020  162.6220 C   0  0  0  0  0  0  0  0  0  0  0  0
  147.6460  135.1494  162.0080 C   0  0  2  0  0  0  0  0  0  0  0  0
  147.7485  135.3029  160.5583 N   0  0  0  0  0  0  0  0  0  0  0  0
  148.2899  136.3478  159.9149 C   0  0  0  0  0  0  0  0  0  0  0  0
  148.7277  137.3457  160.4878 O   0  0  0  0  0  0  0  0  0  0  0  0
  148.3349  136.2470  158.3848 C   0  0  0  0  0  0  0  0  0  0  0  0
  149.0790  137.3696  157.7752 N   0  0  0  0  0  0  0  0  0  0  0  0
  150.4026  137.6151  158.2233 C   0  0  0  0  0  0  0  0  0  0  0  0
  150.9272  136.8974  159.0772 O   0  0  0  0  0  0  0  0  0  0  0  0
  151.0689  138.7655  157.6179 C   0  0  0  0  0  0  0  0  0  0  0  0
  152.3886  139.0631  158.0673 C   0  0  0  0  0  0  0  0  0  0  0  0
  153.4517  139.3227  158.4442 N   0  0  0  0  0  0  0  0  0  0  0  0
  150.4510  139.5114  156.6789 C   0  0  0  0  0  0  0  0  0  0  0  0
  149.1789  139.2321  156.2289 N   0  0  0  0  0  0  0  0  0  0  0  0
  148.4833  140.1284  155.3488 C   0  0  0  0  0  0  0  0  0  0  0  0
  149.2206  141.2733  154.6817 C   0  0  0  0  0  0  0  0  0  0  0  0
  148.2413  141.5539  155.7950 C   0  0  0  0  0  0  0  0  0  0  0  0
  148.4364  138.1790  156.8072 C   0  0  0  0  0  0  0  0  0  0  0  0
  147.2623  137.9765  156.4881 O   0  0  0  0  0  0  0  0  0  0  0  0
  146.8473  133.8846  162.3926 C   0  0  0  0  0  0  0  0  0  0  0  0
  145.3607  134.0006  162.0130 C   0  0  0  0  0  0  0  0  0  0  0  0
  143.1107  135.4700  161.1765 H   0  0  0  0  0  0  0  0  0  0  0  0
  142.7714  136.2356  162.7270 H   0  0  0  0  0  0  0  0  0  0  0  0
  142.6735  134.4865  162.5714 H   0  0  0  0  0  0  0  0  0  0  0  0
  144.7633  135.1430  163.7258 H   0  0  0  0  0  0  0  0  0  0  0  0
  145.3987  136.7015  161.1840 H   0  0  0  0  0  0  0  0  0  0  0  0
  145.0699  137.3871  162.7540 H   0  0  0  0  0  0  0  0  0  0  0  0
  147.5238  137.3002  162.3068 H   0  0  0  0  0  0  0  0  0  0  0  0
  147.0875  136.3598  163.7076 H   0  0  0  0  0  0  0  0  0  0  0  0
  148.6579  135.0628  162.4075 H   0  0  0  0  0  0  0  0  0  0  0  0
  147.4106  134.5326  159.9998 H   0  0  0  0  0  0  0  0  0  0  0  0
  148.7740  135.2933  158.0857 H   0  0  0  0  0  0  0  0  0  0  0  0
  147.3092  136.1918  158.0180 H   0  0  0  0  0  0  0  0  0  0  0  0
  150.9731  140.3585  156.2578 H   0  0  0  0  0  0  0  0  0  0  0  0
  147.6866  139.6750  154.7615 H   0  0  0  0  0  0  0  0  0  0  0  0
  150.2777  141.4060  154.9047 H   0  0  0  0  0  0  0  0  0  0  0  0
  148.9216  141.5389  153.6698 H   0  0  0  0  0  0  0  0  0  0  0  0
  147.2899  142.0080  155.5259 H   0  0  0  0  0  0  0  0  0  0  0  0
  148.6534  141.8696  156.7516 H   0  0  0  0  0  0  0  0  0  0  0  0
  147.2800  132.9970  161.9303 H   0  0  0  0  0  0  0  0  0  0  0  0
  146.9270  133.7280  163.4690 H   0  0  0  0  0  0  0  0  0  0  0  0
  144.8322  133.1044  162.3391 H   0  0  0  0  0  0  0  0  0  0  0  0
  145.2602  134.0358  160.9272 H   0  0  0  0  0  0  0  0  0  0  0  0
  1  2  1  0  0  0  0
  1 25  1  0  0  0  0
  1 26  1  0  0  0  0
  1 27  1  0  0  0  0
  2 24  1  0  0  0  0
  2  3  1  0  0  0  0
  2 28  1  0  0  0  0
  3  4  1  0  0  0  0
  3 29  1  0  0  0  0
  3 30  1  0  0  0  0
  4  5  1  0  0  0  0
  4 31  1  0  0  0  0
  4 32  1  0  0  0  0
  5  6  1  0  0  0  0
  5 23  1  0  0  0  0
  5 33  1  0  0  0  0
  6  7  1  0  0  0  0
  6 34  1  0  0  0  0
  7  8  2  0  0  0  0
  7  9  1  0  0  0  0
  9 10  1  0  0  0  0
  9 35  1  0  0  0  0
  9 36  1  0  0  0  0
 10 21  1  0  0  0  0
 10 11  1  0  0  0  0
 11 12  2  0  0  0  0
 11 13  1  0  0  0  0
 13 14  1  0  0  0  0
 13 16  2  0  0  0  0
 14 15  3  0  0  0  0
 16 17  1  0  0  0  0
 16 37  1  0  0  0  0
 17 18  1  0  0  0  0
 17 21  1  0  0  0  0
 18 20  1  0  0  0  0
 18 19  1  0  0  0  0
 18 38  1  0  0  0  0
 19 20  1  0  0  0  0
 19 39  1  0  0  0  0
 19 40  1  0  0  0  0
 20 41  1  0  0  0  0
 20 42  1  0  0  0  0
 21 22  2  0  0  0  0
 23 24  1  0  0  0  0
 23 43  1  0  0  0  0
 23 44  1  0  0  0  0
 24 45  1  0  0  0  0
 24 46  1  0  0  0  0
M  END
> <s_m_source_file>
AV-unprocessed.smi

> <i_m_source_file_index>
2014

> <i_lp_mmshare_version>
43012

> <i_f3d_flags>
0

> <s_epik_input>
W0NIM11bQ0BASF0xW0NIMl1bQ0gyXVtDQEhdKFtDSDJdW0NIMl0xKVtOSF1DKD1PKVtDSDJdbjJjKD1PKWMoQyNOKVtjSF1uKGMyPU8pW0NIXTNbQ0gyXVtDSDJdMw==

> <s_epik_cmdline>
J2VwaWtfcHl0aG9uJywgJy1waCcsICc3LjAnLCAnLXRuJywgJzgnLCAnLW1hJywgJzIwMCcsICctbWV0YWxfYmluZGluZycsICctaW1hZScsICc8aW5maWxlLm1hZT4nLCAnLW9tYWUnLCAnPG91dGZpbGUubWFlPic=

> <r_lp_tautomer_probability>
1

> <r_epik_Ionization_Penalty>
1.91358e-08

> <r_epik_Ionization_Penalty_Charging>
8.89021e-11

> <r_epik_Ionization_Penalty_Neutral>
1.90469e-08

> <r_epik_State_Penalty>
-0

> <r_epik_Charging_Adjusted_Penalty>
8.89021e-11

> <i_epik_Tot_Q>
0

> <i_epik_Tot_abs_Q>
0

> <r_epik_Metal_State_Penalty>
-0

> <b_epik_Metal_Only>
0

> <s_lp_Force_Field>
OPLS_2005

> <r_lp_Energy>
34.0364

> <b_lp_Chiralities_Consistent>
1

> <s_lp_Variant>
AV-unprocessed.smi:2014-2

> <Gold.Version>
5.8.1

> <Gold.Id.Protein>
6NUR|6NUR_protein|mol2

> <Gold.PLP.Fitness>
43.6824

> <Gold.PLP.PLP>
-35.6063

> <Gold.PLP.part.hbond>
-3.4687

> <Gold.PLP.part.metal>
0.0000

> <Gold.PLP.part.buried>
-4.1587

> <Gold.PLP.part.nonpolar>
-28.3156

> <Gold.PLP.part.repulsive>
0.1069

> <Gold.PLP.ligand.clash>
0.0000

> <Gold.PLP.ligand.torsion>
0.2145

> <Gold.PLP.Chemscore.Hbond>
2.7633

> <Gold.PLP.Chemscore.CHOScore>
0.0000

> <Gold.PLP.Chemscore.Metal>
0.0000

> <Gold.Chemscore.Hbonds>
donor molecule, donor type, donor heavy atom, donor atom, acceptor molecule, acceptor atom, score
      P1  H  6896  6908       L1    12  1.00
      P1  H  6931  6943       L1     8  0.61
      P1  H  6934  6947       L1     8  0.12
      P1  H  7997  8010       L1    15  1.00

> <Gold.PLP.Chemscore.Internal.Correction>
0.2150

> <Gold.Rescore>
     Score         DG    S(hbond)    S(metal)    S(lipo)     H(rot)  DE(clash)    DE(int)     intcor
     19.44     -20.27       3.05        0.00      76.45       1.70       0.19       0.64       ----

> <Gold.Chemscore.Fitness>
19.4436

> <Gold.Chemscore.DG>
-20.2658

> <Gold.Chemscore.ZeroCoef>
-5.4800

> <Gold.Chemscore.Hbond>
3.0547

> <Gold.Chemscore.Metal>
0.0000

> <Gold.Chemscore.Lipo>
76.4519

> <Gold.Chemscore.Internal_Hbond>
0.0000

> <Gold.Chemscore.DEClash>
0.1865

> <Gold.Chemscore.DEInternal>
0.6357

> <Gold.Chemscore.Rot>
1.7038

> <Gold.Chemscore.Internal.Correction>
   9.000000E+99

> <Gold.Chemscore.Hbonds>
donor molecule, donor type, donor heavy atom, donor atom, acceptor molecule, acceptor atom, score
      P1  H  6896  6908       L1    12  0.97
      P1  H  6931  6943       L1     8  0.62
      P1  H  6934  6947       L1     8  0.12
      P1  H  7997  8010       L1    15  0.87

> <Gold.Chemscore.Hbond.Weighted>
-10.2027

> <Gold.Chemscore.Metal.Weighted>
-0.0000

> <Gold.Chemscore.Lipo.Weighted>
-8.9449

> <Gold.Chemscore.Internal_Hbond.Weighted>
0.0000

> <Gold.Chemscore.DEClash.Weighted>
0.1865

> <Gold.Chemscore.DEInternal.Weighted>
0.6357

> <Gold.Chemscore.Rot.Weighted>
4.3618

> <Gold.Chemscore.Internal.Correction.Weighted>
   9.000000E+99

> <Gold.Protein.RotatedTorsions>
[ 6907 6896 6895 6894 ] final -142.39 input  -60.11 | X-H torsion
[ 7974 7965 7964 7962 ] final -121.66 input  175.53 | X-H torsion
[ 8008 7997 7996 7995 ] final   31.66 input   59.86 | X-H torsion
[ 10167 10162 10161 10158 ] final   83.03 input  -65.29 | X-H torsion
[ 10718 10713 10712 10709 ] final -173.52 input   66.30 | X-H torsion
[ 10763 10752 10751 10750 ] final  106.34 input  -60.55 | X-H torsion
[ 11005 11000 10999 10996 ] final -165.21 input  -57.11 | X-H torsion

> <Gold.Protein.ActiveResidues>
 VAL166  LYS551  ARG553  GLY616  TRP617  ASP618  TYR619  PRO620  LYS621  CYS622 
 ASP623  PHE694  ASN695  SER759  ASP760  ASP761  ALA762  ILE779  LEU786  VAL792 
 PHE793  MET794  SER795  GLU796  ALA797  LYS798  CYS799  TRP800  GLU811  SER814 

> <Gold.Protein.RotatedAtoms>
  151.0864  133.5350  159.2617 H   0  0  0  0  0  0  0  0  0  0  0  0  # atno 6907 bound_to 6896
  151.2233  135.0526  159.8968 H   0  0  0  0  0  0  0  0  0  0  0  0  # atno 6908 bound_to 6896
  152.5429  134.0663  159.8228 H   0  0  0  0  0  0  0  0  0  0  0  0  # atno 6909 bound_to 6896
  145.0379  140.8120  143.4284 H   0  0  0  0  0  0  0  0  0  0  0  0  # atno 7974 bound_to 7965
  155.1100  140.3238  155.4524 H   0  0  0  0  0  0  0  0  0  0  0  0  # atno 8008 bound_to 7997
  156.2693  140.2046  156.6172 H   0  0  0  0  0  0  0  0  0  0  0  0  # atno 8009 bound_to 7997
  154.6763  140.0531  157.0206 H   0  0  0  0  0  0  0  0  0  0  0  0  # atno 8010 bound_to 7997
  139.9226  144.6203  150.8424 H   0  0  0  0  0  0  0  0  0  0  0  0  # atno 10167 bound_to 10162
  156.7715  130.9450  151.3120 H   0  0  0  0  0  0  0  0  0  0  0  0  # atno 10718 bound_to 10713
  153.3917  135.3880  155.1927 H   0  0  0  0  0  0  0  0  0  0  0  0  # atno 10763 bound_to 10752
  154.8720  135.3750  154.4729 H   0  0  0  0  0  0  0  0  0  0  0  0  # atno 10764 bound_to 10752
  153.5217  135.7086  153.5789 H   0  0  0  0  0  0  0  0  0  0  0  0  # atno 10765 bound_to 10752
  140.5782  134.5168  157.5174 H   0  0  0  0  0  0  0  0  0  0  0  0  # atno 11005 bound_to 11000
  145.1686  139.2417  143.5354 LP  0  0  0  0  0  0  0  0  0  0  0  0  # atno 17320 bound_to 7965
  146.3506  140.1431  142.8594 LP  0  0  0  0  0  0  0  0  0  0  0  0  # atno 17321 bound_to 7965
  140.7658  143.3286  151.2461 LP  0  0  0  0  0  0  0  0  0  0  0  0  # atno 17342 bound_to 10162
  139.6848  143.9792  152.2828 LP  0  0  0  0  0  0  0  0  0  0  0  0  # atno 17343 bound_to 10162
  157.6688  130.9032  149.9994 LP  0  0  0  0  0  0  0  0  0  0  0  0  # atno 17370 bound_to 10713
  156.1275  130.3644  149.9786 LP  0  0  0  0  0  0  0  0  0  0  0  0  # atno 17371 bound_to 10713
  139.9329  134.7929  156.0880 LP  0  0  0  0  0  0  0  0  0  0  0  0  # atno 17394 bound_to 11000
  141.1013  133.6676  156.2761 LP  0  0  0  0  0  0  0  0  0  0  0  0  # atno 17395 bound_to 11000

$$$$
