AV-unprocessed.smi:1953|AV-procd|sdf|7893|dock5
  -GOLD-   2272010 53D 1   1.00000     0.00000
 Structure written by MMmdl.
 43 45  0  0  0  0  0  0  0  0  1 V2000
  155.5115  140.6193  161.9478 N   0  0  0  0  0  0  0  0  0  0  0  0
  154.6258  140.7474  161.2137 C   0  0  0  0  0  0  0  0  0  0  0  0
  153.5522  140.9258  160.2933 C   0  0  0  0  0  0  0  0  0  0  0  0
  152.9600  142.1247  160.1157 C   0  0  0  0  0  0  0  0  0  0  0  0
  151.9313  142.3174  159.2197 N   0  0  0  0  0  0  0  0  0  0  0  0
  151.2208  143.5629  159.1468 C   0  0  0  0  0  0  0  0  0  0  0  0
  151.8460  144.7547  158.4478 C   0  0  0  0  0  0  0  0  0  0  0  0
  151.7195  144.7439  159.9511 C   0  0  0  0  0  0  0  0  0  0  0  0
  151.3989  141.2233  158.5040 C   0  0  0  0  0  0  0  0  0  0  0  0
  150.4271  141.3620  157.7566 O   0  0  0  0  0  0  0  0  0  0  0  0
  152.0145  139.9587  158.6711 N   0  0  0  0  0  0  0  0  0  0  0  0
  151.5042  138.8203  157.8763 C   0  0  0  0  0  0  0  0  0  0  0  0
  150.8049  137.7569  158.7356 C   0  0  0  0  0  0  0  0  0  0  0  0
  151.4505  137.0439  159.5053 O   0  0  0  0  0  0  0  0  0  0  0  0
  149.4732  137.6715  158.5970 N   0  0  0  0  0  0  0  0  0  0  0  0
  148.6098  136.7251  159.2968 C   0  0  0  0  0  0  0  0  0  0  0  0
  149.0425  136.5810  160.7717 C   0  0  0  0  0  0  0  0  0  0  0  0
  148.2006  135.5247  161.5054 C   0  0  0  0  0  0  0  0  0  0  0  0
  148.2525  134.1699  160.7829 C   0  0  0  0  0  0  0  0  0  0  0  0
  147.8127  134.3079  159.3171 C   0  0  0  0  0  0  0  0  0  0  0  0
  148.6536  135.3623  158.5795 C   0  0  0  0  0  0  0  0  0  0  0  0
  153.1114  139.7500  159.5459 C   0  0  0  0  0  0  0  0  0  0  0  0
  153.6396  138.6419  159.6506 O   0  0  0  0  0  0  0  0  0  0  0  0
  153.3103  142.9705  160.6899 H   0  0  0  0  0  0  0  0  0  0  0  0
  150.1395  143.4754  159.0563 H   0  0  0  0  0  0  0  0  0  0  0  0
  152.8463  144.6424  158.0334 H   0  0  0  0  0  0  0  0  0  0  0  0
  151.1829  145.4134  157.8909 H   0  0  0  0  0  0  0  0  0  0  0  0
  150.9725  145.3974  160.3966 H   0  0  0  0  0  0  0  0  0  0  0  0
  152.6355  144.6240  160.5263 H   0  0  0  0  0  0  0  0  0  0  0  0
  150.8044  139.1463  157.1058 H   0  0  0  0  0  0  0  0  0  0  0  0
  152.3163  138.3551  157.3143 H   0  0  0  0  0  0  0  0  0  0  0  0
  149.0244  138.3006  157.9471 H   0  0  0  0  0  0  0  0  0  0  0  0
  147.5826  137.0937  159.2638 H   0  0  0  0  0  0  0  0  0  0  0  0
  150.0960  136.3019  160.8220 H   0  0  0  0  0  0  0  0  0  0  0  0
  148.9529  137.5374  161.2881 H   0  0  0  0  0  0  0  0  0  0  0  0
  148.5553  135.4141  162.5304 H   0  0  0  0  0  0  0  0  0  0  0  0
  147.1663  135.8648  161.5711 H   0  0  0  0  0  0  0  0  0  0  0  0
  149.2669  133.7712  160.8247 H   0  0  0  0  0  0  0  0  0  0  0  0
  147.6154  133.4495  161.2967 H   0  0  0  0  0  0  0  0  0  0  0  0
  147.8974  133.3456  158.8115 H   0  0  0  0  0  0  0  0  0  0  0  0
  146.7591  134.5872  159.2764 H   0  0  0  0  0  0  0  0  0  0  0  0
  148.2935  135.4671  157.5552 H   0  0  0  0  0  0  0  0  0  0  0  0
  149.6854  135.0143  158.5099 H   0  0  0  0  0  0  0  0  0  0  0  0
  1  2  3  0  0  0  0
  2  3  1  0  0  0  0
  3 22  1  0  0  0  0
  3  4  2  0  0  0  0
  4  5  1  0  0  0  0
  4 24  1  0  0  0  0
  5  6  1  0  0  0  0
  5  9  1  0  0  0  0
  6  8  1  0  0  0  0
  6  7  1  0  0  0  0
  6 25  1  0  0  0  0
  7  8  1  0  0  0  0
  7 26  1  0  0  0  0
  7 27  1  0  0  0  0
  8 28  1  0  0  0  0
  8 29  1  0  0  0  0
  9 10  2  0  0  0  0
  9 11  1  0  0  0  0
 11 12  1  0  0  0  0
 11 22  1  0  0  0  0
 12 13  1  0  0  0  0
 12 30  1  0  0  0  0
 12 31  1  0  0  0  0
 13 14  2  0  0  0  0
 13 15  1  0  0  0  0
 15 16  1  0  0  0  0
 15 32  1  0  0  0  0
 16 21  1  0  0  0  0
 16 17  1  0  0  0  0
 16 33  1  0  0  0  0
 17 18  1  0  0  0  0
 17 34  1  0  0  0  0
 17 35  1  0  0  0  0
 18 19  1  0  0  0  0
 18 36  1  0  0  0  0
 18 37  1  0  0  0  0
 19 20  1  0  0  0  0
 19 38  1  0  0  0  0
 19 39  1  0  0  0  0
 20 21  1  0  0  0  0
 20 40  1  0  0  0  0
 20 41  1  0  0  0  0
 21 42  1  0  0  0  0
 21 43  1  0  0  0  0
 22 23  2  0  0  0  0
M  END
> <s_m_source_file>
AV-unprocessed.smi

> <i_m_source_file_index>
1953

> <i_lp_mmshare_version>
43012

> <i_f3d_flags>
0

> <s_epik_input>
TiNDYzFbY0hdbihbQ0hdMltDSDJdW0NIMl0yKWMoPU8pbihjMT1PKVtDSDJdQyg9TylbTkhdW0NIXTNbQ0gyXVtDSDJdW0NIMl1bQ0gyXVtDSDJdMw==

> <s_epik_cmdline>
J2VwaWtfcHl0aG9uJywgJy1waCcsICc3LjAnLCAnLXRuJywgJzgnLCAnLW1hJywgJzIwMCcsICctbWV0YWxfYmluZGluZycsICctaW1hZScsICc8aW5maWxlLm1hZT4nLCAnLW9tYWUnLCAnPG91dGZpbGUubWFlPic=

> <r_lp_tautomer_probability>
1

> <r_epik_Ionization_Penalty>
1.91355e-08

> <r_epik_Ionization_Penalty_Charging>
8.86257e-11

> <r_epik_Ionization_Penalty_Neutral>
1.90469e-08

> <r_epik_State_Penalty>
-0

> <r_epik_Charging_Adjusted_Penalty>
8.86257e-11

> <i_epik_Tot_Q>
0

> <i_epik_Tot_abs_Q>
0

> <r_epik_Metal_State_Penalty>
-0

> <b_epik_Metal_Only>
0

> <s_lp_Force_Field>
OPLS_2005

> <r_lp_Energy>
34.5376

> <b_lp_Chiralities_Consistent>
1

> <s_lp_Variant>
AV-unprocessed.smi:1953-1

> <Gold.Version>
5.8.1

> <Gold.Id.Protein>
6NUR|6NUR_protein|mol2

> <Gold.PLP.Fitness>
46.8275

> <Gold.PLP.PLP>
-44.8829

> <Gold.PLP.part.hbond>
-2.0000

> <Gold.PLP.part.metal>
0.0000

> <Gold.PLP.part.buried>
-3.9932

> <Gold.PLP.part.nonpolar>
-38.8682

> <Gold.PLP.part.repulsive>
0.1326

> <Gold.PLP.ligand.clash>
0.0000

> <Gold.PLP.ligand.torsion>
0.6286

> <Gold.PLP.Chemscore.Hbond>
1.0000

> <Gold.PLP.Chemscore.CHOScore>
0.0000

> <Gold.PLP.Chemscore.Metal>
0.0000

> <Gold.Chemscore.Hbonds>
donor molecule, donor type, donor heavy atom, donor atom, acceptor molecule, acceptor atom, score
      P1  H  6896  6907       L1    14  1.00

> <Gold.PLP.Chemscore.Internal.Correction>
0.2018

> <Gold.Rescore>
     Score         DG    S(hbond)    S(metal)    S(lipo)     H(rot)  DE(clash)    DE(int)     intcor
     12.42     -14.30       1.00        0.00      84.79       1.73       0.01       1.88       ----

> <Gold.Chemscore.Fitness>
12.4198

> <Gold.Chemscore.DG>
-14.3048

> <Gold.Chemscore.ZeroCoef>
-5.4800

> <Gold.Chemscore.Hbond>
0.9977

> <Gold.Chemscore.Metal>
0.0000

> <Gold.Chemscore.Lipo>
84.7936

> <Gold.Chemscore.Internal_Hbond>
0.0000

> <Gold.Chemscore.DEClash>
0.0092

> <Gold.Chemscore.DEInternal>
1.8757

> <Gold.Chemscore.Rot>
1.7298

> <Gold.Chemscore.Internal.Correction>
   9.000000E+99

> <Gold.Chemscore.Hbonds>
donor molecule, donor type, donor heavy atom, donor atom, acceptor molecule, acceptor atom, score
      P1  H  6896  6907       L1    14  0.99

> <Gold.Chemscore.Hbond.Weighted>
-3.3323

> <Gold.Chemscore.Metal.Weighted>
-0.0000

> <Gold.Chemscore.Lipo.Weighted>
-9.9208

> <Gold.Chemscore.Internal_Hbond.Weighted>
0.0000

> <Gold.Chemscore.DEClash.Weighted>
0.0092

> <Gold.Chemscore.DEInternal.Weighted>
1.8757

> <Gold.Chemscore.Rot.Weighted>
4.4284

> <Gold.Chemscore.Internal.Correction.Weighted>
   9.000000E+99

> <Gold.Protein.RotatedTorsions>
[ 6907 6896 6895 6894 ] final  -11.37 input  -60.11 | X-H torsion
[ 7974 7965 7964 7962 ] final  127.83 input  175.53 | X-H torsion
[ 8008 7997 7996 7995 ] final  -93.19 input   59.86 | X-H torsion
[ 10167 10162 10161 10158 ] final -174.21 input  -65.29 | X-H torsion
[ 10718 10713 10712 10709 ] final   41.00 input   66.30 | X-H torsion
[ 10763 10752 10751 10750 ] final  -91.56 input  -60.55 | X-H torsion
[ 11005 11000 10999 10996 ] final -145.23 input  -57.11 | X-H torsion

> <Gold.Protein.ActiveResidues>
 VAL166  LYS551  ARG553  GLY616  TRP617  ASP618  TYR619  PRO620  LYS621  CYS622 
 ASP623  PHE694  ASN695  SER759  ASP760  ASP761  ALA762  ILE779  LEU786  VAL792 
 PHE793  MET794  SER795  GLU796  ALA797  LYS798  CYS799  TRP800  GLU811  SER814 

> <Gold.Protein.RotatedAtoms>
  151.3872  135.0950  159.9514 H   0  0  0  0  0  0  0  0  0  0  0  0  # atno 6907 bound_to 6896
  152.5090  133.9014  159.7453 H   0  0  0  0  0  0  0  0  0  0  0  0  # atno 6908 bound_to 6896
  150.9460  133.6547  159.2810 H   0  0  0  0  0  0  0  0  0  0  0  0  # atno 6909 bound_to 6896
  145.0463  139.3921  143.5077 H   0  0  0  0  0  0  0  0  0  0  0  0  # atno 7974 bound_to 7965
  154.7326  140.0501  157.0740 H   0  0  0  0  0  0  0  0  0  0  0  0  # atno 8008 bound_to 7997
  155.0282  140.3155  155.4749 H   0  0  0  0  0  0  0  0  0  0  0  0  # atno 8009 bound_to 7997
  156.2845  140.2154  156.5403 H   0  0  0  0  0  0  0  0  0  0  0  0  # atno 8010 bound_to 7997
  139.5646  144.1786  152.1293 H   0  0  0  0  0  0  0  0  0  0  0  0  # atno 10167 bound_to 10162
  157.3886  130.7793  149.7250 H   0  0  0  0  0  0  0  0  0  0  0  0  # atno 10718 bound_to 10713
  154.6772  135.5263  153.8216 H   0  0  0  0  0  0  0  0  0  0  0  0  # atno 10763 bound_to 10752
  153.0540  135.6543  154.0632 H   0  0  0  0  0  0  0  0  0  0  0  0  # atno 10764 bound_to 10752
  154.0523  135.2968  155.3318 H   0  0  0  0  0  0  0  0  0  0  0  0  # atno 10765 bound_to 10752
  140.7944  134.2931  157.5002 H   0  0  0  0  0  0  0  0  0  0  0  0  # atno 11005 bound_to 11000
  146.3514  140.0089  142.8669 LP  0  0  0  0  0  0  0  0  0  0  0  0  # atno 17320 bound_to 7965
  145.1584  140.9660  143.4391 LP  0  0  0  0  0  0  0  0  0  0  0  0  # atno 17321 bound_to 7965
  140.1307  144.5291  150.6805 LP  0  0  0  0  0  0  0  0  0  0  0  0  # atno 17342 bound_to 10162
  140.6929  143.2386  151.5082 LP  0  0  0  0  0  0  0  0  0  0  0  0  # atno 17343 bound_to 10162
  155.9792  130.4042  150.3598 LP  0  0  0  0  0  0  0  0  0  0  0  0  # atno 17370 bound_to 10713
  157.1711  131.0369  151.2795 LP  0  0  0  0  0  0  0  0  0  0  0  0  # atno 17371 bound_to 10713
  139.8728  134.9393  156.3738 LP  0  0  0  0  0  0  0  0  0  0  0  0  # atno 17394 bound_to 11000
  140.9358  133.7548  156.0082 LP  0  0  0  0  0  0  0  0  0  0  0  0  # atno 17395 bound_to 11000

$$$$
