AV-unprocessed.smi:2906|AV-procd|sdf|11162|dock2
  -GOLD-   2272016 43D 1   1.00000     0.00000
 Structure written by MMmdl.
 40 41  0  0  0  0  0  0  0  0  1 V2000
  150.7919  142.0786  156.3179 C   0  0  0  0  0  0  0  0  0  0  0  0
  150.3101  140.6308  156.5048 C   0  0  0  0  0  0  0  0  0  0  0  0
  151.0120  139.6197  155.5822 C   0  0  0  0  0  0  0  0  0  0  0  0
  151.8777  140.0065  154.7955 O   0  0  0  0  0  0  0  0  0  0  0  0
  150.6525  138.3216  155.6678 N   0  0  0  0  0  0  0  0  0  0  0  0
  149.6174  137.8347  156.5735 C   0  0  0  0  0  0  0  0  0  0  0  0
  149.7408  136.3122  156.5960 C   0  0  0  0  0  0  0  0  0  0  0  0
  150.5523  135.9334  155.3570 C   0  0  1  0  0  0  0  0  0  0  0  0
  149.7147  135.3086  154.3365 N   0  0  0  0  0  0  0  0  0  0  0  0
  149.1780  134.0831  154.4258 C   0  0  0  0  0  0  0  0  0  0  0  0
  149.3457  133.3387  155.3924 O   0  0  0  0  0  0  0  0  0  0  0  0
  148.4480  133.7908  153.3352 N   0  0  0  0  0  0  0  0  0  0  0  0
  147.7406  132.5940  153.0495 C   0  0  0  0  0  0  0  0  0  0  0  0
  146.8386  132.4677  152.0700 N   0  0  0  0  0  0  0  0  0  0  0  0
  146.2951  131.1807  152.0133 C   0  0  0  0  0  0  0  0  0  0  0  0
  145.2687  130.8501  150.9727 C   0  0  0  0  0  0  0  0  0  0  0  0
  145.0938  131.9778  149.9495 C   0  0  0  0  0  0  0  0  0  0  0  0
  146.8015  130.3357  152.9708 C   0  0  0  0  0  0  0  0  0  0  0  0
  147.9826  131.1249  153.9814 S   0  0  0  0  0  0  0  0  0  0  0  0
  151.1984  137.2363  154.8564 C   0  0  0  0  0  0  0  0  0  0  0  0
  150.2614  142.7503  156.9929 H   0  0  0  0  0  0  0  0  0  0  0  0
  150.6161  142.4298  155.3005 H   0  0  0  0  0  0  0  0  0  0  0  0
  151.8574  142.1745  156.5301 H   0  0  0  0  0  0  0  0  0  0  0  0
  150.4714  140.3356  157.5419 H   0  0  0  0  0  0  0  0  0  0  0  0
  149.2357  140.5874  156.3238 H   0  0  0  0  0  0  0  0  0  0  0  0
  149.7200  138.2514  157.5767 H   0  0  0  0  0  0  0  0  0  0  0  0
  148.6426  138.1319  156.1842 H   0  0  0  0  0  0  0  0  0  0  0  0
  150.2924  136.0132  157.4884 H   0  0  0  0  0  0  0  0  0  0  0  0
  148.7680  135.8209  156.6435 H   0  0  0  0  0  0  0  0  0  0  0  0
  151.3273  135.2211  155.6469 H   0  0  0  0  0  0  0  0  0  0  0  0
  149.5288  135.8517  153.5062 H   0  0  0  0  0  0  0  0  0  0  0  0
  148.3920  134.5070  152.6263 H   0  0  0  0  0  0  0  0  0  0  0  0
  145.5466  129.9336  150.4512 H   0  0  0  0  0  0  0  0  0  0  0  0
  144.3092  130.6437  151.4480 H   0  0  0  0  0  0  0  0  0  0  0  0
  144.3462  131.7116  149.2023 H   0  0  0  0  0  0  0  0  0  0  0  0
  146.0286  132.1838  149.4275 H   0  0  0  0  0  0  0  0  0  0  0  0
  144.7681  132.9001  150.4316 H   0  0  0  0  0  0  0  0  0  0  0  0
  146.5520  129.2991  153.1414 H   0  0  0  0  0  0  0  0  0  0  0  0
  150.9980  137.4154  153.7987 H   0  0  0  0  0  0  0  0  0  0  0  0
  152.2806  137.1844  154.9833 H   0  0  0  0  0  0  0  0  0  0  0  0
  1  2  1  0  0  0  0
  1 21  1  0  0  0  0
  1 22  1  0  0  0  0
  1 23  1  0  0  0  0
  2  3  1  0  0  0  0
  2 24  1  0  0  0  0
  2 25  1  0  0  0  0
  3  4  2  0  0  0  0
  3  5  1  0  0  0  0
  5 20  1  0  0  0  0
  5  6  1  0  0  0  0
  6  7  1  0  0  0  0
  6 26  1  0  0  0  0
  6 27  1  0  0  0  0
  7  8  1  0  0  0  0
  7 28  1  0  0  0  0
  7 29  1  0  0  0  0
  8  9  1  0  0  0  0
  8 20  1  0  0  0  0
  8 30  1  0  0  0  0
  9 10  1  0  0  0  0
  9 31  1  0  0  0  0
 10 11  2  0  0  0  0
 10 12  1  0  0  0  0
 12 13  1  0  0  0  0
 12 32  1  0  0  0  0
 13 19  1  0  0  0  0
 13 14  2  0  0  0  0
 14 15  1  0  0  0  0
 15 16  1  0  0  0  0
 15 18  2  0  0  0  0
 16 17  1  0  0  0  0
 16 33  1  0  0  0  0
 16 34  1  0  0  0  0
 17 35  1  0  0  0  0
 17 36  1  0  0  0  0
 17 37  1  0  0  0  0
 18 19  1  0  0  0  0
 18 38  1  0  0  0  0
 20 39  1  0  0  0  0
 20 40  1  0  0  0  0
M  END
> <s_m_source_file>
AV-unprocessed.smi

> <i_m_source_file_index>
2906

> <i_lp_mmshare_version>
43012

> <i_f3d_flags>
0

> <s_epik_input>
W0NIM11bQ0gyXUMoPU8pTjFbQ0gyXVtDSDJdW0NASF0oW0NIMl0xKVtOSF1DKD1PKVtOSF1jMm5jKFtjSF1zMilbQ0gyXVtDSDNd

> <s_epik_cmdline>
J2VwaWtfcHl0aG9uJywgJy1waCcsICc3LjAnLCAnLXRuJywgJzgnLCAnLW1hJywgJzIwMCcsICctbWV0YWxfYmluZGluZycsICctaW1hZScsICc8aW5maWxlLm1hZT4nLCAnLW9tYWUnLCAnPG91dGZpbGUubWFlPic=

> <r_lp_tautomer_probability>
1

> <r_epik_Ionization_Penalty>
0.000174744

> <r_epik_Ionization_Penalty_Charging>
0

> <r_epik_Ionization_Penalty_Neutral>
0.000174744

> <r_epik_State_Penalty>
-0

> <r_epik_Charging_Adjusted_Penalty>
0

> <i_epik_Tot_Q>
0

> <i_epik_Tot_abs_Q>
0

> <r_epik_Metal_State_Penalty>
0.0273865

> <b_epik_Metal_Only>
0

> <s_lp_Force_Field>
OPLS_2005

> <r_lp_Energy>
22.1367

> <b_lp_Chiralities_Consistent>
1

> <s_lp_Variant>
AV-unprocessed.smi:2906-1

> <Gold.Version>
5.8.1

> <Gold.Id.Protein>
6NUR|6NUR_protein|mol2

> <Gold.PLP.Fitness>
41.1714

> <Gold.PLP.PLP>
-32.8955

> <Gold.PLP.part.hbond>
-3.2654

> <Gold.PLP.part.metal>
0.0000

> <Gold.PLP.part.buried>
-4.6111

> <Gold.PLP.part.nonpolar>
-25.2578

> <Gold.PLP.part.repulsive>
0.2584

> <Gold.PLP.ligand.clash>
0.0000

> <Gold.PLP.ligand.torsion>
0.2011

> <Gold.PLP.Chemscore.Hbond>
2.8880

> <Gold.PLP.Chemscore.CHOScore>
0.0000

> <Gold.PLP.Chemscore.Metal>
0.0000

> <Gold.Chemscore.Hbonds>
donor molecule, donor type, donor heavy atom, donor atom, acceptor molecule, acceptor atom, score
      L1  H     9    31       P1  7948  1.00
      L1  H    12    32       P1  7948  0.90
      P1  H  7989  7998       L1     4  0.93

> <Gold.PLP.Chemscore.Internal.Correction>
0.0142

> <Gold.Rescore>
     Score         DG    S(hbond)    S(metal)    S(lipo)     H(rot)  DE(clash)    DE(int)     intcor
     16.51     -17.96       2.42        0.00      68.49       1.41       0.02       1.43       ----

> <Gold.Chemscore.Fitness>
16.5062

> <Gold.Chemscore.DG>
-17.9622

> <Gold.Chemscore.ZeroCoef>
-5.4800

> <Gold.Chemscore.Hbond>
2.4190

> <Gold.Chemscore.Metal>
0.0000

> <Gold.Chemscore.Lipo>
68.4853

> <Gold.Chemscore.Internal_Hbond>
0.0000

> <Gold.Chemscore.DEClash>
0.0217

> <Gold.Chemscore.DEInternal>
1.4343

> <Gold.Chemscore.Rot>
1.4102

> <Gold.Chemscore.Internal.Correction>
   9.000000E+99

> <Gold.Chemscore.Hbonds>
donor molecule, donor type, donor heavy atom, donor atom, acceptor molecule, acceptor atom, score
      L1  H     9    31       P1  7948  0.30
      L1  H    12    32       P1  7948  0.17
      P1  H  7989  7998       L1     4  0.87

> <Gold.Chemscore.Hbond.Weighted>
-8.0795

> <Gold.Chemscore.Metal.Weighted>
-0.0000

> <Gold.Chemscore.Lipo.Weighted>
-8.0128

> <Gold.Chemscore.Internal_Hbond.Weighted>
0.0000

> <Gold.Chemscore.DEClash.Weighted>
0.0217

> <Gold.Chemscore.DEInternal.Weighted>
1.4343

> <Gold.Chemscore.Rot.Weighted>
3.6101

> <Gold.Chemscore.Internal.Correction.Weighted>
   9.000000E+99

> <Gold.Protein.RotatedTorsions>
[ 6907 6896 6895 6894 ] final -118.05 input  -60.11 | X-H torsion
[ 7974 7965 7964 7962 ] final  123.07 input  175.53 | X-H torsion
[ 8008 7997 7996 7995 ] final -103.61 input   59.86 | X-H torsion
[ 10167 10162 10161 10158 ] final  -14.05 input  -65.29 | X-H torsion
[ 10718 10713 10712 10709 ] final   70.72 input   66.30 | X-H torsion
[ 10763 10752 10751 10750 ] final  153.02 input  -60.55 | X-H torsion
[ 11005 11000 10999 10996 ] final  155.24 input  -57.11 | X-H torsion

> <Gold.Protein.ActiveResidues>
 VAL166  LYS551  ARG553  GLY616  TRP617  ASP618  TYR619  PRO620  LYS621  CYS622 
 ASP623  PHE694  ASN695  SER759  ASP760  ASP761  ALA762  ILE779  LEU786  VAL792 
 PHE793  MET794  SER795  GLU796  ALA797  LYS798  CYS799  TRP800  GLU811  SER814 

> <Gold.Protein.RotatedAtoms>
  150.8188  133.8290  159.3148 H   0  0  0  0  0  0  0  0  0  0  0  0  # atno 6907 bound_to 6896
  151.6054  135.1042  160.0079 H   0  0  0  0  0  0  0  0  0  0  0  0  # atno 6908 bound_to 6896
  152.4278  133.7184  159.6576 H   0  0  0  0  0  0  0  0  0  0  0  0  # atno 6909 bound_to 6896
  145.1001  139.3524  143.4816 H   0  0  0  0  0  0  0  0  0  0  0  0  # atno 7974 bound_to 7965
  154.8735  140.0422  157.1739 H   0  0  0  0  0  0  0  0  0  0  0  0  # atno 8008 bound_to 7997
  154.8714  140.2959  155.5458 H   0  0  0  0  0  0  0  0  0  0  0  0  # atno 8009 bound_to 7997
  156.2999  140.2428  156.3704 H   0  0  0  0  0  0  0  0  0  0  0  0  # atno 8010 bound_to 7997
  140.7194  143.5361  150.9463 H   0  0  0  0  0  0  0  0  0  0  0  0  # atno 10167 bound_to 10162
  157.6415  130.9492  150.0690 H   0  0  0  0  0  0  0  0  0  0  0  0  # atno 10718 bound_to 10713
  154.1295  135.2827  155.3189 H   0  0  0  0  0  0  0  0  0  0  0  0  # atno 10763 bound_to 10752
  154.6366  135.5417  153.7744 H   0  0  0  0  0  0  0  0  0  0  0  0  # atno 10764 bound_to 10752
  153.0286  135.6476  154.1446 H   0  0  0  0  0  0  0  0  0  0  0  0  # atno 10765 bound_to 10752
  140.1563  134.8640  157.2518 H   0  0  0  0  0  0  0  0  0  0  0  0  # atno 11005 bound_to 11000
  146.3530  140.0875  142.8614 LP  0  0  0  0  0  0  0  0  0  0  0  0  # atno 17320 bound_to 7965
  145.0965  140.9318  143.4738 LP  0  0  0  0  0  0  0  0  0  0  0  0  # atno 17321 bound_to 7965
  139.9083  143.6751  152.3119 LP  0  0  0  0  0  0  0  0  0  0  0  0  # atno 17342 bound_to 10162
  139.7125  144.7617  151.1088 LP  0  0  0  0  0  0  0  0  0  0  0  0  # atno 17343 bound_to 10162
  156.1700  130.3646  149.9178 LP  0  0  0  0  0  0  0  0  0  0  0  0  # atno 17370 bound_to 10713
  156.7156  130.8987  151.3613 LP  0  0  0  0  0  0  0  0  0  0  0  0  # atno 17371 bound_to 10713
  140.2544  134.3645  155.7430 LP  0  0  0  0  0  0  0  0  0  0  0  0  # atno 17394 bound_to 11000
  141.2205  133.7334  156.8984 LP  0  0  0  0  0  0  0  0  0  0  0  0  # atno 17395 bound_to 11000

$$$$
