AV-unprocessed.smi:362|AV-procd|sdf|2421|dock6
  -GOLD-   2262022363D 1   1.00000     0.00000
 Structure written by MMmdl.
 36 38  0  0  0  0  0  0  0  0  1 V2000
  149.1979  142.1086  157.5473 O   0  0  0  0  0  0  0  0  0  0  0  0
  150.2961  141.8023  157.0815 C   0  0  0  0  0  0  0  0  0  0  0  0
  150.4035  141.1293  155.7058 C   0  0  0  0  0  0  0  0  0  0  0  0
  150.6755  139.6870  155.7915 N   0  0  0  0  0  0  0  0  0  0  0  0
  149.7549  138.8337  156.3834 C   0  0  0  0  0  0  0  0  0  0  0  0
  149.9463  137.4987  156.5043 C   0  0  0  0  0  0  0  0  0  0  0  0
  151.1679  136.8790  156.0022 C   0  0  0  0  0  0  0  0  0  0  0  0
  151.4324  135.6805  156.0635 O   0  0  0  0  0  0  0  0  0  0  0  0
  152.0701  137.7706  155.4160 N   0  0  0  0  0  0  0  0  0  0  0  0
  151.8798  139.1474  155.2893 C   0  0  0  0  0  0  0  0  0  0  0  0
  152.7430  139.8447  154.7575 O   0  0  0  0  0  0  0  0  0  0  0  0
  151.4570  142.0433  157.7100 N   0  0  0  0  0  0  0  0  0  0  0  0
  151.6049  142.6718  159.0184 C   0  0  0  0  0  0  0  0  0  0  0  0
  151.2550  144.1508  158.9959 C   0  0  0  0  0  0  0  0  0  0  0  0
  152.2617  145.1901  158.5613 C   0  0  0  0  0  0  0  0  0  0  0  0
  151.8316  145.1127  160.0081 C   0  0  0  0  0  0  0  0  0  0  0  0
  153.0016  142.4676  159.5764 C   0  0  0  0  0  0  0  0  0  0  0  0
  153.4872  141.0944  159.9744 C   0  0  0  0  0  0  0  0  0  0  0  0
  153.2311  142.1428  161.0337 C   0  0  0  0  0  0  0  0  0  0  0  0
  152.9323  137.3875  155.0563 H   0  0  0  0  0  0  0  0  0  0  0  0
  149.4707  141.3080  155.1691 H   0  0  0  0  0  0  0  0  0  0  0  0
  151.1763  141.6205  155.1108 H   0  0  0  0  0  0  0  0  0  0  0  0
  148.8369  139.2495  156.7740 H   0  0  0  0  0  0  0  0  0  0  0  0
  149.1918  136.8861  156.9764 H   0  0  0  0  0  0  0  0  0  0  0  0
  152.3087  141.7622  157.2462 H   0  0  0  0  0  0  0  0  0  0  0  0
  150.9160  142.1830  159.7106 H   0  0  0  0  0  0  0  0  0  0  0  0
  150.2268  144.3452  158.6959 H   0  0  0  0  0  0  0  0  0  0  0  0
  153.2709  144.8590  158.3254 H   0  0  0  0  0  0  0  0  0  0  0  0
  151.8953  146.0267  157.9700 H   0  0  0  0  0  0  0  0  0  0  0  0
  151.1776  145.8972  160.3829 H   0  0  0  0  0  0  0  0  0  0  0  0
  152.5550  144.7272  160.7238 H   0  0  0  0  0  0  0  0  0  0  0  0
  153.7480  143.1144  159.1184 H   0  0  0  0  0  0  0  0  0  0  0  0
  152.7827  140.2677  159.9057 H   0  0  0  0  0  0  0  0  0  0  0  0
  154.5227  140.8444  159.7525 H   0  0  0  0  0  0  0  0  0  0  0  0
  154.0961  142.5918  161.5174 H   0  0  0  0  0  0  0  0  0  0  0  0
  152.3602  142.0042  161.6710 H   0  0  0  0  0  0  0  0  0  0  0  0
  1  2  2  0  0  0  0
  2  3  1  0  0  0  0
  2 12  1  0  0  0  0
  3  4  1  0  0  0  0
  3 21  1  0  0  0  0
  3 22  1  0  0  0  0
  4 10  1  0  0  0  0
  4  5  1  0  0  0  0
  5  6  2  0  0  0  0
  5 23  1  0  0  0  0
  6  7  1  0  0  0  0
  6 24  1  0  0  0  0
  7  8  2  0  0  0  0
  7  9  1  0  0  0  0
  9 20  1  0  0  0  0
  9 10  1  0  0  0  0
 10 11  2  0  0  0  0
 12 13  1  0  0  0  0
 12 25  1  0  0  0  0
 13 14  1  0  0  0  0
 13 17  1  0  0  0  0
 13 26  1  0  0  0  0
 14 16  1  0  0  0  0
 14 15  1  0  0  0  0
 14 27  1  0  0  0  0
 15 16  1  0  0  0  0
 15 28  1  0  0  0  0
 15 29  1  0  0  0  0
 16 30  1  0  0  0  0
 16 31  1  0  0  0  0
 17 19  1  0  0  0  0
 17 18  1  0  0  0  0
 17 32  1  0  0  0  0
 18 19  1  0  0  0  0
 18 33  1  0  0  0  0
 18 34  1  0  0  0  0
 19 35  1  0  0  0  0
 19 36  1  0  0  0  0
M  END
> <s_m_source_file>
AV-unprocessed.smi

> <i_m_source_file_index>
362

> <i_lp_mmshare_version>
43012

> <i_f3d_flags>
0

> <s_epik_input>
W0NIMl0xW0NIMl1bQ0hdMVtDSF0oW0NIXTJbQ0gyXVtDSDJdMilbTkhdQyg9TylbQ0gyXW4zW2NIXVtjSF1jKD1PKVtuSF1jMz1P

> <s_epik_cmdline>
J2VwaWtfcHl0aG9uJywgJy1waCcsICc3LjAnLCAnLXRuJywgJzgnLCAnLW1hJywgJzIwMCcsICctbWV0YWxfYmluZGluZycsICctaW1hZScsICc8aW5maWxlLm1hZT4nLCAnLW9tYWUnLCAnPG91dGZpbGUubWFlPic=

> <r_lp_tautomer_probability>
0.999537

> <r_epik_Ionization_Penalty>
0.00315598

> <r_epik_Ionization_Penalty_Charging>
0.00315596

> <r_epik_Ionization_Penalty_Neutral>
2.04126e-08

> <r_epik_State_Penalty>
0.00222351

> <r_epik_Charging_Adjusted_Penalty>
0.00537947

> <i_epik_Tot_Q>
0

> <i_epik_Tot_abs_Q>
0

> <r_epik_Metal_State_Penalty>
0.363464

> <b_epik_Metal_Only>
0

> <s_lp_Force_Field>
OPLS_2005

> <r_lp_Energy>
23.1626

> <b_lp_Chiralities_Consistent>
1

> <s_lp_Variant>
AV-unprocessed.smi:362-1

> <Gold.Version>
5.8.1

> <Gold.Id.Protein>
6NUR|6NUR_protein|mol2

> <Gold.PLP.Fitness>
46.9155

> <Gold.PLP.PLP>
-40.5253

> <Gold.PLP.part.hbond>
-3.0000

> <Gold.PLP.part.metal>
0.0000

> <Gold.PLP.part.buried>
-4.2216

> <Gold.PLP.part.nonpolar>
-32.9920

> <Gold.PLP.part.repulsive>
0.4140

> <Gold.PLP.ligand.clash>
0.0000

> <Gold.PLP.ligand.torsion>
1.4869

> <Gold.PLP.Chemscore.Hbond>
2.4160

> <Gold.PLP.Chemscore.CHOScore>
0.0000

> <Gold.PLP.Chemscore.Metal>
0.0000

> <Gold.Chemscore.Hbonds>
donor molecule, donor type, donor heavy atom, donor atom, acceptor molecule, acceptor atom, score
      P1  H  7989  7998       L1    11  0.46
      P1  H  7997  8010       L1    11  0.88
      P1  H 10752 10765       L1     8  1.00

> <Gold.PLP.Chemscore.Internal.Correction>
2.1160

> <Gold.Rescore>
     Score         DG    S(hbond)    S(metal)    S(lipo)     H(rot)  DE(clash)    DE(int)     intcor
     14.62     -16.19       1.71        0.00      89.73       2.15       0.06       1.51       ----

> <Gold.Chemscore.Fitness>
14.6157

> <Gold.Chemscore.DG>
-16.1872

> <Gold.Chemscore.ZeroCoef>
-5.4800

> <Gold.Chemscore.Hbond>
1.7105

> <Gold.Chemscore.Metal>
0.0000

> <Gold.Chemscore.Lipo>
89.7286

> <Gold.Chemscore.Internal_Hbond>
0.0000

> <Gold.Chemscore.DEClash>
0.0632

> <Gold.Chemscore.DEInternal>
1.5082

> <Gold.Chemscore.Rot>
2.1500

> <Gold.Chemscore.Internal.Correction>
   9.000000E+99

> <Gold.Chemscore.Hbonds>
donor molecule, donor type, donor heavy atom, donor atom, acceptor molecule, acceptor atom, score
      P1  H  7989  7998       L1    11  0.16
      P1  H  7997  8010       L1    11  0.82
      P1  H 10752 10765       L1     8  0.33

> <Gold.Chemscore.Hbond.Weighted>
-5.7129

> <Gold.Chemscore.Metal.Weighted>
-0.0000

> <Gold.Chemscore.Lipo.Weighted>
-10.4982

> <Gold.Chemscore.Internal_Hbond.Weighted>
0.0000

> <Gold.Chemscore.DEClash.Weighted>
0.0632

> <Gold.Chemscore.DEInternal.Weighted>
1.5082

> <Gold.Chemscore.Rot.Weighted>
5.5040

> <Gold.Chemscore.Internal.Correction.Weighted>
   9.000000E+99

> <Gold.Protein.RotatedTorsions>
[ 6907 6896 6895 6894 ] final  -97.45 input  -60.11 | X-H torsion
[ 7974 7965 7964 7962 ] final   40.34 input  175.53 | X-H torsion
[ 8008 7997 7996 7995 ] final  108.36 input   59.86 | X-H torsion
[ 10167 10162 10161 10158 ] final  -46.22 input  -65.29 | X-H torsion
[ 10718 10713 10712 10709 ] final -140.92 input   66.30 | X-H torsion
[ 10763 10752 10751 10750 ] final -166.60 input  -60.55 | X-H torsion
[ 11005 11000 10999 10996 ] final   43.96 input  -57.11 | X-H torsion

> <Gold.Protein.ActiveResidues>
 VAL166  LYS551  ARG553  GLY616  TRP617  ASP618  TYR619  PRO620  LYS621  CYS622 
 ASP623  PHE694  ASN695  SER759  ASP760  ASP761  ALA762  ILE779  LEU786  VAL792 
 PHE793  MET794  SER795  GLU796  ALA797  LYS798  CYS799  TRP800  GLU811  SER814 

> <Gold.Protein.RotatedAtoms>
  150.7017  134.1346  159.4082 H   0  0  0  0  0  0  0  0  0  0  0  0  # atno 6907 bound_to 6896
  151.9331  135.0245  160.0540 H   0  0  0  0  0  0  0  0  0  0  0  0  # atno 6908 bound_to 6896
  152.2158  133.4910  159.5172 H   0  0  0  0  0  0  0  0  0  0  0  0  # atno 6909 bound_to 6896
  146.0912  139.5544  142.9474 H   0  0  0  0  0  0  0  0  0  0  0  0  # atno 7974 bound_to 7965
  156.1896  140.3078  155.9307 H   0  0  0  0  0  0  0  0  0  0  0  0  # atno 8008 bound_to 7997
  155.3202  140.0455  157.3056 H   0  0  0  0  0  0  0  0  0  0  0  0  # atno 8009 bound_to 7997
  154.5437  140.2269  155.8608 H   0  0  0  0  0  0  0  0  0  0  0  0  # atno 8010 bound_to 7997
  140.6826  143.2841  151.3752 H   0  0  0  0  0  0  0  0  0  0  0  0  # atno 10167 bound_to 10162
  156.3280  130.7570  151.1682 H   0  0  0  0  0  0  0  0  0  0  0  0  # atno 10718 bound_to 10713
  154.6817  135.2955  154.9604 H   0  0  0  0  0  0  0  0  0  0  0  0  # atno 10763 bound_to 10752
  154.0597  135.6633  153.4814 H   0  0  0  0  0  0  0  0  0  0  0  0  # atno 10764 bound_to 10752
  153.0552  135.5149  154.7863 H   0  0  0  0  0  0  0  0  0  0  0  0  # atno 10765 bound_to 10752
  140.1596  134.4358  155.8326 H   0  0  0  0  0  0  0  0  0  0  0  0  # atno 11005 bound_to 11000
  145.6034  141.0351  143.2006 LP  0  0  0  0  0  0  0  0  0  0  0  0  # atno 17320 bound_to 7965
  144.7362  139.7580  143.7328 LP  0  0  0  0  0  0  0  0  0  0  0  0  # atno 17321 bound_to 7965
  139.6160  144.1002  152.2346 LP  0  0  0  0  0  0  0  0  0  0  0  0  # atno 17342 bound_to 10162
  140.0431  144.5991  150.7395 LP  0  0  0  0  0  0  0  0  0  0  0  0  # atno 17343 bound_to 10162
  157.7425  131.0489  150.5020 LP  0  0  0  0  0  0  0  0  0  0  0  0  # atno 17370 bound_to 10713
  156.5182  130.4155  149.6265 LP  0  0  0  0  0  0  0  0  0  0  0  0  # atno 17371 bound_to 10713
  141.2208  133.6907  156.7569 LP  0  0  0  0  0  0  0  0  0  0  0  0  # atno 17394 bound_to 11000
  140.2506  134.8543  157.3663 LP  0  0  0  0  0  0  0  0  0  0  0  0  # atno 17395 bound_to 11000

$$$$
