AV-unprocessed.smi:2591|AV-procd|sdf|10154|dock6
  -GOLD-   2272014163D 1   1.00000     0.00000
 Structure written by MMmdl.
 35 36  0  0  0  0  0  0  0  0  2 V2000
  149.3244  138.5606  156.0641 C   0  0  0  0  0  0  0  0  0  0  0  0
  150.8020  138.5513  156.1050 N   0  3  2  0  0  0  0  0  0  0  0  0
  151.4127  138.5991  154.7575 C   0  0  0  0  0  0  0  0  0  0  0  0
  152.9445  138.6639  154.8676 C   0  0  0  0  0  0  0  0  0  0  0  0
  153.4210  137.5549  155.6304 O   0  0  0  0  0  0  0  0  0  0  0  0
  152.8916  137.4699  156.9575 C   0  0  1  0  0  0  0  0  0  0  0  0
  153.4624  138.5933  157.8446 C   0  0  0  0  0  0  0  0  0  0  0  0
  154.6709  138.6465  158.0774 O   0  0  0  0  0  0  0  0  0  0  0  0
  152.5549  139.4685  158.3177 N   0  0  0  0  0  0  0  0  0  0  0  0
  152.7700  140.5903  159.1614 C   0  0  0  0  0  0  0  0  0  0  0  0
  152.0089  141.7359  158.8393 C   0  0  0  0  0  0  0  0  0  0  0  0
  152.1419  142.9062  159.6168 C   0  0  0  0  0  0  0  0  0  0  0  0
  151.3351  144.1502  159.2780 C   0  0  0  0  0  0  0  0  0  0  0  0
  151.5436  145.1238  160.1648 F   0  0  0  0  0  0  0  0  0  0  0  0
  151.6888  144.5876  158.0700 F   0  0  0  0  0  0  0  0  0  0  0  0
  150.0331  143.8638  159.2674 F   0  0  0  0  0  0  0  0  0  0  0  0
  153.0481  142.8909  160.6970 C   0  0  0  0  0  0  0  0  0  0  0  0
  153.7674  141.7085  160.9487 C   0  0  0  0  0  0  0  0  0  0  0  0
  153.6332  140.5896  160.2067 N   0  0  0  0  0  0  0  0  0  0  0  0
  151.3459  137.4174  156.8896 C   0  0  0  0  0  0  0  0  0  0  0  0
  148.9400  137.6740  155.5583 H   0  0  0  0  0  0  0  0  0  0  0  0
  148.9606  139.4420  155.5351 H   0  0  0  0  0  0  0  0  0  0  0  0
  148.9129  138.5847  157.0739 H   0  0  0  0  0  0  0  0  0  0  0  0
  151.1159  137.7164  154.1886 H   0  0  0  0  0  0  0  0  0  0  0  0
  151.0439  139.4701  154.2145 H   0  0  0  0  0  0  0  0  0  0  0  0
  153.3912  138.6200  153.8743 H   0  0  0  0  0  0  0  0  0  0  0  0
  153.2626  139.6097  155.3080 H   0  0  0  0  0  0  0  0  0  0  0  0
  153.2429  136.5296  157.3843 H   0  0  0  0  0  0  0  0  0  0  0  0
  151.5959  139.3087  158.0447 H   0  0  0  0  0  0  0  0  0  0  0  0
  151.3274  141.7228  158.0009 H   0  0  0  0  0  0  0  0  0  0  0  0
  153.1956  143.7603  161.3206 H   0  0  0  0  0  0  0  0  0  0  0  0
  154.4705  141.6595  161.7670 H   0  0  0  0  0  0  0  0  0  0  0  0
  150.9194  137.4235  157.8939 H   0  0  0  0  0  0  0  0  0  0  0  0
  151.0337  136.4796  156.4276 H   0  0  0  0  0  0  0  0  0  0  0  0
  151.0832  139.3956  156.5842 H   0  0  0  0  0  0  0  0  0  0  0  0
  1  2  1  0  0  0  0
  1 21  1  0  0  0  0
  1 22  1  0  0  0  0
  1 23  1  0  0  0  0
  2 20  1  0  0  0  0
  2  3  1  0  0  0  0
  2 35  1  0  0  0  0
  3  4  1  0  0  0  0
  3 24  1  0  0  0  0
  3 25  1  0  0  0  0
  4  5  1  0  0  0  0
  4 26  1  0  0  0  0
  4 27  1  0  0  0  0
  5  6  1  0  0  0  0
  6  7  1  0  0  0  0
  6 20  1  0  0  0  0
  6 28  1  0  0  0  0
  7  8  2  0  0  0  0
  7  9  1  0  0  0  0
  9 10  1  0  0  0  0
  9 29  1  0  0  0  0
 10 19  1  0  0  0  0
 10 11  2  0  0  0  0
 11 12  1  0  0  0  0
 11 30  1  0  0  0  0
 12 13  1  0  0  0  0
 12 17  2  0  0  0  0
 13 14  1  0  0  0  0
 13 15  1  0  0  0  0
 13 16  1  0  0  0  0
 17 18  1  0  0  0  0
 17 31  1  0  0  0  0
 18 19  2  0  0  0  0
 18 32  1  0  0  0  0
 20 33  1  0  0  0  0
 20 34  1  0  0  0  0
M  CHG  1   2   1
M  END
> <s_m_source_file>
AV-unprocessed.smi

> <i_m_source_file_index>
2591

> <i_lp_mmshare_version>
43012

> <i_f3d_flags>
0

> <s_epik_input>
W0NIM11OMVtDSDJdW0NIMl1PW0NASF0oW0NIMl0xKUMoPU8pW05IXWMyW2NIXWMoQyhGKShGKUYpW2NIXVtjSF1uMg==

> <s_epik_cmdline>
J2VwaWtfcHl0aG9uJywgJy1waCcsICc3LjAnLCAnLXRuJywgJzgnLCAnLW1hJywgJzIwMCcsICctbWV0YWxfYmluZGluZycsICctaW1hZScsICc8aW5maWxlLm1hZT4nLCAnLW9tYWUnLCAnPG91dGZpbGUubWFlPic=

> <r_epik_Ionization_Penalty>
0.314028

> <r_epik_Ionization_Penalty_Charging>
0.314023

> <r_epik_Ionization_Penalty_Neutral>
5.2303e-06

> <r_epik_State_Penalty>
0.308208

> <r_epik_Charging_Adjusted_Penalty>
0.62223

> <i_epik_Tot_Q>
1

> <i_epik_Tot_abs_Q>
1

> <r_epik_Metal_State_Penalty>
0.308209

> <b_epik_Metal_Only>
0

> <s_lp_Force_Field>
OPLS_2005

> <r_lp_Energy>
16.4571

> <b_lp_Chiralities_Consistent>
1

> <s_lp_Variant>
AV-unprocessed.smi:2591-2

> <Gold.Version>
5.8.1

> <Gold.Id.Protein>
6NUR|6NUR_protein|mol2

> <Gold.PLP.Fitness>
45.3617

> <Gold.PLP.PLP>
-41.9100

> <Gold.PLP.part.hbond>
-2.0000

> <Gold.PLP.part.metal>
0.0000

> <Gold.PLP.part.buried>
-6.3595

> <Gold.PLP.part.nonpolar>
-34.5405

> <Gold.PLP.part.repulsive>
0.1139

> <Gold.PLP.ligand.clash>
0.1950

> <Gold.PLP.ligand.torsion>
0.4091

> <Gold.PLP.Chemscore.Hbond>
1.4000

> <Gold.PLP.Chemscore.CHOScore>
0.0000

> <Gold.PLP.Chemscore.Metal>
0.0000

> <Gold.Chemscore.Hbonds>
donor molecule, donor type, donor heavy atom, donor atom, acceptor molecule, acceptor atom, score
      P1  H  7997  8010       L1     8  0.98
      P1  H 10752 10764       L1     5  0.18

> <Gold.PLP.Chemscore.Internal.Correction>
0.2650

> <Gold.Rescore>
     Score         DG    S(hbond)    S(metal)    S(lipo)     H(rot)  DE(clash)    DE(int)     intcor
     14.52     -16.50       1.43        0.00      75.35       1.00       0.03       1.96       ----

> <Gold.Chemscore.Fitness>
14.5157

> <Gold.Chemscore.DG>
-16.4973

> <Gold.Chemscore.ZeroCoef>
-5.4800

> <Gold.Chemscore.Hbond>
1.4254

> <Gold.Chemscore.Metal>
0.0000

> <Gold.Chemscore.Lipo>
75.3543

> <Gold.Chemscore.Internal_Hbond>
0.0000

> <Gold.Chemscore.DEClash>
0.0260

> <Gold.Chemscore.DEInternal>
1.9556

> <Gold.Chemscore.Rot>
1.0000

> <Gold.Chemscore.Internal.Correction>
   9.000000E+99

> <Gold.Chemscore.Hbonds>
donor molecule, donor type, donor heavy atom, donor atom, acceptor molecule, acceptor atom, score
      P1  H  7997  8010       L1     8  0.41
      P1  H 10752 10764       L1     5  0.04

> <Gold.Chemscore.Hbond.Weighted>
-4.7608

> <Gold.Chemscore.Metal.Weighted>
-0.0000

> <Gold.Chemscore.Lipo.Weighted>
-8.8164

> <Gold.Chemscore.Internal_Hbond.Weighted>
0.0000

> <Gold.Chemscore.DEClash.Weighted>
0.0260

> <Gold.Chemscore.DEInternal.Weighted>
1.9556

> <Gold.Chemscore.Rot.Weighted>
2.5600

> <Gold.Chemscore.Internal.Correction.Weighted>
   9.000000E+99

> <Gold.Protein.RotatedTorsions>
[ 6907 6896 6895 6894 ] final -102.47 input  -60.11 | X-H torsion
[ 7974 7965 7964 7962 ] final -160.17 input  175.53 | X-H torsion
[ 8008 7997 7996 7995 ] final   -2.09 input   59.86 | X-H torsion
[ 10167 10162 10161 10158 ] final  -95.51 input  -65.29 | X-H torsion
[ 10718 10713 10712 10709 ] final   83.85 input   66.30 | X-H torsion
[ 10763 10752 10751 10750 ] final  -25.17 input  -60.55 | X-H torsion
[ 11005 11000 10999 10996 ] final -126.11 input  -57.11 | X-H torsion

> <Gold.Protein.ActiveResidues>
 VAL166  LYS551  ARG553  GLY616  TRP617  ASP618  TYR619  PRO620  LYS621  CYS622 
 ASP623  PHE694  ASN695  SER759  ASP760  ASP761  ALA762  ILE779  LEU786  VAL792 
 PHE793  MET794  SER795  GLU796  ALA797  LYS798  CYS799  TRP800  GLU811  SER814 

> <Gold.Protein.RotatedAtoms>
  150.7197  134.0577  159.3820 H   0  0  0  0  0  0  0  0  0  0  0  0  # atno 6907 bound_to 6896
  151.8556  135.0540  160.0473 H   0  0  0  0  0  0  0  0  0  0  0  0  # atno 6908 bound_to 6896
  152.2757  133.5387  159.5503 H   0  0  0  0  0  0  0  0  0  0  0  0  # atno 6909 bound_to 6896
  144.7437  140.3580  143.6102 H   0  0  0  0  0  0  0  0  0  0  0  0  # atno 7974 bound_to 7965
  154.6396  140.2543  155.7338 H   0  0  0  0  0  0  0  0  0  0  0  0  # atno 8008 bound_to 7997
  156.2522  140.2890  156.0704 H   0  0  0  0  0  0  0  0  0  0  0  0  # atno 8009 bound_to 7997
  155.1617  140.0384  157.2834 H   0  0  0  0  0  0  0  0  0  0  0  0  # atno 8010 bound_to 7997
  140.3034  143.3148  152.0224 H   0  0  0  0  0  0  0  0  0  0  0  0  # atno 10167 bound_to 10162
  157.6887  131.0108  150.2586 H   0  0  0  0  0  0  0  0  0  0  0  0  # atno 10718 bound_to 10713
  153.6956  135.6959  153.5077 H   0  0  0  0  0  0  0  0  0  0  0  0  # atno 10763 bound_to 10752
  153.2381  135.4315  155.0667 H   0  0  0  0  0  0  0  0  0  0  0  0  # atno 10764 bound_to 10752
  154.8360  135.3501  154.6496 H   0  0  0  0  0  0  0  0  0  0  0  0  # atno 10765 bound_to 10752
  140.9708  134.0809  157.3872 H   0  0  0  0  0  0  0  0  0  0  0  0  # atno 11005 bound_to 11000
  145.7207  139.1709  143.2486 LP  0  0  0  0  0  0  0  0  0  0  0  0  # atno 17320 bound_to 7965
  146.1279  140.7224  142.9426 LP  0  0  0  0  0  0  0  0  0  0  0  0  # atno 17321 bound_to 7965
  139.4910  144.6439  151.6820 LP  0  0  0  0  0  0  0  0  0  0  0  0  # atno 17342 bound_to 10162
  140.5631  144.0235  150.6179 LP  0  0  0  0  0  0  0  0  0  0  0  0  # atno 17343 bound_to 10162
  156.3169  130.3780  149.7610 LP  0  0  0  0  0  0  0  0  0  0  0  0  # atno 17370 bound_to 10713
  156.5193  130.8207  151.3197 LP  0  0  0  0  0  0  0  0  0  0  0  0  # atno 17371 bound_to 10713
  139.8911  135.0116  156.6775 LP  0  0  0  0  0  0  0  0  0  0  0  0  # atno 17394 bound_to 11000
  140.7332  133.9041  155.8226 LP  0  0  0  0  0  0  0  0  0  0  0  0  # atno 17395 bound_to 11000

$$$$
