AV-unprocessed.smi:258|AV-procd|sdf|1968|dock6
  -GOLD-   2262021123D 1   1.00000     0.00000
 Structure written by MMmdl.
 57 60  0  0  0  0  0  0  0  0  1 V2000
  151.2422  143.4619  156.6987 O   0  0  0  0  0  0  0  0  0  0  0  0
  152.1218  144.3805  157.3120 C   0  0  0  0  0  0  0  0  0  0  0  0
  152.1410  144.1635  158.8300 C   0  0  0  0  0  0  0  0  0  0  0  0
  151.7841  142.8173  159.1106 O   0  0  0  0  0  0  0  0  0  0  0  0
  152.8867  141.9262  159.2168 C   0  0  1  0  0  0  0  0  0  0  0  0
  153.4398  141.8963  160.6561 C   0  0  0  0  0  0  0  0  0  0  0  0
  154.5280  140.8198  160.7854 C   0  0  0  0  0  0  0  0  0  0  0  0
  154.0049  139.4477  160.3312 C   0  0  0  0  0  0  0  0  0  0  0  0
  153.4414  139.5253  158.9821 N   0  0  0  0  0  0  0  0  0  0  0  0
  153.2281  138.3607  158.3179 C   0  0  0  0  0  0  0  0  0  0  0  0
  153.9746  137.2629  158.6147 N   0  0  0  0  0  0  0  0  0  0  0  0
  153.7630  136.1088  157.9755 C   0  0  0  0  0  0  0  0  0  0  0  0
  152.8730  135.8351  157.0202 N   0  0  0  0  0  0  0  0  0  0  0  0
  152.1257  136.9331  156.7115 C   0  0  0  0  0  0  0  0  0  0  0  0
  152.2381  138.2229  157.3038 C   0  0  0  0  0  0  0  0  0  0  0  0
  151.3216  139.0912  156.7215 N   0  0  0  0  0  0  0  0  0  0  0  0
  150.6950  138.3543  155.8455 C   0  0  0  0  0  0  0  0  0  0  0  0
  151.1073  137.0430  155.7804 N   0  0  0  0  0  0  0  0  0  0  0  0
  150.5782  136.0137  154.9019 C   0  0  0  0  0  0  0  0  0  0  0  0
  150.4124  134.6418  155.6006 C   0  0  1  0  0  0  0  0  0  0  0  0
  149.3143  134.7123  156.6884 C   0  0  0  0  0  0  0  0  0  0  0  0
  149.5377  133.7356  157.6837 O   0  0  0  0  0  0  0  0  0  0  0  0
  150.2133  133.4760  154.5908 C   0  0  2  0  0  0  0  0  0  0  0  0
  148.9868  133.5871  153.6863 C   0  0  0  0  0  0  0  0  0  0  0  0
  148.5511  132.1377  153.5195 C   0  0  0  0  0  0  0  0  0  0  0  0
  148.8095  131.5903  154.8004 O   0  0  0  0  0  0  0  0  0  0  0  0
  150.0745  132.0803  155.2252 C   0  0  0  0  0  0  0  0  0  0  0  0
  152.3904  140.5282  158.8092 C   0  0  0  0  0  0  0  0  0  0  0  0
  150.5603  143.9466  156.2593 H   0  0  0  0  0  0  0  0  0  0  0  0
  153.1218  144.2967  156.8855 H   0  0  0  0  0  0  0  0  0  0  0  0
  151.7579  145.3832  157.0873 H   0  0  0  0  0  0  0  0  0  0  0  0
  153.1531  144.3363  159.1986 H   0  0  0  0  0  0  0  0  0  0  0  0
  151.4885  144.8778  159.3328 H   0  0  0  0  0  0  0  0  0  0  0  0
  153.6752  142.2228  158.5225 H   0  0  0  0  0  0  0  0  0  0  0  0
  153.8524  142.8648  160.9370 H   0  0  0  0  0  0  0  0  0  0  0  0
  152.6311  141.6855  161.3570 H   0  0  0  0  0  0  0  0  0  0  0  0
  155.3900  141.0997  160.1785 H   0  0  0  0  0  0  0  0  0  0  0  0
  154.8792  140.7627  161.8160 H   0  0  0  0  0  0  0  0  0  0  0  0
  154.8205  138.7237  160.3566 H   0  0  0  0  0  0  0  0  0  0  0  0
  153.2375  139.0951  161.0220 H   0  0  0  0  0  0  0  0  0  0  0  0
  154.3968  135.2866  158.2738 H   0  0  0  0  0  0  0  0  0  0  0  0
  149.9058  138.7478  155.2214 H   0  0  0  0  0  0  0  0  0  0  0  0
  149.6189  136.3667  154.5226 H   0  0  0  0  0  0  0  0  0  0  0  0
  151.2333  135.9191  154.0352 H   0  0  0  0  0  0  0  0  0  0  0  0
  151.3515  134.4299  156.1146 H   0  0  0  0  0  0  0  0  0  0  0  0
  149.2889  135.6930  157.1633 H   0  0  0  0  0  0  0  0  0  0  0  0
  148.3236  134.5364  156.2713 H   0  0  0  0  0  0  0  0  0  0  0  0
  148.7119  133.3266  157.8942 H   0  0  0  0  0  0  0  0  0  0  0  0
  151.0921  133.4194  153.9476 H   0  0  0  0  0  0  0  0  0  0  0  0
  148.1835  134.1464  154.1634 H   0  0  0  0  0  0  0  0  0  0  0  0
  149.2042  134.0690  152.7332 H   0  0  0  0  0  0  0  0  0  0  0  0
  147.5013  132.0406  153.2413 H   0  0  0  0  0  0  0  0  0  0  0  0
  149.1586  131.6281  152.7698 H   0  0  0  0  0  0  0  0  0  0  0  0
  150.8540  131.4154  154.8496 H   0  0  0  0  0  0  0  0  0  0  0  0
  150.1464  132.0811  156.3127 H   0  0  0  0  0  0  0  0  0  0  0  0
  151.5358  140.2436  159.4246 H   0  0  0  0  0  0  0  0  0  0  0  0
  152.0334  140.5603  157.7804 H   0  0  0  0  0  0  0  0  0  0  0  0
  1  2  1  0  0  0  0
  1 29  1  0  0  0  0
  2  3  1  0  0  0  0
  2 30  1  0  0  0  0
  2 31  1  0  0  0  0
  3  4  1  0  0  0  0
  3 32  1  0  0  0  0
  3 33  1  0  0  0  0
  4  5  1  0  0  0  0
  5 28  1  0  0  0  0
  5  6  1  0  0  0  0
  5 34  1  0  0  0  0
  6  7  1  0  0  0  0
  6 35  1  0  0  0  0
  6 36  1  0  0  0  0
  7  8  1  0  0  0  0
  7 37  1  0  0  0  0
  7 38  1  0  0  0  0
  8  9  1  0  0  0  0
  8 39  1  0  0  0  0
  8 40  1  0  0  0  0
  9 10  1  0  0  0  0
  9 28  1  0  0  0  0
 10 15  1  0  0  0  0
 10 11  2  0  0  0  0
 11 12  1  0  0  0  0
 12 13  2  0  0  0  0
 12 41  1  0  0  0  0
 13 14  1  0  0  0  0
 14 18  1  0  0  0  0
 14 15  2  0  0  0  0
 15 16  1  0  0  0  0
 16 17  2  0  0  0  0
 17 18  1  0  0  0  0
 17 42  1  0  0  0  0
 18 19  1  0  0  0  0
 19 20  1  0  0  0  0
 19 43  1  0  0  0  0
 19 44  1  0  0  0  0
 20 21  1  0  0  0  0
 20 23  1  0  0  0  0
 20 45  1  0  0  0  0
 21 22  1  0  0  0  0
 21 46  1  0  0  0  0
 21 47  1  0  0  0  0
 22 48  1  0  0  0  0
 23 27  1  0  0  0  0
 23 24  1  0  0  0  0
 23 49  1  0  0  0  0
 24 25  1  0  0  0  0
 24 50  1  0  0  0  0
 24 51  1  0  0  0  0
 25 26  1  0  0  0  0
 25 52  1  0  0  0  0
 25 53  1  0  0  0  0
 26 27  1  0  0  0  0
 27 54  1  0  0  0  0
 27 55  1  0  0  0  0
 28 56  1  0  0  0  0
 28 57  1  0  0  0  0
M  END
> <s_m_source_file>
AV-unprocessed.smi

> <i_m_source_file_index>
258

> <i_lp_mmshare_version>
43012

> <i_f3d_flags>
0

> <s_epik_input>
W09IXVtDSDJdW0NIMl1PW0NAQEhdMVtDSDJdW0NIMl1bQ0gyXU4oW0NIMl0xKWMobltjSF1uMiljKGMyMyluW2NIXW4zW0NIMl1bQ0BIXShbQ0gyXVtPSF0pW0NAQEhdNFtDSDJdW0NIMl1PW0NIMl00

> <s_epik_cmdline>
J2VwaWtfcHl0aG9uJywgJy1waCcsICc3LjAnLCAnLXRuJywgJzgnLCAnLW1hJywgJzIwMCcsICctbWV0YWxfYmluZGluZycsICctaW1hZScsICc8aW5maWxlLm1hZT4nLCAnLW9tYWUnLCAnPG91dGZpbGUubWFlPic=

> <r_lp_tautomer_probability>
1

> <r_epik_Ionization_Penalty>
0.00349036

> <r_epik_Ionization_Penalty_Charging>
0

> <r_epik_Ionization_Penalty_Neutral>
0.00349036

> <r_epik_State_Penalty>
0.00229798

> <r_epik_Charging_Adjusted_Penalty>
0.00229798

> <i_epik_Tot_Q>
0

> <i_epik_Tot_abs_Q>
0

> <r_epik_Metal_State_Penalty>
-0

> <b_epik_Metal_Only>
0

> <s_lp_Force_Field>
OPLS_2005

> <r_lp_Energy>
48.0574

> <b_lp_Chiralities_Consistent>
1

> <s_lp_Variant>
AV-unprocessed.smi:258-4

> <Gold.Version>
5.8.1

> <Gold.Id.Protein>
6NUR|6NUR_protein|mol2

> <Gold.PLP.Fitness>
51.4341

> <Gold.PLP.PLP>
-45.4664

> <Gold.PLP.part.hbond>
-3.1552

> <Gold.PLP.part.metal>
0.0000

> <Gold.PLP.part.buried>
-7.4717

> <Gold.PLP.part.nonpolar>
-35.2072

> <Gold.PLP.part.repulsive>
0.0134

> <Gold.PLP.ligand.clash>
0.0000

> <Gold.PLP.ligand.torsion>
1.8619

> <Gold.PLP.Chemscore.Hbond>
3.0000

> <Gold.PLP.Chemscore.CHOScore>
0.0000

> <Gold.PLP.Chemscore.Metal>
0.0000

> <Gold.Chemscore.Hbonds>
donor molecule, donor type, donor heavy atom, donor atom, acceptor molecule, acceptor atom, score
      L1  H     1    29       P1  8028  1.00
      P1  H  6896  6908       L1    22  1.00
      P1  H 10752 10765       L1    13  1.00

> <Gold.PLP.Chemscore.Internal.Correction>
0.6916

> <Gold.Rescore>
     Score         DG    S(hbond)    S(metal)    S(lipo)     H(rot)  DE(clash)    DE(int)     intcor
     13.45     -16.82       2.68        0.00     112.91       4.22       0.02       3.34       ----

> <Gold.Chemscore.Fitness>
13.4533

> <Gold.Chemscore.DG>
-16.8182

> <Gold.Chemscore.ZeroCoef>
-5.4800

> <Gold.Chemscore.Hbond>
2.6773

> <Gold.Chemscore.Metal>
0.0000

> <Gold.Chemscore.Lipo>
112.9132

> <Gold.Chemscore.Internal_Hbond>
0.0000

> <Gold.Chemscore.DEClash>
0.0215

> <Gold.Chemscore.DEInternal>
3.3434

> <Gold.Chemscore.Rot>
4.2246

> <Gold.Chemscore.Internal.Correction>
   9.000000E+99

> <Gold.Chemscore.Hbonds>
donor molecule, donor type, donor heavy atom, donor atom, acceptor molecule, acceptor atom, score
      L1  H     1    29       P1  8028  1.00
      P1  H  6896  6908       L1    22  0.79
      P1  H 10752 10765       L1    13  0.24

> <Gold.Chemscore.Hbond.Weighted>
-8.9422

> <Gold.Chemscore.Metal.Weighted>
-0.0000

> <Gold.Chemscore.Lipo.Weighted>
-13.2108

> <Gold.Chemscore.Internal_Hbond.Weighted>
0.0000

> <Gold.Chemscore.DEClash.Weighted>
0.0215

> <Gold.Chemscore.DEInternal.Weighted>
3.3434

> <Gold.Chemscore.Rot.Weighted>
10.8149

> <Gold.Chemscore.Internal.Correction.Weighted>
   9.000000E+99

> <Gold.Protein.RotatedTorsions>
[ 6907 6896 6895 6894 ] final  129.53 input  -60.11 | X-H torsion
[ 7974 7965 7964 7962 ] final   71.97 input  175.53 | X-H torsion
[ 8008 7997 7996 7995 ] final  -63.23 input   59.86 | X-H torsion
[ 10167 10162 10161 10158 ] final  -85.11 input  -65.29 | X-H torsion
[ 10718 10713 10712 10709 ] final -168.67 input   66.30 | X-H torsion
[ 10763 10752 10751 10750 ] final -124.33 input  -60.55 | X-H torsion
[ 11005 11000 10999 10996 ] final   23.64 input  -57.11 | X-H torsion

> <Gold.Protein.ActiveResidues>
 VAL166  LYS551  ARG553  GLY616  TRP617  ASP618  TYR619  PRO620  LYS621  CYS622 
 ASP623  PHE694  ASN695  SER759  ASP760  ASP761  ALA762  ILE779  LEU786  VAL792 
 PHE793  MET794  SER795  GLU796  ALA797  LYS798  CYS799  TRP800  GLU811  SER814 

> <Gold.Protein.RotatedAtoms>
  152.3614  133.6302  159.6017 H   0  0  0  0  0  0  0  0  0  0  0  0  # atno 6907 bound_to 6896
  150.7604  133.9417  159.3467 H   0  0  0  0  0  0  0  0  0  0  0  0  # atno 6908 bound_to 6896
  151.7254  135.0887  160.0342 H   0  0  0  0  0  0  0  0  0  0  0  0  # atno 6909 bound_to 6896
  145.7592  139.2793  143.1386 H   0  0  0  0  0  0  0  0  0  0  0  0  # atno 7974 bound_to 7965
  154.4543  140.0979  156.6710 H   0  0  0  0  0  0  0  0  0  0  0  0  # atno 8008 bound_to 7997
  155.5187  140.3478  155.4384 H   0  0  0  0  0  0  0  0  0  0  0  0  # atno 8009 bound_to 7997
  156.0745  140.1357  156.9777 H   0  0  0  0  0  0  0  0  0  0  0  0  # atno 8010 bound_to 7997
  140.4069  143.2639  151.9069 H   0  0  0  0  0  0  0  0  0  0  0  0  # atno 10167 bound_to 10162
  156.7004  130.9194  151.3079 H   0  0  0  0  0  0  0  0  0  0  0  0  # atno 10718 bound_to 10713
  154.8721  135.4067  154.3088 H   0  0  0  0  0  0  0  0  0  0  0  0  # atno 10763 bound_to 10752
  153.3935  135.7015  153.6483 H   0  0  0  0  0  0  0  0  0  0  0  0  # atno 10764 bound_to 10752
  153.5255  135.3678  155.2623 H   0  0  0  0  0  0  0  0  0  0  0  0  # atno 10765 bound_to 10752
  140.3674  134.2060  155.7668 H   0  0  0  0  0  0  0  0  0  0  0  0  # atno 11005 bound_to 11000
  146.0281  140.8284  142.9890 LP  0  0  0  0  0  0  0  0  0  0  0  0  # atno 17320 bound_to 7965
  144.6834  140.2727  143.7303 LP  0  0  0  0  0  0  0  0  0  0  0  0  # atno 17321 bound_to 7965
  139.4783  144.5577  151.8288 LP  0  0  0  0  0  0  0  0  0  0  0  0  # atno 17342 bound_to 10162
  140.4680  144.1628  150.5914 LP  0  0  0  0  0  0  0  0  0  0  0  0  # atno 17343 bound_to 10162
  157.6975  130.9297  150.0687 LP  0  0  0  0  0  0  0  0  0  0  0  0  # atno 17370 bound_to 10713
  156.1733  130.3647  149.9135 LP  0  0  0  0  0  0  0  0  0  0  0  0  # atno 17371 bound_to 10713
  141.1965  133.8080  157.0667 LP  0  0  0  0  0  0  0  0  0  0  0  0  # atno 17394 bound_to 11000
  140.0579  134.9771  157.1253 LP  0  0  0  0  0  0  0  0  0  0  0  0  # atno 17395 bound_to 11000

$$$$
