AV-unprocessed.smi:3314|AV-procd|sdf|12746|dock9
  -GOLD-   2272019 83D 1   1.00000     0.00000
 Structure written by MMmdl.
 37 38  0  0  0  0  0  0  0  0  3 V2000
  152.1398  144.9651  158.5034 C   0  0  0  0  0  0  0  0  0  0  0  0
  152.3003  143.5295  158.9572 C   0  0  0  0  0  0  0  0  0  0  0  0
  153.0317  143.2237  160.1201 C   0  0  0  0  0  0  0  0  0  0  0  0
  153.1425  141.8713  160.4972 C   0  0  0  0  0  0  0  0  0  0  0  0
  153.9175  141.4740  161.7358 C   0  0  0  0  0  0  0  0  0  0  0  0
  152.5854  140.8609  159.7948 N   0  0  0  0  0  0  0  0  0  0  0  0
  151.8854  141.1409  158.6700 C   0  0  0  0  0  0  0  0  0  0  0  0
  151.3290  140.1295  157.9881 N   0  5  0  0  0  0  0  0  0  0  0  0
  151.4199  140.0934  156.6358 C   0  0  0  0  0  0  0  0  0  0  0  0
  152.4296  140.0652  155.9293 O   0  0  0  0  0  0  0  0  0  0  0  0
  150.0326  140.1009  155.9797 C   0  0  1  0  0  0  0  0  0  0  0  0
  149.1424  141.2154  156.5715 C   0  0  0  0  0  0  0  0  0  0  0  0
  147.8397  141.2629  155.8704 N   0  3  1  0  0  0  0  0  0  0  0  0
  146.9286  142.2844  156.4286 C   0  0  0  0  0  0  0  0  0  0  0  0
  148.0306  141.4027  154.4093 C   0  0  0  0  0  0  0  0  0  0  0  0
  148.9479  140.2863  153.8845 C   0  0  0  0  0  0  0  0  0  0  0  0
  150.1874  140.3240  154.5793 O   0  0  0  0  0  0  0  0  0  0  0  0
  151.7170  142.4739  158.2276 C   0  0  0  0  0  0  0  0  0  0  0  0
  153.0463  145.5365  158.7050 H   0  0  0  0  0  0  0  0  0  0  0  0
  151.3105  145.4354  159.0320 H   0  0  0  0  0  0  0  0  0  0  0  0
  151.9388  145.0160  157.4330 H   0  0  0  0  0  0  0  0  0  0  0  0
  153.4932  144.0041  160.7072 H   0  0  0  0  0  0  0  0  0  0  0  0
  153.9621  142.2976  162.4487 H   0  0  0  0  0  0  0  0  0  0  0  0
  154.9367  141.1963  161.4667 H   0  0  0  0  0  0  0  0  0  0  0  0
  153.4486  140.6234  162.2318 H   0  0  0  0  0  0  0  0  0  0  0  0
  149.5608  139.1260  156.1255 H   0  0  0  0  0  0  0  0  0  0  0  0
  148.9714  141.0361  157.6341 H   0  0  0  0  0  0  0  0  0  0  0  0
  149.6380  142.1844  156.4856 H   0  0  0  0  0  0  0  0  0  0  0  0
  147.3413  143.2866  156.3050 H   0  0  0  0  0  0  0  0  0  0  0  0
  146.7627  142.1108  157.4923 H   0  0  0  0  0  0  0  0  0  0  0  0
  145.9595  142.2489  155.9300 H   0  0  0  0  0  0  0  0  0  0  0  0
  147.0648  141.3583  153.9047 H   0  0  0  0  0  0  0  0  0  0  0  0
  148.4658  142.3784  154.1878 H   0  0  0  0  0  0  0  0  0  0  0  0
  148.4798  139.3077  154.0023 H   0  0  0  0  0  0  0  0  0  0  0  0
  149.1359  140.4234  152.8197 H   0  0  0  0  0  0  0  0  0  0  0  0
  151.1479  142.6827  157.3332 H   0  0  0  0  0  0  0  0  0  0  0  0
  147.4008  140.3658  156.0216 H   0  0  0  0  0  0  0  0  0  0  0  0
  1  2  1  0  0  0  0
  1 19  1  0  0  0  0
  1 20  1  0  0  0  0
  1 21  1  0  0  0  0
  2 18  2  0  0  0  0
  2  3  1  0  0  0  0
  3  4  2  0  0  0  0
  3 22  1  0  0  0  0
  4  5  1  0  0  0  0
  4  6  1  0  0  0  0
  5 23  1  0  0  0  0
  5 24  1  0  0  0  0
  5 25  1  0  0  0  0
  6  7  2  0  0  0  0
  7  8  1  0  0  0  0
  7 18  1  0  0  0  0
  8  9  1  0  0  0  0
  9 10  2  0  0  0  0
  9 11  1  0  0  0  0
 11 17  1  0  0  0  0
 11 12  1  0  0  0  0
 11 26  1  0  0  0  0
 12 13  1  0  0  0  0
 12 27  1  0  0  0  0
 12 28  1  0  0  0  0
 13 14  1  0  0  0  0
 13 15  1  0  0  0  0
 13 37  1  0  0  0  0
 14 29  1  0  0  0  0
 14 30  1  0  0  0  0
 14 31  1  0  0  0  0
 15 16  1  0  0  0  0
 15 32  1  0  0  0  0
 15 33  1  0  0  0  0
 16 17  1  0  0  0  0
 16 34  1  0  0  0  0
 16 35  1  0  0  0  0
 18 36  1  0  0  0  0
M  CHG  1   8  -1
M  CHG  1  13   1
M  END
> <s_m_source_file>
AV-unprocessed.smi

> <i_m_source_file_index>
3314

> <i_lp_mmshare_version>
43012

> <i_f3d_flags>
0

> <s_epik_input>
W0NIM11jMVtjSF1jKFtDSDNdKW5jKFtjSF0xKVtOSF1DKD1PKVtDQEBIXTJbQ0gyXU4oW0NIM10pW0NIMl1bQ0gyXU8y

> <s_epik_cmdline>
J2VwaWtfcHl0aG9uJywgJy1waCcsICc3LjAnLCAnLXRuJywgJzgnLCAnLW1hJywgJzIwMCcsICctbWV0YWxfYmluZGluZycsICctaW1hZScsICc8aW5maWxlLm1hZT4nLCAnLW9tYWUnLCAnPG91dGZpbGUubWFlPic=

> <r_epik_Ionization_Penalty>
13.8964

> <r_epik_Ionization_Penalty_Charging>
7.88995

> <r_epik_Ionization_Penalty_Neutral>
6.00641

> <r_epik_State_Penalty>
8.39989

> <r_epik_Charging_Adjusted_Penalty>
16.2898

> <i_epik_Tot_Q>
0

> <i_epik_Tot_abs_Q>
2

> <r_epik_Metal_State_Penalty>
4.31145

> <b_epik_Metal_Only>
1

> <s_lp_Force_Field>
OPLS_2005

> <r_lp_Energy>
9.09812

> <b_lp_Chiralities_Consistent>
1

> <s_lp_Variant>
AV-unprocessed.smi:3314-16

> <Gold.Version>
5.8.1

> <Gold.Id.Protein>
6NUR|6NUR_protein|mol2

> <Gold.PLP.Fitness>
39.4963

> <Gold.PLP.PLP>
-35.7857

> <Gold.PLP.part.hbond>
-2.0000

> <Gold.PLP.part.metal>
0.0000

> <Gold.PLP.part.buried>
-0.5973

> <Gold.PLP.part.nonpolar>
-32.6573

> <Gold.PLP.part.repulsive>
0.1036

> <Gold.PLP.ligand.clash>
0.0000

> <Gold.PLP.ligand.torsion>
1.1494

> <Gold.PLP.Chemscore.Hbond>
2.0000

> <Gold.PLP.Chemscore.CHOScore>
0.0000

> <Gold.PLP.Chemscore.Metal>
0.0000

> <Gold.Chemscore.Hbonds>
donor molecule, donor type, donor heavy atom, donor atom, acceptor molecule, acceptor atom, score
      P1  H  7989  7998       L1    17  1.00
      P1  H  7997  8010       L1    10  1.00

> <Gold.PLP.Chemscore.Internal.Correction>
0.0094

> <Gold.Rescore>
     Score         DG    S(hbond)    S(metal)    S(lipo)     H(rot)  DE(clash)    DE(int)     intcor
     18.31     -20.79       1.92        0.00      97.93       1.00       1.53       0.95       ----

> <Gold.Chemscore.Fitness>
18.3123

> <Gold.Chemscore.DG>
-20.7926

> <Gold.Chemscore.ZeroCoef>
-5.4800

> <Gold.Chemscore.Hbond>
1.9207

> <Gold.Chemscore.Metal>
0.0000

> <Gold.Chemscore.Lipo>
97.9276

> <Gold.Chemscore.Internal_Hbond>
0.0000

> <Gold.Chemscore.DEClash>
1.5316

> <Gold.Chemscore.DEInternal>
0.9486

> <Gold.Chemscore.Rot>
1.0000

> <Gold.Chemscore.Internal.Correction>
   9.000000E+99

> <Gold.Chemscore.Hbonds>
donor molecule, donor type, donor heavy atom, donor atom, acceptor molecule, acceptor atom, score
      P1  H  7989  7998       L1    17  0.81
      P1  H  7997  8010       L1    10  0.96

> <Gold.Chemscore.Hbond.Weighted>
-6.4150

> <Gold.Chemscore.Metal.Weighted>
-0.0000

> <Gold.Chemscore.Lipo.Weighted>
-11.4575

> <Gold.Chemscore.Internal_Hbond.Weighted>
0.0000

> <Gold.Chemscore.DEClash.Weighted>
1.5316

> <Gold.Chemscore.DEInternal.Weighted>
0.9486

> <Gold.Chemscore.Rot.Weighted>
2.5600

> <Gold.Chemscore.Internal.Correction.Weighted>
   9.000000E+99

> <Gold.Protein.RotatedTorsions>
[ 6907 6896 6895 6894 ] final   70.33 input  -60.11 | X-H torsion
[ 7974 7965 7964 7962 ] final  168.07 input  175.53 | X-H torsion
[ 8008 7997 7996 7995 ] final   97.31 input   59.86 | X-H torsion
[ 10167 10162 10161 10158 ] final   57.89 input  -65.29 | X-H torsion
[ 10718 10713 10712 10709 ] final -119.45 input   66.30 | X-H torsion
[ 10763 10752 10751 10750 ] final -155.53 input  -60.55 | X-H torsion
[ 11005 11000 10999 10996 ] final -145.10 input  -57.11 | X-H torsion

> <Gold.Protein.ActiveResidues>
 VAL166  LYS551  ARG553  GLY616  TRP617  ASP618  TYR619  PRO620  LYS621  CYS622 
 ASP623  PHE694  ASN695  SER759  ASP760  ASP761  ALA762  ILE779  LEU786  VAL792 
 PHE793  MET794  SER795  GLU796  ALA797  LYS798  CYS799  TRP800  GLU811  SER814 

> <Gold.Protein.RotatedAtoms>
  152.4743  134.4883  159.9687 H   0  0  0  0  0  0  0  0  0  0  0  0  # atno 6907 bound_to 6896
  151.4903  133.3520  159.2860 H   0  0  0  0  0  0  0  0  0  0  0  0  # atno 6908 bound_to 6896
  150.8771  134.8183  159.7259 H   0  0  0  0  0  0  0  0  0  0  0  0  # atno 6909 bound_to 6896
  144.7401  139.8854  143.6399 H   0  0  0  0  0  0  0  0  0  0  0  0  # atno 7974 bound_to 7965
  156.0888  140.3260  155.7788 H   0  0  0  0  0  0  0  0  0  0  0  0  # atno 8008 bound_to 7997
  155.5032  140.0571  157.2953 H   0  0  0  0  0  0  0  0  0  0  0  0  # atno 8009 bound_to 7997
  154.4625  140.1973  156.0223 H   0  0  0  0  0  0  0  0  0  0  0  0  # atno 8010 bound_to 7997
  140.1931  144.4065  150.6562 H   0  0  0  0  0  0  0  0  0  0  0  0  # atno 10167 bound_to 10162
  156.1182  130.6302  150.9418 H   0  0  0  0  0  0  0  0  0  0  0  0  # atno 10718 bound_to 10713
  154.7780  135.3165  154.8051 H   0  0  0  0  0  0  0  0  0  0  0  0  # atno 10763 bound_to 10752
  153.8769  135.6839  153.4774 H   0  0  0  0  0  0  0  0  0  0  0  0  # atno 10764 bound_to 10752
  153.1409  135.4740  154.9430 H   0  0  0  0  0  0  0  0  0  0  0  0  # atno 10765 bound_to 10752
  140.7957  134.2916  157.4997 H   0  0  0  0  0  0  0  0  0  0  0  0  # atno 11005 bound_to 11000
  146.1181  139.4195  143.0245 LP  0  0  0  0  0  0  0  0  0  0  0  0  # atno 17320 bound_to 7965
  145.7345  141.0030  143.1334 LP  0  0  0  0  0  0  0  0  0  0  0  0  # atno 17321 bound_to 7965
  140.6442  143.2210  151.6223 LP  0  0  0  0  0  0  0  0  0  0  0  0  # atno 17342 bound_to 10162
  139.5247  144.3095  152.1005 LP  0  0  0  0  0  0  0  0  0  0  0  0  # atno 17343 bound_to 10162
  157.6365  131.0915  150.8337 LP  0  0  0  0  0  0  0  0  0  0  0  0  # atno 17370 bound_to 10713
  156.8437  130.5057  149.5318 LP  0  0  0  0  0  0  0  0  0  0  0  0  # atno 17371 bound_to 10713
  139.8726  134.9401  156.3759 LP  0  0  0  0  0  0  0  0  0  0  0  0  # atno 17394 bound_to 11000
  140.9345  133.7557  156.0066 LP  0  0  0  0  0  0  0  0  0  0  0  0  # atno 17395 bound_to 11000

$$$$
