#       Name:                AV-unprocessed.smi:3251
#       Creating user name   scv26
#       Creation time:       Fri Mar 27 18:33:01 2020


#       File generated by GOLD software.
#

@<TRIPOS>MOLECULE
AV-unprocessed.smi:3251
    44    45     1
SMALL
NO_CHARGES


@<TRIPOS>ATOM
      1 ****        -3.4369   3.6536  -3.8982 C.3            1 S1                 0.0000
      2 ****        -2.7743   3.3311  -2.5898 C.2            1 S1                 0.0000
      3 ****        -3.3947   2.9770  -1.3577 C.2            1 S1                 0.0000
      4 ****        -2.5229   2.7553  -0.3878 N.2            1 S1                 0.0000
      5 ****        -1.3191   2.9582  -0.9637 N.pl3          1 S1                 0.0000
      6 ****        -0.1092   2.7996  -0.1804 C.3            1 S1                 0.0000
      7 ****         0.2466   1.3193   0.0202 C.3            1 S1                 0.0000
      8 ****         1.4876   1.2214   0.7809 N.3            1 S1                 0.0000
      9 ****         1.9512  -0.1652   0.9761 C.3            1 S1                 0.0000
     10 ****         3.3456  -0.1529   1.6213 C.3            1 S1                 0.0000
     11 ****         0.9888  -1.0250   1.8276 C.2            1 S1                 0.0000
     12 ****         0.4367  -0.5104   2.8018 O.2            1 S1                 0.0000
     13 ****         0.7760  -2.3162   1.4917 N.am           1 S1                 0.0000
     14 ****        -0.1336  -3.1928   2.2282 C.3            1 S1                 0.0000
     15 ****        -0.2531  -4.4675   1.3932 C.3            1 S1                 0.0000
     16 ****         1.0460  -4.5144   0.6027 C.3            1 S1                 0.0000
     17 ****         1.4068  -3.0440   0.3906 C.3            1 S1                 0.0000
     18 ****        -1.4411   3.3069  -2.2919 C.2            1 S1                 0.0000
     19 ****        -4.5067   3.4446  -3.8735 H              1 S1                 0.0000
     20 ****        -3.0153   3.0714  -4.7177 H              1 S1                 0.0000
     21 ****        -3.3213   4.7059  -4.1576 H              1 S1                 0.0000
     22 ****        -4.4479   2.8756  -1.1408 H              1 S1                 0.0000
     23 ****         0.7019   3.3222  -0.6897 H              1 S1                 0.0000
     24 ****        -0.2508   3.2946   0.7819 H              1 S1                 0.0000
     25 ****        -0.5696   0.8128   0.5365 H              1 S1                 0.0000
     26 ****         0.3721   0.8338  -0.9487 H              1 S1                 0.0000
     27 ****         2.1963   1.7849   0.3340 H              1 S1                 0.0000
     28 ****         2.0569  -0.6001  -0.0172 H              1 S1                 0.0000
     29 ****         3.7371  -1.1636   1.7435 H              1 S1                 0.0000
     30 ****         3.3270   0.3170   2.6057 H              1 S1                 0.0000
     31 ****         4.0571   0.3978   1.0053 H              1 S1                 0.0000
     32 ****         0.3004  -3.4139   3.2045 H              1 S1                 0.0000
     33 ****        -1.1095  -2.7313   2.3872 H              1 S1                 0.0000
     34 ****        -0.4119  -5.3586   2.0013 H              1 S1                 0.0000
     35 ****        -1.0952  -4.3771   0.7058 H              1 S1                 0.0000
     36 ****         1.8193  -4.9979   1.2012 H              1 S1                 0.0000
     37 ****         0.9532  -5.0667  -0.3328 H              1 S1                 0.0000
     38 ****         0.9962  -2.6853  -0.5544 H              1 S1                 0.0000
     39 ****         2.4888  -2.9079   0.3696 H              1 S1                 0.0000
     40 ****        -0.5777   3.5069  -2.9094 H              1 S1                 0.0000
     41 ****        -2.7130   2.4958   0.5591 LP             1 S1                 0.0000
     42 ****         1.3046   1.5695   1.7003 LP             1 S1                 0.0000
     43 ****         0.6145   0.4470   3.0293 LP             1 S1                 0.0000
     44 ****        -0.1891  -1.0502   3.3648 LP             1 S1                 0.0000
@<TRIPOS>BOND
    1    1    2 1     
    2    1   19 1     
    3    1   20 1     
    4    1   21 1     
    5    2   18 2     
    6    2    3 1     
    7    3    4 2     
    8    3   22 1     
    9    4    5 1     
   10    5    6 1     
   11    5   18 1     
   12    6    7 1     
   13    6   23 1     
   14    6   24 1     
   15    7    8 1     
   16    7   25 1     
   17    7   26 1     
   18    8    9 1     
   19    8   27 1     
   20    9   10 1     
   21    9   11 1     
   22    9   28 1     
   23   10   29 1     
   24   10   30 1     
   25   10   31 1     
   26   11   12 2     
   27   11   13 am    
   28   13   17 1     
   29   13   14 1     
   30   14   15 1     
   31   14   32 1     
   32   14   33 1     
   33   15   16 1     
   34   15   34 1     
   35   15   35 1     
   36   16   17 1     
   37   16   36 1     
   38   16   37 1     
   39   17   38 1     
   40   17   39 1     
   41   18   40 1     
   42    4   41 1     
   43    8   42 1     
   44   12   43 1     
   45   12   44 1     
@<TRIPOS>SUBSTRUCTURE
      1 S1             1
@<TRIPOS>SET
LONE_PAIRS      STATIC     ATOMS    <user>   **** ""
4 41 42 43 44
DONOR_HYDROGENS      STATIC     ATOMS    <user>   **** ""
1 27
ATOM$BLUE        STATIC     ATOMS    COLORGROUP SYSTEM
4 41 42 43 44
ATOM$RED        STATIC     ATOMS    COLORGROUP SYSTEM
1 27
