AV-unprocessed.smi:1718|AV-procd|sdf|6924|dock1
  -GOLD-   22720 8133D 1   1.00000     0.00000
 Structure written by MMmdl.
 40 41  0  0  0  0  0  0  0  0  1 V2000
  147.3118  141.6340  154.0907 C   0  0  0  0  0  0  0  0  0  0  0  0
  148.3539  140.5465  153.7891 C   0  0  2  0  0  0  0  0  0  0  0  0
  147.6988  139.2864  153.8922 O   0  0  0  0  0  0  0  0  0  0  0  0
  146.7975  138.9762  152.8342 C   0  0  0  0  0  0  0  0  0  0  0  0
  146.1350  137.6206  153.1139 C   0  0  1  0  0  0  0  0  0  0  0  0
  144.8059  137.7096  153.8797 C   0  0  0  0  0  0  0  0  0  0  0  0
  143.7828  137.2218  152.8725 C   0  0  0  0  0  0  0  0  0  0  0  0
  144.6097  136.2865  152.0013 C   0  0  0  0  0  0  0  0  0  0  0  0
  145.8495  136.9656  151.8805 O   0  0  0  0  0  0  0  0  0  0  0  0
  149.5347  140.6109  154.7714 C   0  0  0  0  0  0  0  0  0  0  0  0
  150.6358  140.1868  154.4213 O   0  0  0  0  0  0  0  0  0  0  0  0
  149.2541  141.1446  155.9770 N   0  0  0  0  0  0  0  0  0  0  0  0
  150.1005  141.3751  157.0749 C   0  0  0  0  0  0  0  0  0  0  0  0
  150.5071  142.5991  157.5034 C   0  0  0  0  0  0  0  0  0  0  0  0
  151.3791  142.7637  158.6545 C   0  0  0  0  0  0  0  0  0  0  0  0
  151.8973  144.1318  159.0710 C   0  0  0  0  0  0  0  0  0  0  0  0
  152.5033  144.0792  160.2580 F   0  0  0  0  0  0  0  0  0  0  0  0
  152.7661  144.6059  158.1781 F   0  0  0  0  0  0  0  0  0  0  0  0
  150.8836  144.9917  159.1603 F   0  0  0  0  0  0  0  0  0  0  0  0
  151.7711  141.6365  159.2764 C   0  0  0  0  0  0  0  0  0  0  0  0
  151.3382  140.3764  158.8578 N   0  0  0  0  0  0  0  0  0  0  0  0
  150.5263  140.1651  157.7978 C   0  0  0  0  0  0  0  0  0  0  0  0
  150.1898  139.0217  157.4919 O   0  0  0  0  0  0  0  0  0  0  0  0
  151.6627  139.5803  159.3877 H   0  0  0  0  0  0  0  0  0  0  0  0
  147.7530  142.6302  154.0425 H   0  0  0  0  0  0  0  0  0  0  0  0
  146.8732  141.5083  155.0815 H   0  0  0  0  0  0  0  0  0  0  0  0
  146.4983  141.5989  153.3658 H   0  0  0  0  0  0  0  0  0  0  0  0
  148.7093  140.6894  152.7665 H   0  0  0  0  0  0  0  0  0  0  0  0
  146.0367  139.7532  152.7474 H   0  0  0  0  0  0  0  0  0  0  0  0
  147.3221  138.9261  151.8796 H   0  0  0  0  0  0  0  0  0  0  0  0
  146.8285  136.9923  153.6744 H   0  0  0  0  0  0  0  0  0  0  0  0
  144.8295  137.0401  154.7404 H   0  0  0  0  0  0  0  0  0  0  0  0
  144.5814  138.7120  154.2459 H   0  0  0  0  0  0  0  0  0  0  0  0
  142.9262  136.7308  153.3352 H   0  0  0  0  0  0  0  0  0  0  0  0
  143.4180  138.0591  152.2761 H   0  0  0  0  0  0  0  0  0  0  0  0
  144.7655  135.3278  152.4982 H   0  0  0  0  0  0  0  0  0  0  0  0
  144.1544  136.1025  151.0281 H   0  0  0  0  0  0  0  0  0  0  0  0
  148.2883  141.3949  156.1357 H   0  0  0  0  0  0  0  0  0  0  0  0
  150.1788  143.4996  157.0116 H   0  0  0  0  0  0  0  0  0  0  0  0
  152.4401  141.6103  160.1239 H   0  0  0  0  0  0  0  0  0  0  0  0
  1  2  1  0  0  0  0
  1 25  1  0  0  0  0
  1 26  1  0  0  0  0
  1 27  1  0  0  0  0
  2  3  1  0  0  0  0
  2 10  1  0  0  0  0
  2 28  1  0  0  0  0
  3  4  1  0  0  0  0
  4  5  1  0  0  0  0
  4 29  1  0  0  0  0
  4 30  1  0  0  0  0
  5  9  1  0  0  0  0
  5  6  1  0  0  0  0
  5 31  1  0  0  0  0
  6  7  1  0  0  0  0
  6 32  1  0  0  0  0
  6 33  1  0  0  0  0
  7  8  1  0  0  0  0
  7 34  1  0  0  0  0
  7 35  1  0  0  0  0
  8  9  1  0  0  0  0
  8 36  1  0  0  0  0
  8 37  1  0  0  0  0
 10 11  2  0  0  0  0
 10 12  1  0  0  0  0
 12 13  1  0  0  0  0
 12 38  1  0  0  0  0
 13 22  1  0  0  0  0
 13 14  2  0  0  0  0
 14 15  1  0  0  0  0
 14 39  1  0  0  0  0
 15 16  1  0  0  0  0
 15 20  2  0  0  0  0
 16 17  1  0  0  0  0
 16 18  1  0  0  0  0
 16 19  1  0  0  0  0
 20 21  1  0  0  0  0
 20 40  1  0  0  0  0
 21 24  1  0  0  0  0
 21 22  1  0  0  0  0
 22 23  2  0  0  0  0
M  END
> <s_m_source_file>
AV-unprocessed.smi

> <i_m_source_file_index>
1718

> <i_lp_mmshare_version>
43012

> <i_f3d_flags>
0

> <s_epik_input>
TzFbQ0gyXVtDSDJdW0NIMl1bQ0BIXTFbQ0gyXU9bQ0BASF0oW0NIM10pQyg9TylbTkhdYzJbY0hdYyhDKEYpKEYpRilbY0hdW25IXWMyPU8=

> <s_epik_cmdline>
J2VwaWtfcHl0aG9uJywgJy1waCcsICc3LjAnLCAnLXRuJywgJzgnLCAnLW1hJywgJzIwMCcsICctbWV0YWxfYmluZGluZycsICctaW1hZScsICc8aW5maWxlLm1hZT4nLCAnLW9tYWUnLCAnPG91dGZpbGUubWFlPic=

> <r_lp_tautomer_probability>
0.999

> <r_epik_Ionization_Penalty>
0.00894336

> <r_epik_Ionization_Penalty_Charging>
0.00894326

> <r_epik_Ionization_Penalty_Neutral>
1.00145e-07

> <r_epik_State_Penalty>
0.00676626

> <r_epik_Charging_Adjusted_Penalty>
0.0157095

> <i_epik_Tot_Q>
0

> <i_epik_Tot_abs_Q>
0

> <r_epik_Metal_State_Penalty>
0.321145

> <b_epik_Metal_Only>
0

> <s_lp_Force_Field>
OPLS_2005

> <r_lp_Energy>
34.3894

> <b_lp_Chiralities_Consistent>
1

> <s_lp_Variant>
AV-unprocessed.smi:1718-3

> <Gold.Version>
5.8.1

> <Gold.Id.Protein>
6NUR|6NUR_protein|mol2

> <Gold.PLP.Fitness>
40.7271

> <Gold.PLP.PLP>
-42.6647

> <Gold.PLP.part.hbond>
-0.8877

> <Gold.PLP.part.metal>
0.0000

> <Gold.PLP.part.buried>
-4.4389

> <Gold.PLP.part.nonpolar>
-38.3756

> <Gold.PLP.part.repulsive>
0.7599

> <Gold.PLP.ligand.clash>
0.6348

> <Gold.PLP.ligand.torsion>
2.2572

> <Gold.PLP.Chemscore.Hbond>
0.9750

> <Gold.PLP.Chemscore.CHOScore>
0.0000

> <Gold.PLP.Chemscore.Metal>
0.0000

> <Gold.Chemscore.Hbonds>
donor molecule, donor type, donor heavy atom, donor atom, acceptor molecule, acceptor atom, score
      P1  H  7989  7998       L1    11  0.98

> <Gold.PLP.Chemscore.Internal.Correction>
0.2866

> <Gold.Rescore>
     Score         DG    S(hbond)    S(metal)    S(lipo)     H(rot)  DE(clash)    DE(int)     intcor
     11.00     -12.84       0.98        0.00      76.16       1.88       0.16       1.68       ----

> <Gold.Chemscore.Fitness>
11.0006

> <Gold.Chemscore.DG>
-12.8405

> <Gold.Chemscore.ZeroCoef>
-5.4800

> <Gold.Chemscore.Hbond>
0.9759

> <Gold.Chemscore.Metal>
0.0000

> <Gold.Chemscore.Lipo>
76.1625

> <Gold.Chemscore.Internal_Hbond>
0.0000

> <Gold.Chemscore.DEClash>
0.1633

> <Gold.Chemscore.DEInternal>
1.6765

> <Gold.Chemscore.Rot>
1.8790

> <Gold.Chemscore.Internal.Correction>
   9.000000E+99

> <Gold.Chemscore.Hbonds>
donor molecule, donor type, donor heavy atom, donor atom, acceptor molecule, acceptor atom, score
      P1  H  7989  7998       L1    11  0.91

> <Gold.Chemscore.Hbond.Weighted>
-3.2596

> <Gold.Chemscore.Metal.Weighted>
-0.0000

> <Gold.Chemscore.Lipo.Weighted>
-8.9110

> <Gold.Chemscore.Internal_Hbond.Weighted>
0.0000

> <Gold.Chemscore.DEClash.Weighted>
0.1633

> <Gold.Chemscore.DEInternal.Weighted>
1.6765

> <Gold.Chemscore.Rot.Weighted>
4.8102

> <Gold.Chemscore.Internal.Correction.Weighted>
   9.000000E+99

> <Gold.Protein.RotatedTorsions>
[ 6907 6896 6895 6894 ] final   91.74 input  -60.11 | X-H torsion
[ 7974 7965 7964 7962 ] final    6.18 input  175.53 | X-H torsion
[ 8008 7997 7996 7995 ] final  -27.63 input   59.86 | X-H torsion
[ 10167 10162 10161 10158 ] final  -11.86 input  -65.29 | X-H torsion
[ 10718 10713 10712 10709 ] final  -51.62 input   66.30 | X-H torsion
[ 10763 10752 10751 10750 ] final  150.64 input  -60.55 | X-H torsion
[ 11005 11000 10999 10996 ] final -147.30 input  -57.11 | X-H torsion

> <Gold.Protein.ActiveResidues>
 VAL166  LYS551  ARG553  GLY616  TRP617  ASP618  TYR619  PRO620  LYS621  CYS622 
 ASP623  PHE694  ASN695  SER759  ASP760  ASP761  ALA762  ILE779  LEU786  VAL792 
 PHE793  MET794  SER795  GLU796  ALA797  LYS798  CYS799  TRP800  GLU811  SER814 

> <Gold.Protein.RotatedAtoms>
  152.5451  134.1610  159.8557 H   0  0  0  0  0  0  0  0  0  0  0  0  # atno 6907 bound_to 6896
  151.1629  133.4826  159.2601 H   0  0  0  0  0  0  0  0  0  0  0  0  # atno 6908 bound_to 6896
  151.1354  135.0163  159.8657 H   0  0  0  0  0  0  0  0  0  0  0  0  # atno 6909 bound_to 6896
  146.2436  140.0271  142.8393 H   0  0  0  0  0  0  0  0  0  0  0  0  # atno 7974 bound_to 7965
  154.4368  140.1867  156.0963 H   0  0  0  0  0  0  0  0  0  0  0  0  # atno 8008 bound_to 7997
  156.0327  140.3329  155.7131 H   0  0  0  0  0  0  0  0  0  0  0  0  # atno 8009 bound_to 7997
  155.5816  140.0622  157.2772 H   0  0  0  0  0  0  0  0  0  0  0  0  # atno 8010 bound_to 7997
  140.7148  143.5595  150.9212 H   0  0  0  0  0  0  0  0  0  0  0  0  # atno 10167 bound_to 10162
  156.1694  130.4149  149.9671 H   0  0  0  0  0  0  0  0  0  0  0  0  # atno 10718 bound_to 10713
  154.0908  135.2852  155.3272 H   0  0  0  0  0  0  0  0  0  0  0  0  # atno 10763 bound_to 10752
  154.6621  135.5330  153.8035 H   0  0  0  0  0  0  0  0  0  0  0  0  # atno 10764 bound_to 10752
  153.0414  135.6536  154.1077 H   0  0  0  0  0  0  0  0  0  0  0  0  # atno 10765 bound_to 10752
  140.7731  134.3166  157.5069 H   0  0  0  0  0  0  0  0  0  0  0  0  # atno 11005 bound_to 11000
  145.1188  140.9450  143.4613 LP  0  0  0  0  0  0  0  0  0  0  0  0  # atno 17320 bound_to 7965
  145.0502  139.3188  143.5932 LP  0  0  0  0  0  0  0  0  0  0  0  0  # atno 17321 bound_to 7965
  139.9320  143.6482  152.3074 LP  0  0  0  0  0  0  0  0  0  0  0  0  # atno 17342 bound_to 10162
  139.6936  144.7644  151.1395 LP  0  0  0  0  0  0  0  0  0  0  0  0  # atno 17343 bound_to 10162
  156.7476  130.9103  151.3635 LP  0  0  0  0  0  0  0  0  0  0  0  0  # atno 17370 bound_to 10713
  157.6791  130.9123  150.0224 LP  0  0  0  0  0  0  0  0  0  0  0  0  # atno 17371 bound_to 10713
  139.8753  134.9273  156.3422 LP  0  0  0  0  0  0  0  0  0  0  0  0  # atno 17394 bound_to 11000
  140.9554  133.7423  156.0329 LP  0  0  0  0  0  0  0  0  0  0  0  0  # atno 17395 bound_to 11000

$$$$
