AV-unprocessed.smi:218|AV-procd|sdf|1663|dock7
  -GOLD-   2262020 63D 1   1.00000     0.00000
 Structure written by MMmdl.
 54 57  0  0  0  0  0  0  0  0  1 V2000
  151.4920  143.5601  159.3711 C   0  0  0  0  0  0  0  0  0  0  0  0
  151.0056  142.2279  158.7877 C   0  0  0  0  0  0  0  0  0  0  0  0
  151.4712  141.0407  159.6485 C   0  0  0  0  0  0  0  0  0  0  0  0
  151.5470  142.1291  157.4687 O   0  0  0  0  0  0  0  0  0  0  0  0
  151.1800  141.0827  156.6443 C   0  0  0  0  0  0  0  0  0  0  0  0
  150.0816  141.2668  155.7795 C   0  0  0  0  0  0  0  0  0  0  0  0
  149.6911  140.2045  154.9393 C   0  0  0  0  0  0  0  0  0  0  0  0
  148.5204  140.3606  153.9931 C   0  0  0  0  0  0  0  0  0  0  0  0
  148.3158  139.1905  153.1511 N   0  0  0  0  0  0  0  0  0  0  0  0
  147.4325  138.2394  153.5230 C   0  0  0  0  0  0  0  0  0  0  0  0
  147.1635  138.0113  154.8351 N   0  0  0  0  0  0  0  0  0  0  0  0
  146.2868  137.0648  155.1815 C   0  0  0  0  0  0  0  0  0  0  0  0
  145.5848  136.2500  154.3918 N   0  0  0  0  0  0  0  0  0  0  0  0
  145.8501  136.4731  153.0720 C   0  0  0  0  0  0  0  0  0  0  0  0
  146.7547  137.4457  152.5612 C   0  0  0  0  0  0  0  0  0  0  0  0
  146.7685  137.3934  151.1739 N   0  0  0  0  0  0  0  0  0  0  0  0
  145.9198  136.4438  150.8858 C   0  0  0  0  0  0  0  0  0  0  0  0
  145.3192  135.8363  151.9663 N   0  0  0  0  0  0  0  0  0  0  0  0
  144.3130  134.7237  151.9345 C   0  0  1  0  0  0  0  0  0  0  0  0
  144.0497  134.3723  150.6073 O   0  0  0  0  0  0  0  0  0  0  0  0
  144.3592  132.9977  150.3833 C   0  0  2  0  0  0  0  0  0  0  0  0
  143.4156  132.4370  149.3077 C   0  0  0  0  0  0  0  0  0  0  0  0
  143.3306  133.3202  148.2098 O   0  0  0  0  0  0  0  0  0  0  0  0
  144.2108  132.3694  151.7717 C   0  0  1  0  0  0  0  0  0  0  0  0
  144.8826  131.1323  151.9137 O   0  0  0  0  0  0  0  0  0  0  0  0
  144.7794  133.4550  152.6753 C   0  0  1  0  0  0  0  0  0  0  0  0
  146.1894  133.3652  152.8174 O   0  0  0  0  0  0  0  0  0  0  0  0
  150.4186  138.9992  154.9900 C   0  0  0  0  0  0  0  0  0  0  0  0
  151.5009  138.9090  155.8863 C   0  0  0  0  0  0  0  0  0  0  0  0
  151.8768  139.9202  156.6974 N   0  0  0  0  0  0  0  0  0  0  0  0
  143.4100  135.1559  152.3674 H   0  0  0  0  0  0  0  0  0  0  0  0
  145.3958  132.9353  150.0490 H   0  0  0  0  0  0  0  0  0  0  0  0
  143.1535  132.2275  152.0001 H   0  0  0  0  0  0  0  0  0  0  0  0
  144.3336  133.4285  153.6702 H   0  0  0  0  0  0  0  0  0  0  0  0
  151.1112  143.7095  160.3819 H   0  0  0  0  0  0  0  0  0  0  0  0
  151.1526  144.3988  158.7628 H   0  0  0  0  0  0  0  0  0  0  0  0
  152.5808  143.5994  159.4146 H   0  0  0  0  0  0  0  0  0  0  0  0
  149.9154  142.2661  158.7635 H   0  0  0  0  0  0  0  0  0  0  0  0
  151.0916  141.1257  160.6668 H   0  0  0  0  0  0  0  0  0  0  0  0
  152.5594  140.9962  159.7014 H   0  0  0  0  0  0  0  0  0  0  0  0
  151.1214  140.0889  159.2498 H   0  0  0  0  0  0  0  0  0  0  0  0
  149.5488  142.2065  155.7639 H   0  0  0  0  0  0  0  0  0  0  0  0
  147.6166  140.5555  154.5724 H   0  0  0  0  0  0  0  0  0  0  0  0
  148.6935  141.2355  153.3648 H   0  0  0  0  0  0  0  0  0  0  0  0
  148.8761  139.1388  152.3123 H   0  0  0  0  0  0  0  0  0  0  0  0
  146.1247  136.9423  156.2422 H   0  0  0  0  0  0  0  0  0  0  0  0
  145.7055  136.1580  149.8660 H   0  0  0  0  0  0  0  0  0  0  0  0
  143.7447  131.4548  148.9679 H   0  0  0  0  0  0  0  0  0  0  0  0
  142.4135  132.3160  149.7197 H   0  0  0  0  0  0  0  0  0  0  0  0
  142.6993  133.9936  148.4130 H   0  0  0  0  0  0  0  0  0  0  0  0
  145.6378  131.2686  152.4661 H   0  0  0  0  0  0  0  0  0  0  0  0
  146.4248  132.4531  152.8933 H   0  0  0  0  0  0  0  0  0  0  0  0
  150.1558  138.1624  154.3594 H   0  0  0  0  0  0  0  0  0  0  0  0
  152.0806  138.0003  155.9539 H   0  0  0  0  0  0  0  0  0  0  0  0
  1  2  1  0  0  0  0
  1 35  1  0  0  0  0
  1 36  1  0  0  0  0
  1 37  1  0  0  0  0
  2  3  1  0  0  0  0
  2  4  1  0  0  0  0
  2 38  1  0  0  0  0
  3 39  1  0  0  0  0
  3 40  1  0  0  0  0
  3 41  1  0  0  0  0
  4  5  1  0  0  0  0
  5 30  1  0  0  0  0
  5  6  2  0  0  0  0
  6  7  1  0  0  0  0
  6 42  1  0  0  0  0
  7  8  1  0  0  0  0
  7 28  2  0  0  0  0
  8  9  1  0  0  0  0
  8 43  1  0  0  0  0
  8 44  1  0  0  0  0
  9 10  1  0  0  0  0
  9 45  1  0  0  0  0
 10 15  1  0  0  0  0
 10 11  2  0  0  0  0
 11 12  1  0  0  0  0
 12 13  2  0  0  0  0
 12 46  1  0  0  0  0
 13 14  1  0  0  0  0
 14 18  1  0  0  0  0
 14 15  2  0  0  0  0
 15 16  1  0  0  0  0
 16 17  2  0  0  0  0
 17 18  1  0  0  0  0
 17 47  1  0  0  0  0
 18 19  1  0  0  0  0
 19 31  1  0  0  0  0
 19 26  1  0  0  0  0
 19 20  1  0  0  0  0
 20 21  1  0  0  0  0
 21 32  1  0  0  0  0
 21 22  1  0  0  0  0
 21 24  1  0  0  0  0
 22 23  1  0  0  0  0
 22 48  1  0  0  0  0
 22 49  1  0  0  0  0
 23 50  1  0  0  0  0
 24 33  1  0  0  0  0
 24 25  1  0  0  0  0
 24 26  1  0  0  0  0
 25 51  1  0  0  0  0
 26 34  1  0  0  0  0
 26 27  1  0  0  0  0
 27 52  1  0  0  0  0
 28 29  1  0  0  0  0
 28 53  1  0  0  0  0
 29 30  2  0  0  0  0
 29 54  1  0  0  0  0
M  END
> <s_m_source_file>
AV-unprocessed.smi

> <i_m_source_file_index>
218

> <i_lp_mmshare_version>
43012

> <i_f3d_flags>
0

> <s_epik_input>
W0NIM11bQ0hdKFtDSDNdKU9jMVtjSF1jKFtjSF1bY0hdbjEpW0NIMl1bTkhdYyhuW2NIXW4yKWMoYzIzKW5bY0hdbjNbQ0BASF00T1tDQEhdKFtDSDJdW09IXSlbQ0BASF0oW09IXSlbQ0BIXTRbT0hd

> <s_epik_cmdline>
J2VwaWtfcHl0aG9uJywgJy1waCcsICc3LjAnLCAnLXRuJywgJzgnLCAnLW1hJywgJzIwMCcsICctbWV0YWxfYmluZGluZycsICctaW1hZScsICc8aW5maWxlLm1hZT4nLCAnLW9tYWUnLCAnPG91dGZpbGUubWFlPic=

> <r_lp_tautomer_probability>
1

> <r_epik_Ionization_Penalty>
0.00457014

> <r_epik_Ionization_Penalty_Charging>
0

> <r_epik_Ionization_Penalty_Neutral>
0.00457014

> <r_epik_State_Penalty>
-0

> <r_epik_Charging_Adjusted_Penalty>
0

> <i_epik_Tot_Q>
0

> <i_epik_Tot_abs_Q>
0

> <r_epik_Metal_State_Penalty>
-0

> <b_epik_Metal_Only>
0

> <s_epik_Chemistry_Notes>
This compound contains an acetal/aminal-like group ( X-CH(R)-Y where X, Y are N, S, or O) that may be acid/base labile, releasing an aldehyde.

> <s_lp_Force_Field>
OPLS_2005

> <r_lp_Energy>
45.6959

> <b_lp_Chiralities_Consistent>
1

> <s_lp_Variant>
AV-unprocessed.smi:218-2

> <Gold.Version>
5.8.1

> <Gold.Id.Protein>
6NUR|6NUR_protein|mol2

> <Gold.PLP.Fitness>
54.5307

> <Gold.PLP.PLP>
-36.6635

> <Gold.PLP.part.hbond>
-9.2235

> <Gold.PLP.part.metal>
0.0000

> <Gold.PLP.part.buried>
11.4125

> <Gold.PLP.part.nonpolar>
-42.9027

> <Gold.PLP.part.repulsive>
3.8492

> <Gold.PLP.ligand.clash>
0.0000

> <Gold.PLP.ligand.torsion>
0.8672

> <Gold.PLP.Chemscore.Hbond>
5.5703

> <Gold.PLP.Chemscore.CHOScore>
0.8810

> <Gold.PLP.Chemscore.Metal>
0.0000

> <Gold.Chemscore.Hbonds>
donor molecule, donor type, donor heavy atom, donor atom, acceptor molecule, acceptor atom, score
      L1  H     9    45       P1  7957  0.90
      L1  H    23    50       P1 10186  0.83
      P1  H  7954  7966       L1    16  1.00
      L1  C    17    47       P1  7921  0.77

> <Gold.PLP.Chemscore.Internal.Correction>
0.2477

> <Gold.Rescore>
     Score         DG    S(hbond)    S(metal)    S(lipo)     H(rot)  DE(clash)    DE(int)     intcor
     12.16     -22.58       5.02        0.00     110.05       4.90       9.25       1.17       ----

> <Gold.Chemscore.Fitness>
12.1563

> <Gold.Chemscore.DG>
-22.5774

> <Gold.Chemscore.ZeroCoef>
-5.4800

> <Gold.Chemscore.Hbond>
5.0218

> <Gold.Chemscore.Metal>
0.0000

> <Gold.Chemscore.Lipo>
110.0531

> <Gold.Chemscore.Internal_Hbond>
0.0000

> <Gold.Chemscore.DEClash>
9.2526

> <Gold.Chemscore.DEInternal>
1.1685

> <Gold.Chemscore.Rot>
4.9029

> <Gold.Chemscore.Internal.Correction>
   9.000000E+99

> <Gold.Chemscore.Hbonds>
donor molecule, donor type, donor heavy atom, donor atom, acceptor molecule, acceptor atom, score
      L1  H     9    45       P1  7957  0.87
      L1  H    23    50       P1 10186  0.78
      P1  H  7954  7966       L1    16  0.96
      P1  H  7997  8010       L1    30  0.01

> <Gold.Chemscore.Hbond.Weighted>
-16.7727

> <Gold.Chemscore.Metal.Weighted>
-0.0000

> <Gold.Chemscore.Lipo.Weighted>
-12.8762

> <Gold.Chemscore.Internal_Hbond.Weighted>
0.0000

> <Gold.Chemscore.DEClash.Weighted>
9.2526

> <Gold.Chemscore.DEInternal.Weighted>
1.1685

> <Gold.Chemscore.Rot.Weighted>
12.5515

> <Gold.Chemscore.Internal.Correction.Weighted>
   9.000000E+99

> <Gold.Protein.RotatedTorsions>
[ 6907 6896 6895 6894 ] final -100.27 input  -60.11 | X-H torsion
[ 7974 7965 7964 7962 ] final  118.18 input  175.53 | X-H torsion
[ 8008 7997 7996 7995 ] final   67.41 input   59.86 | X-H torsion
[ 10167 10162 10161 10158 ] final   38.28 input  -65.29 | X-H torsion
[ 10718 10713 10712 10709 ] final -117.93 input   66.30 | X-H torsion
[ 10763 10752 10751 10750 ] final -152.37 input  -60.55 | X-H torsion
[ 11005 11000 10999 10996 ] final    7.09 input  -57.11 | X-H torsion

> <Gold.Protein.ActiveResidues>
 VAL166  LYS551  ARG553  GLY616  TRP617  ASP618  TYR619  PRO620  LYS621  CYS622 
 ASP623  PHE694  ASN695  SER759  ASP760  ASP761  ALA762  ILE779  LEU786  VAL792 
 PHE793  MET794  SER795  GLU796  ALA797  LYS798  CYS799  TRP800  GLU811  SER814 

> <Gold.Protein.RotatedAtoms>
  150.7110  134.0913  159.3932 H   0  0  0  0  0  0  0  0  0  0  0  0  # atno 6907 bound_to 6896
  151.8898  135.0419  160.0506 H   0  0  0  0  0  0  0  0  0  0  0  0  # atno 6908 bound_to 6896
  152.2501  133.5172  159.5357 H   0  0  0  0  0  0  0  0  0  0  0  0  # atno 6909 bound_to 6896
  145.1583  139.3170  143.4530 H   0  0  0  0  0  0  0  0  0  0  0  0  # atno 7974 bound_to 7965
  155.6924  140.3496  155.4899 H   0  0  0  0  0  0  0  0  0  0  0  0  # atno 8008 bound_to 7997
  155.9512  140.1119  157.0997 H   0  0  0  0  0  0  0  0  0  0  0  0  # atno 8009 bound_to 7997
  154.4122  140.1194  156.5041 H   0  0  0  0  0  0  0  0  0  0  0  0  # atno 8010 bound_to 7997
  140.3951  144.1799  150.6132 H   0  0  0  0  0  0  0  0  0  0  0  0  # atno 10167 bound_to 10162
  156.1070  130.6218  150.9227 H   0  0  0  0  0  0  0  0  0  0  0  0  # atno 10718 bound_to 10713
  154.7998  135.3237  154.7578 H   0  0  0  0  0  0  0  0  0  0  0  0  # atno 10763 bound_to 10752
  153.8248  135.6884  153.4826 H   0  0  0  0  0  0  0  0  0  0  0  0  # atno 10764 bound_to 10752
  153.1708  135.4624  154.9843 H   0  0  0  0  0  0  0  0  0  0  0  0  # atno 10765 bound_to 10752
  140.5521  134.0273  155.7940 H   0  0  0  0  0  0  0  0  0  0  0  0  # atno 11005 bound_to 11000
  146.3486  140.1684  142.8590 LP  0  0  0  0  0  0  0  0  0  0  0  0  # atno 17320 bound_to 7965
  145.0358  140.8906  143.5082 LP  0  0  0  0  0  0  0  0  0  0  0  0  # atno 17321 bound_to 7965
  140.4798  143.2383  151.8971 LP  0  0  0  0  0  0  0  0  0  0  0  0  # atno 17342 bound_to 10162
  139.4787  144.5281  151.8706 LP  0  0  0  0  0  0  0  0  0  0  0  0  # atno 17343 bound_to 10162
  157.6247  131.0926  150.8556 LP  0  0  0  0  0  0  0  0  0  0  0  0  # atno 17370 bound_to 10713
  156.8673  130.5134  149.5299 LP  0  0  0  0  0  0  0  0  0  0  0  0  # atno 17371 bound_to 10713
  141.1165  133.9531  157.2812 LP  0  0  0  0  0  0  0  0  0  0  0  0  # atno 17394 bound_to 11000
  139.9450  135.0185  156.8824 LP  0  0  0  0  0  0  0  0  0  0  0  0  # atno 17395 bound_to 11000

$$$$
