AV-unprocessed.smi:231|AV-procd|sdf|1766|dock1
  -GOLD-   2262020303D 1   1.00000     0.00000
 Structure written by MMmdl.
 50 53  0  0  0  0  0  0  0  0  1 V2000
  148.1651  138.5526  157.4706 C   0  0  0  0  0  0  0  0  0  0  0  0
  147.2796  139.5865  156.7638 C   0  0  0  0  0  0  0  0  0  0  0  0
  147.0137  139.2614  155.3644 N   0  0  0  0  0  0  0  0  0  0  0  0
  146.3411  138.1098  155.1291 C   0  0  0  0  0  0  0  0  0  0  0  0
  145.8067  137.4659  156.1965 N   0  0  0  0  0  0  0  0  0  0  0  0
  145.1444  136.3186  156.0226 C   0  0  0  0  0  0  0  0  0  0  0  0
  144.8986  135.6606  154.8880 N   0  0  0  0  0  0  0  0  0  0  0  0
  145.4121  136.3205  153.8101 C   0  0  0  0  0  0  0  0  0  0  0  0
  146.1394  137.5435  153.8396 C   0  0  0  0  0  0  0  0  0  0  0  0
  146.5045  137.9059  152.5494 N   0  0  0  0  0  0  0  0  0  0  0  0
  146.0395  136.9424  151.8026 C   0  0  0  0  0  0  0  0  0  0  0  0
  145.3485  135.9603  152.4756 N   0  0  0  0  0  0  0  0  0  0  0  0
  144.7764  134.7711  151.9166 C   0  0  0  0  0  0  0  0  0  0  0  0
  145.1732  133.3776  152.4170 C   0  0  0  0  0  0  0  0  0  0  0  0
  144.9549  132.8211  150.9906 C   0  0  0  0  0  0  0  0  0  0  0  0
  145.9582  131.7576  150.5027 C   0  0  0  0  0  0  0  0  0  0  0  0
  146.1601  130.7258  151.4477 O   0  0  0  0  0  0  0  0  0  0  0  0
  143.5413  132.2596  150.7437 C   0  0  0  0  0  0  0  0  0  0  0  0
  143.3279  131.9697  149.3770 O   0  0  0  0  0  0  0  0  0  0  0  0
  145.1808  134.2784  150.5241 C   0  0  0  0  0  0  0  0  0  0  0  0
  147.2735  140.2243  154.2815 C   0  0  1  0  0  0  0  0  0  0  0  0
  146.1157  141.2213  154.0679 C   0  0  0  0  0  0  0  0  0  0  0  0
  146.6063  142.5584  154.6415 C   0  0  0  0  0  0  0  0  0  0  0  0
  148.0454  142.4083  154.7196 N   0  0  0  0  0  0  0  0  0  0  0  0
  148.4567  141.1521  154.5503 C   0  0  0  0  0  0  0  0  0  0  0  0
  149.6264  140.7766  154.5797 O   0  0  0  0  0  0  0  0  0  0  0  0
  148.3635  138.8569  158.4982 H   0  0  0  0  0  0  0  0  0  0  0  0
  149.1262  138.4403  156.9694 H   0  0  0  0  0  0  0  0  0  0  0  0
  147.6851  137.5751  157.5078 H   0  0  0  0  0  0  0  0  0  0  0  0
  146.3258  139.6675  157.2864 H   0  0  0  0  0  0  0  0  0  0  0  0
  147.7445  140.5711  156.8378 H   0  0  0  0  0  0  0  0  0  0  0  0
  144.7570  135.8619  156.9213 H   0  0  0  0  0  0  0  0  0  0  0  0
  146.1881  136.9256  150.7328 H   0  0  0  0  0  0  0  0  0  0  0  0
  143.6953  134.9074  151.9750 H   0  0  0  0  0  0  0  0  0  0  0  0
  146.2111  133.3372  152.7511 H   0  0  0  0  0  0  0  0  0  0  0  0
  144.5068  132.9666  153.1759 H   0  0  0  0  0  0  0  0  0  0  0  0
  145.6152  131.2979  149.5753 H   0  0  0  0  0  0  0  0  0  0  0  0
  146.9310  132.2030  150.2919 H   0  0  0  0  0  0  0  0  0  0  0  0
  147.0743  130.4867  151.4399 H   0  0  0  0  0  0  0  0  0  0  0  0
  143.3728  131.3522  151.3246 H   0  0  0  0  0  0  0  0  0  0  0  0
  142.7726  132.9665  151.0563 H   0  0  0  0  0  0  0  0  0  0  0  0
  142.8188  132.6696  148.9974 H   0  0  0  0  0  0  0  0  0  0  0  0
  144.5233  134.6144  149.7220 H   0  0  0  0  0  0  0  0  0  0  0  0
  146.2220  134.5077  150.2912 H   0  0  0  0  0  0  0  0  0  0  0  0
  147.4591  139.6740  153.3579 H   0  0  0  0  0  0  0  0  0  0  0  0
  145.9454  141.3378  152.9966 H   0  0  0  0  0  0  0  0  0  0  0  0
  145.1645  140.9057  154.4957 H   0  0  0  0  0  0  0  0  0  0  0  0
  146.3254  143.4054  154.0150 H   0  0  0  0  0  0  0  0  0  0  0  0
  146.2110  142.7228  155.6450 H   0  0  0  0  0  0  0  0  0  0  0  0
  148.6640  143.1853  154.9025 H   0  0  0  0  0  0  0  0  0  0  0  0
  1  2  1  0  0  0  0
  1 27  1  0  0  0  0
  1 28  1  0  0  0  0
  1 29  1  0  0  0  0
  2  3  1  0  0  0  0
  2 30  1  0  0  0  0
  2 31  1  0  0  0  0
  3  4  1  0  0  0  0
  3 21  1  0  0  0  0
  4  9  1  0  0  0  0
  4  5  2  0  0  0  0
  5  6  1  0  0  0  0
  6  7  2  0  0  0  0
  6 32  1  0  0  0  0
  7  8  1  0  0  0  0
  8 12  1  0  0  0  0
  8  9  2  0  0  0  0
  9 10  1  0  0  0  0
 10 11  2  0  0  0  0
 11 12  1  0  0  0  0
 11 33  1  0  0  0  0
 12 13  1  0  0  0  0
 13 20  1  0  0  0  0
 13 14  1  0  0  0  0
 13 34  1  0  0  0  0
 14 15  1  0  0  0  0
 14 35  1  0  0  0  0
 14 36  1  0  0  0  0
 15 16  1  0  0  0  0
 15 18  1  0  0  0  0
 15 20  1  0  0  0  0
 16 17  1  0  0  0  0
 16 37  1  0  0  0  0
 16 38  1  0  0  0  0
 17 39  1  0  0  0  0
 18 19  1  0  0  0  0
 18 40  1  0  0  0  0
 18 41  1  0  0  0  0
 19 42  1  0  0  0  0
 20 43  1  0  0  0  0
 20 44  1  0  0  0  0
 21 25  1  0  0  0  0
 21 22  1  0  0  0  0
 21 45  1  0  0  0  0
 22 23  1  0  0  0  0
 22 46  1  0  0  0  0
 22 47  1  0  0  0  0
 23 24  1  0  0  0  0
 23 48  1  0  0  0  0
 23 49  1  0  0  0  0
 24 25  1  0  0  0  0
 24 50  1  0  0  0  0
 25 26  2  0  0  0  0
M  END
> <s_m_source_file>
AV-unprocessed.smi

> <i_m_source_file_index>
231

> <i_lp_mmshare_version>
43012

> <i_f3d_flags>
0

> <s_epik_input>
Tz1DMVtOSF1bQ0gyXVtDSDJdW0NASF0xTihbQ0gyXVtDSDNdKWMobltjSF1uMiljKGMyMyluW2NIXW4zW0NIXShbQ0gyXTQpW0NIMl1DNChbQ0gyXVtPSF0pW0NIMl1bT0hd

> <s_epik_cmdline>
J2VwaWtfcHl0aG9uJywgJy1waCcsICc3LjAnLCAnLXRuJywgJzgnLCAnLW1hJywgJzIwMCcsICctbWV0YWxfYmluZGluZycsICctaW1hZScsICc8aW5maWxlLm1hZT4nLCAnLW9tYWUnLCAnPG91dGZpbGUubWFlPic=

> <r_lp_tautomer_probability>
1

> <r_epik_Ionization_Penalty>
0.000842899

> <r_epik_Ionization_Penalty_Charging>
0

> <r_epik_Ionization_Penalty_Neutral>
0.000842899

> <r_epik_State_Penalty>
0.000441286

> <r_epik_Charging_Adjusted_Penalty>
0.000441286

> <i_epik_Tot_Q>
0

> <i_epik_Tot_abs_Q>
0

> <r_epik_Metal_State_Penalty>
-0

> <b_epik_Metal_Only>
0

> <s_lp_Force_Field>
OPLS_2005

> <r_lp_Energy>
52.3391

> <b_lp_Chiralities_Consistent>
1

> <s_lp_Variant>
AV-unprocessed.smi:231-2

> <Gold.Version>
5.8.1

> <Gold.Id.Protein>
6NUR|6NUR_protein|mol2

> <Gold.PLP.Fitness>
49.3241

> <Gold.PLP.PLP>
-33.7647

> <Gold.PLP.part.hbond>
-6.6918

> <Gold.PLP.part.metal>
0.0000

> <Gold.PLP.part.buried>
-5.4824

> <Gold.PLP.part.nonpolar>
-24.9189

> <Gold.PLP.part.repulsive>
2.1861

> <Gold.PLP.ligand.clash>
0.0000

> <Gold.PLP.ligand.torsion>
1.5082

> <Gold.PLP.Chemscore.Hbond>
4.9130

> <Gold.PLP.Chemscore.CHOScore>
0.9331

> <Gold.PLP.Chemscore.Metal>
0.0000

> <Gold.Chemscore.Hbonds>
donor molecule, donor type, donor heavy atom, donor atom, acceptor molecule, acceptor atom, score
      L1  H    17    39       P1 10747  0.37
      L1  H    24    50       P1  8028  0.94
      P1  H  7989  7998       L1    26  0.28
      P1  H 10785 10796       L1    19  1.00

> <Gold.PLP.Chemscore.Internal.Correction>
1.0376

> <Gold.Rescore>
     Score         DG    S(hbond)    S(metal)    S(lipo)     H(rot)  DE(clash)    DE(int)     intcor
     12.23     -17.87       4.34        0.00      61.28       3.63       1.77       3.87       ----

> <Gold.Chemscore.Fitness>
12.2301

> <Gold.Chemscore.DG>
-17.8661

> <Gold.Chemscore.ZeroCoef>
-5.4800

> <Gold.Chemscore.Hbond>
4.3414

> <Gold.Chemscore.Metal>
0.0000

> <Gold.Chemscore.Lipo>
61.2757

> <Gold.Chemscore.Internal_Hbond>
0.0000

> <Gold.Chemscore.DEClash>
1.7670

> <Gold.Chemscore.DEInternal>
3.8691

> <Gold.Chemscore.Rot>
3.6264

> <Gold.Chemscore.Internal.Correction>
   9.000000E+99

> <Gold.Chemscore.Hbonds>
donor molecule, donor type, donor heavy atom, donor atom, acceptor molecule, acceptor atom, score
      L1  H    17    39       P1 10747  0.35
      L1  H    24    50       P1  8028  0.91
      P1  H  7989  7998       L1    26  0.28
      P1  H 10785 10796       L1    19  0.94

> <Gold.Chemscore.Hbond.Weighted>
-14.5004

> <Gold.Chemscore.Metal.Weighted>
-0.0000

> <Gold.Chemscore.Lipo.Weighted>
-7.1693

> <Gold.Chemscore.Internal_Hbond.Weighted>
0.0000

> <Gold.Chemscore.DEClash.Weighted>
1.7670

> <Gold.Chemscore.DEInternal.Weighted>
3.8691

> <Gold.Chemscore.Rot.Weighted>
9.2835

> <Gold.Chemscore.Internal.Correction.Weighted>
   9.000000E+99

> <Gold.Protein.RotatedTorsions>
[ 6907 6896 6895 6894 ] final -102.32 input  -60.11 | X-H torsion
[ 7974 7965 7964 7962 ] final  -22.88 input  175.53 | X-H torsion
[ 8008 7997 7996 7995 ] final  -39.84 input   59.86 | X-H torsion
[ 10167 10162 10161 10158 ] final  -73.97 input  -65.29 | X-H torsion
[ 10718 10713 10712 10709 ] final -159.13 input   66.30 | X-H torsion
[ 10763 10752 10751 10750 ] final -157.34 input  -60.55 | X-H torsion
[ 11005 11000 10999 10996 ] final -122.05 input  -57.11 | X-H torsion

> <Gold.Protein.ActiveResidues>
 VAL166  LYS551  ARG553  GLY616  TRP617  ASP618  TYR619  PRO620  LYS621  CYS622 
 ASP623  PHE694  ASN695  SER759  ASP760  ASP761  ALA762  ILE779  LEU786  VAL792 
 PHE793  MET794  SER795  GLU796  ALA797  LYS798  CYS799  TRP800  GLU811  SER814 

> <Gold.Protein.RotatedAtoms>
  150.7191  134.0599  159.3827 H   0  0  0  0  0  0  0  0  0  0  0  0  # atno 6907 bound_to 6896
  151.8579  135.0532  160.0475 H   0  0  0  0  0  0  0  0  0  0  0  0  # atno 6908 bound_to 6896
  152.2740  133.5373  159.5493 H   0  0  0  0  0  0  0  0  0  0  0  0  # atno 6909 bound_to 6896
  146.1650  140.4539  142.8556 H   0  0  0  0  0  0  0  0  0  0  0  0  # atno 7974 bound_to 7965
  154.4018  140.1541  156.2930 H   0  0  0  0  0  0  0  0  0  0  0  0  # atno 8008 bound_to 7997
  155.8769  140.3446  155.5838 H   0  0  0  0  0  0  0  0  0  0  0  0  # atno 8009 bound_to 7997
  155.7711  140.0830  157.2098 H   0  0  0  0  0  0  0  0  0  0  0  0  # atno 8010 bound_to 7997
  140.5066  143.2352  151.7664 H   0  0  0  0  0  0  0  0  0  0  0  0  # atno 10167 bound_to 10162
  156.5638  130.8658  151.2817 H   0  0  0  0  0  0  0  0  0  0  0  0  # atno 10718 bound_to 10713
  154.7644  135.3127  154.8316 H   0  0  0  0  0  0  0  0  0  0  0  0  # atno 10763 bound_to 10752
  153.9068  135.6810  153.4757 H   0  0  0  0  0  0  0  0  0  0  0  0  # atno 10764 bound_to 10752
  153.1248  135.4806  154.9187 H   0  0  0  0  0  0  0  0  0  0  0  0  # atno 10765 bound_to 10752
  141.0025  134.0383  157.3520 H   0  0  0  0  0  0  0  0  0  0  0  0  # atno 11005 bound_to 11000
  144.8079  140.6333  143.6434 LP  0  0  0  0  0  0  0  0  0  0  0  0  # atno 17320 bound_to 7965
  145.4491  139.1526  143.3928 LP  0  0  0  0  0  0  0  0  0  0  0  0  # atno 17321 bound_to 7965
  139.4885  144.4449  151.9721 LP  0  0  0  0  0  0  0  0  0  0  0  0  # atno 17342 bound_to 10162
  140.3540  144.3054  150.5944 LP  0  0  0  0  0  0  0  0  0  0  0  0  # atno 17343 bound_to 10162
  157.7363  130.9776  150.2128 LP  0  0  0  0  0  0  0  0  0  0  0  0  # atno 17370 bound_to 10713
  156.2775  130.3729  149.7968 LP  0  0  0  0  0  0  0  0  0  0  0  0  # atno 17371 bound_to 10713
  139.9046  135.0175  156.7426 LP  0  0  0  0  0  0  0  0  0  0  0  0  # atno 17394 bound_to 11000
  140.6867  133.9427  155.7942 LP  0  0  0  0  0  0  0  0  0  0  0  0  # atno 17395 bound_to 11000

$$$$
