#       Name:                AV-unprocessed.smi:3030
#       Creating user name   scv26
#       Creation time:       Fri Mar 27 16:48:30 2020


#       File generated by GOLD software.
#

@<TRIPOS>MOLECULE
AV-unprocessed.smi:3030
    56    57     1
SMALL
NO_CHARGES


@<TRIPOS>ATOM
      1 ****        -3.3669   5.1441  -2.2733 C.3            1 S1                 0.0000
      2 ****        -3.4953   4.7836  -0.7892 C.3            1 S1                 0.0000
      3 ****        -3.6843   3.3531  -0.5956 N.pl3          1 S1                 0.0000
      4 ****        -4.9559   2.7977  -0.4962 C.2            1 S1                 0.0000
      5 ****        -5.1933   1.4933  -0.2572 C.2            1 S1                 0.0000
      6 ****        -4.0534   0.5704  -0.0818 C.2            1 S1                 0.0000
      7 ****        -4.2333  -0.6266   0.1420 O.2            1 S1                 0.0000
      8 ****        -2.6945   1.1639  -0.1896 C.2            1 S1                 0.0000
      9 ****        -1.6136   0.2857  -0.0099 N.am           1 S1                 0.0000
     10 ****        -0.3083   0.4838  -0.2694 C.2            1 S1                 0.0000
     11 ****         0.1810   1.4956  -0.7710 O.2            1 S1                 0.0000
     12 ****         0.4147  -0.5892   0.0805 N.am           1 S1                 0.0000
     13 ****         1.8643  -0.7299  -0.0691 C.3            1 S1                 0.0000
     14 ****         2.2100  -1.3481  -1.4399 C.3            1 S1                 0.0000
     15 ****         1.8077  -2.8305  -1.5390 C.3            1 S1                 0.0000
     16 ****         2.1747  -3.4222  -2.9073 C.3            1 S1                 0.0000
     17 ****         2.4509  -3.6226  -0.3903 C.3            1 S1                 0.0000
     18 ****         2.0859  -3.0337   0.9815 C.3            1 S1                 0.0000
     19 ****         2.4770  -1.5395   1.1097 C.3            1 S1                 0.0000
     20 ****         2.1412  -0.9490   2.5146 C.3            1 S1                 0.0000
     21 ****         2.5168   0.5409   2.6364 C.3            1 S1                 0.0000
     22 ****         2.8157  -1.7247   3.6624 C.3            1 S1                 0.0000
     23 ****        -2.5981   2.4970  -0.4268 C.2            1 S1                 0.0000
     24 ****        -3.2271   6.2175  -2.4005 H              1 S1                 0.0000
     25 ****        -4.2608   4.8563  -2.8273 H              1 S1                 0.0000
     26 ****        -2.5129   4.6412  -2.7281 H              1 S1                 0.0000
     27 ****        -2.6044   5.1085  -0.2503 H              1 S1                 0.0000
     28 ****        -4.3329   5.3252  -0.3479 H              1 S1                 0.0000
     29 ****        -5.7622   3.5038  -0.6329 H              1 S1                 0.0000
     30 ****        -6.1995   1.1059  -0.1905 H              1 S1                 0.0000
     31 ****        -1.8684  -0.6250   0.3442 H              1 S1                 0.0000
     32 ****        -0.0735  -1.3760   0.4827 H              1 S1                 0.0000
     33 ****         2.3136   0.2637  -0.0621 H              1 S1                 0.0000
     34 ****         1.7322  -0.7765  -2.2368 H              1 S1                 0.0000
     35 ****         3.2841  -1.2557  -1.6076 H              1 S1                 0.0000
     36 ****         0.7242  -2.9015  -1.4341 H              1 S1                 0.0000
     37 ****         3.2504  -3.3817  -3.0818 H              1 S1                 0.0000
     38 ****         1.6853  -2.8758  -3.7140 H              1 S1                 0.0000
     39 ****         1.8644  -4.4648  -2.9809 H              1 S1                 0.0000
     40 ****         2.1336  -4.6651  -0.4341 H              1 S1                 0.0000
     41 ****         3.5357  -3.6267  -0.5058 H              1 S1                 0.0000
     42 ****         1.0165  -3.1551   1.1586 H              1 S1                 0.0000
     43 ****         2.5916  -3.6308   1.7389 H              1 S1                 0.0000
     44 ****         3.5611  -1.4866   0.9946 H              1 S1                 0.0000
     45 ****         1.0648  -1.0238   2.6738 H              1 S1                 0.0000
     46 ****         3.5712   0.7035   2.4112 H              1 S1                 0.0000
     47 ****         2.3334   0.9125   3.6449 H              1 S1                 0.0000
     48 ****         1.9282   1.1671   1.9664 H              1 S1                 0.0000
     49 ****         3.8955  -1.7821   3.5227 H              1 S1                 0.0000
     50 ****         2.4312  -2.7399   3.7517 H              1 S1                 0.0000
     51 ****         2.6331  -1.2424   4.6231 H              1 S1                 0.0000
     52 ****        -1.6537   3.0129  -0.4972 H              1 S1                 0.0000
     53 ****        -5.1631  -0.9888   0.2077 LP             1 S1                 0.0000
     54 ****        -3.4496  -1.2369   0.2580 LP             1 S1                 0.0000
     55 ****        -0.4078   2.2633  -1.0236 LP             1 S1                 0.0000
     56 ****         1.1675   1.5499  -0.9260 LP             1 S1                 0.0000
@<TRIPOS>BOND
    1    1    2 1     
    2    1   24 1     
    3    1   25 1     
    4    1   26 1     
    5    2    3 1     
    6    2   27 1     
    7    2   28 1     
    8    3   23 1     
    9    3    4 1     
   10    4    5 2     
   11    4   29 1     
   12    5    6 1     
   13    5   30 1     
   14    6    7 2     
   15    6    8 1     
   16    8    9 1     
   17    8   23 2     
   18    9   10 am    
   19    9   31 1     
   20   10   11 2     
   21   10   12 am    
   22   12   13 1     
   23   12   32 1     
   24   13   19 1     
   25   13   14 1     
   26   13   33 1     
   27   14   15 1     
   28   14   34 1     
   29   14   35 1     
   30   15   16 1     
   31   15   17 1     
   32   15   36 1     
   33   16   37 1     
   34   16   38 1     
   35   16   39 1     
   36   17   18 1     
   37   17   40 1     
   38   17   41 1     
   39   18   19 1     
   40   18   42 1     
   41   18   43 1     
   42   19   20 1     
   43   19   44 1     
   44   20   21 1     
   45   20   22 1     
   46   20   45 1     
   47   21   46 1     
   48   21   47 1     
   49   21   48 1     
   50   22   49 1     
   51   22   50 1     
   52   22   51 1     
   53   23   52 1     
   54    7   53 1     
   55    7   54 1     
   56   11   55 1     
   57   11   56 1     
@<TRIPOS>SUBSTRUCTURE
      1 S1             1
@<TRIPOS>SET
LONE_PAIRS      STATIC     ATOMS    <user>   **** ""
4 53 54 55 56
DONOR_HYDROGENS      STATIC     ATOMS    <user>   **** ""
2 31 32
ATOM$BLUE        STATIC     ATOMS    COLORGROUP SYSTEM
4 53 54 55 56
ATOM$RED        STATIC     ATOMS    COLORGROUP SYSTEM
2 31 32
