#       Name:                AV-unprocessed.smi:1258
#       Creating user name   scv26
#       Creation time:       Fri Mar 27 04:40:47 2020


#       File generated by GOLD software.
#

@<TRIPOS>MOLECULE
AV-unprocessed.smi:1258
    38    39     1
SMALL
NO_CHARGES


@<TRIPOS>ATOM
      1 ****        -1.7882  -1.6095  -2.0342 C.3            1 S1                 0.0000
      2 ****        -1.2530  -0.9367  -0.7624 C.3            1 S1                 0.0000
      3 ****        -1.7944  -1.6212   0.5075 C.3            1 S1                 0.0000
      4 ****        -1.2682  -0.9471   1.7848 C.3            1 S1                 0.0000
      5 ****        -1.5825   0.5598   1.7963 C.3            1 S1                 0.0000
      6 ****        -1.0570   1.2704   0.5343 C.3            1 S1                 0.0000
      7 ****         0.4028   1.3023   0.5556 N.am           1 S1                 0.0000
      8 ****         1.1831   2.1193  -0.1693 C.2            1 S1                 0.0000
      9 ****         0.7439   3.0231  -0.8792 O.2            1 S1                 0.0000
     10 ****         2.6915   1.8708  -0.0911 C.3            1 S1                 0.0000
     11 ****         3.0176   0.4890  -0.3998 N.pl3          1 S1                 0.0000
     12 ****         3.2626  -0.5525   0.3981 C.2            1 S1                 0.0000
     13 ****         3.4905  -1.6572  -0.2951 N.2            1 S1                 0.0000
     14 ****         3.3739  -1.2338  -1.6085 N.2            1 S1                 0.0000
     15 ****         3.0944   0.0389  -1.6772 N.2            1 S1                 0.0000
     16 ****        -1.5811   0.5715  -0.7405 C.3            1 S1                 0.0000
     17 ****        -2.8745  -1.5362  -2.0960 H              1 S1                 0.0000
     18 ****        -1.5239  -2.6671  -2.0593 H              1 S1                 0.0000
     19 ****        -1.3716  -1.1453  -2.9286 H              1 S1                 0.0000
     20 ****        -0.1678  -1.0507  -0.7707 H              1 S1                 0.0000
     21 ****        -2.8849  -1.5909   0.5055 H              1 S1                 0.0000
     22 ****        -1.5158  -2.6756   0.5109 H              1 S1                 0.0000
     23 ****        -1.7090  -1.4224   2.6614 H              1 S1                 0.0000
     24 ****        -0.1913  -1.1022   1.8625 H              1 S1                 0.0000
     25 ****        -2.6627   0.6974   1.8603 H              1 S1                 0.0000
     26 ****        -1.1649   1.0218   2.6917 H              1 S1                 0.0000
     27 ****        -1.4197   2.2997   0.5480 H              1 S1                 0.0000
     28 ****         0.8561   0.5981   1.1192 H              1 S1                 0.0000
     29 ****         3.2194   2.5248  -0.7868 H              1 S1                 0.0000
     30 ****         3.0500   2.1048   0.9118 H              1 S1                 0.0000
     31 ****         3.2630  -0.5033   1.4770 H              1 S1                 0.0000
     32 ****        -1.1756   1.0552  -1.6301 H              1 S1                 0.0000
     33 ****        -2.6624   0.7045  -0.7969 H              1 S1                 0.0000
     34 ****        -0.2422   3.1789  -0.9373 LP             1 S1                 0.0000
     35 ****         1.3730   3.6019  -1.3981 LP             1 S1                 0.0000
     36 ****         3.6966  -2.5741   0.0466 LP             1 S1                 0.0000
     37 ****         3.4894  -1.8285  -2.4040 LP             1 S1                 0.0000
     38 ****         2.9625   0.5775  -2.5093 LP             1 S1                 0.0000
@<TRIPOS>BOND
    1    1    2 1     
    2    1   17 1     
    3    1   18 1     
    4    1   19 1     
    5    2   16 1     
    6    2    3 1     
    7    2   20 1     
    8    3    4 1     
    9    3   21 1     
   10    3   22 1     
   11    4    5 1     
   12    4   23 1     
   13    4   24 1     
   14    5    6 1     
   15    5   25 1     
   16    5   26 1     
   17    6    7 1     
   18    6   16 1     
   19    6   27 1     
   20    7    8 am    
   21    7   28 1     
   22    8    9 2     
   23    8   10 1     
   24   10   11 1     
   25   10   29 1     
   26   10   30 1     
   27   11   15 1     
   28   11   12 1     
   29   12   13 2     
   30   12   31 1     
   31   13   14 1     
   32   14   15 2     
   33   16   32 1     
   34   16   33 1     
   35    9   34 1     
   36    9   35 1     
   37   13   36 1     
   38   14   37 1     
   39   15   38 1     
@<TRIPOS>SUBSTRUCTURE
      1 S1             1
@<TRIPOS>SET
LONE_PAIRS      STATIC     ATOMS    <user>   **** ""
5 34 35 36 37 38
DONOR_HYDROGENS      STATIC     ATOMS    <user>   **** ""
1 28
ATOM$BLUE        STATIC     ATOMS    COLORGROUP SYSTEM
5 34 35 36 37 38
ATOM$RED        STATIC     ATOMS    COLORGROUP SYSTEM
1 28
