AV-unprocessed.smi:1059|AV-procd|sdf|4655|dock10
  -GOLD-   22720 3163D 1   1.00000     0.00000
 Structure written by MMmdl.
 54 55  0  0  0  0  0  0  0  0  1 V2000
  151.1761  143.8822  159.4395 C   0  0  0  0  0  0  0  0  0  0  0  0
  151.1566  142.3461  159.4800 C   0  0  0  0  0  0  0  0  0  0  0  0
  152.4297  141.8202  160.1698 C   0  0  0  0  0  0  0  0  0  0  0  0
  150.9650  141.7674  158.0563 C   0  0  0  0  0  0  0  0  0  0  0  0
  149.5326  141.8432  157.4906 C   0  0  0  0  0  0  0  0  0  0  0  0
  148.6074  142.1592  158.2404 O   0  0  0  0  0  0  0  0  0  0  0  0
  149.3297  141.5662  156.1787 N   0  0  0  0  0  0  0  0  0  0  0  0
  150.4183  141.1761  155.2741 C   0  0  0  0  0  0  0  0  0  0  0  0
  150.2742  139.6824  154.9324 C   0  0  0  0  0  0  0  0  0  0  0  0
  148.8871  139.3737  154.3299 C   0  0  0  0  0  0  0  0  0  0  0  0
  148.7270  137.9292  154.1910 N   0  0  0  0  0  0  0  0  0  0  0  0
  148.4366  137.0804  155.1875 C   0  0  0  0  0  0  0  0  0  0  0  0
  148.2841  137.4316  156.3574 O   0  0  0  0  0  0  0  0  0  0  0  0
  148.3152  135.8217  154.7323 N   0  0  0  0  0  0  0  0  0  0  0  0
  148.0360  134.6418  155.4726 C   0  0  0  0  0  0  0  0  0  0  0  0
  147.8341  133.4425  154.7603 C   0  0  0  0  0  0  0  0  0  0  0  0
  147.5753  132.2560  155.4721 C   0  0  0  0  0  0  0  0  0  0  0  0
  147.5400  132.3052  156.8807 C   0  0  0  0  0  0  0  0  0  0  0  0
  147.2827  131.1295  157.5995 N   0  0  0  0  0  0  0  0  0  0  0  0
  148.2219  130.0589  157.3003 C   0  0  0  0  0  0  0  0  0  0  0  0
  147.0226  131.3755  159.0099 C   0  0  0  0  0  0  0  0  0  0  0  0
  147.7480  133.4485  157.5757 N   0  0  0  0  0  0  0  0  0  0  0  0
  147.9915  134.5843  156.8869 C   0  0  0  0  0  0  0  0  0  0  0  0
  147.7538  139.9738  155.1942 C   0  0  0  0  0  0  0  0  0  0  0  0
  148.0217  141.4543  155.5192 C   0  0  0  0  0  0  0  0  0  0  0  0
  152.0092  144.2526  158.8409 H   0  0  0  0  0  0  0  0  0  0  0  0
  151.2742  144.3009  160.4417 H   0  0  0  0  0  0  0  0  0  0  0  0
  150.2555  144.2779  159.0095 H   0  0  0  0  0  0  0  0  0  0  0  0
  150.3001  142.0584  160.0916 H   0  0  0  0  0  0  0  0  0  0  0  0
  153.3228  142.0816  159.6018 H   0  0  0  0  0  0  0  0  0  0  0  0
  152.4163  140.7368  160.2847 H   0  0  0  0  0  0  0  0  0  0  0  0
  152.5376  142.2468  161.1674 H   0  0  0  0  0  0  0  0  0  0  0  0
  151.6122  142.3052  157.3622 H   0  0  0  0  0  0  0  0  0  0  0  0
  151.2960  140.7282  158.0598 H   0  0  0  0  0  0  0  0  0  0  0  0
  150.3652  141.7765  154.3645 H   0  0  0  0  0  0  0  0  0  0  0  0
  151.4070  141.3663  155.6938 H   0  0  0  0  0  0  0  0  0  0  0  0
  151.0596  139.3826  154.2377 H   0  0  0  0  0  0  0  0  0  0  0  0
  150.4233  139.0950  155.8401 H   0  0  0  0  0  0  0  0  0  0  0  0
  148.8462  139.8324  153.3399 H   0  0  0  0  0  0  0  0  0  0  0  0
  148.8337  137.5500  153.2615 H   0  0  0  0  0  0  0  0  0  0  0  0
  148.3738  135.7022  153.7318 H   0  0  0  0  0  0  0  0  0  0  0  0
  147.8707  133.4292  153.6808 H   0  0  0  0  0  0  0  0  0  0  0  0
  147.4092  131.3272  154.9460 H   0  0  0  0  0  0  0  0  0  0  0  0
  148.3339  129.9311  156.2230 H   0  0  0  0  0  0  0  0  0  0  0  0
  147.8633  129.1167  157.7152 H   0  0  0  0  0  0  0  0  0  0  0  0
  149.2033  130.2687  157.7276 H   0  0  0  0  0  0  0  0  0  0  0  0
  146.2978  132.1804  159.1374 H   0  0  0  0  0  0  0  0  0  0  0  0
  147.9391  131.6501  159.5332 H   0  0  0  0  0  0  0  0  0  0  0  0
  146.6165  130.4796  159.4799 H   0  0  0  0  0  0  0  0  0  0  0  0
  148.1750  135.4536  157.4990 H   0  0  0  0  0  0  0  0  0  0  0  0
  146.7959  139.8768  154.6817 H   0  0  0  0  0  0  0  0  0  0  0  0
  147.6630  139.4145  156.1268 H   0  0  0  0  0  0  0  0  0  0  0  0
  147.1950  141.8531  156.1038 H   0  0  0  0  0  0  0  0  0  0  0  0
  148.0338  142.0406  154.5992 H   0  0  0  0  0  0  0  0  0  0  0  0
  1  2  1  0  0  0  0
  1 26  1  0  0  0  0
  1 27  1  0  0  0  0
  1 28  1  0  0  0  0
  2  3  1  0  0  0  0
  2  4  1  0  0  0  0
  2 29  1  0  0  0  0
  3 30  1  0  0  0  0
  3 31  1  0  0  0  0
  3 32  1  0  0  0  0
  4  5  1  0  0  0  0
  4 33  1  0  0  0  0
  4 34  1  0  0  0  0
  5  6  2  0  0  0  0
  5  7  1  0  0  0  0
  7 25  1  0  0  0  0
  7  8  1  0  0  0  0
  8  9  1  0  0  0  0
  8 35  1  0  0  0  0
  8 36  1  0  0  0  0
  9 10  1  0  0  0  0
  9 37  1  0  0  0  0
  9 38  1  0  0  0  0
 10 11  1  0  0  0  0
 10 24  1  0  0  0  0
 10 39  1  0  0  0  0
 11 12  1  0  0  0  0
 11 40  1  0  0  0  0
 12 13  2  0  0  0  0
 12 14  1  0  0  0  0
 14 15  1  0  0  0  0
 14 41  1  0  0  0  0
 15 23  1  0  0  0  0
 15 16  2  0  0  0  0
 16 17  1  0  0  0  0
 16 42  1  0  0  0  0
 17 18  2  0  0  0  0
 17 43  1  0  0  0  0
 18 19  1  0  0  0  0
 18 22  1  0  0  0  0
 19 20  1  0  0  0  0
 19 21  1  0  0  0  0
 20 44  1  0  0  0  0
 20 45  1  0  0  0  0
 20 46  1  0  0  0  0
 21 47  1  0  0  0  0
 21 48  1  0  0  0  0
 21 49  1  0  0  0  0
 22 23  2  0  0  0  0
 23 50  1  0  0  0  0
 24 25  1  0  0  0  0
 24 51  1  0  0  0  0
 24 52  1  0  0  0  0
 25 53  1  0  0  0  0
 25 54  1  0  0  0  0
M  END
> <s_m_source_file>
AV-unprocessed.smi

> <i_m_source_file_index>
1059

> <i_lp_mmshare_version>
43012

> <i_f3d_flags>
0

> <s_epik_input>
W0NIM11bQ0hdKFtDSDNdKVtDSDJdQyg9TylOMVtDSDJdW0NIMl1bQ0hdKFtDSDJdW0NIMl0xKVtOSF1DKD1PKVtOSF1jMltjSF1bY0hdYyhOKFtDSDNdKVtDSDNdKW5bY0hdMg==

> <s_epik_cmdline>
J2VwaWtfcHl0aG9uJywgJy1waCcsICc3LjAnLCAnLXRuJywgJzgnLCAnLW1hJywgJzIwMCcsICctbWV0YWxfYmluZGluZycsICctaW1hZScsICc8aW5maWxlLm1hZT4nLCAnLW9tYWUnLCAnPG91dGZpbGUubWFlPic=

> <r_lp_tautomer_probability>
1

> <r_epik_Ionization_Penalty>
0.622059

> <r_epik_Ionization_Penalty_Charging>
0

> <r_epik_Ionization_Penalty_Neutral>
0.622059

> <r_epik_State_Penalty>
0.637048

> <r_epik_Charging_Adjusted_Penalty>
0.637048

> <i_epik_Tot_Q>
0

> <i_epik_Tot_abs_Q>
0

> <r_epik_Metal_State_Penalty>
0.306613

> <b_epik_Metal_Only>
0

> <s_lp_Force_Field>
OPLS_2005

> <r_lp_Energy>
31.4899

> <b_lp_Chiralities_Consistent>
1

> <s_lp_Variant>
AV-unprocessed.smi:1059-2

> <Gold.Version>
5.8.1

> <Gold.Id.Protein>
6NUR|6NUR_protein|mol2

> <Gold.PLP.Fitness>
44.0777

> <Gold.PLP.PLP>
-36.2269

> <Gold.PLP.part.hbond>
-4.0108

> <Gold.PLP.part.metal>
0.0000

> <Gold.PLP.part.buried>
-3.9043

> <Gold.PLP.part.nonpolar>
-29.2500

> <Gold.PLP.part.repulsive>
0.1097

> <Gold.PLP.ligand.clash>
0.0000

> <Gold.PLP.ligand.torsion>
0.6196

> <Gold.PLP.Chemscore.Hbond>
2.9516

> <Gold.PLP.Chemscore.CHOScore>
0.0000

> <Gold.PLP.Chemscore.Metal>
0.0000

> <Gold.Chemscore.Hbonds>
donor molecule, donor type, donor heavy atom, donor atom, acceptor molecule, acceptor atom, score
      L1  H    11    40       P1  7948  1.00
      L1  H    14    41       P1  7948  1.00

> <Gold.PLP.Chemscore.Internal.Correction>
0.2352

> <Gold.Rescore>
     Score         DG    S(hbond)    S(metal)    S(lipo)     H(rot)  DE(clash)    DE(int)     intcor
     17.49     -20.68       2.55        0.00      90.41       1.52       0.15       3.04       ----

> <Gold.Chemscore.Fitness>
17.4859

> <Gold.Chemscore.DG>
-20.6771

> <Gold.Chemscore.ZeroCoef>
-5.4800

> <Gold.Chemscore.Hbond>
2.5506

> <Gold.Chemscore.Metal>
0.0000

> <Gold.Chemscore.Lipo>
90.4126

> <Gold.Chemscore.Internal_Hbond>
0.0000

> <Gold.Chemscore.DEClash>
0.1522

> <Gold.Chemscore.DEInternal>
3.0390

> <Gold.Chemscore.Rot>
1.5235

> <Gold.Chemscore.Internal.Correction>
   9.000000E+99

> <Gold.Chemscore.Hbonds>
donor molecule, donor type, donor heavy atom, donor atom, acceptor molecule, acceptor atom, score
      L1  H    11    40       P1  7948  0.99
      L1  H    14    41       P1  7948  0.92

> <Gold.Chemscore.Hbond.Weighted>
-8.5189

> <Gold.Chemscore.Metal.Weighted>
-0.0000

> <Gold.Chemscore.Lipo.Weighted>
-10.5783

> <Gold.Chemscore.Internal_Hbond.Weighted>
0.0000

> <Gold.Chemscore.DEClash.Weighted>
0.1522

> <Gold.Chemscore.DEInternal.Weighted>
3.0390

> <Gold.Chemscore.Rot.Weighted>
3.9001

> <Gold.Chemscore.Internal.Correction.Weighted>
   9.000000E+99

> <Gold.Protein.RotatedTorsions>
[ 6907 6896 6895 6894 ] final   95.18 input  -60.11 | X-H torsion
[ 7974 7965 7964 7962 ] final  118.87 input  175.53 | X-H torsion
[ 8008 7997 7996 7995 ] final   65.61 input   59.86 | X-H torsion
[ 10167 10162 10161 10158 ] final   86.81 input  -65.29 | X-H torsion
[ 10718 10713 10712 10709 ] final   87.71 input   66.30 | X-H torsion
[ 10763 10752 10751 10750 ] final  -57.79 input  -60.55 | X-H torsion
[ 11005 11000 10999 10996 ] final -136.30 input  -57.11 | X-H torsion

> <Gold.Protein.ActiveResidues>
 VAL166  LYS551  ARG553  GLY616  TRP617  ASP618  TYR619  PRO620  LYS621  CYS622 
 ASP623  PHE694  ASN695  SER759  ASP760  ASP761  ALA762  ILE779  LEU786  VAL792 
 PHE793  MET794  SER795  GLU796  ALA797  LYS798  CYS799  TRP800  GLU811  SER814 

> <Gold.Protein.RotatedAtoms>
  152.5445  134.1080  159.8345 H   0  0  0  0  0  0  0  0  0  0  0  0  # atno 6907 bound_to 6896
  151.1150  133.5138  159.2611 H   0  0  0  0  0  0  0  0  0  0  0  0  # atno 6908 bound_to 6896
  151.1842  135.0384  159.8860 H   0  0  0  0  0  0  0  0  0  0  0  0  # atno 6909 bound_to 6896
  145.1500  139.3216  143.4571 H   0  0  0  0  0  0  0  0  0  0  0  0  # atno 7974 bound_to 7965
  155.6644  140.3497  155.4795 H   0  0  0  0  0  0  0  0  0  0  0  0  # atno 8008 bound_to 7997
  155.9741  140.1161  157.0809 H   0  0  0  0  0  0  0  0  0  0  0  0  # atno 8009 bound_to 7997
  154.4174  140.1151  156.5333 H   0  0  0  0  0  0  0  0  0  0  0  0  # atno 8010 bound_to 7997
  139.8837  144.6425  150.8814 H   0  0  0  0  0  0  0  0  0  0  0  0  # atno 10167 bound_to 10162
  157.6942  131.0266  150.3164 H   0  0  0  0  0  0  0  0  0  0  0  0  # atno 10718 bound_to 10713
  154.2280  135.6366  153.5166 H   0  0  0  0  0  0  0  0  0  0  0  0  # atno 10763 bound_to 10752
  152.9955  135.5512  154.6043 H   0  0  0  0  0  0  0  0  0  0  0  0  # atno 10764 bound_to 10752
  154.5519  135.2902  155.0974 H   0  0  0  0  0  0  0  0  0  0  0  0  # atno 10765 bound_to 10752
  140.8818  134.1922  157.4586 H   0  0  0  0  0  0  0  0  0  0  0  0  # atno 11005 bound_to 11000
  146.3495  140.1571  142.8591 LP  0  0  0  0  0  0  0  0  0  0  0  0  # atno 17320 bound_to 7965
  145.0441  140.8968  143.5035 LP  0  0  0  0  0  0  0  0  0  0  0  0  # atno 17321 bound_to 7965
  140.7740  143.3565  151.1912 LP  0  0  0  0  0  0  0  0  0  0  0  0  # atno 17342 bound_to 10162
  139.7172  143.9281  152.2971 LP  0  0  0  0  0  0  0  0  0  0  0  0  # atno 17343 bound_to 10162
  156.3658  130.3855  149.7215 LP  0  0  0  0  0  0  0  0  0  0  0  0  # atno 17370 bound_to 10713
  156.4646  130.7968  151.2987 LP  0  0  0  0  0  0  0  0  0  0  0  0  # atno 17371 bound_to 10713
  139.8720  134.9820  156.5141 LP  0  0  0  0  0  0  0  0  0  0  0  0  # atno 17394 bound_to 11000
  140.8452  133.8174  155.9114 LP  0  0  0  0  0  0  0  0  0  0  0  0  # atno 17395 bound_to 11000

$$$$
