AV-unprocessed.smi:942|AV-procd|sdf|4227|dock5
  -GOLD-   22720 2133D 1   1.00000     0.00000
 Structure written by MMmdl.
 42 44  0  0  0  0  0  0  0  0  1 V2000
  148.9877  141.4207  157.3362 O   0  0  0  0  0  0  0  0  0  0  0  0
  150.0533  141.7327  156.8040 C   0  0  0  0  0  0  0  0  0  0  0  0
  150.2938  141.5801  155.4937 N   0  0  0  0  0  0  0  0  0  0  0  0
  149.3304  141.0963  154.5044 C   0  0  2  0  0  0  0  0  0  0  0  0
  147.9364  141.7118  154.7532 C   0  0  0  0  0  0  0  0  0  0  0  0
  147.0055  140.5556  155.1453 C   0  0  0  0  0  0  0  0  0  0  0  0
  147.9317  139.4110  155.5518 C   0  0  0  0  0  0  0  0  0  0  0  0
  149.1255  139.5687  154.6050 C   0  0  2  0  0  0  0  0  0  0  0  0
  150.3207  138.8127  154.9700 N   0  0  0  0  0  0  0  0  0  0  0  0
  150.9586  138.7380  156.2050 C   0  0  0  0  0  0  0  0  0  0  0  0
  152.0327  137.8922  156.0457 C   0  0  0  0  0  0  0  0  0  0  0  0
  152.0692  137.4220  154.7362 N   0  0  0  0  0  0  0  0  0  0  0  0
  151.0222  138.0013  154.1645 C   0  0  0  0  0  0  0  0  0  0  0  0
  151.1888  142.3427  157.6357 C   0  0  0  0  0  0  0  0  0  0  0  0
  151.6453  141.3795  158.7520 C   0  0  0  0  0  0  0  0  0  0  0  0
  152.7740  141.9972  159.5941 C   0  0  0  0  0  0  0  0  0  0  0  0
  152.3534  143.3536  160.1818 C   0  0  0  0  0  0  0  0  0  0  0  0
  151.8877  144.3175  159.0791 C   0  0  0  0  0  0  0  0  0  0  0  0
  150.7599  143.6974  158.2383 C   0  0  0  0  0  0  0  0  0  0  0  0
  151.1990  141.8605  155.1448 H   0  0  0  0  0  0  0  0  0  0  0  0
  149.6870  141.3443  153.5028 H   0  0  0  0  0  0  0  0  0  0  0  0
  147.9663  142.4567  155.5500 H   0  0  0  0  0  0  0  0  0  0  0  0
  147.5641  142.2188  153.8624 H   0  0  0  0  0  0  0  0  0  0  0  0
  146.3106  140.8306  155.9394 H   0  0  0  0  0  0  0  0  0  0  0  0
  146.4139  140.2546  154.2798 H   0  0  0  0  0  0  0  0  0  0  0  0
  148.2397  139.5518  156.5887 H   0  0  0  0  0  0  0  0  0  0  0  0
  147.4518  138.4353  155.4695 H   0  0  0  0  0  0  0  0  0  0  0  0
  148.8132  139.2075  153.6234 H   0  0  0  0  0  0  0  0  0  0  0  0
  150.6155  139.2766  157.0756 H   0  0  0  0  0  0  0  0  0  0  0  0
  152.7730  137.5837  156.7692 H   0  0  0  0  0  0  0  0  0  0  0  0
  150.7631  137.8393  153.1284 H   0  0  0  0  0  0  0  0  0  0  0  0
  152.0395  142.5209  156.9750 H   0  0  0  0  0  0  0  0  0  0  0  0
  150.8058  141.1329  159.4040 H   0  0  0  0  0  0  0  0  0  0  0  0
  151.9871  140.4382  158.3197 H   0  0  0  0  0  0  0  0  0  0  0  0
  153.0550  141.3152  160.3971 H   0  0  0  0  0  0  0  0  0  0  0  0
  153.6621  142.1277  158.9745 H   0  0  0  0  0  0  0  0  0  0  0  0
  151.5469  143.2058  160.9012 H   0  0  0  0  0  0  0  0  0  0  0  0
  153.1842  143.7936  160.7341 H   0  0  0  0  0  0  0  0  0  0  0  0
  151.5482  145.2536  159.5234 H   0  0  0  0  0  0  0  0  0  0  0  0
  152.7293  144.5699  158.4330 H   0  0  0  0  0  0  0  0  0  0  0  0
  150.4756  144.3890  157.4438 H   0  0  0  0  0  0  0  0  0  0  0  0
  149.8759  143.5674  158.8648 H   0  0  0  0  0  0  0  0  0  0  0  0
  1  2  2  0  0  0  0
  2  3  1  0  0  0  0
  2 14  1  0  0  0  0
  3  4  1  0  0  0  0
  3 20  1  0  0  0  0
  4  8  1  0  0  0  0
  4  5  1  0  0  0  0
  4 21  1  0  0  0  0
  5  6  1  0  0  0  0
  5 22  1  0  0  0  0
  5 23  1  0  0  0  0
  6  7  1  0  0  0  0
  6 24  1  0  0  0  0
  6 25  1  0  0  0  0
  7  8  1  0  0  0  0
  7 26  1  0  0  0  0
  7 27  1  0  0  0  0
  8  9  1  0  0  0  0
  8 28  1  0  0  0  0
  9 13  1  0  0  0  0
  9 10  1  0  0  0  0
 10 11  2  0  0  0  0
 10 29  1  0  0  0  0
 11 12  1  0  0  0  0
 11 30  1  0  0  0  0
 12 13  2  0  0  0  0
 13 31  1  0  0  0  0
 14 19  1  0  0  0  0
 14 15  1  0  0  0  0
 14 32  1  0  0  0  0
 15 16  1  0  0  0  0
 15 33  1  0  0  0  0
 15 34  1  0  0  0  0
 16 17  1  0  0  0  0
 16 35  1  0  0  0  0
 16 36  1  0  0  0  0
 17 18  1  0  0  0  0
 17 37  1  0  0  0  0
 17 38  1  0  0  0  0
 18 19  1  0  0  0  0
 18 39  1  0  0  0  0
 18 40  1  0  0  0  0
 19 41  1  0  0  0  0
 19 42  1  0  0  0  0
M  END
> <s_m_source_file>
AV-unprocessed.smi

> <i_m_source_file_index>
942

> <i_lp_mmshare_version>
43012

> <i_f3d_flags>
0

> <s_epik_input>
W0NIMl0xW0NIMl1bQ0gyXVtDSDJdW0NIMl1bQ0hdMUMoPU8pW05IXVtDQEBIXTJbQ0gyXVtDSDJdW0NIMl1bQ0BIXTJuM1tjSF1bY0hdbltjSF0z

> <s_epik_cmdline>
J2VwaWtfcHl0aG9uJywgJy1waCcsICc3LjAnLCAnLXRuJywgJzgnLCAnLW1hJywgJzIwMCcsICctbWV0YWxfYmluZGluZycsICctaW1hZScsICc8aW5maWxlLm1hZT4nLCAnLW9tYWUnLCAnPG91dGZpbGUubWFlPic=

> <r_lp_tautomer_probability>
1

> <r_epik_Ionization_Penalty>
0.778458

> <r_epik_Ionization_Penalty_Charging>
0.778458

> <r_epik_Ionization_Penalty_Neutral>
2.79355e-08

> <r_epik_State_Penalty>
0.807804

> <r_epik_Charging_Adjusted_Penalty>
1.58626

> <i_epik_Tot_Q>
0

> <i_epik_Tot_abs_Q>
0

> <r_epik_Metal_State_Penalty>
0.343007

> <b_epik_Metal_Only>
0

> <s_lp_Force_Field>
OPLS_2005

> <r_lp_Energy>
33.2669

> <b_lp_Chiralities_Consistent>
1

> <s_lp_Variant>
AV-unprocessed.smi:942-7

> <Gold.Version>
5.8.1

> <Gold.Id.Protein>
6NUR|6NUR_protein|mol2

> <Gold.PLP.Fitness>
41.2337

> <Gold.PLP.PLP>
-36.5983

> <Gold.PLP.part.hbond>
-1.0000

> <Gold.PLP.part.metal>
0.0000

> <Gold.PLP.part.buried>
-4.6394

> <Gold.PLP.part.nonpolar>
-32.8907

> <Gold.PLP.part.repulsive>
0.3474

> <Gold.PLP.ligand.clash>
0.0000

> <Gold.PLP.ligand.torsion>
0.4591

> <Gold.PLP.Chemscore.Hbond>
0.8000

> <Gold.PLP.Chemscore.CHOScore>
1.0438

> <Gold.PLP.Chemscore.Metal>
0.0000

> <Gold.Chemscore.Hbonds>
donor molecule, donor type, donor heavy atom, donor atom, acceptor molecule, acceptor atom, score
      P1  H 10752 10765       L1    12  0.80
      L1  C    13    31       P1  7948  0.26
      L1  C    13    31       P1  7949  0.80

> <Gold.PLP.Chemscore.Internal.Correction>
0.0221

> <Gold.Rescore>
     Score         DG    S(hbond)    S(metal)    S(lipo)     H(rot)  DE(clash)    DE(int)     intcor
     10.74     -15.63       0.83        0.00      94.63       1.44       0.07       4.81       ----

> <Gold.Chemscore.Fitness>
10.7428

> <Gold.Chemscore.DG>
-15.6255

> <Gold.Chemscore.ZeroCoef>
-5.4800

> <Gold.Chemscore.Hbond>
0.8262

> <Gold.Chemscore.Metal>
0.0000

> <Gold.Chemscore.Lipo>
94.6258

> <Gold.Chemscore.Internal_Hbond>
0.0000

> <Gold.Chemscore.DEClash>
0.0747

> <Gold.Chemscore.DEInternal>
4.8080

> <Gold.Chemscore.Rot>
1.4395

> <Gold.Chemscore.Internal.Correction>
   9.000000E+99

> <Gold.Chemscore.Hbonds>
donor molecule, donor type, donor heavy atom, donor atom, acceptor molecule, acceptor atom, score
      P1  H 10752 10765       L1    12  0.74

> <Gold.Chemscore.Hbond.Weighted>
-2.7595

> <Gold.Chemscore.Metal.Weighted>
-0.0000

> <Gold.Chemscore.Lipo.Weighted>
-11.0712

> <Gold.Chemscore.Internal_Hbond.Weighted>
0.0000

> <Gold.Chemscore.DEClash.Weighted>
0.0747

> <Gold.Chemscore.DEInternal.Weighted>
4.8080

> <Gold.Chemscore.Rot.Weighted>
3.6852

> <Gold.Chemscore.Internal.Correction.Weighted>
   9.000000E+99

> <Gold.Protein.RotatedTorsions>
[ 6907 6896 6895 6894 ] final  159.64 input  -60.11 | X-H torsion
[ 7974 7965 7964 7962 ] final -129.32 input  175.53 | X-H torsion
[ 8008 7997 7996 7995 ] final  165.55 input   59.86 | X-H torsion
[ 10167 10162 10161 10158 ] final   42.07 input  -65.29 | X-H torsion
[ 10718 10713 10712 10709 ] final  -72.93 input   66.30 | X-H torsion
[ 10763 10752 10751 10750 ] final  157.74 input  -60.55 | X-H torsion
[ 11005 11000 10999 10996 ] final -130.88 input  -57.11 | X-H torsion

> <Gold.Protein.ActiveResidues>
 VAL166  LYS551  ARG553  GLY616  TRP617  ASP618  TYR619  PRO620  LYS621  CYS622 
 ASP623  PHE694  ASN695  SER759  ASP760  ASP761  ALA762  ILE779  LEU786  VAL792 
 PHE793  MET794  SER795  GLU796  ALA797  LYS798  CYS799  TRP800  GLU811  SER814 

> <Gold.Protein.RotatedAtoms>
  151.9826  133.3763  159.4112 H   0  0  0  0  0  0  0  0  0  0  0  0  # atno 6907 bound_to 6896
  150.6932  134.4023  159.5133 H   0  0  0  0  0  0  0  0  0  0  0  0  # atno 6908 bound_to 6896
  152.1744  134.8807  160.0582 H   0  0  0  0  0  0  0  0  0  0  0  0  # atno 6909 bound_to 6896
  144.9584  140.7420  143.4744 H   0  0  0  0  0  0  0  0  0  0  0  0  # atno 7974 bound_to 7965
  156.1791  140.1667  156.8307 H   0  0  0  0  0  0  0  0  0  0  0  0  # atno 8008 bound_to 7997
  154.5340  140.0750  156.8429 H   0  0  0  0  0  0  0  0  0  0  0  0  # atno 8009 bound_to 7997
  155.3348  140.3381  155.4241 H   0  0  0  0  0  0  0  0  0  0  0  0  # atno 8010 bound_to 7997
  140.3581  144.2264  150.6140 H   0  0  0  0  0  0  0  0  0  0  0  0  # atno 10167 bound_to 10162
  156.0300  130.4383  150.2666 H   0  0  0  0  0  0  0  0  0  0  0  0  # atno 10718 bound_to 10713
  154.2051  135.2788  155.2977 H   0  0  0  0  0  0  0  0  0  0  0  0  # atno 10763 bound_to 10752
  154.5823  135.5585  153.7201 H   0  0  0  0  0  0  0  0  0  0  0  0  # atno 10764 bound_to 10752
  153.0078  135.6348  154.2189 H   0  0  0  0  0  0  0  0  0  0  0  0  # atno 10765 bound_to 10752
  140.9307  134.1323  157.4236 H   0  0  0  0  0  0  0  0  0  0  0  0  # atno 11005 bound_to 11000
  145.2737  139.1944  143.4827 LP  0  0  0  0  0  0  0  0  0  0  0  0  # atno 17320 bound_to 7965
  146.3345  140.2688  142.8605 LP  0  0  0  0  0  0  0  0  0  0  0  0  # atno 17321 bound_to 7965
  140.5154  143.2279  151.8471 LP  0  0  0  0  0  0  0  0  0  0  0  0  # atno 17342 bound_to 10162
  139.4817  144.4900  151.9197 LP  0  0  0  0  0  0  0  0  0  0  0  0  # atno 17343 bound_to 10162
  157.0768  131.0132  151.3170 LP  0  0  0  0  0  0  0  0  0  0  0  0  # atno 17370 bound_to 10713
  157.4957  130.7849  149.7553 LP  0  0  0  0  0  0  0  0  0  0  0  0  # atno 17371 bound_to 10713
  139.8796  135.0004  156.6009 LP  0  0  0  0  0  0  0  0  0  0  0  0  # atno 17394 bound_to 11000
  140.7866  133.8617  155.8611 LP  0  0  0  0  0  0  0  0  0  0  0  0  # atno 17395 bound_to 11000

$$$$
