AV-unprocessed.smi:886|AV-procd|sdf|4050|dock4
  -GOLD-   22720 1533D 1   1.00000     0.00000
 Structure written by MMmdl.
 35 37  0  0  0  0  0  0  0  0  1 V2000
  146.6054  142.8084  155.4147 C   0  0  0  0  0  0  0  0  0  0  0  0
  147.8126  142.0325  155.6534 N   0  0  0  0  0  0  0  0  0  0  0  0
  148.6570  141.6360  154.6889 C   0  0  0  0  0  0  0  0  0  0  0  0
  148.4808  141.8802  153.4948 O   0  0  0  0  0  0  0  0  0  0  0  0
  149.8392  140.8288  155.1613 C   0  0  0  0  0  0  0  0  0  0  0  0
  150.1002  139.5679  154.5750 C   0  0  0  0  0  0  0  0  0  0  0  0
  151.1829  138.7975  155.0348 C   0  0  0  0  0  0  0  0  0  0  0  0
  151.9706  139.3145  156.0774 C   0  0  0  0  0  0  0  0  0  0  0  0
  151.7369  140.5110  156.6526 N   0  0  0  0  0  0  0  0  0  0  0  0
  150.6950  141.2608  156.2160 C   0  0  0  0  0  0  0  0  0  0  0  0
  150.5061  142.5114  156.8319 N   0  0  0  0  0  0  0  0  0  0  0  0
  150.6968  142.6767  158.2690 C   0  0  2  0  0  0  0  0  0  0  0  0
  150.3637  144.0922  158.7586 C   0  0  0  0  0  0  0  0  0  0  0  0
  151.6766  144.5140  159.4299 C   0  0  1  0  0  0  0  0  0  0  0  0
  151.9471  143.7308  160.7217 C   0  0  0  0  0  0  0  0  0  0  0  0
  152.3315  142.3552  160.1778 C   0  0  0  0  0  0  0  0  0  0  0  0
  152.1786  142.5593  158.6642 C   0  0  2  0  0  0  0  0  0  0  0  0
  152.6097  143.9066  158.5544 O   0  0  0  0  0  0  0  0  0  0  0  0
  146.0878  142.9899  156.3564 H   0  0  0  0  0  0  0  0  0  0  0  0
  145.9256  142.2742  154.7496 H   0  0  0  0  0  0  0  0  0  0  0  0
  146.8465  143.7729  154.9658 H   0  0  0  0  0  0  0  0  0  0  0  0
  148.0185  141.7785  156.6089 H   0  0  0  0  0  0  0  0  0  0  0  0
  149.4750  139.1824  153.7827 H   0  0  0  0  0  0  0  0  0  0  0  0
  151.4006  137.8323  154.6023 H   0  0  0  0  0  0  0  0  0  0  0  0
  152.8095  138.7530  156.4606 H   0  0  0  0  0  0  0  0  0  0  0  0
  149.8890  143.1674  156.3739 H   0  0  0  0  0  0  0  0  0  0  0  0
  150.1156  141.9215  158.8000 H   0  0  0  0  0  0  0  0  0  0  0  0
  150.1354  144.7629  157.9288 H   0  0  0  0  0  0  0  0  0  0  0  0
  149.5189  144.1087  159.4476 H   0  0  0  0  0  0  0  0  0  0  0  0
  151.7940  145.5930  159.5324 H   0  0  0  0  0  0  0  0  0  0  0  0
  152.7784  144.1687  161.2754 H   0  0  0  0  0  0  0  0  0  0  0  0
  151.0760  143.7002  161.3768 H   0  0  0  0  0  0  0  0  0  0  0  0
  153.3653  142.1196  160.4329 H   0  0  0  0  0  0  0  0  0  0  0  0
  151.6955  141.5551  160.5580 H   0  0  0  0  0  0  0  0  0  0  0  0
  152.7513  141.8470  158.0690 H   0  0  0  0  0  0  0  0  0  0  0  0
  1  2  1  0  0  0  0
  1 19  1  0  0  0  0
  1 20  1  0  0  0  0
  1 21  1  0  0  0  0
  2  3  1  0  0  0  0
  2 22  1  0  0  0  0
  3  4  2  0  0  0  0
  3  5  1  0  0  0  0
  5 10  1  0  0  0  0
  5  6  2  0  0  0  0
  6  7  1  0  0  0  0
  6 23  1  0  0  0  0
  7  8  2  0  0  0  0
  7 24  1  0  0  0  0
  8  9  1  0  0  0  0
  8 25  1  0  0  0  0
  9 10  2  0  0  0  0
 10 11  1  0  0  0  0
 11 12  1  0  0  0  0
 11 26  1  0  0  0  0
 12 17  1  0  0  0  0
 12 13  1  0  0  0  0
 12 27  1  0  0  0  0
 13 14  1  0  0  0  0
 13 28  1  0  0  0  0
 13 29  1  0  0  0  0
 14 18  1  0  0  0  0
 14 15  1  0  0  0  0
 14 30  1  0  0  0  0
 15 16  1  0  0  0  0
 15 31  1  0  0  0  0
 15 32  1  0  0  0  0
 16 17  1  0  0  0  0
 16 33  1  0  0  0  0
 16 34  1  0  0  0  0
 17 18  1  0  0  0  0
 17 35  1  0  0  0  0
M  END
> <s_m_source_file>
AV-unprocessed.smi

> <i_m_source_file_index>
886

> <i_lp_mmshare_version>
43012

> <i_f3d_flags>
0

> <s_epik_input>
W0NIM11bTkhdQyg9TyljMVtjSF1bY0hdW2NIXW5jMVtOSF1bQ0BIXShbQ0gyXVtDQEhdMjMpW0NASF0oTzMpW0NIMl1bQ0gyXTI=

> <s_epik_cmdline>
J2VwaWtfcHl0aG9uJywgJy1waCcsICc3LjAnLCAnLXRuJywgJzgnLCAnLW1hJywgJzIwMCcsICctbWV0YWxfYmluZGluZycsICctaW1hZScsICc8aW5maWxlLm1hZT4nLCAnLW9tYWUnLCAnPG91dGZpbGUubWFlPic=

> <r_lp_tautomer_probability>
1

> <r_epik_Ionization_Penalty>
0.0065447

> <r_epik_Ionization_Penalty_Charging>
0

> <r_epik_Ionization_Penalty_Neutral>
0.0065447

> <r_epik_State_Penalty>
0.00484214

> <r_epik_Charging_Adjusted_Penalty>
0.00484214

> <i_epik_Tot_Q>
0

> <i_epik_Tot_abs_Q>
0

> <r_epik_Metal_State_Penalty>
-0

> <b_epik_Metal_Only>
0

> <s_lp_Force_Field>
OPLS_2005

> <r_lp_Energy>
46.3803

> <b_lp_Chiralities_Consistent>
1

> <s_lp_Variant>
AV-unprocessed.smi:886-3

> <Gold.Version>
5.8.1

> <Gold.Id.Protein>
6NUR|6NUR_protein|mol2

> <Gold.PLP.Fitness>
41.4141

> <Gold.PLP.PLP>
-39.3893

> <Gold.PLP.part.hbond>
-3.0000

> <Gold.PLP.part.metal>
0.0000

> <Gold.PLP.part.buried>
-1.3763

> <Gold.PLP.part.nonpolar>
-34.4579

> <Gold.PLP.part.repulsive>
0.2783

> <Gold.PLP.ligand.clash>
0.0000

> <Gold.PLP.ligand.torsion>
1.2718

> <Gold.PLP.Chemscore.Hbond>
1.5127

> <Gold.PLP.Chemscore.CHOScore>
0.0000

> <Gold.PLP.Chemscore.Metal>
0.0000

> <Gold.Chemscore.Hbonds>
donor molecule, donor type, donor heavy atom, donor atom, acceptor molecule, acceptor atom, score
      L1  H    11    26       P1  8028  1.00
      P1  H  8011  8017       L1     4  0.53

> <Gold.PLP.Chemscore.Internal.Correction>
0.0302

> <Gold.Rescore>
     Score         DG    S(hbond)    S(metal)    S(lipo)     H(rot)  DE(clash)    DE(int)     intcor
     15.33     -19.73       1.63        0.00      96.98       1.00       0.72       3.68       ----

> <Gold.Chemscore.Fitness>
15.3338

> <Gold.Chemscore.DG>
-19.7271

> <Gold.Chemscore.ZeroCoef>
-5.4800

> <Gold.Chemscore.Hbond>
1.6348

> <Gold.Chemscore.Metal>
0.0000

> <Gold.Chemscore.Lipo>
96.9822

> <Gold.Chemscore.Internal_Hbond>
0.0000

> <Gold.Chemscore.DEClash>
0.7151

> <Gold.Chemscore.DEInternal>
3.6782

> <Gold.Chemscore.Rot>
1.0000

> <Gold.Chemscore.Internal.Correction>
   9.000000E+99

> <Gold.Chemscore.Hbonds>
donor molecule, donor type, donor heavy atom, donor atom, acceptor molecule, acceptor atom, score
      L1  H    11    26       P1  8028  0.98
      P1  H  8011  8017       L1     4  0.52

> <Gold.Chemscore.Hbond.Weighted>
-5.4602

> <Gold.Chemscore.Metal.Weighted>
-0.0000

> <Gold.Chemscore.Lipo.Weighted>
-11.3469

> <Gold.Chemscore.Internal_Hbond.Weighted>
0.0000

> <Gold.Chemscore.DEClash.Weighted>
0.7151

> <Gold.Chemscore.DEInternal.Weighted>
3.6782

> <Gold.Chemscore.Rot.Weighted>
2.5600

> <Gold.Chemscore.Internal.Correction.Weighted>
   9.000000E+99

> <Gold.Protein.RotatedTorsions>
[ 6907 6896 6895 6894 ] final  176.12 input  -60.11 | X-H torsion
[ 7974 7965 7964 7962 ] final  -14.21 input  175.53 | X-H torsion
[ 8008 7997 7996 7995 ] final  -87.79 input   59.86 | X-H torsion
[ 10167 10162 10161 10158 ] final  -70.99 input  -65.29 | X-H torsion
[ 10718 10713 10712 10709 ] final  173.46 input   66.30 | X-H torsion
[ 10763 10752 10751 10750 ] final  137.55 input  -60.55 | X-H torsion
[ 11005 11000 10999 10996 ] final   27.06 input  -57.11 | X-H torsion

> <Gold.Protein.ActiveResidues>
 VAL166  LYS551  ARG553  GLY616  TRP617  ASP618  TYR619  PRO620  LYS621  CYS622 
 ASP623  PHE694  ASN695  SER759  ASP760  ASP761  ALA762  ILE779  LEU786  VAL792 
 PHE793  MET794  SER795  GLU796  ALA797  LYS798  CYS799  TRP800  GLU811  SER814 

> <Gold.Protein.RotatedAtoms>
  151.7253  133.3316  159.3325 H   0  0  0  0  0  0  0  0  0  0  0  0  # atno 6907 bound_to 6896
  150.7635  134.6412  159.6247 H   0  0  0  0  0  0  0  0  0  0  0  0  # atno 6908 bound_to 6896
  152.3626  134.6852  160.0254 H   0  0  0  0  0  0  0  0  0  0  0  0  # atno 6909 bound_to 6896
  146.2083  140.3316  142.8399 H   0  0  0  0  0  0  0  0  0  0  0  0  # atno 7974 bound_to 7965
  154.6673  140.0561  157.0128 H   0  0  0  0  0  0  0  0  0  0  0  0  # atno 8008 bound_to 7997
  155.1140  140.3241  155.4495 H   0  0  0  0  0  0  0  0  0  0  0  0  # atno 8009 bound_to 7997
  156.2643  140.2009  156.6264 H   0  0  0  0  0  0  0  0  0  0  0  0  # atno 8010 bound_to 7997
  140.5308  143.2322  151.7265 H   0  0  0  0  0  0  0  0  0  0  0  0  # atno 10167 bound_to 10162
  156.9640  131.0069  151.2921 H   0  0  0  0  0  0  0  0  0  0  0  0  # atno 10718 bound_to 10713
  153.8750  135.3051  155.3443 H   0  0  0  0  0  0  0  0  0  0  0  0  # atno 10763 bound_to 10752
  154.7788  135.4847  153.9804 H   0  0  0  0  0  0  0  0  0  0  0  0  # atno 10764 bound_to 10752
  153.1384  135.6819  153.9162 H   0  0  0  0  0  0  0  0  0  0  0  0  # atno 10765 bound_to 10752
  140.3303  134.2445  155.7703 H   0  0  0  0  0  0  0  0  0  0  0  0  # atno 11005 bound_to 11000
  144.8848  140.7448  143.5963 LP  0  0  0  0  0  0  0  0  0  0  0  0  # atno 17320 bound_to 7965
  145.3237  139.1780  143.4574 LP  0  0  0  0  0  0  0  0  0  0  0  0  # atno 17321 bound_to 7965
  139.4954  144.4117  152.0074 LP  0  0  0  0  0  0  0  0  0  0  0  0  # atno 17342 bound_to 10162
  140.3219  144.3418  150.6007 LP  0  0  0  0  0  0  0  0  0  0  0  0  # atno 17343 bound_to 10162
  157.5638  130.8264  149.8301 LP  0  0  0  0  0  0  0  0  0  0  0  0  # atno 17370 bound_to 10713
  156.0310  130.3764  150.1687 LP  0  0  0  0  0  0  0  0  0  0  0  0  # atno 17371 bound_to 10713
  141.2065  133.7831  157.0173 LP  0  0  0  0  0  0  0  0  0  0  0  0  # atno 17394 bound_to 11000
  140.0866  134.9617  157.1710 LP  0  0  0  0  0  0  0  0  0  0  0  0  # atno 17395 bound_to 11000

$$$$
