AV-unprocessed.smi:2177|AV-procd|sdf|8850|dock8
  -GOLD-   2272012 43D 1   1.00000     0.00000
 Structure written by MMmdl.
 42 43  0  0  0  0  0  0  0  0  1 V2000
  153.6265  140.0410  159.7664 C   0  0  0  0  0  0  0  0  0  0  0  0
  153.2051  141.3134  160.4439 C   0  0  0  0  0  0  0  0  0  0  0  0
  153.4392  141.4711  161.7361 N   0  0  0  0  0  0  0  0  0  0  0  0
  152.9371  142.6869  162.0310 N   0  0  0  0  0  0  0  0  0  0  0  0
  153.0230  143.1779  163.3927 C   0  0  0  0  0  0  0  0  0  0  0  0
  152.3936  143.3029  160.9204 C   0  0  0  0  0  0  0  0  0  0  0  0
  151.7689  144.6596  160.9880 C   0  0  0  0  0  0  0  0  0  0  0  0
  152.5466  142.4390  159.8681 C   0  0  0  0  0  0  0  0  0  0  0  0
  152.1153  142.6077  158.4323 C   0  0  0  0  0  0  0  0  0  0  0  0
  151.2941  141.3926  158.0023 C   0  0  0  0  0  0  0  0  0  0  0  0
  150.2521  141.1098  158.5928 O   0  0  0  0  0  0  0  0  0  0  0  0
  151.7716  140.6958  156.9602 N   0  0  0  0  0  0  0  0  0  0  0  0
  151.1050  139.5779  156.3020 C   0  0  2  0  0  0  0  0  0  0  0  0
  152.0253  138.9861  155.2212 C   0  0  0  0  0  0  0  0  0  0  0  0
  149.7672  140.0775  155.7253 C   0  0  1  0  0  0  0  0  0  0  0  0
  149.8503  141.3922  154.9492 C   0  0  0  0  0  0  0  0  0  0  0  0
  148.6682  141.3203  153.9944 C   0  0  0  0  0  0  0  0  0  0  0  0
  148.2491  139.8479  154.0261 C   0  0  0  0  0  0  0  0  0  0  0  0
  149.2856  139.1832  154.7333 O   0  0  0  0  0  0  0  0  0  0  0  0
  152.7976  139.6045  159.2087 H   0  0  0  0  0  0  0  0  0  0  0  0
  153.9703  139.2946  160.4832 H   0  0  0  0  0  0  0  0  0  0  0  0
  154.4386  140.2255  159.0632 H   0  0  0  0  0  0  0  0  0  0  0  0
  153.8205  143.9177  163.4635 H   0  0  0  0  0  0  0  0  0  0  0  0
  153.2349  142.3599  164.0827 H   0  0  0  0  0  0  0  0  0  0  0  0
  152.0789  143.6410  163.6801 H   0  0  0  0  0  0  0  0  0  0  0  0
  151.5979  145.0666  159.9918 H   0  0  0  0  0  0  0  0  0  0  0  0
  152.4093  145.3587  161.5261 H   0  0  0  0  0  0  0  0  0  0  0  0
  150.8079  144.6152  161.5007 H   0  0  0  0  0  0  0  0  0  0  0  0
  151.5204  143.5110  158.2933 H   0  0  0  0  0  0  0  0  0  0  0  0
  152.9749  142.7095  157.7688 H   0  0  0  0  0  0  0  0  0  0  0  0
  152.6363  141.0106  156.5450 H   0  0  0  0  0  0  0  0  0  0  0  0
  150.8917  138.8048  157.0426 H   0  0  0  0  0  0  0  0  0  0  0  0
  151.5641  138.1262  154.7353 H   0  0  0  0  0  0  0  0  0  0  0  0
  152.9691  138.6471  155.6495 H   0  0  0  0  0  0  0  0  0  0  0  0
  152.2554  139.7213  154.4492 H   0  0  0  0  0  0  0  0  0  0  0  0
  149.0179  140.1594  156.5156 H   0  0  0  0  0  0  0  0  0  0  0  0
  149.8155  142.2674  155.5987 H   0  0  0  0  0  0  0  0  0  0  0  0
  150.7780  141.4351  154.3767 H   0  0  0  0  0  0  0  0  0  0  0  0
  147.8483  141.9595  154.3233 H   0  0  0  0  0  0  0  0  0  0  0  0
  148.9586  141.6357  152.9918 H   0  0  0  0  0  0  0  0  0  0  0  0
  147.3109  139.7274  154.5695 H   0  0  0  0  0  0  0  0  0  0  0  0
  148.1220  139.4261  153.0289 H   0  0  0  0  0  0  0  0  0  0  0  0
  1  2  1  0  0  0  0
  1 20  1  0  0  0  0
  1 21  1  0  0  0  0
  1 22  1  0  0  0  0
  2  8  1  0  0  0  0
  2  3  2  0  0  0  0
  3  4  1  0  0  0  0
  4  5  1  0  0  0  0
  4  6  1  0  0  0  0
  5 23  1  0  0  0  0
  5 24  1  0  0  0  0
  5 25  1  0  0  0  0
  6  7  1  0  0  0  0
  6  8  2  0  0  0  0
  7 26  1  0  0  0  0
  7 27  1  0  0  0  0
  7 28  1  0  0  0  0
  8  9  1  0  0  0  0
  9 10  1  0  0  0  0
  9 29  1  0  0  0  0
  9 30  1  0  0  0  0
 10 11  2  0  0  0  0
 10 12  1  0  0  0  0
 12 13  1  0  0  0  0
 12 31  1  0  0  0  0
 13 14  1  0  0  0  0
 13 15  1  0  0  0  0
 13 32  1  0  0  0  0
 14 33  1  0  0  0  0
 14 34  1  0  0  0  0
 14 35  1  0  0  0  0
 15 19  1  0  0  0  0
 15 16  1  0  0  0  0
 15 36  1  0  0  0  0
 16 17  1  0  0  0  0
 16 37  1  0  0  0  0
 16 38  1  0  0  0  0
 17 18  1  0  0  0  0
 17 39  1  0  0  0  0
 17 40  1  0  0  0  0
 18 19  1  0  0  0  0
 18 41  1  0  0  0  0
 18 42  1  0  0  0  0
M  END
> <s_m_source_file>
AV-unprocessed.smi

> <i_m_source_file_index>
2177

> <i_lp_mmshare_version>
43012

> <i_f3d_flags>
0

> <s_epik_input>
W0NIM11jMW5uKFtDSDNdKWMoW0NIM10pYzFbQ0gyXUMoPU8pW05IXVtDQEhdKFtDSDNdKVtDQEBIXTJbQ0gyXVtDSDJdW0NIMl1PMg==

> <s_epik_cmdline>
J2VwaWtfcHl0aG9uJywgJy1waCcsICc3LjAnLCAnLXRuJywgJzgnLCAnLW1hJywgJzIwMCcsICctbWV0YWxfYmluZGluZycsICctaW1hZScsICc8aW5maWxlLm1hZT4nLCAnLW9tYWUnLCAnPG91dGZpbGUubWFlPic=

> <r_lp_tautomer_probability>
1

> <r_epik_Ionization_Penalty>
0.00310467

> <r_epik_Ionization_Penalty_Charging>
0

> <r_epik_Ionization_Penalty_Neutral>
0.00310467

> <r_epik_State_Penalty>
0.00218493

> <r_epik_Charging_Adjusted_Penalty>
0.00218493

> <i_epik_Tot_Q>
0

> <i_epik_Tot_abs_Q>
0

> <r_epik_Metal_State_Penalty>
-0

> <b_epik_Metal_Only>
0

> <s_lp_Force_Field>
OPLS_2005

> <r_lp_Energy>
12.0116

> <b_lp_Chiralities_Consistent>
1

> <s_lp_Variant>
AV-unprocessed.smi:2177-3

> <Gold.Version>
5.8.1

> <Gold.Id.Protein>
6NUR|6NUR_protein|mol2

> <Gold.PLP.Fitness>
43.3469

> <Gold.PLP.PLP>
-44.0137

> <Gold.PLP.part.hbond>
0.0000

> <Gold.PLP.part.metal>
0.0000

> <Gold.PLP.part.buried>
-2.7070

> <Gold.PLP.part.nonpolar>
-39.5949

> <Gold.PLP.part.repulsive>
0.2531

> <Gold.PLP.ligand.clash>
0.0000

> <Gold.PLP.ligand.torsion>
0.3477

> <Gold.PLP.Chemscore.Hbond>
0.0000

> <Gold.PLP.Chemscore.CHOScore>
0.0000

> <Gold.PLP.Chemscore.Metal>
0.0000

> <Gold.PLP.Chemscore.Internal.Correction>
0.0285

> <Gold.Rescore>
     Score         DG    S(hbond)    S(metal)    S(lipo)     H(rot)  DE(clash)    DE(int)     intcor
     14.91     -15.29       0.00        0.00     115.88       1.46       0.09       0.30       ----

> <Gold.Chemscore.Fitness>
14.9077

> <Gold.Chemscore.DG>
-15.2936

> <Gold.Chemscore.ZeroCoef>
-5.4800

> <Gold.Chemscore.Hbond>
0.0000

> <Gold.Chemscore.Metal>
0.0000

> <Gold.Chemscore.Lipo>
115.8805

> <Gold.Chemscore.Internal_Hbond>
0.0000

> <Gold.Chemscore.DEClash>
0.0897

> <Gold.Chemscore.DEInternal>
0.2962

> <Gold.Chemscore.Rot>
1.4627

> <Gold.Chemscore.Internal.Correction>
   9.000000E+99

> <Gold.Chemscore.Hbond.Weighted>
-0.0000

> <Gold.Chemscore.Metal.Weighted>
-0.0000

> <Gold.Chemscore.Lipo.Weighted>
-13.5580

> <Gold.Chemscore.Internal_Hbond.Weighted>
0.0000

> <Gold.Chemscore.DEClash.Weighted>
0.0897

> <Gold.Chemscore.DEInternal.Weighted>
0.2962

> <Gold.Chemscore.Rot.Weighted>
3.7445

> <Gold.Chemscore.Internal.Correction.Weighted>
   9.000000E+99

> <Gold.Protein.RotatedTorsions>
[ 6907 6896 6895 6894 ] final   98.50 input  -60.11 | X-H torsion
[ 7974 7965 7964 7962 ] final  133.78 input  175.53 | X-H torsion
[ 8008 7997 7996 7995 ] final   80.32 input   59.86 | X-H torsion
[ 10167 10162 10161 10158 ] final   30.77 input  -65.29 | X-H torsion
[ 10718 10713 10712 10709 ] final    4.62 input   66.30 | X-H torsion
[ 10763 10752 10751 10750 ] final   90.56 input  -60.55 | X-H torsion
[ 11005 11000 10999 10996 ] final  -58.71 input  -57.11 | X-H torsion

> <Gold.Protein.ActiveResidues>
 VAL166  LYS551  ARG553  GLY616  TRP617  ASP618  TYR619  PRO620  LYS621  CYS622 
 ASP623  PHE694  ASN695  SER759  ASP760  ASP761  ALA762  ILE779  LEU786  VAL792 
 PHE793  MET794  SER795  GLU796  ALA797  LYS798  CYS799  TRP800  GLU811  SER814 

> <Gold.Protein.RotatedAtoms>
  152.5408  134.0572  159.8135 H   0  0  0  0  0  0  0  0  0  0  0  0  # atno 6907 bound_to 6896
  151.0705  133.5463  159.2635 H   0  0  0  0  0  0  0  0  0  0  0  0  # atno 6908 bound_to 6896
  151.2328  135.0568  159.9048 H   0  0  0  0  0  0  0  0  0  0  0  0  # atno 6909 bound_to 6896
  144.9830  139.4485  143.5377 H   0  0  0  0  0  0  0  0  0  0  0  0  # atno 7974 bound_to 7965
  155.8818  140.3443  155.5893 H   0  0  0  0  0  0  0  0  0  0  0  0  # atno 8008 bound_to 7997
  155.7711  140.0845  157.2126 H   0  0  0  0  0  0  0  0  0  0  0  0  # atno 8009 bound_to 7997
  154.4025  140.1518  156.2930 H   0  0  0  0  0  0  0  0  0  0  0  0  # atno 8010 bound_to 7997
  140.4648  144.0852  150.6222 H   0  0  0  0  0  0  0  0  0  0  0  0  # atno 10167 bound_to 10162
  156.8953  130.5702  149.5649 H   0  0  0  0  0  0  0  0  0  0  0  0  # atno 10718 bound_to 10713
  153.1988  135.4429  155.0241 H   0  0  0  0  0  0  0  0  0  0  0  0  # atno 10763 bound_to 10752
  154.8135  135.3305  154.7243 H   0  0  0  0  0  0  0  0  0  0  0  0  # atno 10764 bound_to 10752
  153.7690  135.6986  153.4965 H   0  0  0  0  0  0  0  0  0  0  0  0  # atno 10765 bound_to 10752
  141.1218  133.6613  156.4961 H   0  0  0  0  0  0  0  0  0  0  0  0  # atno 11005 bound_to 11000
  146.3413  139.9114  142.8779 LP  0  0  0  0  0  0  0  0  0  0  0  0  # atno 17320 bound_to 7965
  145.2394  141.0003  143.3945 LP  0  0  0  0  0  0  0  0  0  0  0  0  # atno 17321 bound_to 7965
  140.4049  143.2685  151.9903 LP  0  0  0  0  0  0  0  0  0  0  0  0  # atno 17342 bound_to 10162
  139.4810  144.5965  151.7680 LP  0  0  0  0  0  0  0  0  0  0  0  0  # atno 17343 bound_to 10162
  156.0608  130.5661  150.9189 LP  0  0  0  0  0  0  0  0  0  0  0  0  # atno 17370 bound_to 10713
  157.6059  131.0939  150.8880 LP  0  0  0  0  0  0  0  0  0  0  0  0  # atno 17371 bound_to 10713
  140.4483  134.6952  157.5027 LP  0  0  0  0  0  0  0  0  0  0  0  0  # atno 17394 bound_to 11000
  140.0182  134.6587  155.9278 LP  0  0  0  0  0  0  0  0  0  0  0  0  # atno 17395 bound_to 11000

$$$$
