#       Name:                AV-unprocessed.smi:1040
#       Creating user name   scv26
#       Creation time:       Fri Mar 27 02:54:13 2020


#       File generated by GOLD software.
#

@<TRIPOS>MOLECULE
AV-unprocessed.smi:1040
    60    61     1
SMALL
NO_CHARGES


@<TRIPOS>ATOM
      1 ****        -3.0059  -0.7985   1.8173 C.3            1 S1                 0.0000
      2 ****        -2.5277  -0.4408   0.4000 C.3            1 S1                 0.0000
      3 ****        -1.0898  -0.6958   0.3293 N.am           1 S1                 0.0000
      4 ****        -0.3853  -0.8541  -0.8013 C.2            1 S1                 0.0000
      5 ****        -0.8903  -0.8136  -1.9227 O.2            1 S1                 0.0000
      6 ****         0.9159  -1.0501  -0.5289 N.am           1 S1                 0.0000
      7 ****         2.0218  -1.2641  -1.4056 C.ar           1 S1                 0.0000
      8 ****         1.8955  -1.4273  -2.8081 C.ar           1 S1                 0.0000
      9 ****         3.0519  -1.6182  -3.5857 C.ar           1 S1                 0.0000
     10 ****         4.2985  -1.6403  -2.9376 C.ar           1 S1                 0.0000
     11 ****         4.4382  -1.4940  -1.6052 N.ar           1 S1                 0.0000
     12 ****         3.3289  -1.3126  -0.8475 C.ar           1 S1                 0.0000
     13 ****         3.5141  -1.1894   0.5440 N.3            1 S1                 0.0000
     14 ****         3.2292  -2.4205   1.2786 C.3            1 S1                 0.0000
     15 ****         3.1032  -2.1387   2.7856 C.3            1 S1                 0.0000
     16 ****         4.3485  -1.4095   3.3155 C.3            1 S1                 0.0000
     17 ****         4.6184  -0.1423   2.4877 C.3            1 S1                 0.0000
     18 ****         4.7096  -0.4735   0.9882 C.3            1 S1                 0.0000
     19 ****        -2.8238   1.0476   0.1579 C.2            1 S1                 0.0000
     20 ****        -2.1231   1.9139   0.6831 O.2            1 S1                 0.0000
     21 ****        -3.8810   1.3134  -0.6297 N.am           1 S1                 0.0000
     22 ****        -4.4118   2.6202  -1.0353 C.3            1 S1                 0.0000
     23 ****        -5.6132   2.3487  -1.9576 C.3            1 S1                 0.0000
     24 ****        -3.3512   3.4223  -1.8191 C.3            1 S1                 0.0000
     25 ****        -4.8943   3.4143   0.1965 C.3            1 S1                 0.0000
     26 ****        -4.0767  -0.6233   1.9299 H              1 S1                 0.0000
     27 ****        -2.4912  -0.2127   2.5806 H              1 S1                 0.0000
     28 ****        -2.8257  -1.8516   2.0347 H              1 S1                 0.0000
     29 ****        -3.0533  -1.0588  -0.3308 H              1 S1                 0.0000
     30 ****        -0.5936  -0.7346   1.2073 H              1 S1                 0.0000
     31 ****         1.1608  -1.0224   0.4502 H              1 S1                 0.0000
     32 ****         0.9437  -1.4145  -3.3129 H              1 S1                 0.0000
     33 ****         2.9837  -1.7439  -4.6561 H              1 S1                 0.0000
     34 ****         5.2075  -1.7832  -3.5029 H              1 S1                 0.0000
     35 ****         2.3131  -2.8859   0.9137 H              1 S1                 0.0000
     36 ****         4.0360  -3.1325   1.0986 H              1 S1                 0.0000
     37 ****         2.2171  -1.5294   2.9690 H              1 S1                 0.0000
     38 ****         2.9557  -3.0721   3.3295 H              1 S1                 0.0000
     39 ****         4.2164  -1.1526   4.3668 H              1 S1                 0.0000
     40 ****         5.2123  -2.0733   3.2610 H              1 S1                 0.0000
     41 ****         3.8174   0.5794   2.6529 H              1 S1                 0.0000
     42 ****         5.5399   0.3351   2.8214 H              1 S1                 0.0000
     43 ****         5.5924  -1.0861   0.7990 H              1 S1                 0.0000
     44 ****         4.8254   0.4459   0.4126 H              1 S1                 0.0000
     45 ****        -4.3755   0.5136  -0.9976 H              1 S1                 0.0000
     46 ****        -6.0609   3.2783  -2.3110 H              1 S1                 0.0000
     47 ****        -6.3928   1.7862  -1.4422 H              1 S1                 0.0000
     48 ****        -5.3189   1.7729  -2.8361 H              1 S1                 0.0000
     49 ****        -2.9740   2.8551  -2.6710 H              1 S1                 0.0000
     50 ****        -2.4971   3.6921  -1.1982 H              1 S1                 0.0000
     51 ****        -3.7696   4.3526  -2.2047 H              1 S1                 0.0000
     52 ****        -5.3757   4.3463  -0.1016 H              1 S1                 0.0000
     53 ****        -4.0724   3.6785   0.8619 H              1 S1                 0.0000
     54 ****        -5.6188   2.8429   0.7780 H              1 S1                 0.0000
     55 ****        -1.8727  -0.6562  -2.0233 LP             1 S1                 0.0000
     56 ****        -0.3183  -0.9381  -2.7335 LP             1 S1                 0.0000
     57 ****         5.3443  -1.5188  -1.1829 LP             1 S1                 0.0000
     58 ****         2.7961  -0.5457   0.8089 LP             1 S1                 0.0000
     59 ****        -1.3577   1.6499   1.2700 LP             1 S1                 0.0000
     60 ****        -2.3197   2.8812   0.5226 LP             1 S1                 0.0000
@<TRIPOS>BOND
    1    1    2 1     
    2    1   26 1     
    3    1   27 1     
    4    1   28 1     
    5    2    3 1     
    6    2   19 1     
    7    2   29 1     
    8    3    4 am    
    9    3   30 1     
   10    4    5 2     
   11    4    6 am    
   12    6    7 1     
   13    6   31 1     
   14    7   12 ar    
   15    7    8 ar    
   16    8    9 ar    
   17    8   32 1     
   18    9   10 ar    
   19    9   33 1     
   20   10   11 ar    
   21   10   34 1     
   22   11   12 ar    
   23   12   13 1     
   24   13   18 1     
   25   13   14 1     
   26   14   15 1     
   27   14   35 1     
   28   14   36 1     
   29   15   16 1     
   30   15   37 1     
   31   15   38 1     
   32   16   17 1     
   33   16   39 1     
   34   16   40 1     
   35   17   18 1     
   36   17   41 1     
   37   17   42 1     
   38   18   43 1     
   39   18   44 1     
   40   19   20 2     
   41   19   21 am    
   42   21   22 1     
   43   21   45 1     
   44   22   23 1     
   45   22   24 1     
   46   22   25 1     
   47   23   46 1     
   48   23   47 1     
   49   23   48 1     
   50   24   49 1     
   51   24   50 1     
   52   24   51 1     
   53   25   52 1     
   54   25   53 1     
   55   25   54 1     
   56    5   55 1     
   57    5   56 1     
   58   11   57 1     
   59   13   58 1     
   60   20   59 1     
   61   20   60 1     
@<TRIPOS>SUBSTRUCTURE
      1 S1             1
@<TRIPOS>SET
LONE_PAIRS      STATIC     ATOMS    <user>   **** ""
6 55 56 57 58 59 60
DONOR_HYDROGENS      STATIC     ATOMS    <user>   **** ""
3 30 31 45
ATOM$BLUE        STATIC     ATOMS    COLORGROUP SYSTEM
6 55 56 57 58 59 60
ATOM$RED        STATIC     ATOMS    COLORGROUP SYSTEM
3 30 31 45
