#       Name:                AV-unprocessed.smi:3263
#       Creating user name   scv26
#       Creation time:       Fri Mar 27 18:39:07 2020


#       File generated by GOLD software.
#

@<TRIPOS>MOLECULE
AV-unprocessed.smi:3263
    44    46     1
SMALL
NO_CHARGES


@<TRIPOS>ATOM
      1 ****        -0.1718   1.9693   1.1431 O.2            1 S1                 0.0000
      2 ****        -0.5988   0.8536   1.4412 C.2            1 S1                 0.0000
      3 ****        -2.1062   0.5900   1.4827 C.3            1 S1                 0.0000
      4 ****        -2.8285   1.0266   0.1884 C.3            1 S1                 0.0000
      5 ****        -4.3264   0.6551   0.1470 C.3            1 S1                 0.0000
      6 ****        -4.4746  -0.0302  -1.2249 C.3            1 S1                 0.0000
      7 ****        -3.8352  -1.4294  -1.1613 C.3            1 S1                 0.0000
      8 ****        -2.3292  -1.1112  -1.1283 C.3            1 S1                 0.0000
      9 ****        -2.3051   0.4313  -1.1439 C.3            1 S1                 0.0000
     10 ****        -3.4705   0.7355  -2.0793 C.3            1 S1                 0.0000
     11 ****         0.1983  -0.1877   1.7252 N.am           1 S1                 0.0000
     12 ****         1.6543  -0.1599   1.6689 C.3            1 S1                 0.0000
     13 ****         2.1594  -0.2868   0.2216 C.3            1 S1                 0.0000
     14 ****         3.6717  -0.2355   0.1348 C.ar           1 S1                 0.0000
     15 ****         4.4572  -1.3977  -0.0252 C.ar           1 S1                 0.0000
     16 ****         5.8607  -1.2753  -0.0953 C.ar           1 S1                 0.0000
     17 ****         6.4479   0.0039  -0.0036 C.ar           1 S1                 0.0000
     18 ****         5.6155   1.1304   0.1565 C.ar           1 S1                 0.0000
     19 ****         4.2752   0.9724   0.2192 N.pl3          1 S1                 1.0000
     20 ****        -2.2934  -0.4647   1.6882 H              1 S1                 0.0000
     21 ****        -2.5216   1.1362   2.3302 H              1 S1                 0.0000
     22 ****        -2.7540   2.1136   0.1175 H              1 S1                 0.0000
     23 ****        -4.6253  -0.0039   0.9633 H              1 S1                 0.0000
     24 ****        -4.9442   1.5520   0.2054 H              1 S1                 0.0000
     25 ****        -5.4970  -0.0339  -1.6038 H              1 S1                 0.0000
     26 ****        -4.1607  -1.9941  -0.2870 H              1 S1                 0.0000
     27 ****        -4.0844  -2.0131  -2.0484 H              1 S1                 0.0000
     28 ****        -1.8245  -1.5436  -0.2652 H              1 S1                 0.0000
     29 ****        -1.8407  -1.5076  -2.0195 H              1 S1                 0.0000
     30 ****        -1.3501   0.8486  -1.4650 H              1 S1                 0.0000
     31 ****        -3.3451   0.3172  -3.0796 H              1 S1                 0.0000
     32 ****        -3.6952   1.8004  -2.1628 H              1 S1                 0.0000
     33 ****        -0.2360  -1.0668   1.9672 H              1 S1                 0.0000
     34 ****         2.0257   0.7576   2.1288 H              1 S1                 0.0000
     35 ****         2.0359  -0.9857   2.2702 H              1 S1                 0.0000
     36 ****         1.8059  -1.2217  -0.2155 H              1 S1                 0.0000
     37 ****         1.7502   0.5134  -0.3968 H              1 S1                 0.0000
     38 ****         3.9929  -2.3709  -0.0930 H              1 S1                 0.0000
     39 ****         6.4794  -2.1522  -0.2180 H              1 S1                 0.0000
     40 ****         7.5207   0.1191  -0.0553 H              1 S1                 0.0000
     41 ****         5.9778   2.1450   0.2358 H              1 S1                 0.0000
     42 ****         3.6915   1.8014   0.3357 H              1 S1                 0.0000
     43 ****        -0.8105   2.7077   0.9269 LP             1 S1                 0.0000
     44 ****         0.8137   2.1370   1.1173 LP             1 S1                 0.0000
@<TRIPOS>BOND
    1    1    2 2     
    2    2    3 1     
    3    2   11 am    
    4    3    4 1     
    5    3   20 1     
    6    3   21 1     
    7    4    9 1     
    8    4    5 1     
    9    4   22 1     
   10    5    6 1     
   11    5   23 1     
   12    5   24 1     
   13    6   10 1     
   14    6    7 1     
   15    6   25 1     
   16    7    8 1     
   17    7   26 1     
   18    7   27 1     
   19    8    9 1     
   20    8   28 1     
   21    8   29 1     
   22    9   10 1     
   23    9   30 1     
   24   10   31 1     
   25   10   32 1     
   26   11   12 1     
   27   11   33 1     
   28   12   13 1     
   29   12   34 1     
   30   12   35 1     
   31   13   14 1     
   32   13   36 1     
   33   13   37 1     
   34   14   19 ar    
   35   14   15 ar    
   36   15   16 ar    
   37   15   38 1     
   38   16   17 ar    
   39   16   39 1     
   40   17   18 ar    
   41   17   40 1     
   42   18   19 ar    
   43   18   41 1     
   44   19   42 1     
   45    1   43 1     
   46    1   44 1     
@<TRIPOS>SUBSTRUCTURE
      1 S1             1
@<TRIPOS>SET
LONE_PAIRS      STATIC     ATOMS    <user>   **** ""
2 43 44
DONOR_HYDROGENS      STATIC     ATOMS    <user>   **** ""
2 33 42
ATOM$BLUE        STATIC     ATOMS    COLORGROUP SYSTEM
2 43 44
ATOM$RED        STATIC     ATOMS    COLORGROUP SYSTEM
2 33 42
