AV-unprocessed.smi:1914|AV-procd|sdf|7757|dock1
  -GOLD-   22720 9493D 1   1.00000     0.00000
 Structure written by MMmdl.
 44 45  0  0  0  0  0  0  0  0  2 V2000
  152.4275  138.2113  156.4082 C   0  0  0  0  0  0  0  0  0  0  0  0
  152.5265  139.1731  155.2105 C   0  0  1  0  0  0  0  0  0  0  0  0
  152.2155  138.4874  153.8673 C   0  0  0  0  0  0  0  0  0  0  0  0
  150.7122  138.2167  153.7159 C   0  0  0  0  0  0  0  0  0  0  0  0
  149.8952  139.4992  153.9371 C   0  0  0  0  0  0  0  0  0  0  0  0
  150.1970  140.1082  155.2584 N   0  3  2  0  0  0  0  0  0  0  0  0
  149.3135  141.2639  155.5537 C   0  0  0  0  0  0  0  0  0  0  0  0
  149.2651  141.6056  157.0564 C   0  0  0  0  0  0  0  0  0  0  0  0
  150.4963  142.2525  157.4929 N   0  0  0  0  0  0  0  0  0  0  0  0
  150.6847  142.8061  158.7004 C   0  0  0  0  0  0  0  0  0  0  0  0
  149.8079  142.8489  159.5645 O   0  0  0  0  0  0  0  0  0  0  0  0
  152.0703  143.4119  158.9609 C   0  0  0  0  0  0  0  0  0  0  0  0
  152.7054  142.8820  160.1789 N   0  0  0  0  0  0  0  0  0  0  0  0
  152.4618  143.5703  161.3841 C   0  0  0  0  0  0  0  0  0  0  0  0
  152.9904  143.1678  162.5505 C   0  0  0  0  0  0  0  0  0  0  0  0
  153.8309  141.9938  162.5506 C   0  0  0  0  0  0  0  0  0  0  0  0
  154.0673  141.3256  161.4043 C   0  0  0  0  0  0  0  0  0  0  0  0
  153.4883  141.7598  160.1275 C   0  0  0  0  0  0  0  0  0  0  0  0
  153.6919  141.1510  159.0763 O   0  0  0  0  0  0  0  0  0  0  0  0
  151.6452  140.4262  155.3939 C   0  0  0  0  0  0  0  0  0  0  0  0
  151.4130  137.8389  156.5505 H   0  0  0  0  0  0  0  0  0  0  0  0
  152.7283  138.7057  157.3323 H   0  0  0  0  0  0  0  0  0  0  0  0
  153.0807  137.3487  156.2728 H   0  0  0  0  0  0  0  0  0  0  0  0
  153.5644  139.5067  155.1709 H   0  0  0  0  0  0  0  0  0  0  0  0
  152.5441  139.1327  153.0513 H   0  0  0  0  0  0  0  0  0  0  0  0
  152.7806  137.5598  153.7688 H   0  0  0  0  0  0  0  0  0  0  0  0
  150.5075  137.8139  152.7237 H   0  0  0  0  0  0  0  0  0  0  0  0
  150.3969  137.4517  154.4261 H   0  0  0  0  0  0  0  0  0  0  0  0
  150.1044  140.2217  153.1463 H   0  0  0  0  0  0  0  0  0  0  0  0
  148.8335  139.2581  153.8733 H   0  0  0  0  0  0  0  0  0  0  0  0
  149.6323  142.1234  154.9619 H   0  0  0  0  0  0  0  0  0  0  0  0
  148.2972  141.0305  155.2321 H   0  0  0  0  0  0  0  0  0  0  0  0
  148.4360  142.2849  157.2570 H   0  0  0  0  0  0  0  0  0  0  0  0
  149.0957  140.7188  157.6677 H   0  0  0  0  0  0  0  0  0  0  0  0
  151.2652  142.2675  156.8379 H   0  0  0  0  0  0  0  0  0  0  0  0
  152.7181  143.2380  158.0991 H   0  0  0  0  0  0  0  0  0  0  0  0
  151.9597  144.4952  159.0225 H   0  0  0  0  0  0  0  0  0  0  0  0
  151.8175  144.4333  161.3004 H   0  0  0  0  0  0  0  0  0  0  0  0
  152.7897  143.7053  163.4655 H   0  0  0  0  0  0  0  0  0  0  0  0
  154.2709  141.6487  163.4746 H   0  0  0  0  0  0  0  0  0  0  0  0
  154.6980  140.4490  161.4243 H   0  0  0  0  0  0  0  0  0  0  0  0
  151.8550  140.8706  156.3660 H   0  0  0  0  0  0  0  0  0  0  0  0
  151.9140  141.1771  154.6489 H   0  0  0  0  0  0  0  0  0  0  0  0
  149.9840  139.4019  155.9480 H   0  0  0  0  0  0  0  0  0  0  0  0
  1  2  1  0  0  0  0
  1 21  1  0  0  0  0
  1 22  1  0  0  0  0
  1 23  1  0  0  0  0
  2 20  1  0  0  0  0
  2  3  1  0  0  0  0
  2 24  1  0  0  0  0
  3  4  1  0  0  0  0
  3 25  1  0  0  0  0
  3 26  1  0  0  0  0
  4  5  1  0  0  0  0
  4 27  1  0  0  0  0
  4 28  1  0  0  0  0
  5  6  1  0  0  0  0
  5 29  1  0  0  0  0
  5 30  1  0  0  0  0
  6  7  1  0  0  0  0
  6 20  1  0  0  0  0
  6 44  1  0  0  0  0
  7  8  1  0  0  0  0
  7 31  1  0  0  0  0
  7 32  1  0  0  0  0
  8  9  1  0  0  0  0
  8 33  1  0  0  0  0
  8 34  1  0  0  0  0
  9 10  1  0  0  0  0
  9 35  1  0  0  0  0
 10 11  2  0  0  0  0
 10 12  1  0  0  0  0
 12 13  1  0  0  0  0
 12 36  1  0  0  0  0
 12 37  1  0  0  0  0
 13 18  1  0  0  0  0
 13 14  1  0  0  0  0
 14 15  2  0  0  0  0
 14 38  1  0  0  0  0
 15 16  1  0  0  0  0
 15 39  1  0  0  0  0
 16 17  2  0  0  0  0
 16 40  1  0  0  0  0
 17 18  1  0  0  0  0
 17 41  1  0  0  0  0
 18 19  2  0  0  0  0
 20 42  1  0  0  0  0
 20 43  1  0  0  0  0
M  CHG  1   6   1
M  END
> <s_m_source_file>
AV-unprocessed.smi

> <i_m_source_file_index>
1914

> <i_lp_mmshare_version>
43012

> <i_f3d_flags>
0

> <s_epik_input>
W0NIM11bQ0BASF0xW0NIMl1bQ0gyXVtDSDJdTihbQ0gyXTEpW0NIMl1bQ0gyXVtOSF1DKD1PKVtDSDJdbjJbY0hdW2NIXVtjSF1bY0hdYzI9Tw==

> <s_epik_cmdline>
J2VwaWtfcHl0aG9uJywgJy1waCcsICc3LjAnLCAnLXRuJywgJzgnLCAnLW1hJywgJzIwMCcsICctbWV0YWxfYmluZGluZycsICctaW1hZScsICc8aW5maWxlLm1hZT4nLCAnLW9tYWUnLCAnPG91dGZpbGUubWFlPic=

> <r_lp_tautomer_probability>
1

> <r_epik_Ionization_Penalty>
0.00192477

> <r_epik_Ionization_Penalty_Charging>
0.00192469

> <r_epik_Ionization_Penalty_Neutral>
8.16761e-08

> <r_epik_State_Penalty>
0.00131115

> <r_epik_Charging_Adjusted_Penalty>
0.00323584

> <i_epik_Tot_Q>
1

> <i_epik_Tot_abs_Q>
1

> <r_epik_Metal_State_Penalty>
-0

> <b_epik_Metal_Only>
0

> <s_lp_Force_Field>
OPLS_2005

> <r_lp_Energy>
26.9479

> <b_lp_Chiralities_Consistent>
1

> <s_lp_Variant>
AV-unprocessed.smi:1914-2

> <Gold.Version>
5.8.1

> <Gold.Id.Protein>
6NUR|6NUR_protein|mol2

> <Gold.PLP.Fitness>
47.3046

> <Gold.PLP.PLP>
-48.4406

> <Gold.PLP.part.hbond>
-1.0000

> <Gold.PLP.part.metal>
0.0000

> <Gold.PLP.part.buried>
-3.3218

> <Gold.PLP.part.nonpolar>
-44.6567

> <Gold.PLP.part.repulsive>
0.2113

> <Gold.PLP.ligand.clash>
0.0000

> <Gold.PLP.ligand.torsion>
0.6154

> <Gold.PLP.Chemscore.Hbond>
0.0000

> <Gold.PLP.Chemscore.CHOScore>
0.0000

> <Gold.PLP.Chemscore.Metal>
0.0000

> <Gold.PLP.Chemscore.Internal.Correction>
0.0948

> <Gold.Rescore>
     Score         DG    S(hbond)    S(metal)    S(lipo)     H(rot)  DE(clash)    DE(int)     intcor
     13.24     -13.99       0.06        0.00     111.74       1.86       0.10       0.66       ----

> <Gold.Chemscore.Fitness>
13.2360

> <Gold.Chemscore.DG>
-13.9915

> <Gold.Chemscore.ZeroCoef>
-5.4800

> <Gold.Chemscore.Hbond>
0.0587

> <Gold.Chemscore.Metal>
0.0000

> <Gold.Chemscore.Lipo>
111.7413

> <Gold.Chemscore.Internal_Hbond>
0.0000

> <Gold.Chemscore.DEClash>
0.0986

> <Gold.Chemscore.DEInternal>
0.6569

> <Gold.Chemscore.Rot>
1.8586

> <Gold.Chemscore.Internal.Correction>
   9.000000E+99

> <Gold.Chemscore.Hbonds>
donor molecule, donor type, donor heavy atom, donor atom, acceptor molecule, acceptor atom, score
      P1  H  6933  6944       L1    11  0.01
      P1  H  7997  8009       L1    19  0.04

> <Gold.Chemscore.Hbond.Weighted>
-0.1959

> <Gold.Chemscore.Metal.Weighted>
-0.0000

> <Gold.Chemscore.Lipo.Weighted>
-13.0737

> <Gold.Chemscore.Internal_Hbond.Weighted>
0.0000

> <Gold.Chemscore.DEClash.Weighted>
0.0986

> <Gold.Chemscore.DEInternal.Weighted>
0.6569

> <Gold.Chemscore.Rot.Weighted>
4.7581

> <Gold.Chemscore.Internal.Correction.Weighted>
   9.000000E+99

> <Gold.Protein.RotatedTorsions>
[ 6907 6896 6895 6894 ] final -173.36 input  -60.11 | X-H torsion
[ 7974 7965 7964 7962 ] final  -74.82 input  175.53 | X-H torsion
[ 8008 7997 7996 7995 ] final  139.67 input   59.86 | X-H torsion
[ 10167 10162 10161 10158 ] final  -99.60 input  -65.29 | X-H torsion
[ 10718 10713 10712 10709 ] final  172.50 input   66.30 | X-H torsion
[ 10763 10752 10751 10750 ] final  -39.46 input  -60.55 | X-H torsion
[ 11005 11000 10999 10996 ] final  -92.35 input  -57.11 | X-H torsion

> <Gold.Protein.ActiveResidues>
 VAL166  LYS551  ARG553  GLY616  TRP617  ASP618  TYR619  PRO620  LYS621  CYS622 
 ASP623  PHE694  ASN695  SER759  ASP760  ASP761  ALA762  ILE779  LEU786  VAL792 
 PHE793  MET794  SER795  GLU796  ALA797  LYS798  CYS799  TRP800  GLU811  SER814 

> <Gold.Protein.RotatedAtoms>
  151.5549  133.3412  159.2959 H   0  0  0  0  0  0  0  0  0  0  0  0  # atno 6907 bound_to 6896
  150.8457  134.7767  159.6979 H   0  0  0  0  0  0  0  0  0  0  0  0  # atno 6908 bound_to 6896
  152.4515  134.5391  159.9885 H   0  0  0  0  0  0  0  0  0  0  0  0  # atno 6909 bound_to 6896
  145.6340  140.9330  143.1071 H   0  0  0  0  0  0  0  0  0  0  0  0  # atno 7974 bound_to 7965
  156.2987  140.2361  156.4275 H   0  0  0  0  0  0  0  0  0  0  0  0  # atno 8008 bound_to 7997
  154.8300  140.0433  157.1490 H   0  0  0  0  0  0  0  0  0  0  0  0  # atno 8009 bound_to 7997
  154.9219  140.3005  155.5215 H   0  0  0  0  0  0  0  0  0  0  0  0  # atno 8010 bound_to 7997
  140.2607  143.3409  152.0628 H   0  0  0  0  0  0  0  0  0  0  0  0  # atno 10167 bound_to 10162
  156.9780  131.0110  151.2889 H   0  0  0  0  0  0  0  0  0  0  0  0  # atno 10718 bound_to 10713
  153.9297  135.6773  153.4746 H   0  0  0  0  0  0  0  0  0  0  0  0  # atno 10763 bound_to 10752
  153.0986  135.4839  154.8822 H   0  0  0  0  0  0  0  0  0  0  0  0  # atno 10764 bound_to 10752
  154.7434  135.3166  154.8644 H   0  0  0  0  0  0  0  0  0  0  0  0  # atno 10765 bound_to 10752
  141.1524  133.7815  157.0008 H   0  0  0  0  0  0  0  0  0  0  0  0  # atno 11005 bound_to 11000
  144.7182  139.8121  143.7391 LP  0  0  0  0  0  0  0  0  0  0  0  0  # atno 17320 bound_to 7965
  146.1334  139.4374  143.0154 LP  0  0  0  0  0  0  0  0  0  0  0  0  # atno 17321 bound_to 7965
  139.5017  144.6720  151.6219 LP  0  0  0  0  0  0  0  0  0  0  0  0  # atno 17342 bound_to 10162
  140.5968  143.9682  150.6360 LP  0  0  0  0  0  0  0  0  0  0  0  0  # atno 17343 bound_to 10162
  157.5546  130.8205  149.8188 LP  0  0  0  0  0  0  0  0  0  0  0  0  # atno 17370 bound_to 10713
  156.0256  130.3781  150.1834 LP  0  0  0  0  0  0  0  0  0  0  0  0  # atno 17371 bound_to 10713
  140.0941  134.9575  157.1822 LP  0  0  0  0  0  0  0  0  0  0  0  0  # atno 17394 bound_to 11000
  140.3406  134.2708  155.7213 LP  0  0  0  0  0  0  0  0  0  0  0  0  # atno 17395 bound_to 11000

$$$$
