AV-unprocessed.smi:232|AV-procd|sdf|1773|dock9
  -GOLD-   2262020313D 1   1.00000     0.00000
 Structure written by MMmdl.
 52 55  0  0  0  0  0  0  0  0  1 V2000
  151.9388  145.2347  158.5543 C   0  0  0  0  0  0  0  0  0  0  0  0
  152.4192  143.8266  158.1829 C   0  0  0  0  0  0  0  0  0  0  0  0
  152.2669  142.8106  159.3336 C   0  0  2  0  0  0  0  0  0  0  0  0
  152.8493  143.2890  160.6710 C   0  0  0  0  0  0  0  0  0  0  0  0
  153.3372  142.0114  161.3650 C   0  0  0  0  0  0  0  0  0  0  0  0
  153.0396  140.8859  160.3661 C   0  0  2  0  0  0  0  0  0  0  0  0
  154.0755  139.7493  160.3983 C   0  0  0  0  0  0  0  0  0  0  0  0
  152.9545  141.5509  159.0720 N   0  0  0  0  0  0  0  0  0  0  0  0
  152.4508  140.7891  158.0726 C   0  0  0  0  0  0  0  0  0  0  0  0
  153.1136  139.6817  157.6442 N   0  0  0  0  0  0  0  0  0  0  0  0
  152.6026  138.9390  156.6571 C   0  0  0  0  0  0  0  0  0  0  0  0
  151.4682  139.1200  155.9763 N   0  0  0  0  0  0  0  0  0  0  0  0
  150.8063  140.2334  156.4046 C   0  0  0  0  0  0  0  0  0  0  0  0
  151.2258  141.1175  157.4367 C   0  0  0  0  0  0  0  0  0  0  0  0
  150.3021  142.1425  157.5953 N   0  0  0  0  0  0  0  0  0  0  0  0
  149.3846  141.8791  156.7048 C   0  0  0  0  0  0  0  0  0  0  0  0
  149.6064  140.7500  155.9491 N   0  0  0  0  0  0  0  0  0  0  0  0
  148.7497  140.2290  154.8989 C   0  0  0  0  0  0  0  0  0  0  0  0
  148.4387  141.2803  153.8155 C   0  0  1  0  0  0  0  0  0  0  0  0
  147.7743  140.6536  152.7347 O   0  0  0  0  0  0  0  0  0  0  0  0
  147.5555  142.4238  154.3489 C   0  0  2  0  0  0  0  0  0  0  0  0
  146.1705  141.9824  154.8264 C   0  0  0  0  0  0  0  0  0  0  0  0
  145.3797  143.2633  154.6966 C   0  0  0  0  0  0  0  0  0  0  0  0
  145.9471  143.8472  153.4071 C   0  0  0  0  0  0  0  0  0  0  0  0
  147.2880  143.3715  153.3165 O   0  0  0  0  0  0  0  0  0  0  0  0
  152.0352  145.9116  157.7050 H   0  0  0  0  0  0  0  0  0  0  0  0
  152.5211  145.6521  159.3759 H   0  0  0  0  0  0  0  0  0  0  0  0
  150.8908  145.2253  158.8554 H   0  0  0  0  0  0  0  0  0  0  0  0
  151.8478  143.4899  157.3172 H   0  0  0  0  0  0  0  0  0  0  0  0
  153.4606  143.8682  157.8609 H   0  0  0  0  0  0  0  0  0  0  0  0
  151.2059  142.6027  159.4835 H   0  0  0  0  0  0  0  0  0  0  0  0
  153.6945  143.9596  160.5097 H   0  0  0  0  0  0  0  0  0  0  0  0
  152.1088  143.8268  161.2639 H   0  0  0  0  0  0  0  0  0  0  0  0
  154.4072  142.0895  161.5629 H   0  0  0  0  0  0  0  0  0  0  0  0
  152.8359  141.8410  162.3183 H   0  0  0  0  0  0  0  0  0  0  0  0
  152.0583  140.4709  160.6037 H   0  0  0  0  0  0  0  0  0  0  0  0
  154.1395  139.3104  161.3940 H   0  0  0  0  0  0  0  0  0  0  0  0
  155.0685  140.1103  160.1282 H   0  0  0  0  0  0  0  0  0  0  0  0
  153.8123  138.9496  159.7054 H   0  0  0  0  0  0  0  0  0  0  0  0
  153.1858  138.0759  156.3719 H   0  0  0  0  0  0  0  0  0  0  0  0
  148.5141  142.5051  156.5728 H   0  0  0  0  0  0  0  0  0  0  0  0
  149.2268  139.3529  154.4578 H   0  0  0  0  0  0  0  0  0  0  0  0
  147.8266  139.8783  155.3617 H   0  0  0  0  0  0  0  0  0  0  0  0
  149.3742  141.6954  153.4383 H   0  0  0  0  0  0  0  0  0  0  0  0
  148.3484  140.6628  151.9839 H   0  0  0  0  0  0  0  0  0  0  0  0
  148.0634  142.9503  155.1591 H   0  0  0  0  0  0  0  0  0  0  0  0
  145.7575  141.2209  154.1630 H   0  0  0  0  0  0  0  0  0  0  0  0
  146.1763  141.5852  155.8418 H   0  0  0  0  0  0  0  0  0  0  0  0
  144.3022  143.1026  154.6554 H   0  0  0  0  0  0  0  0  0  0  0  0
  145.5969  143.9237  155.5372 H   0  0  0  0  0  0  0  0  0  0  0  0
  145.3920  143.4776  152.5444 H   0  0  0  0  0  0  0  0  0  0  0  0
  145.9090  144.9366  153.3935 H   0  0  0  0  0  0  0  0  0  0  0  0
  1  2  1  0  0  0  0
  1 26  1  0  0  0  0
  1 27  1  0  0  0  0
  1 28  1  0  0  0  0
  2  3  1  0  0  0  0
  2 29  1  0  0  0  0
  2 30  1  0  0  0  0
  3  8  1  0  0  0  0
  3  4  1  0  0  0  0
  3 31  1  0  0  0  0
  4  5  1  0  0  0  0
  4 32  1  0  0  0  0
  4 33  1  0  0  0  0
  5  6  1  0  0  0  0
  5 34  1  0  0  0  0
  5 35  1  0  0  0  0
  6  7  1  0  0  0  0
  6  8  1  0  0  0  0
  6 36  1  0  0  0  0
  7 37  1  0  0  0  0
  7 38  1  0  0  0  0
  7 39  1  0  0  0  0
  8  9  1  0  0  0  0
  9 14  1  0  0  0  0
  9 10  2  0  0  0  0
 10 11  1  0  0  0  0
 11 12  2  0  0  0  0
 11 40  1  0  0  0  0
 12 13  1  0  0  0  0
 13 17  1  0  0  0  0
 13 14  2  0  0  0  0
 14 15  1  0  0  0  0
 15 16  2  0  0  0  0
 16 17  1  0  0  0  0
 16 41  1  0  0  0  0
 17 18  1  0  0  0  0
 18 19  1  0  0  0  0
 18 42  1  0  0  0  0
 18 43  1  0  0  0  0
 19 20  1  0  0  0  0
 19 21  1  0  0  0  0
 19 44  1  0  0  0  0
 20 45  1  0  0  0  0
 21 25  1  0  0  0  0
 21 22  1  0  0  0  0
 21 46  1  0  0  0  0
 22 23  1  0  0  0  0
 22 47  1  0  0  0  0
 22 48  1  0  0  0  0
 23 24  1  0  0  0  0
 23 49  1  0  0  0  0
 23 50  1  0  0  0  0
 24 25  1  0  0  0  0
 24 51  1  0  0  0  0
 24 52  1  0  0  0  0
M  END
> <s_m_source_file>
AV-unprocessed.smi

> <i_m_source_file_index>
232

> <i_lp_mmshare_version>
43012

> <i_f3d_flags>
0

> <s_epik_input>
W0NIM11bQ0gyXVtDQEBIXTFbQ0gyXVtDSDJdW0NAQEhdKFtDSDNdKU4xYyhuW2NIXW4yKWMoYzIzKW5bY0hdbjNbQ0gyXVtDQEhdKFtPSF0pW0NAQEhdNFtDSDJdW0NIMl1bQ0gyXU80

> <s_epik_cmdline>
J2VwaWtfcHl0aG9uJywgJy1waCcsICc3LjAnLCAnLXRuJywgJzgnLCAnLW1hJywgJzIwMCcsICctbWV0YWxfYmluZGluZycsICctaW1hZScsICc8aW5maWxlLm1hZT4nLCAnLW9tYWUnLCAnPG91dGZpbGUubWFlPic=

> <r_lp_tautomer_probability>
1

> <r_epik_Ionization_Penalty>
0.00258048

> <r_epik_Ionization_Penalty_Charging>
0

> <r_epik_Ionization_Penalty_Neutral>
0.00258048

> <r_epik_State_Penalty>
0.00168551

> <r_epik_Charging_Adjusted_Penalty>
0.00168551

> <i_epik_Tot_Q>
0

> <i_epik_Tot_abs_Q>
0

> <r_epik_Metal_State_Penalty>
-0

> <b_epik_Metal_Only>
0

> <s_lp_Force_Field>
OPLS_2005

> <r_lp_Energy>
51.2688

> <b_lp_Chiralities_Consistent>
1

> <s_lp_Variant>
AV-unprocessed.smi:232-7

> <Gold.Version>
5.8.1

> <Gold.Id.Protein>
6NUR|6NUR_protein|mol2

> <Gold.PLP.Fitness>
52.6436

> <Gold.PLP.PLP>
-47.1102

> <Gold.PLP.part.hbond>
-2.9561

> <Gold.PLP.part.metal>
0.0000

> <Gold.PLP.part.buried>
-0.4896

> <Gold.PLP.part.nonpolar>
-42.6415

> <Gold.PLP.part.repulsive>
0.3215

> <Gold.PLP.ligand.clash>
1.6389

> <Gold.PLP.ligand.torsion>
0.2073

> <Gold.PLP.Chemscore.Hbond>
2.1664

> <Gold.PLP.Chemscore.CHOScore>
0.3388

> <Gold.PLP.Chemscore.Metal>
0.0000

> <Gold.Chemscore.Hbonds>
donor molecule, donor type, donor heavy atom, donor atom, acceptor molecule, acceptor atom, score
      L1  H    20    45       P1  7957  1.00
      P1  H  7997  8009       L1    10  1.00
      P1  H  8022  8030       L1    25  0.24
      L1  C    16    41       P1  8028  0.75

> <Gold.PLP.Chemscore.Internal.Correction>
0.0712

> <Gold.Rescore>
     Score         DG    S(hbond)    S(metal)    S(lipo)     H(rot)  DE(clash)    DE(int)     intcor
     12.85     -18.25       1.54        0.00     118.19       2.43       2.57       2.83       ----

> <Gold.Chemscore.Fitness>
12.8544

> <Gold.Chemscore.DG>
-18.2495

> <Gold.Chemscore.ZeroCoef>
-5.4800

> <Gold.Chemscore.Hbond>
1.5426

> <Gold.Chemscore.Metal>
0.0000

> <Gold.Chemscore.Lipo>
118.1860

> <Gold.Chemscore.Internal_Hbond>
0.0000

> <Gold.Chemscore.DEClash>
2.5656

> <Gold.Chemscore.DEInternal>
2.8294

> <Gold.Chemscore.Rot>
2.4260

> <Gold.Chemscore.Internal.Correction>
   9.000000E+99

> <Gold.Chemscore.Hbonds>
donor molecule, donor type, donor heavy atom, donor atom, acceptor molecule, acceptor atom, score
      L1  H    20    45       P1  7957  0.95
      P1  H  7997  8009       L1    10  0.24
      P1  H  8022  8030       L1    25  0.10

> <Gold.Chemscore.Hbond.Weighted>
-5.1524

> <Gold.Chemscore.Metal.Weighted>
-0.0000

> <Gold.Chemscore.Lipo.Weighted>
-13.8278

> <Gold.Chemscore.Internal_Hbond.Weighted>
0.0000

> <Gold.Chemscore.DEClash.Weighted>
2.5656

> <Gold.Chemscore.DEInternal.Weighted>
2.8294

> <Gold.Chemscore.Rot.Weighted>
6.2107

> <Gold.Chemscore.Internal.Correction.Weighted>
   9.000000E+99

> <Gold.Protein.RotatedTorsions>
[ 6907 6896 6895 6894 ] final  -10.80 input  -60.11 | X-H torsion
[ 7974 7965 7964 7962 ] final  125.48 input  175.53 | X-H torsion
[ 8008 7997 7996 7995 ] final  153.73 input   59.86 | X-H torsion
[ 10167 10162 10161 10158 ] final   99.28 input  -65.29 | X-H torsion
[ 10718 10713 10712 10709 ] final -173.40 input   66.30 | X-H torsion
[ 10763 10752 10751 10750 ] final -175.18 input  -60.55 | X-H torsion
[ 11005 11000 10999 10996 ] final  -62.91 input  -57.11 | X-H torsion

> <Gold.Protein.ActiveResidues>
 VAL166  LYS551  ARG553  GLY616  TRP617  ASP618  TYR619  PRO620  LYS621  CYS622 
 ASP623  PHE694  ASN695  SER759  ASP760  ASP761  ALA762  ILE779  LEU786  VAL792 
 PHE793  MET794  SER795  GLU796  ALA797  LYS798  CYS799  TRP800  GLU811  SER814 

> <Gold.Protein.RotatedAtoms>
  151.3962  135.0964  159.9541 H   0  0  0  0  0  0  0  0  0  0  0  0  # atno 6907 bound_to 6896
  152.5064  133.8932  159.7414 H   0  0  0  0  0  0  0  0  0  0  0  0  # atno 6908 bound_to 6896
  150.9396  133.6616  159.2822 H   0  0  0  0  0  0  0  0  0  0  0  0  # atno 6909 bound_to 6896
  145.0726  139.3718  143.4950 H   0  0  0  0  0  0  0  0  0  0  0  0  # atno 7974 bound_to 7965
  156.2567  140.1986  156.6535 H   0  0  0  0  0  0  0  0  0  0  0  0  # atno 8008 bound_to 7997
  154.6518  140.0571  156.9989 H   0  0  0  0  0  0  0  0  0  0  0  0  # atno 8009 bound_to 7997
  155.1406  140.3242  155.4455 H   0  0  0  0  0  0  0  0  0  0  0  0  # atno 8010 bound_to 7997
  139.7631  144.6947  151.0263 H   0  0  0  0  0  0  0  0  0  0  0  0  # atno 10167 bound_to 10162
  156.7697  130.9444  151.3119 H   0  0  0  0  0  0  0  0  0  0  0  0  # atno 10718 bound_to 10713
  154.5875  135.2842  155.0670 H   0  0  0  0  0  0  0  0  0  0  0  0  # atno 10763 bound_to 10752
  154.1983  135.6429  153.5083 H   0  0  0  0  0  0  0  0  0  0  0  0  # atno 10764 bound_to 10752
  153.0109  135.5463  154.6550 H   0  0  0  0  0  0  0  0  0  0  0  0  # atno 10765 bound_to 10752
  141.1376  133.6645  156.5600 H   0  0  0  0  0  0  0  0  0  0  0  0  # atno 11005 bound_to 11000
  146.3529  140.0478  142.8638 LP  0  0  0  0  0  0  0  0  0  0  0  0  # atno 17320 bound_to 7965
  145.1274  140.9498  143.4564 LP  0  0  0  0  0  0  0  0  0  0  0  0  # atno 17321 bound_to 7965
  140.7809  143.4674  151.0194 LP  0  0  0  0  0  0  0  0  0  0  0  0  # atno 17342 bound_to 10162
  139.8359  143.7628  152.3180 LP  0  0  0  0  0  0  0  0  0  0  0  0  # atno 17343 bound_to 10162
  157.6696  130.9039  150.0011 LP  0  0  0  0  0  0  0  0  0  0  0  0  # atno 17370 bound_to 10713
  156.1286  130.3644  149.9769 LP  0  0  0  0  0  0  0  0  0  0  0  0  # atno 17371 bound_to 10713
  140.3995  134.7369  157.4771 LP  0  0  0  0  0  0  0  0  0  0  0  0  # atno 17394 bound_to 11000
  140.0506  134.6136  155.8866 LP  0  0  0  0  0  0  0  0  0  0  0  0  # atno 17395 bound_to 11000

$$$$
