AV-unprocessed.smi:21|AV-procd|sdf|150|dock1
  -GOLD-   2262015373D 1   1.00000     0.00000
 Structure written by MMmdl.
 62 65  0  0  0  0  0  0  0  0  2 V2000
  145.3984  130.6803  151.1716 C   0  0  0  0  0  0  0  0  0  0  0  0
  146.0505  131.9011  151.4837 O   0  0  0  0  0  0  0  0  0  0  0  0
  145.4062  133.0496  150.9475 C   0  0  2  0  0  0  0  0  0  0  0  0
  145.8114  134.2665  151.7684 C   0  0  0  0  0  0  0  0  0  0  0  0
  144.9016  134.1963  153.0005 C   0  0  1  0  0  0  0  0  0  0  0  0
  144.7365  135.5427  153.7478 C   0  0  0  0  0  0  0  0  0  0  0  0
  145.6609  135.6750  154.8764 N   0  0  0  0  0  0  0  0  0  0  0  0
  146.6614  136.7337  154.8287 C   0  0  0  0  0  0  0  0  0  0  0  0
  145.3624  135.0807  156.0656 C   0  0  0  0  0  0  0  0  0  0  0  0
  144.0668  134.7446  156.3037 N   0  0  0  0  0  0  0  0  0  0  0  0
  143.7107  134.1608  157.4505 C   0  0  0  0  0  0  0  0  0  0  0  0
  144.4777  133.8307  158.4892 N   0  0  0  0  0  0  0  0  0  0  0  0
  145.7797  134.1670  158.2679 C   0  0  0  0  0  0  0  0  0  0  0  0
  146.3068  134.7875  157.0973 C   0  0  0  0  0  0  0  0  0  0  0  0
  147.6752  134.9842  157.2570 N   0  0  0  0  0  0  0  0  0  0  0  0
  147.9402  134.5026  158.4398 C   0  0  0  0  0  0  0  0  0  0  0  0
  146.8598  133.9847  159.1137 N   0  0  0  0  0  0  0  0  0  0  0  0
  146.8719  133.3918  160.4401 C   0  0  0  0  0  0  0  0  0  0  0  0
  145.7445  133.9229  161.3592 C   0  0  1  0  0  0  0  0  0  0  0  0
  145.4124  132.8864  162.4582 C   0  0  0  0  0  0  0  0  0  0  0  0
  145.0223  131.6573  161.8816 O   0  0  0  0  0  0  0  0  0  0  0  0
  146.0482  135.3418  161.9175 C   0  0  1  0  0  0  0  0  0  0  0  0
  147.2293  135.4333  162.8850 C   0  0  0  0  0  0  0  0  0  0  0  0
  148.0204  136.6492  162.3995 C   0  0  0  0  0  0  0  0  0  0  0  0
  147.0968  137.3795  161.6080 O   0  0  0  0  0  0  0  0  0  0  0  0
  146.3478  136.4253  160.8750 C   0  0  0  0  0  0  0  0  0  0  0  0
  143.6411  133.5529  152.5281 N   0  3  1  0  0  0  0  0  0  0  0  0
  142.3960  134.3544  152.5968 C   0  0  0  0  0  0  0  0  0  0  0  0
  143.8917  132.9899  151.1788 C   0  0  0  0  0  0  0  0  0  0  0  0
  145.6658  133.1843  149.8960 H   0  0  0  0  0  0  0  0  0  0  0  0
  145.3410  133.4763  153.6925 H   0  0  0  0  0  0  0  0  0  0  0  0
  145.9454  129.8517  151.6216 H   0  0  0  0  0  0  0  0  0  0  0  0
  145.3705  130.5151  150.0940 H   0  0  0  0  0  0  0  0  0  0  0  0
  144.3784  130.6541  151.5550 H   0  0  0  0  0  0  0  0  0  0  0  0
  146.8725  134.2722  152.0208 H   0  0  0  0  0  0  0  0  0  0  0  0
  145.5999  135.1737  151.2004 H   0  0  0  0  0  0  0  0  0  0  0  0
  144.8291  136.3801  153.0569 H   0  0  0  0  0  0  0  0  0  0  0  0
  143.7276  135.6103  154.1554 H   0  0  0  0  0  0  0  0  0  0  0  0
  147.5465  136.4611  155.4045 H   0  0  0  0  0  0  0  0  0  0  0  0
  146.2566  137.6658  155.2238 H   0  0  0  0  0  0  0  0  0  0  0  0
  146.9808  136.9148  153.8023 H   0  0  0  0  0  0  0  0  0  0  0  0
  142.6616  133.9241  157.5500 H   0  0  0  0  0  0  0  0  0  0  0  0
  148.9375  134.5090  158.8558 H   0  0  0  0  0  0  0  0  0  0  0  0
  146.7866  132.3117  160.3169 H   0  0  0  0  0  0  0  0  0  0  0  0
  147.8455  133.5710  160.8975 H   0  0  0  0  0  0  0  0  0  0  0  0
  144.8511  134.0308  160.7416 H   0  0  0  0  0  0  0  0  0  0  0  0
  146.2714  132.7105  163.1058 H   0  0  0  0  0  0  0  0  0  0  0  0
  144.5973  133.2230  163.0971 H   0  0  0  0  0  0  0  0  0  0  0  0
  145.5895  131.4758  161.1476 H   0  0  0  0  0  0  0  0  0  0  0  0
  145.1848  135.6861  162.4875 H   0  0  0  0  0  0  0  0  0  0  0  0
  146.8647  135.5950  163.9002 H   0  0  0  0  0  0  0  0  0  0  0  0
  147.8531  134.5401  162.9087 H   0  0  0  0  0  0  0  0  0  0  0  0
  148.4108  137.2524  163.2194 H   0  0  0  0  0  0  0  0  0  0  0  0
  148.8592  136.3372  161.7753 H   0  0  0  0  0  0  0  0  0  0  0  0
  146.9606  136.0547  160.0533 H   0  0  0  0  0  0  0  0  0  0  0  0
  145.4446  136.8662  160.4539 H   0  0  0  0  0  0  0  0  0  0  0  0
  142.4729  135.2614  151.9958 H   0  0  0  0  0  0  0  0  0  0  0  0
  142.1581  134.6311  153.6237 H   0  0  0  0  0  0  0  0  0  0  0  0
  141.5555  133.7717  152.2183 H   0  0  0  0  0  0  0  0  0  0  0  0
  143.4028  133.6120  150.4271 H   0  0  0  0  0  0  0  0  0  0  0  0
  143.4757  131.9869  151.0864 H   0  0  0  0  0  0  0  0  0  0  0  0
  143.4978  132.7643  153.1428 H   0  0  0  0  0  0  0  0  0  0  0  0
  1  2  1  0  0  0  0
  1 32  1  0  0  0  0
  1 33  1  0  0  0  0
  1 34  1  0  0  0  0
  2  3  1  0  0  0  0
  3 30  1  0  0  0  0
  3 29  1  0  0  0  0
  3  4  1  0  0  0  0
  4  5  1  0  0  0  0
  4 35  1  0  0  0  0
  4 36  1  0  0  0  0
  5 31  1  0  0  0  0
  5  6  1  0  0  0  0
  5 27  1  0  0  0  0
  6  7  1  0  0  0  0
  6 37  1  0  0  0  0
  6 38  1  0  0  0  0
  7  8  1  0  0  0  0
  7  9  1  0  0  0  0
  8 39  1  0  0  0  0
  8 40  1  0  0  0  0
  8 41  1  0  0  0  0
  9 14  1  0  0  0  0
  9 10  2  0  0  0  0
 10 11  1  0  0  0  0
 11 12  2  0  0  0  0
 11 42  1  0  0  0  0
 12 13  1  0  0  0  0
 13 17  1  0  0  0  0
 13 14  2  0  0  0  0
 14 15  1  0  0  0  0
 15 16  2  0  0  0  0
 16 17  1  0  0  0  0
 16 43  1  0  0  0  0
 17 18  1  0  0  0  0
 18 19  1  0  0  0  0
 18 44  1  0  0  0  0
 18 45  1  0  0  0  0
 19 20  1  0  0  0  0
 19 22  1  0  0  0  0
 19 46  1  0  0  0  0
 20 21  1  0  0  0  0
 20 47  1  0  0  0  0
 20 48  1  0  0  0  0
 21 49  1  0  0  0  0
 22 26  1  0  0  0  0
 22 23  1  0  0  0  0
 22 50  1  0  0  0  0
 23 24  1  0  0  0  0
 23 51  1  0  0  0  0
 23 52  1  0  0  0  0
 24 25  1  0  0  0  0
 24 53  1  0  0  0  0
 24 54  1  0  0  0  0
 25 26  1  0  0  0  0
 26 55  1  0  0  0  0
 26 56  1  0  0  0  0
 27 28  1  0  0  0  0
 27 29  1  0  0  0  0
 27 62  1  0  0  0  0
 28 57  1  0  0  0  0
 28 58  1  0  0  0  0
 28 59  1  0  0  0  0
 29 60  1  0  0  0  0
 29 61  1  0  0  0  0
M  CHG  1  27   1
M  END
> <s_m_source_file>
AV-unprocessed.smi

> <i_m_source_file_index>
21

> <i_lp_mmshare_version>
43012

> <i_f3d_flags>
0

> <s_epik_input>
W0NIM11PW0NASF0xW0NIMl1bQ0BIXShOKFtDSDNdKVtDSDJdMSlbQ0gyXU4oW0NIM10pYyhuW2NIXW4yKWMoYzIzKW5bY0hdbjNbQ0gyXVtDQEhdKFtDSDJdW09IXSlbQ0BASF00W0NIMl1bQ0gyXU9bQ0gyXTQ=

> <s_epik_cmdline>
J2VwaWtfcHl0aG9uJywgJy1waCcsICc3LjAnLCAnLXRuJywgJzgnLCAnLW1hJywgJzIwMCcsICctbWV0YWxfYmluZGluZycsICctaW1hZScsICc8aW5maWxlLm1hZT4nLCAnLW9tYWUnLCAnPG91dGZpbGUubWFlPic=

> <r_lp_tautomer_probability>
1

> <r_epik_Ionization_Penalty>
0.0157465

> <r_epik_Ionization_Penalty_Charging>
0.015354

> <r_epik_Ionization_Penalty_Neutral>
0.000392529

> <r_epik_State_Penalty>
0.0120612

> <r_epik_Charging_Adjusted_Penalty>
0.0274152

> <i_epik_Tot_Q>
1

> <i_epik_Tot_abs_Q>
1

> <r_epik_Metal_State_Penalty>
0.0121253

> <b_epik_Metal_Only>
0

> <s_lp_Force_Field>
OPLS_2005

> <r_lp_Energy>
62.4591

> <b_lp_Chiralities_Consistent>
1

> <s_lp_Variant>
AV-unprocessed.smi:21-30

> <Gold.Version>
5.8.1

> <Gold.Id.Protein>
6NUR|6NUR_protein|mol2

> <Gold.PLP.Fitness>
43.2571

> <Gold.PLP.PLP>
-33.8022

> <Gold.PLP.part.hbond>
-4.0000

> <Gold.PLP.part.metal>
0.0000

> <Gold.PLP.part.buried>
-4.5337

> <Gold.PLP.part.nonpolar>
-26.0678

> <Gold.PLP.part.repulsive>
0.2058

> <Gold.PLP.ligand.clash>
0.0000

> <Gold.PLP.ligand.torsion>
1.5748

> <Gold.PLP.Chemscore.Hbond>
2.9280

> <Gold.PLP.Chemscore.CHOScore>
1.0000

> <Gold.PLP.Chemscore.Metal>
0.0000

> <Gold.Chemscore.Hbonds>
donor molecule, donor type, donor heavy atom, donor atom, acceptor molecule, acceptor atom, score
      L1  H    27    62       P1 10957  1.76
      P1  H  6934  6947       L1    25  0.93
      L1  C    11    42       P1 11000  1.00

> <Gold.PLP.Chemscore.Internal.Correction>
0.8205

> <Gold.Rescore>
     Score         DG    S(hbond)    S(metal)    S(lipo)     H(rot)  DE(clash)    DE(int)     intcor
     11.61     -14.13       1.74        0.00      91.43       3.08       0.19       2.33       ----

> <Gold.Chemscore.Fitness>
11.6063

> <Gold.Chemscore.DG>
-14.1268

> <Gold.Chemscore.ZeroCoef>
-5.4800

> <Gold.Chemscore.Hbond>
1.7437

> <Gold.Chemscore.Metal>
0.0000

> <Gold.Chemscore.Lipo>
91.4269

> <Gold.Chemscore.Internal_Hbond>
0.0000

> <Gold.Chemscore.DEClash>
0.1871

> <Gold.Chemscore.DEInternal>
2.3334

> <Gold.Chemscore.Rot>
3.0758

> <Gold.Chemscore.Internal.Correction>
   9.000000E+99

> <Gold.Chemscore.Hbonds>
donor molecule, donor type, donor heavy atom, donor atom, acceptor molecule, acceptor atom, score
      L1  H    27    62       P1 10957  0.33
      P1  H  6934  6947       L1    25  0.86

> <Gold.Chemscore.Hbond.Weighted>
-5.8240

> <Gold.Chemscore.Metal.Weighted>
-0.0000

> <Gold.Chemscore.Lipo.Weighted>
-10.6969

> <Gold.Chemscore.Internal_Hbond.Weighted>
0.0000

> <Gold.Chemscore.DEClash.Weighted>
0.1871

> <Gold.Chemscore.DEInternal.Weighted>
2.3334

> <Gold.Chemscore.Rot.Weighted>
7.8741

> <Gold.Chemscore.Internal.Correction.Weighted>
   9.000000E+99

> <Gold.Protein.RotatedTorsions>
[ 6907 6896 6895 6894 ] final   92.16 input  -60.11 | X-H torsion
[ 7974 7965 7964 7962 ] final   80.05 input  175.53 | X-H torsion
[ 8008 7997 7996 7995 ] final   92.28 input   59.86 | X-H torsion
[ 10167 10162 10161 10158 ] final  -87.03 input  -65.29 | X-H torsion
[ 10718 10713 10712 10709 ] final  105.60 input   66.30 | X-H torsion
[ 10763 10752 10751 10750 ] final   48.26 input  -60.55 | X-H torsion
[ 11005 11000 10999 10996 ] final   72.88 input  -57.11 | X-H torsion

> <Gold.Protein.ActiveResidues>
 VAL166  LYS551  ARG553  GLY616  TRP617  ASP618  TYR619  PRO620  LYS621  CYS622 
 ASP623  PHE694  ASN695  SER759  ASP760  ASP761  ALA762  ILE779  LEU786  VAL792 
 PHE793  MET794  SER795  GLU796  ALA797  LYS798  CYS799  TRP800  GLU811  SER814 

> <Gold.Protein.RotatedAtoms>
  152.5452  134.1545  159.8531 H   0  0  0  0  0  0  0  0  0  0  0  0  # atno 6907 bound_to 6896
  151.1568  133.4864  159.2602 H   0  0  0  0  0  0  0  0  0  0  0  0  # atno 6908 bound_to 6896
  151.1414  135.0192  159.8682 H   0  0  0  0  0  0  0  0  0  0  0  0  # atno 6909 bound_to 6896
  145.6562  139.2460  143.1948 H   0  0  0  0  0  0  0  0  0  0  0  0  # atno 7974 bound_to 7965
  156.0335  140.3327  155.7166 H   0  0  0  0  0  0  0  0  0  0  0  0  # atno 8008 bound_to 7997
  155.5849  140.0640  157.2791 H   0  0  0  0  0  0  0  0  0  0  0  0  # atno 8009 bound_to 7997
  154.4363  140.1837  156.1003 H   0  0  0  0  0  0  0  0  0  0  0  0  # atno 8010 bound_to 7997
  140.3884  143.2716  151.9296 H   0  0  0  0  0  0  0  0  0  0  0  0  # atno 10167 bound_to 10162
  157.6699  131.0831  150.5881 H   0  0  0  0  0  0  0  0  0  0  0  0  # atno 10718 bound_to 10713
  152.9793  135.5950  154.3897 H   0  0  0  0  0  0  0  0  0  0  0  0  # atno 10763 bound_to 10752
  154.3553  135.2767  155.2351 H   0  0  0  0  0  0  0  0  0  0  0  0  # atno 10764 bound_to 10752
  154.4372  135.6022  153.6161 H   0  0  0  0  0  0  0  0  0  0  0  0  # atno 10765 bound_to 10752
  139.9468  134.7298  156.0959 H   0  0  0  0  0  0  0  0  0  0  0  0  # atno 11005 bound_to 11000
  146.1163  140.7366  142.9479 LP  0  0  0  0  0  0  0  0  0  0  0  0  # atno 17320 bound_to 7965
  144.7105  140.4019  143.7084 LP  0  0  0  0  0  0  0  0  0  0  0  0  # atno 17321 bound_to 7965
  139.4790  144.5751  151.8024 LP  0  0  0  0  0  0  0  0  0  0  0  0  # atno 17342 bound_to 10162
  140.4865  144.1373  150.5942 LP  0  0  0  0  0  0  0  0  0  0  0  0  # atno 17343 bound_to 10162
  156.6182  130.4398  149.5832 LP  0  0  0  0  0  0  0  0  0  0  0  0  # atno 17370 bound_to 10713
  156.2377  130.6832  151.1525 LP  0  0  0  0  0  0  0  0  0  0  0  0  # atno 17371 bound_to 10713
  141.1121  133.6640  156.3003 LP  0  0  0  0  0  0  0  0  0  0  0  0  # atno 17394 bound_to 11000
  140.5815  134.5741  157.5480 LP  0  0  0  0  0  0  0  0  0  0  0  0  # atno 17395 bound_to 11000

$$$$
