AV-unprocessed.smi:2973|AV-procd|sdf|11343|dock6
  -GOLD-   2272016253D 1   1.00000     0.00000
 Structure written by MMmdl.
 50 52  0  0  0  0  0  0  0  0  2 V2000
  152.3745  138.8221  158.0943 C   0  0  0  0  0  0  0  0  0  0  0  0
  152.2409  140.3241  157.7648 C   0  0  2  0  0  0  0  0  0  0  0  0
  152.2094  141.1533  159.0672 C   0  0  0  0  0  0  0  0  0  0  0  0
  152.1413  142.6634  158.7886 C   0  0  0  0  0  0  0  0  0  0  0  0
  150.9351  143.0138  157.9068 C   0  0  0  0  0  0  0  0  0  0  0  0
  150.9632  142.2104  156.5977 C   0  0  0  0  0  0  0  0  0  0  0  0
  151.0273  140.6852  156.8535 C   0  0  2  0  0  0  0  0  0  0  0  0
  149.7670  140.1971  157.3885 N   0  0  0  0  0  0  0  0  0  0  0  0
  149.1313  139.3663  156.5524 C   0  0  0  0  0  0  0  0  0  0  0  0
  148.0377  138.8462  156.7662 O   0  0  0  0  0  0  0  0  0  0  0  0
  149.8906  139.2112  155.4524 N   0  0  0  0  0  0  0  0  0  0  0  0
  149.5065  138.4164  154.2791 C   0  0  0  0  0  0  0  0  0  0  0  0
  148.0775  138.7272  153.8141 C   0  0  0  0  0  0  0  0  0  0  0  0
  147.4094  139.5919  154.3827 O   0  0  0  0  0  0  0  0  0  0  0  0
  147.6212  138.0152  152.7718 N   0  0  0  0  0  0  0  0  0  0  0  0
  146.3121  138.1806  152.1434 C   0  0  0  0  0  0  0  0  0  0  0  0
  146.2291  137.5046  150.7593 C   0  0  0  0  0  0  0  0  0  0  0  0
  145.8938  136.0235  150.8136 C   0  0  0  0  0  0  0  0  0  0  0  0
  144.7052  135.5009  150.2585 C   0  0  0  0  0  0  0  0  0  0  0  0
  144.4418  134.1200  150.3690 C   0  0  0  0  0  0  0  0  0  0  0  0
  145.3704  133.2907  151.0308 C   0  0  0  0  0  0  0  0  0  0  0  0
  146.5435  133.8639  151.5620 C   0  0  0  0  0  0  0  0  0  0  0  0
  146.7618  135.1912  151.4334 N   0  3  0  0  0  0  0  0  0  0  0  0
  151.0194  139.9292  155.5315 C   0  0  0  0  0  0  0  0  0  0  0  0
  151.9151  140.0000  154.6894 O   0  0  0  0  0  0  0  0  0  0  0  0
  151.5062  138.4501  158.6383 H   0  0  0  0  0  0  0  0  0  0  0  0
  153.2513  138.6385  158.7157 H   0  0  0  0  0  0  0  0  0  0  0  0
  152.4901  138.2175  157.1949 H   0  0  0  0  0  0  0  0  0  0  0  0
  153.1478  140.6092  157.2286 H   0  0  0  0  0  0  0  0  0  0  0  0
  151.3536  140.8572  159.6755 H   0  0  0  0  0  0  0  0  0  0  0  0
  153.0962  140.9394  159.6651 H   0  0  0  0  0  0  0  0  0  0  0  0
  152.0851  143.2126  159.7290 H   0  0  0  0  0  0  0  0  0  0  0  0
  153.0597  142.9862  158.2968 H   0  0  0  0  0  0  0  0  0  0  0  0
  150.0107  142.8107  158.4488 H   0  0  0  0  0  0  0  0  0  0  0  0
  150.9348  144.0816  157.6863 H   0  0  0  0  0  0  0  0  0  0  0  0
  150.0877  142.4625  155.9965 H   0  0  0  0  0  0  0  0  0  0  0  0
  151.8309  142.5224  156.0145 H   0  0  0  0  0  0  0  0  0  0  0  0
  149.4102  140.4797  158.2898 H   0  0  0  0  0  0  0  0  0  0  0  0
  150.2110  138.5997  153.4655 H   0  0  0  0  0  0  0  0  0  0  0  0
  149.5752  137.3499  154.4987 H   0  0  0  0  0  0  0  0  0  0  0  0
  148.2330  137.3174  152.3729 H   0  0  0  0  0  0  0  0  0  0  0  0
  145.5628  137.7446  152.8042 H   0  0  0  0  0  0  0  0  0  0  0  0
  146.0598  139.2390  152.0605 H   0  0  0  0  0  0  0  0  0  0  0  0
  145.4793  138.0131  150.1518 H   0  0  0  0  0  0  0  0  0  0  0  0
  147.1765  137.6299  150.2337 H   0  0  0  0  0  0  0  0  0  0  0  0
  143.9950  136.1499  149.7670 H   0  0  0  0  0  0  0  0  0  0  0  0
  143.5330  133.7043  149.9593 H   0  0  0  0  0  0  0  0  0  0  0  0
  145.1832  132.2317  151.1328 H   0  0  0  0  0  0  0  0  0  0  0  0
  147.3063  133.3058  152.0851 H   0  0  0  0  0  0  0  0  0  0  0  0
  147.6138  135.5851  151.8332 H   0  0  0  0  0  0  0  0  0  0  0  0
  1  2  1  0  0  0  0
  1 26  1  0  0  0  0
  1 27  1  0  0  0  0
  1 28  1  0  0  0  0
  2  7  1  0  0  0  0
  2  3  1  0  0  0  0
  2 29  1  0  0  0  0
  3  4  1  0  0  0  0
  3 30  1  0  0  0  0
  3 31  1  0  0  0  0
  4  5  1  0  0  0  0
  4 32  1  0  0  0  0
  4 33  1  0  0  0  0
  5  6  1  0  0  0  0
  5 34  1  0  0  0  0
  5 35  1  0  0  0  0
  6  7  1  0  0  0  0
  6 36  1  0  0  0  0
  6 37  1  0  0  0  0
  7 24  1  0  0  0  0
  7  8  1  0  0  0  0
  8  9  1  0  0  0  0
  8 38  1  0  0  0  0
  9 10  2  0  0  0  0
  9 11  1  0  0  0  0
 11 12  1  0  0  0  0
 11 24  1  0  0  0  0
 12 13  1  0  0  0  0
 12 39  1  0  0  0  0
 12 40  1  0  0  0  0
 13 14  2  0  0  0  0
 13 15  1  0  0  0  0
 15 16  1  0  0  0  0
 15 41  1  0  0  0  0
 16 17  1  0  0  0  0
 16 42  1  0  0  0  0
 16 43  1  0  0  0  0
 17 18  1  0  0  0  0
 17 44  1  0  0  0  0
 17 45  1  0  0  0  0
 18 23  1  0  0  0  0
 18 19  2  0  0  0  0
 19 20  1  0  0  0  0
 19 46  1  0  0  0  0
 20 21  2  0  0  0  0
 20 47  1  0  0  0  0
 21 22  1  0  0  0  0
 21 48  1  0  0  0  0
 22 23  2  0  0  0  0
 22 49  1  0  0  0  0
 23 50  1  0  0  0  0
 24 25  2  0  0  0  0
M  CHG  1  23   1
M  END
> <s_m_source_file>
AV-unprocessed.smi

> <i_m_source_file_index>
2973

> <i_lp_mmshare_version>
43012

> <i_f3d_flags>
0

> <s_epik_input>
W0NIMl0xW0NIMl1bQ0gyXVtDSDJdW0NAQEhdKFtDSDNdKVtDQF0xMltOSF1DKD1PKU4oQzI9TylbQ0gyXUMoPU8pW05IXVtDSDJdW0NIMl1jM1tjSF1bY0hdW2NIXVtjSF1uMw==

> <s_epik_cmdline>
J2VwaWtfcHl0aG9uJywgJy1waCcsICc3LjAnLCAnLXRuJywgJzgnLCAnLW1hJywgJzIwMCcsICctbWV0YWxfYmluZGluZycsICctaW1hZScsICc8aW5maWxlLm1hZT4nLCAnLW9tYWUnLCAnPG91dGZpbGUubWFlPic=

> <r_lp_tautomer_probability>
1

> <r_epik_Ionization_Penalty>
1.90043

> <r_epik_Ionization_Penalty_Charging>
1.90039

> <r_epik_Ionization_Penalty_Neutral>
4.65525e-05

> <r_epik_State_Penalty>
2.02162

> <r_epik_Charging_Adjusted_Penalty>
3.922

> <i_epik_Tot_Q>
1

> <i_epik_Tot_abs_Q>
1

> <r_epik_Metal_State_Penalty>
2.06631

> <b_epik_Metal_Only>
0

> <s_lp_Force_Field>
OPLS_2005

> <r_lp_Energy>
26.4657

> <b_lp_Chiralities_Consistent>
1

> <s_lp_Variant>
AV-unprocessed.smi:2973-7

> <Gold.Version>
5.8.1

> <Gold.Id.Protein>
6NUR|6NUR_protein|mol2

> <Gold.PLP.Fitness>
51.4369

> <Gold.PLP.PLP>
-40.1389

> <Gold.PLP.part.hbond>
-2.7456

> <Gold.PLP.part.metal>
0.0000

> <Gold.PLP.part.buried>
-3.1785

> <Gold.PLP.part.nonpolar>
-36.5722

> <Gold.PLP.part.repulsive>
0.3603

> <Gold.PLP.ligand.clash>
0.0000

> <Gold.PLP.ligand.torsion>
0.3551

> <Gold.PLP.Chemscore.Hbond>
3.9920

> <Gold.PLP.Chemscore.CHOScore>
0.0000

> <Gold.PLP.Chemscore.Metal>
0.0000

> <Gold.Chemscore.Hbonds>
donor molecule, donor type, donor heavy atom, donor atom, acceptor molecule, acceptor atom, score
      L1  H    15    41       P1  7948  0.63
      L1  H    23    50       P1  7948  1.59
      P1  H  7989  7998       L1    25  0.82

> <Gold.PLP.Chemscore.Internal.Correction>
0.0322

> <Gold.Rescore>
     Score         DG    S(hbond)    S(metal)    S(lipo)     H(rot)  DE(clash)    DE(int)     intcor
     18.27     -22.71       2.96        0.00     105.73       1.96       1.58       2.86       ----

> <Gold.Chemscore.Fitness>
18.2658

> <Gold.Chemscore.DG>
-22.7082

> <Gold.Chemscore.ZeroCoef>
-5.4800

> <Gold.Chemscore.Hbond>
2.9597

> <Gold.Chemscore.Metal>
0.0000

> <Gold.Chemscore.Lipo>
105.7275

> <Gold.Chemscore.Internal_Hbond>
0.0000

> <Gold.Chemscore.DEClash>
1.5807

> <Gold.Chemscore.DEInternal>
2.8617

> <Gold.Chemscore.Rot>
1.9638

> <Gold.Chemscore.Internal.Correction>
   9.000000E+99

> <Gold.Chemscore.Hbonds>
donor molecule, donor type, donor heavy atom, donor atom, acceptor molecule, acceptor atom, score
      L1  H    15    41       P1  7948  0.63
      L1  H    23    50       P1  7948  0.77
      P1  H  7989  7998       L1    25  0.73

> <Gold.Chemscore.Hbond.Weighted>
-9.8855

> <Gold.Chemscore.Metal.Weighted>
-0.0000

> <Gold.Chemscore.Lipo.Weighted>
-12.3701

> <Gold.Chemscore.Internal_Hbond.Weighted>
0.0000

> <Gold.Chemscore.DEClash.Weighted>
1.5807

> <Gold.Chemscore.DEInternal.Weighted>
2.8617

> <Gold.Chemscore.Rot.Weighted>
5.0274

> <Gold.Chemscore.Internal.Correction.Weighted>
   9.000000E+99

> <Gold.Protein.RotatedTorsions>
[ 6907 6896 6895 6894 ] final -160.82 input  -60.11 | X-H torsion
[ 7974 7965 7964 7962 ] final  -20.27 input  175.53 | X-H torsion
[ 8008 7997 7996 7995 ] final -140.01 input   59.86 | X-H torsion
[ 10167 10162 10161 10158 ] final  -89.82 input  -65.29 | X-H torsion
[ 10718 10713 10712 10709 ] final   47.89 input   66.30 | X-H torsion
[ 10763 10752 10751 10750 ] final  -49.14 input  -60.55 | X-H torsion
[ 11005 11000 10999 10996 ] final   28.04 input  -57.11 | X-H torsion

> <Gold.Protein.ActiveResidues>
 VAL166  LYS551  ARG553  GLY616  TRP617  ASP618  TYR619  PRO620  LYS621  CYS622 
 ASP623  PHE694  ASN695  SER759  ASP760  ASP761  ALA762  ILE779  LEU786  VAL792 
 PHE793  MET794  SER795  GLU796  ALA797  LYS798  CYS799  TRP800  GLU811  SER814 

> <Gold.Protein.RotatedAtoms>
  151.3550  133.3911  159.2683 H   0  0  0  0  0  0  0  0  0  0  0  0  # atno 6907 bound_to 6896
  150.9771  134.9134  159.7832 H   0  0  0  0  0  0  0  0  0  0  0  0  # atno 6908 bound_to 6896
  152.5204  134.3513  159.9304 H   0  0  0  0  0  0  0  0  0  0  0  0  # atno 6909 bound_to 6896
  146.1797  140.4178  142.8499 H   0  0  0  0  0  0  0  0  0  0  0  0  # atno 7974 bound_to 7965
  155.4543  140.0541  157.2998 H   0  0  0  0  0  0  0  0  0  0  0  0  # atno 8008 bound_to 7997
  154.4764  140.2063  155.9824 H   0  0  0  0  0  0  0  0  0  0  0  0  # atno 8009 bound_to 7997
  156.1138  140.3199  155.8115 H   0  0  0  0  0  0  0  0  0  0  0  0  # atno 8010 bound_to 7997
  140.3611  143.2841  151.9613 H   0  0  0  0  0  0  0  0  0  0  0  0  # atno 10167 bound_to 10162
  157.4631  130.8208  149.7907 H   0  0  0  0  0  0  0  0  0  0  0  0  # atno 10718 bound_to 10713
  154.0893  135.6579  153.4850 H   0  0  0  0  0  0  0  0  0  0  0  0  # atno 10763 bound_to 10752
  153.0327  135.5198  154.7396 H   0  0  0  0  0  0  0  0  0  0  0  0  # atno 10764 bound_to 10752
  154.6515  135.3002  154.9949 H   0  0  0  0  0  0  0  0  0  0  0  0  # atno 10765 bound_to 10752
  140.3199  134.2555  155.7719 H   0  0  0  0  0  0  0  0  0  0  0  0  # atno 11005 bound_to 11000
  144.8295  140.6683  143.6300 LP  0  0  0  0  0  0  0  0  0  0  0  0  # atno 17320 bound_to 7965
  145.4111  139.1580  143.4125 LP  0  0  0  0  0  0  0  0  0  0  0  0  # atno 17321 bound_to 7965
  139.4814  144.5992  151.7636 LP  0  0  0  0  0  0  0  0  0  0  0  0  # atno 17342 bound_to 10162
  140.5126  144.1001  150.5999 LP  0  0  0  0  0  0  0  0  0  0  0  0  # atno 17343 bound_to 10162
  156.0038  130.3866  150.2508 LP  0  0  0  0  0  0  0  0  0  0  0  0  # atno 17370 bound_to 10713
  157.0686  131.0110  151.3198 LP  0  0  0  0  0  0  0  0  0  0  0  0  # atno 17371 bound_to 10713
  141.2089  133.7764  157.0030 LP  0  0  0  0  0  0  0  0  0  0  0  0  # atno 17394 bound_to 11000
  140.0951  134.9569  157.1837 LP  0  0  0  0  0  0  0  0  0  0  0  0  # atno 17395 bound_to 11000

$$$$
