AV-unprocessed.smi:1106|AV-procd|sdf|4777|dock1
  -GOLD-   22720 3313D 1   1.00000     0.00000
 Structure written by MMmdl.
 48 49  0  0  0  0  0  0  0  0  2 V2000
  150.1788  144.9805  160.4601 C   0  0  0  0  0  0  0  0  0  0  0  0
  151.6666  144.5991  160.4628 C   0  0  0  0  0  0  0  0  0  0  0  0
  151.9442  143.4130  159.6948 N   0  0  0  0  0  0  0  0  0  0  0  0
  152.6631  142.3583  160.2231 C   0  0  0  0  0  0  0  0  0  0  0  0
  152.9409  141.2375  159.5229 C   0  0  0  0  0  0  0  0  0  0  0  0
  153.6809  140.1604  160.0925 C   0  0  0  0  0  0  0  0  0  0  0  0
  154.2995  139.2915  160.5415 N   0  0  0  0  0  0  0  0  0  0  0  0
  152.4923  141.0793  158.1415 C   0  0  0  0  0  0  0  0  0  0  0  0
  152.7042  140.0708  157.4654 O   0  0  0  0  0  0  0  0  0  0  0  0
  151.7735  142.1866  157.6244 N   0  0  0  0  0  0  0  0  0  0  0  0
  151.3046  142.0936  156.2492 C   0  0  0  0  0  0  0  0  0  0  0  0
  150.4331  140.8504  155.9616 C   0  0  2  0  0  0  0  0  0  0  0  0
  151.2267  139.9367  155.2324 O   0  0  0  0  0  0  0  0  0  0  0  0
  149.1633  141.1602  155.1401 C   0  0  0  0  0  0  0  0  0  0  0  0
  148.0595  141.6926  155.9788 N   0  3  2  0  0  0  0  0  0  0  0  0
  148.0255  141.0712  157.3275 C   0  0  0  0  0  0  0  0  0  0  0  0
  146.9648  141.7375  158.2203 C   0  0  0  0  0  0  0  0  0  0  0  0
  145.5717  141.6836  157.5706 C   0  0  1  0  0  0  0  0  0  0  0  0
  144.5104  142.3732  158.4397 C   0  0  0  0  0  0  0  0  0  0  0  0
  145.6460  142.3017  156.1645 C   0  0  0  0  0  0  0  0  0  0  0  0
  146.7313  141.6221  155.3128 C   0  0  0  0  0  0  0  0  0  0  0  0
  151.4734  143.3582  158.3622 C   0  0  0  0  0  0  0  0  0  0  0  0
  150.8228  144.2864  157.8745 O   0  0  0  0  0  0  0  0  0  0  0  0
  150.0173  145.9045  161.0155 H   0  0  0  0  0  0  0  0  0  0  0  0
  149.5639  144.2074  160.9217 H   0  0  0  0  0  0  0  0  0  0  0  0
  149.8148  145.1361  159.4442 H   0  0  0  0  0  0  0  0  0  0  0  0
  152.2670  145.3929  160.0160 H   0  0  0  0  0  0  0  0  0  0  0  0
  152.0586  144.4401  161.4692 H   0  0  0  0  0  0  0  0  0  0  0  0
  153.0180  142.4313  161.2413 H   0  0  0  0  0  0  0  0  0  0  0  0
  150.7845  143.0170  155.9908 H   0  0  0  0  0  0  0  0  0  0  0  0
  152.1977  142.1030  155.6208 H   0  0  0  0  0  0  0  0  0  0  0  0
  150.1720  140.3738  156.9055 H   0  0  0  0  0  0  0  0  0  0  0  0
  150.9219  139.0604  155.4145 H   0  0  0  0  0  0  0  0  0  0  0  0
  149.3736  141.8788  154.3477 H   0  0  0  0  0  0  0  0  0  0  0  0
  148.8453  140.2433  154.6410 H   0  0  0  0  0  0  0  0  0  0  0  0
  147.8240  140.0027  157.2336 H   0  0  0  0  0  0  0  0  0  0  0  0
  149.0024  141.1696  157.8029 H   0  0  0  0  0  0  0  0  0  0  0  0
  146.9430  141.2444  159.1929 H   0  0  0  0  0  0  0  0  0  0  0  0
  147.2468  142.7750  158.4068 H   0  0  0  0  0  0  0  0  0  0  0  0
  145.2849  140.6358  157.4670 H   0  0  0  0  0  0  0  0  0  0  0  0
  144.7381  143.4302  158.5821 H   0  0  0  0  0  0  0  0  0  0  0  0
  144.4489  141.9101  159.4250 H   0  0  0  0  0  0  0  0  0  0  0  0
  143.5232  142.3043  157.9821 H   0  0  0  0  0  0  0  0  0  0  0  0
  144.6802  142.2122  155.6657 H   0  0  0  0  0  0  0  0  0  0  0  0
  145.8570  143.3698  156.2384 H   0  0  0  0  0  0  0  0  0  0  0  0
  146.7674  142.1057  154.3373 H   0  0  0  0  0  0  0  0  0  0  0  0
  146.4672  140.5783  155.1358 H   0  0  0  0  0  0  0  0  0  0  0  0
  148.2676  142.6703  156.1267 H   0  0  0  0  0  0  0  0  0  0  0  0
  1  2  1  0  0  0  0
  1 24  1  0  0  0  0
  1 25  1  0  0  0  0
  1 26  1  0  0  0  0
  2  3  1  0  0  0  0
  2 27  1  0  0  0  0
  2 28  1  0  0  0  0
  3 22  1  0  0  0  0
  3  4  1  0  0  0  0
  4  5  2  0  0  0  0
  4 29  1  0  0  0  0
  5  6  1  0  0  0  0
  5  8  1  0  0  0  0
  6  7  3  0  0  0  0
  8  9  2  0  0  0  0
  8 10  1  0  0  0  0
 10 11  1  0  0  0  0
 10 22  1  0  0  0  0
 11 12  1  0  0  0  0
 11 30  1  0  0  0  0
 11 31  1  0  0  0  0
 12 13  1  0  0  0  0
 12 14  1  0  0  0  0
 12 32  1  0  0  0  0
 13 33  1  0  0  0  0
 14 15  1  0  0  0  0
 14 34  1  0  0  0  0
 14 35  1  0  0  0  0
 15 21  1  0  0  0  0
 15 16  1  0  0  0  0
 15 48  1  0  0  0  0
 16 17  1  0  0  0  0
 16 36  1  0  0  0  0
 16 37  1  0  0  0  0
 17 18  1  0  0  0  0
 17 38  1  0  0  0  0
 17 39  1  0  0  0  0
 18 19  1  0  0  0  0
 18 20  1  0  0  0  0
 18 40  1  0  0  0  0
 19 41  1  0  0  0  0
 19 42  1  0  0  0  0
 19 43  1  0  0  0  0
 20 21  1  0  0  0  0
 20 44  1  0  0  0  0
 20 45  1  0  0  0  0
 21 46  1  0  0  0  0
 21 47  1  0  0  0  0
 22 23  2  0  0  0  0
M  CHG  1  15   1
M  END
> <s_m_source_file>
AV-unprocessed.smi

> <i_m_source_file_index>
1106

> <i_lp_mmshare_version>
43012

> <i_f3d_flags>
0

> <s_epik_input>
W0NIM11bQ0gyXW4xW2NIXWMoQyNOKWMoPU8pbihjMT1PKVtDSDJdW0NASF0oW09IXSlbQ0gyXU4yW0NIMl1bQ0gyXVtDSF0oW0NIM10pW0NIMl1bQ0gyXTI=

> <s_epik_cmdline>
J2VwaWtfcHl0aG9uJywgJy1waCcsICc3LjAnLCAnLXRuJywgJzgnLCAnLW1hJywgJzIwMCcsICctbWV0YWxfYmluZGluZycsICctaW1hZScsICc8aW5maWxlLm1hZT4nLCAnLW9tYWUnLCAnPG91dGZpbGUubWFlPic=

> <r_epik_Ionization_Penalty>
0.00136816

> <r_epik_Ionization_Penalty_Charging>
0.00136813

> <r_epik_Ionization_Penalty_Neutral>
3.19882e-08

> <r_epik_State_Penalty>
0.000910892

> <r_epik_Charging_Adjusted_Penalty>
0.00227902

> <i_epik_Tot_Q>
1

> <i_epik_Tot_abs_Q>
1

> <r_epik_Metal_State_Penalty>
-0

> <b_epik_Metal_Only>
0

> <s_lp_Force_Field>
OPLS_2005

> <r_lp_Energy>
27.8711

> <b_lp_Chiralities_Consistent>
1

> <s_lp_Variant>
AV-unprocessed.smi:1106-1

> <Gold.Version>
5.8.1

> <Gold.Id.Protein>
6NUR|6NUR_protein|mol2

> <Gold.PLP.Fitness>
48.6380

> <Gold.PLP.PLP>
-38.6984

> <Gold.PLP.part.hbond>
-3.0000

> <Gold.PLP.part.metal>
0.0000

> <Gold.PLP.part.buried>
-8.6221

> <Gold.PLP.part.nonpolar>
-27.8348

> <Gold.PLP.part.repulsive>
0.5372

> <Gold.PLP.ligand.clash>
0.0000

> <Gold.PLP.ligand.torsion>
1.1278

> <Gold.PLP.Chemscore.Hbond>
4.0000

> <Gold.PLP.Chemscore.CHOScore>
0.0000

> <Gold.PLP.Chemscore.Metal>
0.0000

> <Gold.Chemscore.Hbonds>
donor molecule, donor type, donor heavy atom, donor atom, acceptor molecule, acceptor atom, score
      L1  H    15    48       P1  8028  1.27
      P1  H  7989  7998       L1    13  1.00
      P1  H  7997  8008       L1     9  0.98

> <Gold.PLP.Chemscore.Internal.Correction>
0.1952

> <Gold.Rescore>
     Score         DG    S(hbond)    S(metal)    S(lipo)     H(rot)  DE(clash)    DE(int)     intcor
     10.89     -15.97       2.38        0.00      76.04       2.48       1.50       3.58       ----

> <Gold.Chemscore.Fitness>
10.8920

> <Gold.Chemscore.DG>
-15.9701

> <Gold.Chemscore.ZeroCoef>
-5.4800

> <Gold.Chemscore.Hbond>
2.3809

> <Gold.Chemscore.Metal>
0.0000

> <Gold.Chemscore.Lipo>
76.0376

> <Gold.Chemscore.Internal_Hbond>
0.0000

> <Gold.Chemscore.DEClash>
1.4992

> <Gold.Chemscore.DEInternal>
3.5789

> <Gold.Chemscore.Rot>
2.4838

> <Gold.Chemscore.Internal.Correction>
   9.000000E+99

> <Gold.Chemscore.Hbonds>
donor molecule, donor type, donor heavy atom, donor atom, acceptor molecule, acceptor atom, score
      L1  H    15    48       P1  8028  0.56
      P1  H  7989  7998       L1    13  0.47
      P1  H  7997  8008       L1     9  0.65

> <Gold.Chemscore.Hbond.Weighted>
-7.9522

> <Gold.Chemscore.Metal.Weighted>
-0.0000

> <Gold.Chemscore.Lipo.Weighted>
-8.8964

> <Gold.Chemscore.Internal_Hbond.Weighted>
0.0000

> <Gold.Chemscore.DEClash.Weighted>
1.4992

> <Gold.Chemscore.DEInternal.Weighted>
3.5789

> <Gold.Chemscore.Rot.Weighted>
6.3585

> <Gold.Chemscore.Internal.Correction.Weighted>
   9.000000E+99

> <Gold.Protein.RotatedTorsions>
[ 6907 6896 6895 6894 ] final -125.56 input  -60.11 | X-H torsion
[ 7974 7965 7964 7962 ] final   12.75 input  175.53 | X-H torsion
[ 8008 7997 7996 7995 ] final  -79.08 input   59.86 | X-H torsion
[ 10167 10162 10161 10158 ] final -132.77 input  -65.29 | X-H torsion
[ 10718 10713 10712 10709 ] final -141.35 input   66.30 | X-H torsion
[ 10763 10752 10751 10750 ] final   43.79 input  -60.55 | X-H torsion
[ 11005 11000 10999 10996 ] final  104.02 input  -57.11 | X-H torsion

> <Gold.Protein.ActiveResidues>
 VAL166  LYS551  ARG553  GLY616  TRP617  ASP618  TYR619  PRO620  LYS621  CYS622 
 ASP623  PHE694  ASN695  SER759  ASP760  ASP761  ALA762  ILE779  LEU786  VAL792 
 PHE793  MET794  SER795  GLU796  ALA797  LYS798  CYS799  TRP800  GLU811  SER814 

> <Gold.Protein.RotatedAtoms>
  150.8880  133.7282  159.2912 H   0  0  0  0  0  0  0  0  0  0  0  0  # atno 6907 bound_to 6896
  151.4841  135.1052  159.9795 H   0  0  0  0  0  0  0  0  0  0  0  0  # atno 6908 bound_to 6896
  152.4802  133.8189  159.7098 H   0  0  0  0  0  0  0  0  0  0  0  0  # atno 6909 bound_to 6896
  146.2344  139.9291  142.8499 H   0  0  0  0  0  0  0  0  0  0  0  0  # atno 7974 bound_to 7965
  154.5750  140.0684  156.9021 H   0  0  0  0  0  0  0  0  0  0  0  0  # atno 8008 bound_to 7997
  155.2565  140.3355  155.4259 H   0  0  0  0  0  0  0  0  0  0  0  0  # atno 8009 bound_to 7997
  156.2147  140.1773  156.7600 H   0  0  0  0  0  0  0  0  0  0  0  0  # atno 8010 bound_to 7997
  139.9052  143.6560  152.2587 H   0  0  0  0  0  0  0  0  0  0  0  0  # atno 10167 bound_to 10162
  156.3330  130.7596  151.1718 H   0  0  0  0  0  0  0  0  0  0  0  0  # atno 10718 bound_to 10713
  152.9853  135.6091  154.3168 H   0  0  0  0  0  0  0  0  0  0  0  0  # atno 10763 bound_to 10752
  154.2880  135.2775  155.2669 H   0  0  0  0  0  0  0  0  0  0  0  0  # atno 10764 bound_to 10752
  154.4978  135.5875  153.6564 H   0  0  0  0  0  0  0  0  0  0  0  0  # atno 10765 bound_to 10752
  139.8788  134.9285  156.5298 H   0  0  0  0  0  0  0  0  0  0  0  0  # atno 11005 bound_to 11000
  145.2062  140.9876  143.4127 LP  0  0  0  0  0  0  0  0  0  0  0  0  # atno 17320 bound_to 7965
  144.9731  139.3860  143.6299 LP  0  0  0  0  0  0  0  0  0  0  0  0  # atno 17321 bound_to 7965
  139.6990  144.7637  151.1305 LP  0  0  0  0  0  0  0  0  0  0  0  0  # atno 17342 bound_to 10162
  140.7698  143.5483  150.9233 LP  0  0  0  0  0  0  0  0  0  0  0  0  # atno 17343 bound_to 10162
  157.7434  131.0476  150.4951 LP  0  0  0  0  0  0  0  0  0  0  0  0  # atno 17370 bound_to 10713
  156.5120  130.4141  149.6296 LP  0  0  0  0  0  0  0  0  0  0  0  0  # atno 17371 bound_to 10713
  140.8389  133.8220  155.9056 LP  0  0  0  0  0  0  0  0  0  0  0  0  # atno 17394 bound_to 11000
  140.9257  134.2086  157.4898 LP  0  0  0  0  0  0  0  0  0  0  0  0  # atno 17395 bound_to 11000

$$$$
