AV-unprocessed.smi:1995|AV-procd|sdf|8076|dock2
  -GOLD-   2272010283D 1   1.00000     0.00000
 Structure written by MMmdl.
 42 43  0  0  0  0  0  0  0  0  1 V2000
  148.3650  138.3489  157.9640 C   0  0  0  0  0  0  0  0  0  0  0  0
  148.9271  136.9516  157.6437 C   0  0  0  0  0  0  0  0  0  0  0  0
  148.9260  136.5542  156.1332 C   0  0  1  0  0  0  0  0  0  0  0  0
  149.5126  135.1187  156.0590 C   0  0  0  0  0  0  0  0  0  0  0  0
  147.4440  136.5140  155.6363 C   0  0  0  0  0  0  0  0  0  0  0  0
  147.2816  135.9575  154.2923 N   0  0  0  0  0  0  0  0  0  0  0  0
  146.3223  135.1028  153.9074 C   0  0  0  0  0  0  0  0  0  0  0  0
  145.4484  134.6756  154.6618 O   0  0  0  0  0  0  0  0  0  0  0  0
  146.4442  134.7910  152.6069 N   0  0  0  0  0  0  0  0  0  0  0  0
  145.6109  133.9426  151.8362 C   0  0  0  0  0  0  0  0  0  0  0  0
  144.8973  134.4710  150.8400 N   0  0  0  0  0  0  0  0  0  0  0  0
  144.1255  133.5102  150.1801 C   0  0  0  0  0  0  0  0  0  0  0  0
  144.2660  132.2436  150.6907 C   0  0  0  0  0  0  0  0  0  0  0  0
  145.3801  132.2030  152.0305 S   0  0  0  0  0  0  0  0  0  0  0  0
  149.7586  137.4964  155.3319 N   0  0  0  0  0  0  0  0  0  0  0  0
  151.1295  137.6921  155.8199 C   0  0  0  0  0  0  0  0  0  0  0  0
  151.9658  138.5531  154.8579 C   0  0  0  0  0  0  0  0  0  0  0  0
  151.3244  139.8067  154.6566 O   0  0  0  0  0  0  0  0  0  0  0  0
  150.0093  139.6664  154.1325 C   0  0  0  0  0  0  0  0  0  0  0  0
  149.1575  138.8135  155.0885 C   0  0  0  0  0  0  0  0  0  0  0  0
  148.3922  138.5340  159.0378 H   0  0  0  0  0  0  0  0  0  0  0  0
  147.3285  138.4530  157.6438 H   0  0  0  0  0  0  0  0  0  0  0  0
  148.9447  139.1379  157.4856 H   0  0  0  0  0  0  0  0  0  0  0  0
  149.9430  136.9135  158.0384 H   0  0  0  0  0  0  0  0  0  0  0  0
  148.3819  136.2118  158.2293 H   0  0  0  0  0  0  0  0  0  0  0  0
  149.0824  134.4601  156.8140 H   0  0  0  0  0  0  0  0  0  0  0  0
  150.5923  135.1155  156.2097 H   0  0  0  0  0  0  0  0  0  0  0  0
  149.3181  134.6478  155.0951 H   0  0  0  0  0  0  0  0  0  0  0  0
  146.8408  135.8876  156.2925 H   0  0  0  0  0  0  0  0  0  0  0  0
  146.9902  137.5044  155.6781 H   0  0  0  0  0  0  0  0  0  0  0  0
  147.9544  136.2534  153.6003 H   0  0  0  0  0  0  0  0  0  0  0  0
  147.2129  135.2147  152.1085 H   0  0  0  0  0  0  0  0  0  0  0  0
  143.5014  133.8162  149.3536 H   0  0  0  0  0  0  0  0  0  0  0  0
  143.7835  131.3355  150.3607 H   0  0  0  0  0  0  0  0  0  0  0  0
  151.1179  138.1749  156.7968 H   0  0  0  0  0  0  0  0  0  0  0  0
  151.6411  136.7398  155.9443 H   0  0  0  0  0  0  0  0  0  0  0  0
  152.9600  138.7250  155.2702 H   0  0  0  0  0  0  0  0  0  0  0  0
  152.0994  138.0453  153.9014 H   0  0  0  0  0  0  0  0  0  0  0  0
  149.5673  140.6555  154.0113 H   0  0  0  0  0  0  0  0  0  0  0  0
  150.0504  139.2110  153.1417 H   0  0  0  0  0  0  0  0  0  0  0  0
  148.1659  138.7158  154.6499 H   0  0  0  0  0  0  0  0  0  0  0  0
  149.0373  139.3552  156.0265 H   0  0  0  0  0  0  0  0  0  0  0  0
  1  2  1  0  0  0  0
  1 21  1  0  0  0  0
  1 22  1  0  0  0  0
  1 23  1  0  0  0  0
  2  3  1  0  0  0  0
  2 24  1  0  0  0  0
  2 25  1  0  0  0  0
  3  4  1  0  0  0  0
  3  5  1  0  0  0  0
  3 15  1  0  0  0  0
  4 26  1  0  0  0  0
  4 27  1  0  0  0  0
  4 28  1  0  0  0  0
  5  6  1  0  0  0  0
  5 29  1  0  0  0  0
  5 30  1  0  0  0  0
  6  7  1  0  0  0  0
  6 31  1  0  0  0  0
  7  8  2  0  0  0  0
  7  9  1  0  0  0  0
  9 10  1  0  0  0  0
  9 32  1  0  0  0  0
 10 14  1  0  0  0  0
 10 11  2  0  0  0  0
 11 12  1  0  0  0  0
 12 13  2  0  0  0  0
 12 33  1  0  0  0  0
 13 14  1  0  0  0  0
 13 34  1  0  0  0  0
 15 20  1  0  0  0  0
 15 16  1  0  0  0  0
 16 17  1  0  0  0  0
 16 35  1  0  0  0  0
 16 36  1  0  0  0  0
 17 18  1  0  0  0  0
 17 37  1  0  0  0  0
 17 38  1  0  0  0  0
 18 19  1  0  0  0  0
 19 20  1  0  0  0  0
 19 39  1  0  0  0  0
 19 40  1  0  0  0  0
 20 41  1  0  0  0  0
 20 42  1  0  0  0  0
M  END
> <s_m_source_file>
AV-unprocessed.smi

> <i_m_source_file_index>
1995

> <i_lp_mmshare_version>
43012

> <i_f3d_flags>
0

> <s_epik_input>
W0NIMl0xW0NIMl1PW0NIMl1bQ0gyXU4xW0NAQF0oW0NIM10pKFtDSDJdW0NIM10pW0NIMl1bTkhdQyg9TylbTkhdYzJuW2NIXVtjSF1zMg==

> <s_epik_cmdline>
J2VwaWtfcHl0aG9uJywgJy1waCcsICc3LjAnLCAnLXRuJywgJzgnLCAnLW1hJywgJzIwMCcsICctbWV0YWxfYmluZGluZycsICctaW1hZScsICc8aW5maWxlLm1hZT4nLCAnLW9tYWUnLCAnPG91dGZpbGUubWFlPic=

> <r_lp_tautomer_probability>
0.999

> <r_epik_Ionization_Penalty>
0.295852

> <r_epik_Ionization_Penalty_Charging>
0

> <r_epik_Ionization_Penalty_Neutral>
0.295852

> <r_epik_State_Penalty>
0.288723

> <r_epik_Charging_Adjusted_Penalty>
0.288723

> <i_epik_Tot_Q>
0

> <i_epik_Tot_abs_Q>
0

> <r_epik_Metal_State_Penalty>
0.29791

> <b_epik_Metal_Only>
0

> <s_lp_Force_Field>
OPLS_2005

> <r_lp_Energy>
39.4988

> <b_lp_Chiralities_Consistent>
1

> <s_lp_Variant>
AV-unprocessed.smi:1995-1

> <Gold.Version>
5.8.1

> <Gold.Id.Protein>
6NUR|6NUR_protein|mol2

> <Gold.PLP.Fitness>
39.6419

> <Gold.PLP.PLP>
-29.2557

> <Gold.PLP.part.hbond>
-3.0000

> <Gold.PLP.part.metal>
0.0000

> <Gold.PLP.part.buried>
-6.3146

> <Gold.PLP.part.nonpolar>
-20.2630

> <Gold.PLP.part.repulsive>
0.4321

> <Gold.PLP.ligand.clash>
0.0000

> <Gold.PLP.ligand.torsion>
0.9395

> <Gold.PLP.Chemscore.Hbond>
3.0000

> <Gold.PLP.Chemscore.CHOScore>
1.0000

> <Gold.PLP.Chemscore.Metal>
0.0000

> <Gold.Chemscore.Hbonds>
donor molecule, donor type, donor heavy atom, donor atom, acceptor molecule, acceptor atom, score
      L1  H     6    31       P1  7948  1.00
      L1  H     9    32       P1  7948  1.00
      P1  H  7989  7998       L1    18  0.45
      L1  C    12    33       P1 10186  0.81

> <Gold.PLP.Chemscore.Internal.Correction>
0.2652

> <Gold.Rescore>
     Score         DG    S(hbond)    S(metal)    S(lipo)     H(rot)  DE(clash)    DE(int)     intcor
     15.10     -16.25       2.19        0.00      67.60       1.74       0.08       1.07       ----

> <Gold.Chemscore.Fitness>
15.1000

> <Gold.Chemscore.DG>
-16.2523

> <Gold.Chemscore.ZeroCoef>
-5.4800

> <Gold.Chemscore.Hbond>
2.1916

> <Gold.Chemscore.Metal>
0.0000

> <Gold.Chemscore.Lipo>
67.5966

> <Gold.Chemscore.Internal_Hbond>
0.0000

> <Gold.Chemscore.DEClash>
0.0811

> <Gold.Chemscore.DEInternal>
1.0713

> <Gold.Chemscore.Rot>
1.7408

> <Gold.Chemscore.Internal.Correction>
   9.000000E+99

> <Gold.Chemscore.Hbonds>
donor molecule, donor type, donor heavy atom, donor atom, acceptor molecule, acceptor atom, score
      L1  H     6    31       P1  7948  0.95
      L1  H     9    32       P1  7948  0.95
      P1  H  7989  7998       L1    18  0.02

> <Gold.Chemscore.Hbond.Weighted>
-7.3201

> <Gold.Chemscore.Metal.Weighted>
-0.0000

> <Gold.Chemscore.Lipo.Weighted>
-7.9088

> <Gold.Chemscore.Internal_Hbond.Weighted>
0.0000

> <Gold.Chemscore.DEClash.Weighted>
0.0811

> <Gold.Chemscore.DEInternal.Weighted>
1.0713

> <Gold.Chemscore.Rot.Weighted>
4.4565

> <Gold.Chemscore.Internal.Correction.Weighted>
   9.000000E+99

> <Gold.Protein.RotatedTorsions>
[ 6907 6896 6895 6894 ] final  146.98 input  -60.11 | X-H torsion
[ 7974 7965 7964 7962 ] final   72.18 input  175.53 | X-H torsion
[ 8008 7997 7996 7995 ] final -171.72 input   59.86 | X-H torsion
[ 10167 10162 10161 10158 ] final -103.88 input  -65.29 | X-H torsion
[ 10718 10713 10712 10709 ] final  149.94 input   66.30 | X-H torsion
[ 10763 10752 10751 10750 ] final   17.75 input  -60.55 | X-H torsion
[ 11005 11000 10999 10996 ] final  -24.79 input  -57.11 | X-H torsion

> <Gold.Protein.ActiveResidues>
 VAL166  LYS551  ARG553  GLY616  TRP617  ASP618  TYR619  PRO620  LYS621  CYS622 
 ASP623  PHE694  ASN695  SER759  ASP760  ASP761  ALA762  ILE779  LEU786  VAL792 
 PHE793  MET794  SER795  GLU796  ALA797  LYS798  CYS799  TRP800  GLU811  SER814 

> <Gold.Protein.RotatedAtoms>
  152.1607  133.4580  159.4859 H   0  0  0  0  0  0  0  0  0  0  0  0  # atno 6907 bound_to 6896
  150.6906  134.2074  159.4355 H   0  0  0  0  0  0  0  0  0  0  0  0  # atno 6908 bound_to 6896
  151.9976  134.9945  160.0614 H   0  0  0  0  0  0  0  0  0  0  0  0  # atno 6909 bound_to 6896
  145.7566  139.2782  143.1400 H   0  0  0  0  0  0  0  0  0  0  0  0  # atno 7974 bound_to 7965
  155.9352  140.1098  157.1100 H   0  0  0  0  0  0  0  0  0  0  0  0  # atno 8008 bound_to 7997
  154.4078  140.1230  156.4920 H   0  0  0  0  0  0  0  0  0  0  0  0  # atno 8009 bound_to 7997
  155.7031  140.3471  155.4943 H   0  0  0  0  0  0  0  0  0  0  0  0  # atno 8010 bound_to 7997
  140.2153  143.3716  152.1016 H   0  0  0  0  0  0  0  0  0  0  0  0  # atno 10167 bound_to 10162
  157.2898  131.0851  151.1470 H   0  0  0  0  0  0  0  0  0  0  0  0  # atno 10718 bound_to 10713
  153.1311  135.6740  153.9177 H   0  0  0  0  0  0  0  0  0  0  0  0  # atno 10763 bound_to 10752
  153.8663  135.3075  155.3441 H   0  0  0  0  0  0  0  0  0  0  0  0  # atno 10764 bound_to 10752
  154.7708  135.4940  153.9726 H   0  0  0  0  0  0  0  0  0  0  0  0  # atno 10765 bound_to 10752
  140.8878  133.7609  156.0382 H   0  0  0  0  0  0  0  0  0  0  0  0  # atno 11005 bound_to 11000
  146.0304  140.8263  142.9878 LP  0  0  0  0  0  0  0  0  0  0  0  0  # atno 17320 bound_to 7965
  144.6839  140.2761  143.7299 LP  0  0  0  0  0  0  0  0  0  0  0  0  # atno 17321 bound_to 7965
  139.5164  144.6977  151.5582 LP  0  0  0  0  0  0  0  0  0  0  0  0  # atno 17342 bound_to 10162
  140.6294  143.9105  150.6593 LP  0  0  0  0  0  0  0  0  0  0  0  0  # atno 17343 bound_to 10162
  157.2871  130.6778  149.6095 LP  0  0  0  0  0  0  0  0  0  0  0  0  # atno 17370 bound_to 10713
  155.9667  130.4432  150.5412 LP  0  0  0  0  0  0  0  0  0  0  0  0  # atno 17371 bound_to 10713
  140.8384  134.3096  157.5323 LP  0  0  0  0  0  0  0  0  0  0  0  0  # atno 17394 bound_to 11000
  139.8726  134.9402  156.3763 LP  0  0  0  0  0  0  0  0  0  0  0  0  # atno 17395 bound_to 11000

$$$$
