AV-unprocessed.smi:2449|AV-procd|sdf|9664|dock7
  -GOLD-   2272013303D 1   1.00000     0.00000
 Structure written by MMmdl.
 36 36  0  0  0  0  0  0  0  0  2 V2000
  152.5781  142.8143  162.0961 C   0  0  0  0  0  0  0  0  0  0  0  0
  151.7793  144.0337  161.6237 C   0  0  0  0  0  0  0  0  0  0  0  0
  151.1142  143.8023  160.2514 C   0  0  0  0  0  0  0  0  0  0  0  0
  152.0273  144.0082  159.0101 C   0  0  0  0  0  0  0  0  0  0  0  0
  152.3128  145.5134  158.8151 C   0  0  0  0  0  0  0  0  0  0  0  0
  153.3754  143.2897  159.2156 C   0  0  0  0  0  0  0  0  0  0  0  0
  151.4242  143.4493  157.7932 N   0  0  0  0  0  0  0  0  0  0  0  0
  151.2685  142.1568  157.4555 C   0  0  0  0  0  0  0  0  0  0  0  0
  151.5957  141.2137  158.1763 O   0  0  0  0  0  0  0  0  0  0  0  0
  150.6204  141.8944  156.0907 C   0  0  0  0  0  0  0  0  0  0  0  0
  150.6771  140.4748  155.7084 N   0  0  0  0  0  0  0  0  0  0  0  0
  151.9179  139.8196  155.7994 C   0  0  0  0  0  0  0  0  0  0  0  0
  152.0631  138.5237  155.4629 C   0  0  0  0  0  0  0  0  0  0  0  0
  150.8899  137.7966  154.9936 C   0  0  0  0  0  0  0  0  0  0  0  0
  151.0031  136.6119  154.6850 O   0  0  0  0  0  0  0  0  0  0  0  0
  149.7087  138.4772  154.9198 N   0  5  0  0  0  0  0  0  0  0  0  0
  149.5763  139.7960  155.2637 C   0  0  0  0  0  0  0  0  0  0  0  0
  148.5009  140.3918  155.1881 O   0  0  0  0  0  0  0  0  0  0  0  0
  153.0332  143.0020  163.0689 H   0  0  0  0  0  0  0  0  0  0  0  0
  153.3787  142.5746  161.3960 H   0  0  0  0  0  0  0  0  0  0  0  0
  151.9389  141.9362  162.1908 H   0  0  0  0  0  0  0  0  0  0  0  0
  151.0246  144.2699  162.3731 H   0  0  0  0  0  0  0  0  0  0  0  0
  152.4510  144.8910  161.5805 H   0  0  0  0  0  0  0  0  0  0  0  0
  150.7044  142.7920  160.2364 H   0  0  0  0  0  0  0  0  0  0  0  0
  150.2483  144.4603  160.1675 H   0  0  0  0  0  0  0  0  0  0  0  0
  152.8455  145.9258  159.6726 H   0  0  0  0  0  0  0  0  0  0  0  0
  151.3979  146.0943  158.6997 H   0  0  0  0  0  0  0  0  0  0  0  0
  152.9278  145.6909  157.9320 H   0  0  0  0  0  0  0  0  0  0  0  0
  153.8690  143.6249  160.1284 H   0  0  0  0  0  0  0  0  0  0  0  0
  154.0572  143.4834  158.3865 H   0  0  0  0  0  0  0  0  0  0  0  0
  153.2559  142.2084  159.2842 H   0  0  0  0  0  0  0  0  0  0  0  0
  151.1141  144.1278  157.1129 H   0  0  0  0  0  0  0  0  0  0  0  0
  149.5867  142.2393  156.1351 H   0  0  0  0  0  0  0  0  0  0  0  0
  151.0947  142.5080  155.3221 H   0  0  0  0  0  0  0  0  0  0  0  0
  152.7368  140.4304  156.1498 H   0  0  0  0  0  0  0  0  0  0  0  0
  153.0240  138.0357  155.5357 H   0  0  0  0  0  0  0  0  0  0  0  0
  1  2  1  0  0  0  0
  1 19  1  0  0  0  0
  1 20  1  0  0  0  0
  1 21  1  0  0  0  0
  2  3  1  0  0  0  0
  2 22  1  0  0  0  0
  2 23  1  0  0  0  0
  3  4  1  0  0  0  0
  3 24  1  0  0  0  0
  3 25  1  0  0  0  0
  4  5  1  0  0  0  0
  4  6  1  0  0  0  0
  4  7  1  0  0  0  0
  5 26  1  0  0  0  0
  5 27  1  0  0  0  0
  5 28  1  0  0  0  0
  6 29  1  0  0  0  0
  6 30  1  0  0  0  0
  6 31  1  0  0  0  0
  7  8  1  0  0  0  0
  7 32  1  0  0  0  0
  8  9  2  0  0  0  0
  8 10  1  0  0  0  0
 10 11  1  0  0  0  0
 10 33  1  0  0  0  0
 10 34  1  0  0  0  0
 11 17  1  0  0  0  0
 11 12  1  0  0  0  0
 12 13  2  0  0  0  0
 12 35  1  0  0  0  0
 13 14  1  0  0  0  0
 13 36  1  0  0  0  0
 14 15  2  0  0  0  0
 14 16  1  0  0  0  0
 16 17  1  0  0  0  0
 17 18  2  0  0  0  0
M  CHG  1  16  -1
M  END
> <s_m_source_file>
AV-unprocessed.smi

> <i_m_source_file_index>
2449

> <i_lp_mmshare_version>
43012

> <i_f3d_flags>
0

> <s_epik_input>
W0NIM11bQ0gyXVtDSDJdQyhbQ0gzXSkoW0NIM10pW05IXUMoPU8pW0NIMl1uMVtjSF1bY0hdYyg9TylbbkhdYzE9Tw==

> <s_epik_cmdline>
J2VwaWtfcHl0aG9uJywgJy1waCcsICc3LjAnLCAnLXRuJywgJzgnLCAnLW1hJywgJzIwMCcsICctbWV0YWxfYmluZGluZycsICctaW1hZScsICc8aW5maWxlLm1hZT4nLCAnLW9tYWUnLCAnPG91dGZpbGUubWFlPic=

> <r_lp_tautomer_probability>
0.999537

> <r_epik_Ionization_Penalty>
3.14746

> <r_epik_Ionization_Penalty_Charging>
2.94994e-08

> <r_epik_Ionization_Penalty_Neutral>
3.14746

> <r_epik_State_Penalty>
3.14658

> <r_epik_Charging_Adjusted_Penalty>
3.14658

> <i_epik_Tot_Q>
-1

> <i_epik_Tot_abs_Q>
1

> <r_epik_Metal_State_Penalty>
0.466037

> <b_epik_Metal_Only>
1

> <s_lp_Force_Field>
OPLS_2005

> <r_lp_Energy>
14.91

> <b_lp_Chiralities_Consistent>
1

> <s_lp_Variant>
AV-unprocessed.smi:2449-2

> <Gold.Version>
5.8.1

> <Gold.Id.Protein>
6NUR|6NUR_protein|mol2

> <Gold.PLP.Fitness>
41.7235

> <Gold.PLP.PLP>
-39.9359

> <Gold.PLP.part.hbond>
-1.0000

> <Gold.PLP.part.metal>
0.0000

> <Gold.PLP.part.buried>
-3.9603

> <Gold.PLP.part.nonpolar>
-35.6784

> <Gold.PLP.part.repulsive>
1.3712

> <Gold.PLP.ligand.clash>
0.0000

> <Gold.PLP.ligand.torsion>
0.6280

> <Gold.PLP.Chemscore.Hbond>
1.0000

> <Gold.PLP.Chemscore.CHOScore>
0.0000

> <Gold.PLP.Chemscore.Metal>
0.0000

> <Gold.Chemscore.Hbonds>
donor molecule, donor type, donor heavy atom, donor atom, acceptor molecule, acceptor atom, score
      P1  H 10752 10764       L1    15  0.65

> <Gold.PLP.Chemscore.Internal.Correction>
0.0436

> <Gold.Rescore>
     Score         DG    S(hbond)    S(metal)    S(lipo)     H(rot)  DE(clash)    DE(int)     intcor
     11.26     -15.18       1.07        0.00      98.00       2.08       0.50       3.42       ----

> <Gold.Chemscore.Fitness>
11.2606

> <Gold.Chemscore.DG>
-15.1832

> <Gold.Chemscore.ZeroCoef>
-5.4800

> <Gold.Chemscore.Hbond>
1.0686

> <Gold.Chemscore.Metal>
0.0000

> <Gold.Chemscore.Lipo>
97.9995

> <Gold.Chemscore.Internal_Hbond>
0.0000

> <Gold.Chemscore.DEClash>
0.4983

> <Gold.Chemscore.DEInternal>
3.4243

> <Gold.Chemscore.Rot>
2.0828

> <Gold.Chemscore.Internal.Correction>
   9.000000E+99

> <Gold.Chemscore.Hbonds>
donor molecule, donor type, donor heavy atom, donor atom, acceptor molecule, acceptor atom, score
      P1  H 10752 10764       L1    15  0.64

> <Gold.Chemscore.Hbond.Weighted>
-3.5692

> <Gold.Chemscore.Metal.Weighted>
-0.0000

> <Gold.Chemscore.Lipo.Weighted>
-11.4659

> <Gold.Chemscore.Internal_Hbond.Weighted>
0.0000

> <Gold.Chemscore.DEClash.Weighted>
0.4983

> <Gold.Chemscore.DEInternal.Weighted>
3.4243

> <Gold.Chemscore.Rot.Weighted>
5.3319

> <Gold.Chemscore.Internal.Correction.Weighted>
   9.000000E+99

> <Gold.Protein.RotatedTorsions>
[ 6907 6896 6895 6894 ] final -175.70 input  -60.11 | X-H torsion
[ 7974 7965 7964 7962 ] final   -6.09 input  175.53 | X-H torsion
[ 8008 7997 7996 7995 ] final  -77.78 input   59.86 | X-H torsion
[ 10167 10162 10161 10158 ] final   29.55 input  -65.29 | X-H torsion
[ 10718 10713 10712 10709 ] final  157.04 input   66.30 | X-H torsion
[ 10763 10752 10751 10750 ] final  -68.13 input  -60.55 | X-H torsion
[ 11005 11000 10999 10996 ] final   39.48 input  -57.11 | X-H torsion

> <Gold.Protein.ActiveResidues>
 VAL166  LYS551  ARG553  GLY616  TRP617  ASP618  TYR619  PRO620  LYS621  CYS622 
 ASP623  PHE694  ASN695  SER759  ASP760  ASP761  ALA762  ILE779  LEU786  VAL792 
 PHE793  MET794  SER795  GLU796  ALA797  LYS798  CYS799  TRP800  GLU811  SER814 

> <Gold.Protein.RotatedAtoms>
  151.5929  133.3364  159.3031 H   0  0  0  0  0  0  0  0  0  0  0  0  # atno 6907 bound_to 6896
  150.8250  134.7480  159.6816 H   0  0  0  0  0  0  0  0  0  0  0  0  # atno 6908 bound_to 6896
  152.4340  134.5728  159.9977 H   0  0  0  0  0  0  0  0  0  0  0  0  # atno 6909 bound_to 6896
  146.2339  140.2118  142.8335 H   0  0  0  0  0  0  0  0  0  0  0  0  # atno 7974 bound_to 7965
  154.5627  140.0705  156.8844 H   0  0  0  0  0  0  0  0  0  0  0  0  # atno 8008 bound_to 7997
  155.2780  140.3370  155.4242 H   0  0  0  0  0  0  0  0  0  0  0  0  # atno 8009 bound_to 7997
  156.2056  140.1738  156.7793 H   0  0  0  0  0  0  0  0  0  0  0  0  # atno 8010 bound_to 7997
  140.4756  144.0695  150.6250 H   0  0  0  0  0  0  0  0  0  0  0  0  # atno 10167 bound_to 10162
  157.1968  131.0667  151.2048 H   0  0  0  0  0  0  0  0  0  0  0  0  # atno 10718 bound_to 10713
  154.3845  135.6066  153.5809 H   0  0  0  0  0  0  0  0  0  0  0  0  # atno 10763 bound_to 10752
  152.9788  135.5869  154.4370 H   0  0  0  0  0  0  0  0  0  0  0  0  # atno 10764 bound_to 10752
  154.4145  135.2845  155.1993 H   0  0  0  0  0  0  0  0  0  0  0  0  # atno 10765 bound_to 10752
  140.2024  134.3854  155.8089 H   0  0  0  0  0  0  0  0  0  0  0  0  # atno 11005 bound_to 11000
  144.9700  140.8359  143.5461 LP  0  0  0  0  0  0  0  0  0  0  0  0  # atno 17320 bound_to 7965
  145.2099  139.2210  143.5148 LP  0  0  0  0  0  0  0  0  0  0  0  0  # atno 17321 bound_to 7965
  140.3922  143.2746  152.0046 LP  0  0  0  0  0  0  0  0  0  0  0  0  # atno 17342 bound_to 10162
  139.4825  144.6067  151.7508 LP  0  0  0  0  0  0  0  0  0  0  0  0  # atno 17343 bound_to 10162
  157.3807  130.7229  149.6628 LP  0  0  0  0  0  0  0  0  0  0  0  0  # atno 17370 bound_to 10713
  155.9705  130.4173  150.4274 LP  0  0  0  0  0  0  0  0  0  0  0  0  # atno 17371 bound_to 10713
  141.2227  133.7101  156.8280 LP  0  0  0  0  0  0  0  0  0  0  0  0  # atno 17394 bound_to 11000
  140.2039  134.8876  157.3200 LP  0  0  0  0  0  0  0  0  0  0  0  0  # atno 17395 bound_to 11000

$$$$
