#       Name:                AV-unprocessed.smi:1323
#       Creating user name   scv26
#       Creation time:       Fri Mar 27 05:03:27 2020


#       File generated by GOLD software.
#

@<TRIPOS>MOLECULE
AV-unprocessed.smi:1323
    51    52     1
SMALL
NO_CHARGES


@<TRIPOS>ATOM
      1 ****        -2.7446   0.1799   3.6298 C.3            1 S1                 0.0000
      2 ****        -3.1179   0.6355   2.2097 C.3            1 S1                 0.0000
      3 ****        -4.6226   0.9623   2.1227 C.3            1 S1                 0.0000
      4 ****        -5.0275   1.4141   0.7116 C.3            1 S1                 0.0000
      5 ****        -4.6461   0.3572  -0.3339 C.3            1 S1                 0.0000
      6 ****        -3.1465   0.0327  -0.2661 C.3            1 S1                 0.0000
      7 ****        -2.7232  -0.4171   1.1487 C.3            1 S1                 0.0000
      8 ****        -1.3095  -0.5669   1.1855 O.3            1 S1                 0.0000
      9 ****        -0.8418  -1.8372   0.7562 C.3            1 S1                 0.0000
     10 ****         0.6903  -1.8240   0.7446 C.3            1 S1                 0.0000
     11 ****         1.1833  -0.9103  -0.2765 N.am           1 S1                 0.0000
     12 ****         2.4772  -0.7241  -0.5707 C.2            1 S1                 0.0000
     13 ****         3.3900  -1.3187   0.0049 O.2            1 S1                 0.0000
     14 ****         2.7671   0.3007  -1.6772 C.3            1 S1                 0.0000
     15 ****         4.1827   0.3531  -2.0792 N.am           1 S1                 0.0000
     16 ****         4.9858   1.3332  -1.4627 C.2            1 S1                 0.0000
     17 ****         6.2892   1.4689  -1.7533 C.2            1 S1                 0.0000
     18 ****         6.8673   0.5766  -2.7298 C.2            1 S1                 0.0000
     19 ****         6.1092  -0.3676  -3.3222 C.2            1 S1                 0.0000
     20 ****         4.6847  -0.5223  -3.0042 C.2            1 S1                 0.0000
     21 ****         3.9863  -1.3854  -3.5367 O.2            1 S1                 0.0000
     22 ****        -3.2577  -0.7442   3.8978 H              1 S1                 0.0000
     23 ****        -3.0146   0.9360   4.3675 H              1 S1                 0.0000
     24 ****        -1.6728   0.0038   3.7221 H              1 S1                 0.0000
     25 ****        -2.5649   1.5523   1.9995 H              1 S1                 0.0000
     26 ****        -5.2075   0.0850   2.4028 H              1 S1                 0.0000
     27 ****        -4.8767   1.7432   2.8404 H              1 S1                 0.0000
     28 ****        -6.1006   1.6040   0.6748 H              1 S1                 0.0000
     29 ****        -4.5369   2.3589   0.4745 H              1 S1                 0.0000
     30 ****        -5.2260  -0.5513  -0.1667 H              1 S1                 0.0000
     31 ****        -4.9056   0.7113  -1.3319 H              1 S1                 0.0000
     32 ****        -2.9122  -0.7380  -1.0001 H              1 S1                 0.0000
     33 ****        -2.5732   0.9149  -0.5541 H              1 S1                 0.0000
     34 ****        -3.2131  -1.3607   1.3981 H              1 S1                 0.0000
     35 ****        -1.1978  -2.6051   1.4445 H              1 S1                 0.0000
     36 ****        -1.2213  -2.0877  -0.2350 H              1 S1                 0.0000
     37 ****         1.0745  -1.5306   1.7227 H              1 S1                 0.0000
     38 ****         1.0644  -2.8278   0.5381 H              1 S1                 0.0000
     39 ****         0.4930  -0.3793  -0.7877 H              1 S1                 0.0000
     40 ****         2.1361   0.0792  -2.5401 H              1 S1                 0.0000
     41 ****         2.4368   1.2806  -1.3289 H              1 S1                 0.0000
     42 ****         4.4785   1.9554  -0.7397 H              1 S1                 0.0000
     43 ****         6.8900   2.2229  -1.2665 H              1 S1                 0.0000
     44 ****         7.9130   0.6659  -2.9853 H              1 S1                 0.0000
     45 ****         6.5593  -1.0272  -4.0494 H              1 S1                 0.0000
     46 ****        -1.0043  -0.4233   2.1269 LP             1 S1                 0.0000
     47 ****        -0.9057   0.1310   0.5941 LP             1 S1                 0.0000
     48 ****         3.1803  -1.9759   0.7290 LP             1 S1                 0.0000
     49 ****         4.3406  -1.1442  -0.2519 LP             1 S1                 0.0000
     50 ****         3.0186  -1.4635  -3.2971 LP             1 S1                 0.0000
     51 ****         4.3869  -2.0083  -4.2086 LP             1 S1                 0.0000
@<TRIPOS>BOND
    1    1    2 1     
    2    1   22 1     
    3    1   23 1     
    4    1   24 1     
    5    2    7 1     
    6    2    3 1     
    7    2   25 1     
    8    3    4 1     
    9    3   26 1     
   10    3   27 1     
   11    4    5 1     
   12    4   28 1     
   13    4   29 1     
   14    5    6 1     
   15    5   30 1     
   16    5   31 1     
   17    6    7 1     
   18    6   32 1     
   19    6   33 1     
   20    7    8 1     
   21    7   34 1     
   22    8    9 1     
   23    9   10 1     
   24    9   35 1     
   25    9   36 1     
   26   10   11 1     
   27   10   37 1     
   28   10   38 1     
   29   11   12 am    
   30   11   39 1     
   31   12   13 2     
   32   12   14 1     
   33   14   15 1     
   34   14   40 1     
   35   14   41 1     
   36   15   20 am    
   37   15   16 1     
   38   16   17 2     
   39   16   42 1     
   40   17   18 1     
   41   17   43 1     
   42   18   19 2     
   43   18   44 1     
   44   19   20 1     
   45   19   45 1     
   46   20   21 2     
   47    8   46 1     
   48    8   47 1     
   49   13   48 1     
   50   13   49 1     
   51   21   50 1     
   52   21   51 1     
@<TRIPOS>SUBSTRUCTURE
      1 S1             1
@<TRIPOS>SET
LONE_PAIRS      STATIC     ATOMS    <user>   **** ""
6 46 47 48 49 50 51
DONOR_HYDROGENS      STATIC     ATOMS    <user>   **** ""
1 39
ATOM$BLUE        STATIC     ATOMS    COLORGROUP SYSTEM
6 46 47 48 49 50 51
ATOM$RED        STATIC     ATOMS    COLORGROUP SYSTEM
1 39
