AV-unprocessed.smi:2567|AV-procd|sdf|10087|dock3
  -GOLD-   2272014113D 1   1.00000     0.00000
 Structure written by MMmdl.
 32 33  0  0  0  0  0  0  0  0  2 V2000
  152.7224  142.6993  159.6855 C   0  0  0  0  0  0  0  0  0  0  0  0
  151.8007  143.2657  158.5923 C   0  0  0  0  0  0  0  0  0  0  0  0
  150.4899  143.7805  159.2207 C   0  0  0  0  0  0  0  0  0  0  0  0
  152.4797  144.4641  157.8993 C   0  0  0  0  0  0  0  0  0  0  0  0
  151.4950  142.1771  157.5685 C   0  0  0  0  0  0  0  0  0  0  0  0
  151.8441  140.8795  157.6667 N   0  5  0  0  0  0  0  0  0  0  0  0
  151.3177  140.1900  156.6758 N   0  0  0  0  0  0  0  0  0  0  0  0
  150.6026  141.0762  155.9677 C   0  0  0  0  0  0  0  0  0  0  0  0
  149.7691  140.7300  154.7500 C   0  0  1  0  0  0  0  0  0  0  0  0
  149.9049  139.2354  154.3941 C   0  0  0  0  0  0  0  0  0  0  0  0
  149.0882  138.9048  153.2261 N   0  0  0  0  0  0  0  0  0  0  0  0
  147.6952  139.2975  153.4262 C   0  0  0  0  0  0  0  0  0  0  0  0
  147.6102  140.7878  153.7968 C   0  0  0  0  0  0  0  0  0  0  0  0
  148.3909  141.0312  154.9613 O   0  0  0  0  0  0  0  0  0  0  0  0
  150.6757  142.2934  156.5253 N   0  0  0  0  0  0  0  0  0  0  0  0
  152.9575  143.4523  160.4380 H   0  0  0  0  0  0  0  0  0  0  0  0
  153.6643  142.3475  159.2633 H   0  0  0  0  0  0  0  0  0  0  0  0
  152.2562  141.8560  160.1962 H   0  0  0  0  0  0  0  0  0  0  0  0
  149.9625  142.9872  159.7515 H   0  0  0  0  0  0  0  0  0  0  0  0
  149.8131  144.1731  158.4609 H   0  0  0  0  0  0  0  0  0  0  0  0
  150.6795  144.5791  159.9383 H   0  0  0  0  0  0  0  0  0  0  0  0
  152.6859  145.2678  158.6067 H   0  0  0  0  0  0  0  0  0  0  0  0
  151.8503  144.8736  157.1085 H   0  0  0  0  0  0  0  0  0  0  0  0
  153.4305  144.1789  157.4478 H   0  0  0  0  0  0  0  0  0  0  0  0
  150.1383  141.3393  153.9225 H   0  0  0  0  0  0  0  0  0  0  0  0
  150.9491  138.9905  154.1981 H   0  0  0  0  0  0  0  0  0  0  0  0
  149.5964  138.6273  155.2458 H   0  0  0  0  0  0  0  0  0  0  0  0
  147.1172  139.1016  152.5228 H   0  0  0  0  0  0  0  0  0  0  0  0
  147.2501  138.6973  154.2207 H   0  0  0  0  0  0  0  0  0  0  0  0
  147.9505  141.4174  152.9729 H   0  0  0  0  0  0  0  0  0  0  0  0
  146.5759  141.0637  154.0020 H   0  0  0  0  0  0  0  0  0  0  0  0
  149.1384  137.9067  153.0508 H   0  0  0  0  0  0  0  0  0  0  0  0
  1  2  1  0  0  0  0
  1 16  1  0  0  0  0
  1 17  1  0  0  0  0
  1 18  1  0  0  0  0
  2  3  1  0  0  0  0
  2  4  1  0  0  0  0
  2  5  1  0  0  0  0
  3 19  1  0  0  0  0
  3 20  1  0  0  0  0
  3 21  1  0  0  0  0
  4 22  1  0  0  0  0
  4 23  1  0  0  0  0
  4 24  1  0  0  0  0
  5 15  2  0  0  0  0
  5  6  1  0  0  0  0
  6  7  1  0  0  0  0
  7  8  2  0  0  0  0
  8  9  1  0  0  0  0
  8 15  1  0  0  0  0
  9 14  1  0  0  0  0
  9 10  1  0  0  0  0
  9 25  1  0  0  0  0
 10 11  1  0  0  0  0
 10 26  1  0  0  0  0
 10 27  1  0  0  0  0
 11 12  1  0  0  0  0
 11 32  1  0  0  0  0
 12 13  1  0  0  0  0
 12 28  1  0  0  0  0
 12 29  1  0  0  0  0
 13 14  1  0  0  0  0
 13 30  1  0  0  0  0
 13 31  1  0  0  0  0
M  CHG  1   6  -1
M  END
> <s_m_source_file>
AV-unprocessed.smi

> <i_m_source_file_index>
2567

> <i_lp_mmshare_version>
43012

> <i_f3d_flags>
0

> <s_epik_input>
W0NIM11DKFtDSDNdKShbQ0gzXSljMW5bbkhdYyhuMSlbQ0BASF0yW0NIMl1bTkhdW0NIMl1bQ0gyXU8y

> <s_epik_cmdline>
J2VwaWtfcHl0aG9uJywgJy1waCcsICc3LjAnLCAnLXRuJywgJzgnLCAnLW1hJywgJzIwMCcsICctbWV0YWxfYmluZGluZycsICctaW1hZScsICc8aW5maWxlLm1hZT4nLCAnLW9tYWUnLCAnPG91dGZpbGUubWFlPic=

> <r_lp_tautomer_probability>
0.948284

> <r_epik_Ionization_Penalty>
17.5852

> <r_epik_Ionization_Penalty_Charging>
16.0119

> <r_epik_Ionization_Penalty_Neutral>
1.5733

> <r_epik_State_Penalty>
6.64574

> <r_epik_Charging_Adjusted_Penalty>
22.6576

> <i_epik_Tot_Q>
-1

> <i_epik_Tot_abs_Q>
1

> <r_epik_Metal_State_Penalty>
2.89273

> <b_epik_Metal_Only>
1

> <s_lp_Force_Field>
OPLS_2005

> <r_lp_Energy>
12.7072

> <b_lp_Chiralities_Consistent>
1

> <s_lp_Variant>
AV-unprocessed.smi:2567-12

> <Gold.Version>
5.8.1

> <Gold.Id.Protein>
6NUR|6NUR_protein|mol2

> <Gold.PLP.Fitness>
33.8653

> <Gold.PLP.PLP>
-30.9063

> <Gold.PLP.part.hbond>
-1.6415

> <Gold.PLP.part.metal>
0.0000

> <Gold.PLP.part.buried>
-3.1762

> <Gold.PLP.part.nonpolar>
-26.1004

> <Gold.PLP.part.repulsive>
0.2286

> <Gold.PLP.ligand.clash>
0.0000

> <Gold.PLP.ligand.torsion>
0.0997

> <Gold.PLP.Chemscore.Hbond>
0.9913

> <Gold.PLP.Chemscore.CHOScore>
0.0000

> <Gold.PLP.Chemscore.Metal>
0.0000

> <Gold.Chemscore.Hbonds>
donor molecule, donor type, donor heavy atom, donor atom, acceptor molecule, acceptor atom, score
      L1  H    11    32       P1  7948  0.99

> <Gold.PLP.Chemscore.Internal.Correction>
0.1847

> <Gold.Rescore>
     Score         DG    S(hbond)    S(metal)    S(lipo)     H(rot)  DE(clash)    DE(int)     intcor
     13.94     -14.26       0.98        0.00      74.06       1.23       0.18       0.14       ----

> <Gold.Chemscore.Fitness>
13.9441

> <Gold.Chemscore.DG>
-14.2638

> <Gold.Chemscore.ZeroCoef>
-5.4800

> <Gold.Chemscore.Hbond>
0.9769

> <Gold.Chemscore.Metal>
0.0000

> <Gold.Chemscore.Lipo>
74.0636

> <Gold.Chemscore.Internal_Hbond>
0.0000

> <Gold.Chemscore.DEClash>
0.1758

> <Gold.Chemscore.DEInternal>
0.1439

> <Gold.Chemscore.Rot>
1.2283

> <Gold.Chemscore.Internal.Correction>
   9.000000E+99

> <Gold.Chemscore.Hbonds>
donor molecule, donor type, donor heavy atom, donor atom, acceptor molecule, acceptor atom, score
      L1  H    11    32       P1  7948  0.89

> <Gold.Chemscore.Hbond.Weighted>
-3.2627

> <Gold.Chemscore.Metal.Weighted>
-0.0000

> <Gold.Chemscore.Lipo.Weighted>
-8.6654

> <Gold.Chemscore.Internal_Hbond.Weighted>
0.0000

> <Gold.Chemscore.DEClash.Weighted>
0.1758

> <Gold.Chemscore.DEInternal.Weighted>
0.1439

> <Gold.Chemscore.Rot.Weighted>
3.1444

> <Gold.Chemscore.Internal.Correction.Weighted>
   9.000000E+99

> <Gold.Protein.RotatedTorsions>
[ 6907 6896 6895 6894 ] final  -17.27 input  -60.11 | X-H torsion
[ 7974 7965 7964 7962 ] final    3.33 input  175.53 | X-H torsion
[ 8008 7997 7996 7995 ] final -100.60 input   59.86 | X-H torsion
[ 10167 10162 10161 10158 ] final -127.69 input  -65.29 | X-H torsion
[ 10718 10713 10712 10709 ] final -149.57 input   66.30 | X-H torsion
[ 10763 10752 10751 10750 ] final   85.75 input  -60.55 | X-H torsion
[ 11005 11000 10999 10996 ] final  -98.97 input  -57.11 | X-H torsion

> <Gold.Protein.ActiveResidues>
 VAL166  LYS551  ARG553  GLY616  TRP617  ASP618  TYR619  PRO620  LYS621  CYS622 
 ASP623  PHE694  ASN695  SER759  ASP760  ASP761  ALA762  ILE779  LEU786  VAL792 
 PHE793  MET794  SER795  GLU796  ALA797  LYS798  CYS799  TRP800  GLU811  SER814 

> <Gold.Protein.RotatedAtoms>
  151.2958  135.0755  159.9220 H   0  0  0  0  0  0  0  0  0  0  0  0  # atno 6907 bound_to 6896
  152.5307  133.9884  159.7849 H   0  0  0  0  0  0  0  0  0  0  0  0  # atno 6908 bound_to 6896
  151.0162  133.5868  159.2707 H   0  0  0  0  0  0  0  0  0  0  0  0  # atno 6909 bound_to 6896
  146.2445  140.0701  142.8363 H   0  0  0  0  0  0  0  0  0  0  0  0  # atno 7974 bound_to 7965
  154.8309  140.0440  157.1476 H   0  0  0  0  0  0  0  0  0  0  0  0  # atno 8008 bound_to 7997
  154.9153  140.3019  155.5224 H   0  0  0  0  0  0  0  0  0  0  0  0  # atno 8009 bound_to 7997
  156.2987  140.2350  156.4197 H   0  0  0  0  0  0  0  0  0  0  0  0  # atno 8010 bound_to 7997
  139.9582  143.5979  152.2453 H   0  0  0  0  0  0  0  0  0  0  0  0  # atno 10167 bound_to 10162
  156.4349  130.8093  151.2321 H   0  0  0  0  0  0  0  0  0  0  0  0  # atno 10718 bound_to 10713
  153.1505  135.4605  154.9629 H   0  0  0  0  0  0  0  0  0  0  0  0  # atno 10763 bound_to 10752
  154.7820  135.3192  154.7970 H   0  0  0  0  0  0  0  0  0  0  0  0  # atno 10764 bound_to 10752
  153.8476  135.6924  153.4850 H   0  0  0  0  0  0  0  0  0  0  0  0  # atno 10765 bound_to 10752
  141.1325  133.8286  157.0910 H   0  0  0  0  0  0  0  0  0  0  0  0  # atno 11005 bound_to 11000
  145.0824  140.9230  143.4817 LP  0  0  0  0  0  0  0  0  0  0  0  0  # atno 17320 bound_to 7965
  145.0856  139.2927  143.5761 LP  0  0  0  0  0  0  0  0  0  0  0  0  # atno 17321 bound_to 7965
  139.6574  144.7662  151.2028 LP  0  0  0  0  0  0  0  0  0  0  0  0  # atno 17342 bound_to 10162
  140.7561  143.6063  150.8649 LP  0  0  0  0  0  0  0  0  0  0  0  0  # atno 17343 bound_to 10162
  157.7507  131.0186  150.3635 LP  0  0  0  0  0  0  0  0  0  0  0  0  # atno 17370 bound_to 10713
  156.3980  130.3910  149.6980 LP  0  0  0  0  0  0  0  0  0  0  0  0  # atno 17371 bound_to 10713
  140.0392  134.9863  157.0930 LP  0  0  0  0  0  0  0  0  0  0  0  0  # atno 17394 bound_to 11000
  140.4162  134.1929  155.7163 LP  0  0  0  0  0  0  0  0  0  0  0  0  # atno 17395 bound_to 11000

$$$$
