AV-unprocessed.smi:1978|AV-procd|sdf|8013|dock2
  -GOLD-   2272010203D 1   1.00000     0.00000
 Structure written by MMmdl.
 44 45  0  0  0  0  0  0  0  0  3 V2000
  147.2455  136.7655  162.6061 C   0  0  0  0  0  0  0  0  0  0  0  0
  147.2531  136.4895  161.1417 C   0  0  0  0  0  0  0  0  0  0  0  0
  147.7707  135.4735  160.3890 C   0  0  0  0  0  0  0  0  0  0  0  0
  147.4077  135.8376  159.0649 C   0  0  0  0  0  0  0  0  0  0  0  0
  147.7674  135.0160  157.9641 N   0  0  0  0  0  0  0  0  0  0  0  0
  148.2440  133.7580  157.9731 C   0  0  0  0  0  0  0  0  0  0  0  0
  148.4298  133.1675  159.0438 O   0  0  0  0  0  0  0  0  0  0  0  0
  148.4651  133.2810  156.7168 N   0  5  0  0  0  0  0  0  0  0  0  0
  147.5355  133.4190  155.5945 C   0  0  0  0  0  0  0  0  0  0  0  0
  148.2256  134.1135  154.3717 C   0  0  1  0  0  0  0  0  0  0  0  0
  149.6102  133.5082  154.0329 C   0  0  0  0  0  0  0  0  0  0  0  0
  147.3792  134.2254  153.1263 N   0  3  1  0  0  0  0  0  0  0  0  0
  147.1932  132.9521  152.3599 C   0  0  0  0  0  0  0  0  0  0  0  0
  146.6537  133.2198  150.9486 C   0  0  0  0  0  0  0  0  0  0  0  0
  145.3294  133.9822  151.0184 C   0  0  0  0  0  0  0  0  0  0  0  0
  145.5228  135.2752  151.8165 C   0  0  0  0  0  0  0  0  0  0  0  0
  146.0980  135.0110  153.2256 C   0  0  2  0  0  0  0  0  0  0  0  0
  146.2482  136.3627  153.9546 C   0  0  0  0  0  0  0  0  0  0  0  0
  146.7348  136.9778  159.0148 N   0  0  0  0  0  0  0  0  0  0  0  0
  146.6322  137.4010  160.3451 O   0  0  0  0  0  0  0  0  0  0  0  0
  147.6561  135.9235  163.1637 H   0  0  0  0  0  0  0  0  0  0  0  0
  146.2299  136.9423  162.9602 H   0  0  0  0  0  0  0  0  0  0  0  0
  147.8431  137.6476  162.8354 H   0  0  0  0  0  0  0  0  0  0  0  0
  148.3173  134.6076  160.7316 H   0  0  0  0  0  0  0  0  0  0  0  0
  147.6525  135.4341  157.0528 H   0  0  0  0  0  0  0  0  0  0  0  0
  147.1502  132.4494  155.2785 H   0  0  0  0  0  0  0  0  0  0  0  0
  146.6536  133.9933  155.8802 H   0  0  0  0  0  0  0  0  0  0  0  0
  148.4634  135.1329  154.6685 H   0  0  0  0  0  0  0  0  0  0  0  0
  150.3257  133.6555  154.8442 H   0  0  0  0  0  0  0  0  0  0  0  0
  150.0369  133.9920  153.1538 H   0  0  0  0  0  0  0  0  0  0  0  0
  149.5746  132.4369  153.8306 H   0  0  0  0  0  0  0  0  0  0  0  0
  148.1337  132.4121  152.2651 H   0  0  0  0  0  0  0  0  0  0  0  0
  146.5043  132.2910  152.8878 H   0  0  0  0  0  0  0  0  0  0  0  0
  147.3837  133.7932  150.3755 H   0  0  0  0  0  0  0  0  0  0  0  0
  146.5123  132.2776  150.4182 H   0  0  0  0  0  0  0  0  0  0  0  0
  144.9708  134.2088  150.0139 H   0  0  0  0  0  0  0  0  0  0  0  0
  144.5669  133.3628  151.4928 H   0  0  0  0  0  0  0  0  0  0  0  0
  146.1897  135.9416  151.2673 H   0  0  0  0  0  0  0  0  0  0  0  0
  144.5666  135.7942  151.8938 H   0  0  0  0  0  0  0  0  0  0  0  0
  145.3683  134.4137  153.7745 H   0  0  0  0  0  0  0  0  0  0  0  0
  145.3333  136.9506  153.8768 H   0  0  0  0  0  0  0  0  0  0  0  0
  147.0576  136.9579  153.5308 H   0  0  0  0  0  0  0  0  0  0  0  0
  146.4367  136.2375  155.0201 H   0  0  0  0  0  0  0  0  0  0  0  0
  147.9543  134.7935  152.5215 H   0  0  0  0  0  0  0  0  0  0  0  0
  1  2  1  0  0  0  0
  1 21  1  0  0  0  0
  1 22  1  0  0  0  0
  1 23  1  0  0  0  0
  2 20  1  0  0  0  0
  2  3  2  0  0  0  0
  3  4  1  0  0  0  0
  3 24  1  0  0  0  0
  4  5  1  0  0  0  0
  4 19  2  0  0  0  0
  5  6  1  0  0  0  0
  5 25  1  0  0  0  0
  6  7  2  0  0  0  0
  6  8  1  0  0  0  0
  8  9  1  0  0  0  0
  9 10  1  0  0  0  0
  9 26  1  0  0  0  0
  9 27  1  0  0  0  0
 10 11  1  0  0  0  0
 10 12  1  0  0  0  0
 10 28  1  0  0  0  0
 11 29  1  0  0  0  0
 11 30  1  0  0  0  0
 11 31  1  0  0  0  0
 12 17  1  0  0  0  0
 12 13  1  0  0  0  0
 12 44  1  0  0  0  0
 13 14  1  0  0  0  0
 13 32  1  0  0  0  0
 13 33  1  0  0  0  0
 14 15  1  0  0  0  0
 14 34  1  0  0  0  0
 14 35  1  0  0  0  0
 15 16  1  0  0  0  0
 15 36  1  0  0  0  0
 15 37  1  0  0  0  0
 16 17  1  0  0  0  0
 16 38  1  0  0  0  0
 16 39  1  0  0  0  0
 17 18  1  0  0  0  0
 17 40  1  0  0  0  0
 18 41  1  0  0  0  0
 18 42  1  0  0  0  0
 18 43  1  0  0  0  0
 19 20  1  0  0  0  0
M  CHG  1   8  -1
M  CHG  1  12   1
M  END
> <s_m_source_file>
AV-unprocessed.smi

> <i_m_source_file_index>
1978

> <i_lp_mmshare_version>
43012

> <i_f3d_flags>
0

> <s_epik_input>
W0NIM11jMVtjSF1jKG5vMSlbTkhdQyg9TylbTkhdW0NIMl1bQ0BIXShbQ0gzXSlOMltDSDJdW0NIMl1bQ0gyXVtDSDJdW0NASF0yW0NIM10=

> <s_epik_cmdline>
J2VwaWtfcHl0aG9uJywgJy1waCcsICc3LjAnLCAnLXRuJywgJzgnLCAnLW1hJywgJzIwMCcsICctbWV0YWxfYmluZGluZycsICctaW1hZScsICc8aW5maWxlLm1hZT4nLCAnLW9tYWUnLCAnPG91dGZpbGUubWFlPic=

> <r_epik_Ionization_Penalty>
6.7666

> <r_epik_Ionization_Penalty_Charging>
6.7666

> <r_epik_Ionization_Penalty_Neutral>
5.77131e-06

> <r_epik_State_Penalty>
6.79217

> <r_epik_Charging_Adjusted_Penalty>
13.5588

> <i_epik_Tot_Q>
0

> <i_epik_Tot_abs_Q>
2

> <r_epik_Metal_State_Penalty>
2.72569

> <b_epik_Metal_Only>
1

> <s_lp_Force_Field>
OPLS_2005

> <r_lp_Energy>
22.3243

> <b_lp_Chiralities_Consistent>
1

> <s_lp_Variant>
AV-unprocessed.smi:1978-22

> <Gold.Version>
5.8.1

> <Gold.Id.Protein>
6NUR|6NUR_protein|mol2

> <Gold.PLP.Fitness>
38.5748

> <Gold.PLP.PLP>
-27.4442

> <Gold.PLP.part.hbond>
-3.0000

> <Gold.PLP.part.metal>
0.0000

> <Gold.PLP.part.buried>
-2.8098

> <Gold.PLP.part.nonpolar>
-20.3503

> <Gold.PLP.part.repulsive>
0.0506

> <Gold.PLP.ligand.clash>
0.0053

> <Gold.PLP.ligand.torsion>
0.5496

> <Gold.PLP.Chemscore.Hbond>
3.9913

> <Gold.PLP.Chemscore.CHOScore>
0.0000

> <Gold.PLP.Chemscore.Metal>
0.0000

> <Gold.Chemscore.Hbonds>
donor molecule, donor type, donor heavy atom, donor atom, acceptor molecule, acceptor atom, score
      L1  H    12    44       P1  7948  2.00
      P1  H  6896  6909       L1     7  0.02
      P1  H  6934  6947       L1    20  1.00

> <Gold.PLP.Chemscore.Internal.Correction>
0.2614

> <Gold.Rescore>
     Score         DG    S(hbond)    S(metal)    S(lipo)     H(rot)  DE(clash)    DE(int)     intcor
     15.01     -17.19       2.48        0.00      62.42       1.52       0.15       2.03       ----

> <Gold.Chemscore.Fitness>
15.0077

> <Gold.Chemscore.DG>
-17.1871

> <Gold.Chemscore.ZeroCoef>
-5.4800

> <Gold.Chemscore.Hbond>
2.4830

> <Gold.Chemscore.Metal>
0.0000

> <Gold.Chemscore.Lipo>
62.4154

> <Gold.Chemscore.Internal_Hbond>
0.0000

> <Gold.Chemscore.DEClash>
0.1542

> <Gold.Chemscore.DEInternal>
2.0253

> <Gold.Chemscore.Rot>
1.5190

> <Gold.Chemscore.Internal.Correction>
   9.000000E+99

> <Gold.Chemscore.Hbonds>
donor molecule, donor type, donor heavy atom, donor atom, acceptor molecule, acceptor atom, score
      L1  H    12    44       P1  7948  0.74
      P1  H  6896  6909       L1     7  0.01
      P1  H  6934  6947       L1    20  0.60

> <Gold.Chemscore.Hbond.Weighted>
-8.2932

> <Gold.Chemscore.Metal.Weighted>
-0.0000

> <Gold.Chemscore.Lipo.Weighted>
-7.3026

> <Gold.Chemscore.Internal_Hbond.Weighted>
0.0000

> <Gold.Chemscore.DEClash.Weighted>
0.1542

> <Gold.Chemscore.DEInternal.Weighted>
2.0253

> <Gold.Chemscore.Rot.Weighted>
3.8886

> <Gold.Chemscore.Internal.Correction.Weighted>
   9.000000E+99

> <Gold.Protein.RotatedTorsions>
[ 6907 6896 6895 6894 ] final    2.22 input  -60.11 | X-H torsion
[ 7974 7965 7964 7962 ] final  175.79 input  175.53 | X-H torsion
[ 8008 7997 7996 7995 ] final   10.66 input   59.86 | X-H torsion
[ 10167 10162 10161 10158 ] final  -30.49 input  -65.29 | X-H torsion
[ 10718 10713 10712 10709 ] final  -31.77 input   66.30 | X-H torsion
[ 10763 10752 10751 10750 ] final  105.30 input  -60.55 | X-H torsion
[ 11005 11000 10999 10996 ] final   87.60 input  -57.11 | X-H torsion

> <Gold.Protein.ActiveResidues>
 VAL166  LYS551  ARG553  GLY616  TRP617  ASP618  TYR619  PRO620  LYS621  CYS622 
 ASP623  PHE694  ASN695  SER759  ASP760  ASP761  ALA762  ILE779  LEU786  VAL792 
 PHE793  MET794  SER795  GLU796  ALA797  LYS798  CYS799  TRP800  GLU811  SER814 

> <Gold.Protein.RotatedAtoms>
  151.6053  135.1044  160.0069 H   0  0  0  0  0  0  0  0  0  0  0  0  # atno 6907 bound_to 6896
  152.4236  133.7154  159.6513 H   0  0  0  0  0  0  0  0  0  0  0  0  # atno 6908 bound_to 6896
  150.8124  133.8324  159.3198 H   0  0  0  0  0  0  0  0  0  0  0  0  # atno 6909 bound_to 6896
  144.7195  139.9999  143.6440 H   0  0  0  0  0  0  0  0  0  0  0  0  # atno 7974 bound_to 7965
  154.7963  140.2844  155.5954 H   0  0  0  0  0  0  0  0  0  0  0  0  # atno 8008 bound_to 7997
  156.2971  140.2595  156.2751 H   0  0  0  0  0  0  0  0  0  0  0  0  # atno 8009 bound_to 7997
  154.9610  140.0377  157.2179 H   0  0  0  0  0  0  0  0  0  0  0  0  # atno 8010 bound_to 7997
  140.7248  143.3844  151.1541 H   0  0  0  0  0  0  0  0  0  0  0  0  # atno 10167 bound_to 10162
  156.3832  130.4359  149.7453 H   0  0  0  0  0  0  0  0  0  0  0  0  # atno 10718 bound_to 10713
  153.3775  135.3914  155.1833 H   0  0  0  0  0  0  0  0  0  0  0  0  # atno 10763 bound_to 10752
  154.8703  135.3717  154.4899 H   0  0  0  0  0  0  0  0  0  0  0  0  # atno 10764 bound_to 10752
  153.5373  135.7085  153.5715 H   0  0  0  0  0  0  0  0  0  0  0  0  # atno 10765 bound_to 10752
  139.8916  134.8433  156.2882 H   0  0  0  0  0  0  0  0  0  0  0  0  # atno 11005 bound_to 11000
  146.0343  139.3363  143.0736 LP  0  0  0  0  0  0  0  0  0  0  0  0  # atno 17320 bound_to 7965
  145.8413  140.9579  143.0797 LP  0  0  0  0  0  0  0  0  0  0  0  0  # atno 17321 bound_to 7965
  139.7439  143.8882  152.3058 LP  0  0  0  0  0  0  0  0  0  0  0  0  # atno 17342 bound_to 10162
  139.8713  144.7067  150.8985 LP  0  0  0  0  0  0  0  0  0  0  0  0  # atno 17343 bound_to 10162
  156.4535  130.7918  151.2939 LP  0  0  0  0  0  0  0  0  0  0  0  0  # atno 17370 bound_to 10713
  157.7494  131.0088  150.3242 LP  0  0  0  0  0  0  0  0  0  0  0  0  # atno 17371 bound_to 10713
  140.9993  133.7161  156.0936 LP  0  0  0  0  0  0  0  0  0  0  0  0  # atno 17394 bound_to 11000
  140.7519  134.4035  157.5540 LP  0  0  0  0  0  0  0  0  0  0  0  0  # atno 17395 bound_to 11000

$$$$
