AV-unprocessed.smi:58|AV-procd|sdf|583|dock8
  -GOLD-   2262016483D 1   1.00000     0.00000
 Structure written by MMmdl.
 32 33  0  0  0  0  0  0  0  0  1 V2000
  153.6535  141.4051  160.1144 C   0  0  0  0  0  0  0  0  0  0  0  0
  152.7575  141.8431  159.0663 N   0  0  0  0  0  0  0  0  0  0  0  0
  152.4456  143.1286  158.6821 C   0  0  0  0  0  0  0  0  0  0  0  0
  151.5606  143.0415  157.6452 C   0  0  0  0  0  0  0  0  0  0  0  0
  150.9976  144.1335  156.9521 N   0  0  0  0  0  0  0  0  0  0  0  0
  151.3695  141.6341  157.4772 C   0  0  0  0  0  0  0  0  0  0  0  0
  150.4854  141.0916  156.3883 C   0  0  0  0  0  0  0  0  0  0  0  0
  151.0000  140.5625  155.4023 O   0  0  0  0  0  0  0  0  0  0  0  0
  149.1477  141.2561  156.5185 N   0  0  0  0  0  0  0  0  0  0  0  0
  148.4650  141.8510  157.6705 C   0  0  0  0  0  0  0  0  0  0  0  0
  146.9870  141.9287  157.2946 C   0  0  0  0  0  0  0  0  0  0  0  0
  146.8192  140.8355  156.2505 C   0  0  0  0  0  0  0  0  0  0  0  0
  148.1700  140.7953  155.5231 C   0  0  1  0  0  0  0  0  0  0  0  0
  148.1888  141.6916  154.2644 C   0  0  0  0  0  0  0  0  0  0  0  0
  149.2598  141.3282  153.4191 O   0  0  0  0  0  0  0  0  0  0  0  0
  152.1111  140.9258  158.3193 N   0  0  0  0  0  0  0  0  0  0  0  0
  154.0771  142.2680  160.6289 H   0  0  0  0  0  0  0  0  0  0  0  0
  154.4640  140.8157  159.6847 H   0  0  0  0  0  0  0  0  0  0  0  0
  153.1085  140.7948  160.8354 H   0  0  0  0  0  0  0  0  0  0  0  0
  152.8795  143.9897  159.1693 H   0  0  0  0  0  0  0  0  0  0  0  0
  151.2267  145.0875  157.1932 H   0  0  0  0  0  0  0  0  0  0  0  0
  150.2367  144.0130  156.2990 H   0  0  0  0  0  0  0  0  0  0  0  0
  148.5901  141.2005  158.5372 H   0  0  0  0  0  0  0  0  0  0  0  0
  148.8611  142.8363  157.9201 H   0  0  0  0  0  0  0  0  0  0  0  0
  146.3251  141.8009  158.1516 H   0  0  0  0  0  0  0  0  0  0  0  0
  146.7715  142.9000  156.8477 H   0  0  0  0  0  0  0  0  0  0  0  0
  146.6493  139.8818  156.7519 H   0  0  0  0  0  0  0  0  0  0  0  0
  145.9706  141.0115  155.5886 H   0  0  0  0  0  0  0  0  0  0  0  0
  148.3989  139.7665  155.2379 H   0  0  0  0  0  0  0  0  0  0  0  0
  147.2497  141.6186  153.7148 H   0  0  0  0  0  0  0  0  0  0  0  0
  148.3224  142.7407  154.5276 H   0  0  0  0  0  0  0  0  0  0  0  0
  148.9612  140.6525  152.8296 H   0  0  0  0  0  0  0  0  0  0  0  0
  1  2  1  0  0  0  0
  1 17  1  0  0  0  0
  1 18  1  0  0  0  0
  1 19  1  0  0  0  0
  2 16  1  0  0  0  0
  2  3  1  0  0  0  0
  3  4  2  0  0  0  0
  3 20  1  0  0  0  0
  4  5  1  0  0  0  0
  4  6  1  0  0  0  0
  5 21  1  0  0  0  0
  5 22  1  0  0  0  0
  6  7  1  0  0  0  0
  6 16  2  0  0  0  0
  7  8  2  0  0  0  0
  7  9  1  0  0  0  0
  9 13  1  0  0  0  0
  9 10  1  0  0  0  0
 10 11  1  0  0  0  0
 10 23  1  0  0  0  0
 10 24  1  0  0  0  0
 11 12  1  0  0  0  0
 11 25  1  0  0  0  0
 11 26  1  0  0  0  0
 12 13  1  0  0  0  0
 12 27  1  0  0  0  0
 12 28  1  0  0  0  0
 13 14  1  0  0  0  0
 13 29  1  0  0  0  0
 14 15  1  0  0  0  0
 14 30  1  0  0  0  0
 14 31  1  0  0  0  0
 15 32  1  0  0  0  0
M  END
> <s_m_source_file>
AV-unprocessed.smi

> <i_m_source_file_index>
58

> <i_lp_mmshare_version>
43012

> <i_f3d_flags>
0

> <s_epik_input>
W0NIM11uMVtjSF1jKFtOSDJdKWMobjEpQyg9TylOMltDSDJdW0NIMl1bQ0gyXVtDQEhdMltDSDJdW09IXQ==

> <s_epik_cmdline>
J2VwaWtfcHl0aG9uJywgJy1waCcsICc3LjAnLCAnLXRuJywgJzgnLCAnLW1hJywgJzIwMCcsICctbWV0YWxfYmluZGluZycsICctaW1hZScsICc8aW5maWxlLm1hZT4nLCAnLW9tYWUnLCAnPG91dGZpbGUubWFlPic=

> <r_lp_tautomer_probability>
1

> <r_epik_Ionization_Penalty>
5.64206e-05

> <r_epik_Ionization_Penalty_Charging>
0

> <r_epik_Ionization_Penalty_Neutral>
5.64206e-05

> <r_epik_State_Penalty>
-0

> <r_epik_Charging_Adjusted_Penalty>
0

> <i_epik_Tot_Q>
0

> <i_epik_Tot_abs_Q>
0

> <r_epik_Metal_State_Penalty>
-0

> <b_epik_Metal_Only>
0

> <s_lp_Force_Field>
OPLS_2005

> <r_lp_Energy>
40.444

> <b_lp_Chiralities_Consistent>
1

> <s_lp_Variant>
AV-unprocessed.smi:58-1

> <Gold.Version>
5.8.1

> <Gold.Id.Protein>
6NUR|6NUR_protein|mol2

> <Gold.PLP.Fitness>
38.6516

> <Gold.PLP.PLP>
-31.1035

> <Gold.PLP.part.hbond>
-4.9587

> <Gold.PLP.part.metal>
0.0000

> <Gold.PLP.part.buried>
-5.9840

> <Gold.PLP.part.nonpolar>
-20.9116

> <Gold.PLP.part.repulsive>
0.0716

> <Gold.PLP.ligand.clash>
0.0000

> <Gold.PLP.ligand.torsion>
1.5034

> <Gold.PLP.Chemscore.Hbond>
3.4240

> <Gold.PLP.Chemscore.CHOScore>
0.0000

> <Gold.PLP.Chemscore.Metal>
0.0000

> <Gold.Chemscore.Hbonds>
donor molecule, donor type, donor heavy atom, donor atom, acceptor molecule, acceptor atom, score
      L1  H     5    22       P1  8028  0.86
      L1  H    15    32       P1  7957  0.64
      P1  H  7989  7998       L1     8  0.91
      P1  H  8011  8017       L1    15  0.93

> <Gold.PLP.Chemscore.Internal.Correction>
0.2830

> <Gold.Rescore>
     Score         DG    S(hbond)    S(metal)    S(lipo)     H(rot)  DE(clash)    DE(int)     intcor
     16.67     -18.26       2.95        0.00      57.59       1.49       0.08       1.52       ----

> <Gold.Chemscore.Fitness>
16.6672

> <Gold.Chemscore.DG>
-18.2621

> <Gold.Chemscore.ZeroCoef>
-5.4800

> <Gold.Chemscore.Hbond>
2.9522

> <Gold.Chemscore.Metal>
0.0000

> <Gold.Chemscore.Lipo>
57.5909

> <Gold.Chemscore.Internal_Hbond>
0.0000

> <Gold.Chemscore.DEClash>
0.0778

> <Gold.Chemscore.DEInternal>
1.5171

> <Gold.Chemscore.Rot>
1.4907

> <Gold.Chemscore.Internal.Correction>
   9.000000E+99

> <Gold.Chemscore.Hbonds>
donor molecule, donor type, donor heavy atom, donor atom, acceptor molecule, acceptor atom, score
      L1  H     5    22       P1  8028  0.84
      L1  H    15    32       P1  7957  0.64
      P1  H  7989  7998       L1     8  0.84
      P1  H  8011  8017       L1    15  0.19

> <Gold.Chemscore.Hbond.Weighted>
-9.8602

> <Gold.Chemscore.Metal.Weighted>
-0.0000

> <Gold.Chemscore.Lipo.Weighted>
-6.7381

> <Gold.Chemscore.Internal_Hbond.Weighted>
0.0000

> <Gold.Chemscore.DEClash.Weighted>
0.0778

> <Gold.Chemscore.DEInternal.Weighted>
1.5171

> <Gold.Chemscore.Rot.Weighted>
3.8163

> <Gold.Chemscore.Internal.Correction.Weighted>
   9.000000E+99

> <Gold.Protein.RotatedTorsions>
[ 6907 6896 6895 6894 ] final   -1.73 input  -60.11 | X-H torsion
[ 7974 7965 7964 7962 ] final  172.19 input  175.53 | X-H torsion
[ 8008 7997 7996 7995 ] final   56.52 input   59.86 | X-H torsion
[ 10167 10162 10161 10158 ] final   86.20 input  -65.29 | X-H torsion
[ 10718 10713 10712 10709 ] final  -81.53 input   66.30 | X-H torsion
[ 10763 10752 10751 10750 ] final   62.94 input  -60.55 | X-H torsion
[ 11005 11000 10999 10996 ] final   49.54 input  -57.11 | X-H torsion

> <Gold.Protein.ActiveResidues>
 VAL166  LYS551  ARG553  GLY616  TRP617  ASP618  TYR619  PRO620  LYS621  CYS622 
 ASP623  PHE694  ASN695  SER759  ASP760  ASP761  ALA762  ILE779  LEU786  VAL792 
 PHE793  MET794  SER795  GLU796  ALA797  LYS798  CYS799  TRP800  GLU811  SER814 

> <Gold.Protein.RotatedAtoms>
  151.5414  135.1068  159.9927 H   0  0  0  0  0  0  0  0  0  0  0  0  # atno 6907 bound_to 6896
  152.4533  133.7669  159.6788 H   0  0  0  0  0  0  0  0  0  0  0  0  # atno 6908 bound_to 6896
  150.8469  133.7781  159.3064 H   0  0  0  0  0  0  0  0  0  0  0  0  # atno 6909 bound_to 6896
  144.7274  139.9461  143.6430 H   0  0  0  0  0  0  0  0  0  0  0  0  # atno 7974 bound_to 7965
  155.5187  140.3479  155.4402 H   0  0  0  0  0  0  0  0  0  0  0  0  # atno 8008 bound_to 7997
  156.0799  140.1384  156.9752 H   0  0  0  0  0  0  0  0  0  0  0  0  # atno 8009 bound_to 7997
  154.4574  140.0948  156.6772 H   0  0  0  0  0  0  0  0  0  0  0  0  # atno 8010 bound_to 7997
  139.8899  144.6391  150.8750 H   0  0  0  0  0  0  0  0  0  0  0  0  # atno 10167 bound_to 10162
  156.0048  130.4607  150.3967 H   0  0  0  0  0  0  0  0  0  0  0  0  # atno 10718 bound_to 10713
  153.0000  135.5447  154.6272 H   0  0  0  0  0  0  0  0  0  0  0  0  # atno 10763 bound_to 10752
  154.5558  135.2830  155.0968 H   0  0  0  0  0  0  0  0  0  0  0  0  # atno 10764 bound_to 10752
  154.2190  135.6454  153.5191 H   0  0  0  0  0  0  0  0  0  0  0  0  # atno 10765 bound_to 10752
  140.1095  134.4974  155.8690 H   0  0  0  0  0  0  0  0  0  0  0  0  # atno 11005 bound_to 11000
  146.0747  139.3735  143.0501 LP  0  0  0  0  0  0  0  0  0  0  0  0  # atno 17320 bound_to 7965
  145.7921  140.9809  143.1043 LP  0  0  0  0  0  0  0  0  0  0  0  0  # atno 17321 bound_to 7965
  140.7728  143.3518  151.1999 LP  0  0  0  0  0  0  0  0  0  0  0  0  # atno 17342 bound_to 10162
  139.7119  143.9363  152.2951 LP  0  0  0  0  0  0  0  0  0  0  0  0  # atno 17343 bound_to 10162
  157.2038  131.0444  151.2636 LP  0  0  0  0  0  0  0  0  0  0  0  0  # atno 17370 bound_to 10713
  157.3951  130.7303  149.6725 LP  0  0  0  0  0  0  0  0  0  0  0  0  # atno 17371 bound_to 10713
  141.2126  133.6722  156.6676 LP  0  0  0  0  0  0  0  0  0  0  0  0  # atno 17394 bound_to 11000
  140.3110  134.8086  157.4176 LP  0  0  0  0  0  0  0  0  0  0  0  0  # atno 17395 bound_to 11000

$$$$
