AV-unprocessed.smi:334|AV-procd|sdf|2367|dock8
  -GOLD-   2262022283D 1   1.00000     0.00000
 Structure written by MMmdl.
 44 46  0  0  0  0  0  0  0  0  3 V2000
  148.8228  138.9725  157.3222 C   0  0  0  0  0  0  0  0  0  0  0  0
  148.7183  140.4430  156.8857 C   0  0  1  0  0  0  0  0  0  0  0  0
  149.8950  141.1779  157.3375 N   0  0  0  0  0  0  0  0  0  0  0  0
  149.9102  142.1790  158.2338 C   0  0  0  0  0  0  0  0  0  0  0  0
  148.9062  142.5471  158.8421 O   0  0  0  0  0  0  0  0  0  0  0  0
  151.2462  142.8991  158.4876 C   0  0  0  0  0  0  0  0  0  0  0  0
  152.2030  142.1501  159.3241 N   0  0  0  0  0  0  0  0  0  0  0  0
  152.5060  142.6907  160.5892 C   0  0  0  0  0  0  0  0  0  0  0  0
  153.3535  142.0839  161.4429 C   0  0  0  0  0  0  0  0  0  0  0  0
  153.6473  142.6500  162.7410 N   0  3  0  0  0  0  0  0  0  0  0  0
  154.5111  142.1199  163.4320 O   0  0  0  0  0  0  0  0  0  0  0  0
  153.0256  143.6409  163.1129 O   0  5  0  0  0  0  0  0  0  0  0  0
  153.9592  140.8363  161.0192 C   0  0  0  0  0  0  0  0  0  0  0  0
  153.6717  140.3123  159.8116 C   0  0  0  0  0  0  0  0  0  0  0  0
  152.7462  140.9727  158.8856 C   0  0  0  0  0  0  0  0  0  0  0  0
  152.4675  140.4916  157.7875 O   0  0  0  0  0  0  0  0  0  0  0  0
  148.5974  140.5981  155.3518 C   0  0  2  0  0  0  0  0  0  0  0  0
  148.6651  142.0555  154.8383 C   0  0  0  0  0  0  0  0  0  0  0  0
  147.4548  142.1443  153.8904 C   0  0  2  0  0  0  0  0  0  0  0  0
  146.1654  142.2061  154.7291 C   0  0  0  0  0  0  0  0  0  0  0  0
  146.0405  140.7671  155.2620 C   0  0  0  0  0  0  0  0  0  0  0  0
  147.2971  140.0782  154.6901 C   0  0  1  0  0  0  0  0  0  0  0  0
  147.3891  140.7338  153.3153 C   0  0  0  0  0  0  0  0  0  0  0  0
  147.9298  138.4130  157.0428 H   0  0  0  0  0  0  0  0  0  0  0  0
  148.9308  138.8884  158.4038 H   0  0  0  0  0  0  0  0  0  0  0  0
  149.6813  138.4817  156.8628 H   0  0  0  0  0  0  0  0  0  0  0  0
  147.8416  140.8867  157.3581 H   0  0  0  0  0  0  0  0  0  0  0  0
  150.7688  140.9368  156.8931 H   0  0  0  0  0  0  0  0  0  0  0  0
  151.6990  143.1369  157.5235 H   0  0  0  0  0  0  0  0  0  0  0  0
  151.0252  143.8675  158.9387 H   0  0  0  0  0  0  0  0  0  0  0  0
  151.9988  143.6182  160.8133 H   0  0  0  0  0  0  0  0  0  0  0  0
  154.6463  140.3127  161.6672 H   0  0  0  0  0  0  0  0  0  0  0  0
  154.1334  139.3815  159.5164 H   0  0  0  0  0  0  0  0  0  0  0  0
  149.4287  140.0511  154.9025 H   0  0  0  0  0  0  0  0  0  0  0  0
  148.6043  142.7953  155.6378 H   0  0  0  0  0  0  0  0  0  0  0  0
  149.5992  142.2285  154.3022 H   0  0  0  0  0  0  0  0  0  0  0  0
  147.5348  142.9423  153.1517 H   0  0  0  0  0  0  0  0  0  0  0  0
  146.2274  142.9428  155.5310 H   0  0  0  0  0  0  0  0  0  0  0  0
  145.3068  142.4607  154.1065 H   0  0  0  0  0  0  0  0  0  0  0  0
  145.9730  140.7214  156.3479 H   0  0  0  0  0  0  0  0  0  0  0  0
  145.1392  140.2977  154.8656 H   0  0  0  0  0  0  0  0  0  0  0  0
  147.2243  138.9906  154.6644 H   0  0  0  0  0  0  0  0  0  0  0  0
  146.5098  140.5615  152.6920 H   0  0  0  0  0  0  0  0  0  0  0  0
  148.2834  140.4517  152.7565 H   0  0  0  0  0  0  0  0  0  0  0  0
  1  2  1  0  0  0  0
  1 24  1  0  0  0  0
  1 25  1  0  0  0  0
  1 26  1  0  0  0  0
  2  3  1  0  0  0  0
  2 17  1  0  0  0  0
  2 27  1  0  0  0  0
  3  4  1  0  0  0  0
  3 28  1  0  0  0  0
  4  5  2  0  0  0  0
  4  6  1  0  0  0  0
  6  7  1  0  0  0  0
  6 29  1  0  0  0  0
  6 30  1  0  0  0  0
  7 15  1  0  0  0  0
  7  8  1  0  0  0  0
  8  9  2  0  0  0  0
  8 31  1  0  0  0  0
  9 10  1  0  0  0  0
  9 13  1  0  0  0  0
 10 11  2  0  0  0  0
 10 12  1  0  0  0  0
 13 14  2  0  0  0  0
 13 32  1  0  0  0  0
 14 15  1  0  0  0  0
 14 33  1  0  0  0  0
 15 16  2  0  0  0  0
 17 22  1  0  0  0  0
 17 18  1  0  0  0  0
 17 34  1  0  0  0  0
 18 19  1  0  0  0  0
 18 35  1  0  0  0  0
 18 36  1  0  0  0  0
 19 23  1  0  0  0  0
 19 20  1  0  0  0  0
 19 37  1  0  0  0  0
 20 21  1  0  0  0  0
 20 38  1  0  0  0  0
 20 39  1  0  0  0  0
 21 22  1  0  0  0  0
 21 40  1  0  0  0  0
 21 41  1  0  0  0  0
 22 23  1  0  0  0  0
 22 42  1  0  0  0  0
 23 43  1  0  0  0  0
 23 44  1  0  0  0  0
M  CHG  1  10   1
M  CHG  1  12  -1
M  END
> <s_m_source_file>
AV-unprocessed.smi

> <i_m_source_file_index>
334

> <i_lp_mmshare_version>
43012

> <i_f3d_flags>
0

> <s_epik_input>
W0NIMl0xW0NIMl1bQ0BIXShbQ0gyXTIpW0NAQEhdKFtDSDJdW0NAQEhdMTIpW0NASF0oW0NIM10pW05IXUMoPU8pW0NIMl1uM1tjSF1jKFtOK10oPU8pW08tXSlbY0hdW2NIXWMzPU8=

> <s_epik_cmdline>
J2VwaWtfcHl0aG9uJywgJy1waCcsICc3LjAnLCAnLXRuJywgJzgnLCAnLW1hJywgJzIwMCcsICctbWV0YWxfYmluZGluZycsICctaW1hZScsICc8aW5maWxlLm1hZT4nLCAnLW9tYWUnLCAnPG91dGZpbGUubWFlPic=

> <r_lp_tautomer_probability>
1

> <r_epik_Ionization_Penalty>
2.17081e-08

> <r_epik_Ionization_Penalty_Charging>
8.1195e-11

> <r_epik_Ionization_Penalty_Neutral>
2.16269e-08

> <r_epik_State_Penalty>
-0

> <r_epik_Charging_Adjusted_Penalty>
8.1195e-11

> <i_epik_Tot_Q>
0

> <i_epik_Tot_abs_Q>
2

> <r_epik_Metal_State_Penalty>
-0

> <b_epik_Metal_Only>
0

> <s_lp_Force_Field>
OPLS_2005

> <r_lp_Energy>
62.3621

> <b_lp_Chiralities_Consistent>
1

> <s_lp_Variant>
AV-unprocessed.smi:334-6

> <Gold.Version>
5.8.1

> <Gold.Id.Protein>
6NUR|6NUR_protein|mol2

> <Gold.PLP.Fitness>
41.1346

> <Gold.PLP.PLP>
-40.0061

> <Gold.PLP.part.hbond>
-3.0000

> <Gold.PLP.part.metal>
0.0000

> <Gold.PLP.part.buried>
-1.4592

> <Gold.PLP.part.nonpolar>
-33.4370

> <Gold.PLP.part.repulsive>
0.3140

> <Gold.PLP.ligand.clash>
0.0000

> <Gold.PLP.ligand.torsion>
0.3406

> <Gold.PLP.Chemscore.Hbond>
0.5897

> <Gold.PLP.Chemscore.CHOScore>
0.0000

> <Gold.PLP.Chemscore.Metal>
0.0000

> <Gold.Chemscore.Hbonds>
donor molecule, donor type, donor heavy atom, donor atom, acceptor molecule, acceptor atom, score
      P1  H  7997  8008       L1    16  0.41

> <Gold.PLP.Chemscore.Internal.Correction>
0.0406

> <Gold.Rescore>
     Score         DG    S(hbond)    S(metal)    S(lipo)     H(rot)  DE(clash)    DE(int)     intcor
     10.48     -14.18       0.77        0.00      90.50       1.75       1.91       1.79       ----

> <Gold.Chemscore.Fitness>
10.4764

> <Gold.Chemscore.DG>
-14.1784

> <Gold.Chemscore.ZeroCoef>
-5.4800

> <Gold.Chemscore.Hbond>
0.7733

> <Gold.Chemscore.Metal>
0.0000

> <Gold.Chemscore.Lipo>
90.5022

> <Gold.Chemscore.Internal_Hbond>
0.0000

> <Gold.Chemscore.DEClash>
1.9100

> <Gold.Chemscore.DEInternal>
1.7919

> <Gold.Chemscore.Rot>
1.7474

> <Gold.Chemscore.Internal.Correction>
   9.000000E+99

> <Gold.Chemscore.Hbonds>
donor molecule, donor type, donor heavy atom, donor atom, acceptor molecule, acceptor atom, score
      P1  H  7997  8008       L1    16  0.26

> <Gold.Chemscore.Hbond.Weighted>
-2.5829

> <Gold.Chemscore.Metal.Weighted>
-0.0000

> <Gold.Chemscore.Lipo.Weighted>
-10.5888

> <Gold.Chemscore.Internal_Hbond.Weighted>
0.0000

> <Gold.Chemscore.DEClash.Weighted>
1.9100

> <Gold.Chemscore.DEInternal.Weighted>
1.7919

> <Gold.Chemscore.Rot.Weighted>
4.4733

> <Gold.Chemscore.Internal.Correction.Weighted>
   9.000000E+99

> <Gold.Protein.RotatedTorsions>
[ 6907 6896 6895 6894 ] final  133.04 input  -60.11 | X-H torsion
[ 7974 7965 7964 7962 ] final   17.32 input  175.53 | X-H torsion
[ 8008 7997 7996 7995 ] final  -63.44 input   59.86 | X-H torsion
[ 10167 10162 10161 10158 ] final -148.15 input  -65.29 | X-H torsion
[ 10718 10713 10712 10709 ] final  101.83 input   66.30 | X-H torsion
[ 10763 10752 10751 10750 ] final  173.71 input  -60.55 | X-H torsion
[ 11005 11000 10999 10996 ] final  161.24 input  -57.11 | X-H torsion

> <Gold.Protein.ActiveResidues>
 VAL166  LYS551  ARG553  GLY616  TRP617  ASP618  TYR619  PRO620  LYS621  CYS622 
 ASP623  PHE694  ASN695  SER759  ASP760  ASP761  ALA762  ILE779  LEU786  VAL792 
 PHE793  MET794  SER795  GLU796  ALA797  LYS798  CYS799  TRP800  GLU811  SER814 

> <Gold.Protein.RotatedAtoms>
  152.3262  133.5907  159.5777 H   0  0  0  0  0  0  0  0  0  0  0  0  # atno 6907 bound_to 6896
  150.7398  133.9937  159.3624 H   0  0  0  0  0  0  0  0  0  0  0  0  # atno 6908 bound_to 6896
  151.7817  135.0760  160.0425 H   0  0  0  0  0  0  0  0  0  0  0  0  # atno 6909 bound_to 6896
  146.2222  139.8620  142.8603 H   0  0  0  0  0  0  0  0  0  0  0  0  # atno 7974 bound_to 7965
  154.4554  140.0975  156.6743 H   0  0  0  0  0  0  0  0  0  0  0  0  # atno 8008 bound_to 7997
  155.5153  140.3477  155.4378 H   0  0  0  0  0  0  0  0  0  0  0  0  # atno 8009 bound_to 7997
  156.0767  140.1363  156.9751 H   0  0  0  0  0  0  0  0  0  0  0  0  # atno 8010 bound_to 7997
  139.7557  143.8451  152.2596 H   0  0  0  0  0  0  0  0  0  0  0  0  # atno 10167 bound_to 10162
  157.6819  131.0737  150.5312 H   0  0  0  0  0  0  0  0  0  0  0  0  # atno 10718 bound_to 10713
  154.4438  135.2763  155.1829 H   0  0  0  0  0  0  0  0  0  0  0  0  # atno 10763 bound_to 10752
  154.3684  135.6114  153.5730 H   0  0  0  0  0  0  0  0  0  0  0  0  # atno 10764 bound_to 10752
  152.9842  135.5851  154.4771 H   0  0  0  0  0  0  0  0  0  0  0  0  # atno 10765 bound_to 10752
  140.2138  134.8247  157.3149 H   0  0  0  0  0  0  0  0  0  0  0  0  # atno 11005 bound_to 11000
  145.2695  141.0104  143.3780 LP  0  0  0  0  0  0  0  0  0  0  0  0  # atno 17320 bound_to 7965
  144.9235  139.4383  143.6530 LP  0  0  0  0  0  0  0  0  0  0  0  0  # atno 17321 bound_to 7965
  139.8442  144.7195  150.9293 LP  0  0  0  0  0  0  0  0  0  0  0  0  # atno 17342 bound_to 10162
  140.7802  143.3956  151.1236 LP  0  0  0  0  0  0  0  0  0  0  0  0  # atno 17343 bound_to 10162
  156.5622  130.4258  149.6058 LP  0  0  0  0  0  0  0  0  0  0  0  0  # atno 17370 bound_to 10713
  156.2811  130.7071  151.1896 LP  0  0  0  0  0  0  0  0  0  0  0  0  # atno 17371 bound_to 10713
  140.1922  134.4357  155.7709 LP  0  0  0  0  0  0  0  0  0  0  0  0  # atno 17394 bound_to 11000
  141.2225  133.7032  156.8046 LP  0  0  0  0  0  0  0  0  0  0  0  0  # atno 17395 bound_to 11000

$$$$
