#       Name:                AV-unprocessed.smi:1311
#       Creating user name   scv26
#       Creation time:       Fri Mar 27 05:01:33 2020


#       File generated by GOLD software.
#

@<TRIPOS>MOLECULE
AV-unprocessed.smi:1311
    51    52     1
SMALL
NO_CHARGES


@<TRIPOS>ATOM
      1 ****        -1.3932   1.3433  -2.4356 C.3            1 S1                 0.0000
      2 ****        -0.8122   1.9723  -1.1587 C.3            1 S1                 0.0000
      3 ****        -1.2081   1.2526   0.1597 C.3            1 S1                 0.0000
      4 ****        -0.6165  -0.1790   0.2609 C.3            1 S1                 0.0000
      5 ****         0.8398  -0.1904   0.1456 N.am           1 S1                 0.0000
      6 ****         1.5441  -0.7016  -0.8764 C.2            1 S1                 0.0000
      7 ****         1.0301  -1.2268  -1.8633 O.2            1 S1                 0.0000
      8 ****         3.0659  -0.6092  -0.7676 C.3            1 S1                 0.0000
      9 ****         3.6137  -1.9039  -0.2270 C.2            1 S1                 0.0000
     10 ****         4.0388  -3.0488  -0.9603 C.2            1 S1                 0.0000
     11 ****         4.0491  -3.2517  -2.4484 C.3            1 S1                 0.0000
     12 ****         4.4669  -4.0144  -0.1643 N.2            1 S1                 0.0000
     13 ****         4.3332  -3.5244   1.1383 O.3            1 S1                 0.0000
     14 ****         3.8244  -2.2677   1.0745 C.2            1 S1                 0.0000
     15 ****         3.6044  -1.5655   2.3716 C.3            1 S1                 0.0000
     16 ****        -2.6895   1.2594   0.3502 N.4            1 S1                 1.0000
     17 ****        -3.1941   0.5367   1.5384 C.3            1 S1                 0.0000
     18 ****        -4.5951   1.0894   1.7725 C.3            1 S1                 0.0000
     19 ****        -4.4443   2.5639   1.4186 C.3            1 S1                 0.0000
     20 ****        -3.3210   2.6041   0.3734 C.3            1 S1                 0.0000
     21 ****        -1.0650   1.8949  -3.3167 H              1 S1                 0.0000
     22 ****        -2.4830   1.3567  -2.4296 H              1 S1                 0.0000
     23 ****        -1.0727   0.3102  -2.5619 H              1 S1                 0.0000
     24 ****         0.2734   2.0081  -1.2486 H              1 S1                 0.0000
     25 ****        -1.1151   3.0183  -1.1203 H              1 S1                 0.0000
     26 ****        -0.7827   1.8295   0.9827 H              1 S1                 0.0000
     27 ****        -0.8371  -0.6164   1.2341 H              1 S1                 0.0000
     28 ****        -1.0806  -0.8384  -0.4740 H              1 S1                 0.0000
     29 ****         1.3580   0.2148   0.9120 H              1 S1                 0.0000
     30 ****         3.4740  -0.3868  -1.7541 H              1 S1                 0.0000
     31 ****         3.3389   0.2347  -0.1324 H              1 S1                 0.0000
     32 ****         4.7648  -2.5827  -2.9264 H              1 S1                 0.0000
     33 ****         3.0678  -3.0471  -2.8763 H              1 S1                 0.0000
     34 ****         4.3195  -4.2736  -2.7168 H              1 S1                 0.0000
     35 ****         2.5688  -1.2387   2.4628 H              1 S1                 0.0000
     36 ****         4.2445  -0.6867   2.4464 H              1 S1                 0.0000
     37 ****         3.8270  -2.2183   3.2159 H              1 S1                 0.0000
     38 ****        -3.2038  -0.5430   1.3871 H              1 S1                 0.0000
     39 ****        -2.5632   0.7579   2.4011 H              1 S1                 0.0000
     40 ****        -5.3012   0.6139   1.0905 H              1 S1                 0.0000
     41 ****        -4.9501   0.9306   2.7912 H              1 S1                 0.0000
     42 ****        -5.3738   3.0017   1.0535 H              1 S1                 0.0000
     43 ****        -4.1406   3.1235   2.3041 H              1 S1                 0.0000
     44 ****        -2.6056   3.3836   0.6387 H              1 S1                 0.0000
     45 ****        -3.7104   2.8339  -0.6189 H              1 S1                 0.0000
     46 ****        -3.0876   0.7818  -0.4460 H              1 S1                 0.0000
     47 ****         0.0346  -1.2901  -1.9346 LP             1 S1                 0.0000
     48 ****         1.6078  -1.5904  -2.5941 LP             1 S1                 0.0000
     49 ****         4.8148  -4.9111  -0.4380 LP             1 S1                 0.0000
     50 ****         5.2278  -3.5041   1.5847 LP             1 S1                 0.0000
     51 ****         3.7144  -4.1131   1.6585 LP             1 S1                 0.0000
@<TRIPOS>BOND
    1    1    2 1     
    2    1   21 1     
    3    1   22 1     
    4    1   23 1     
    5    2    3 1     
    6    2   24 1     
    7    2   25 1     
    8    3    4 1     
    9    3   16 1     
   10    3   26 1     
   11    4    5 1     
   12    4   27 1     
   13    4   28 1     
   14    5    6 am    
   15    5   29 1     
   16    6    7 2     
   17    6    8 1     
   18    8    9 1     
   19    8   30 1     
   20    8   31 1     
   21    9   14 2     
   22    9   10 1     
   23   10   11 1     
   24   10   12 2     
   25   11   32 1     
   26   11   33 1     
   27   11   34 1     
   28   12   13 1     
   29   13   14 1     
   30   14   15 1     
   31   15   35 1     
   32   15   36 1     
   33   15   37 1     
   34   16   20 1     
   35   16   17 1     
   36   16   46 1     
   37   17   18 1     
   38   17   38 1     
   39   17   39 1     
   40   18   19 1     
   41   18   40 1     
   42   18   41 1     
   43   19   20 1     
   44   19   42 1     
   45   19   43 1     
   46   20   44 1     
   47   20   45 1     
   48    7   47 1     
   49    7   48 1     
   50   12   49 1     
   51   13   50 1     
   52   13   51 1     
@<TRIPOS>SUBSTRUCTURE
      1 S1             1
@<TRIPOS>SET
LONE_PAIRS      STATIC     ATOMS    <user>   **** ""
5 47 48 49 50 51
DONOR_HYDROGENS      STATIC     ATOMS    <user>   **** ""
2 29 46
ATOM$BLUE        STATIC     ATOMS    COLORGROUP SYSTEM
5 47 48 49 50 51
ATOM$RED        STATIC     ATOMS    COLORGROUP SYSTEM
2 29 46
