AV-unprocessed.smi:3303|AV-procd|sdf|12688|dock3
  -GOLD-   2272019 23D 1   1.00000     0.00000
 Structure written by MMmdl.
 44 45  0  0  0  0  0  0  0  0  2 V2000
  151.9292  138.0575  155.0399 C   0  0  0  0  0  0  0  0  0  0  0  0
  150.9777  139.1975  154.6402 C   0  0  1  0  0  0  0  0  0  0  0  0
  149.5654  138.6775  154.3141 C   0  0  0  0  0  0  0  0  0  0  0  0
  148.6790  139.7575  153.8087 N   0  3  1  0  0  0  0  0  0  0  0  0
  147.3797  139.2027  153.3572 C   0  0  0  0  0  0  0  0  0  0  0  0
  148.5534  140.8845  154.7810 C   0  0  2  0  0  0  0  0  0  0  0  0
  147.6677  142.0290  154.2509 C   0  0  0  0  0  0  0  0  0  0  0  0
  149.9457  141.4435  155.1558 C   0  0  0  0  0  0  0  0  0  0  0  0
  150.9237  140.3653  155.6533 C   0  0  1  0  0  0  0  0  0  0  0  0
  150.5079  139.9289  156.9821 N   0  0  0  0  0  0  0  0  0  0  0  0
  150.3557  141.0351  157.9173 C   0  0  0  0  0  0  0  0  0  0  0  0
  151.6591  141.2593  158.7030 C   0  0  0  0  0  0  0  0  0  0  0  0
  151.7488  142.6465  159.3198 C   0  0  0  0  0  0  0  0  0  0  0  0
  151.8453  143.7892  158.4974 C   0  0  0  0  0  0  0  0  0  0  0  0
  151.9564  145.0518  159.1114 C   0  0  0  0  0  0  0  0  0  0  0  0
  151.9694  145.1232  160.5177 C   0  0  0  0  0  0  0  0  0  0  0  0
  151.8672  143.9241  161.2503 C   0  0  0  0  0  0  0  0  0  0  0  0
  151.7603  142.7088  160.6715 N   0  0  0  0  0  0  0  0  0  0  0  0
  151.5756  137.5291  155.9256 H   0  0  0  0  0  0  0  0  0  0  0  0
  152.9311  138.4340  155.2468 H   0  0  0  0  0  0  0  0  0  0  0  0
  152.0157  137.3242  154.2377 H   0  0  0  0  0  0  0  0  0  0  0  0
  151.3808  139.6114  153.7144 H   0  0  0  0  0  0  0  0  0  0  0  0
  149.6416  137.8957  153.5571 H   0  0  0  0  0  0  0  0  0  0  0  0
  149.1160  138.2157  155.1952 H   0  0  0  0  0  0  0  0  0  0  0  0
  146.7808  138.8696  154.2055 H   0  0  0  0  0  0  0  0  0  0  0  0
  147.5319  138.3491  152.6958 H   0  0  0  0  0  0  0  0  0  0  0  0
  146.8047  139.9351  152.7916 H   0  0  0  0  0  0  0  0  0  0  0  0
  148.0844  140.4935  155.6857 H   0  0  0  0  0  0  0  0  0  0  0  0
  147.6784  142.8774  154.9359 H   0  0  0  0  0  0  0  0  0  0  0  0
  146.6254  141.7274  154.1496 H   0  0  0  0  0  0  0  0  0  0  0  0
  148.0146  142.3854  153.2803 H   0  0  0  0  0  0  0  0  0  0  0  0
  150.3802  141.9245  154.2783 H   0  0  0  0  0  0  0  0  0  0  0  0
  149.8475  142.2298  155.9059 H   0  0  0  0  0  0  0  0  0  0  0  0
  151.9104  140.8258  155.7266 H   0  0  0  0  0  0  0  0  0  0  0  0
  149.6324  139.4279  156.9278 H   0  0  0  0  0  0  0  0  0  0  0  0
  150.0844  141.9536  157.3979 H   0  0  0  0  0  0  0  0  0  0  0  0
  149.5391  140.8030  158.6017 H   0  0  0  0  0  0  0  0  0  0  0  0
  151.7303  140.5191  159.5006 H   0  0  0  0  0  0  0  0  0  0  0  0
  152.5231  141.0896  158.0585 H   0  0  0  0  0  0  0  0  0  0  0  0
  151.8408  143.7018  157.4207 H   0  0  0  0  0  0  0  0  0  0  0  0
  152.0330  145.9488  158.5149 H   0  0  0  0  0  0  0  0  0  0  0  0
  152.0540  146.0740  161.0227 H   0  0  0  0  0  0  0  0  0  0  0  0
  151.8735  143.9411  162.3300 H   0  0  0  0  0  0  0  0  0  0  0  0
  149.1298  140.1333  152.9868 H   0  0  0  0  0  0  0  0  0  0  0  0
  1  2  1  0  0  0  0
  1 19  1  0  0  0  0
  1 20  1  0  0  0  0
  1 21  1  0  0  0  0
  2  9  1  0  0  0  0
  2  3  1  0  0  0  0
  2 22  1  0  0  0  0
  3  4  1  0  0  0  0
  3 23  1  0  0  0  0
  3 24  1  0  0  0  0
  4  5  1  0  0  0  0
  4  6  1  0  0  0  0
  4 44  1  0  0  0  0
  5 25  1  0  0  0  0
  5 26  1  0  0  0  0
  5 27  1  0  0  0  0
  6  7  1  0  0  0  0
  6  8  1  0  0  0  0
  6 28  1  0  0  0  0
  7 29  1  0  0  0  0
  7 30  1  0  0  0  0
  7 31  1  0  0  0  0
  8  9  1  0  0  0  0
  8 32  1  0  0  0  0
  8 33  1  0  0  0  0
  9 10  1  0  0  0  0
  9 34  1  0  0  0  0
 10 11  1  0  0  0  0
 10 35  1  0  0  0  0
 11 12  1  0  0  0  0
 11 36  1  0  0  0  0
 11 37  1  0  0  0  0
 12 13  1  0  0  0  0
 12 38  1  0  0  0  0
 12 39  1  0  0  0  0
 13 18  1  0  0  0  0
 13 14  2  0  0  0  0
 14 15  1  0  0  0  0
 14 40  1  0  0  0  0
 15 16  2  0  0  0  0
 15 41  1  0  0  0  0
 16 17  1  0  0  0  0
 16 42  1  0  0  0  0
 17 18  2  0  0  0  0
 17 43  1  0  0  0  0
M  CHG  1   4   1
M  END
> <s_m_source_file>
AV-unprocessed.smi

> <i_m_source_file_index>
3303

> <i_lp_mmshare_version>
43012

> <i_f3d_flags>
0

> <s_epik_input>
W0NIM11bQ0BASF0xW0NIMl1OKFtDSDNdKVtDQEBIXShbQ0gzXSlbQ0gyXVtDQEhdMVtOSF1bQ0gyXVtDSDJdYzJbY0hdW2NIXVtjSF1bY0hdbjI=

> <s_epik_cmdline>
J2VwaWtfcHl0aG9uJywgJy1waCcsICc3LjAnLCAnLXRuJywgJzgnLCAnLW1hJywgJzIwMCcsICctbWV0YWxfYmluZGluZycsICctaW1hZScsICc8aW5maWxlLm1hZT4nLCAnLW9tYWUnLCAnPG91dGZpbGUubWFlPic=

> <r_epik_Ionization_Penalty>
2.31085

> <r_epik_Ionization_Penalty_Charging>
0.000313057

> <r_epik_Ionization_Penalty_Neutral>
2.31054

> <r_epik_State_Penalty>
2.4087

> <r_epik_Charging_Adjusted_Penalty>
2.40902

> <i_epik_Tot_Q>
1

> <i_epik_Tot_abs_Q>
1

> <r_epik_Metal_State_Penalty>
2.30979

> <b_epik_Metal_Only>
0

> <s_lp_Force_Field>
OPLS_2005

> <r_lp_Energy>
27.7125

> <b_lp_Chiralities_Consistent>
1

> <s_lp_Variant>
AV-unprocessed.smi:3303-32

> <Gold.Version>
5.8.1

> <Gold.Id.Protein>
6NUR|6NUR_protein|mol2

> <Gold.PLP.Fitness>
48.1322

> <Gold.PLP.PLP>
-45.8437

> <Gold.PLP.part.hbond>
-1.5919

> <Gold.PLP.part.metal>
0.0000

> <Gold.PLP.part.buried>
-3.4114

> <Gold.PLP.part.nonpolar>
-40.4573

> <Gold.PLP.part.repulsive>
0.1500

> <Gold.PLP.ligand.clash>
0.0000

> <Gold.PLP.ligand.torsion>
0.3577

> <Gold.PLP.Chemscore.Hbond>
1.0000

> <Gold.PLP.Chemscore.CHOScore>
0.0000

> <Gold.PLP.Chemscore.Metal>
0.0000

> <Gold.Chemscore.Hbonds>
donor molecule, donor type, donor heavy atom, donor atom, acceptor molecule, acceptor atom, score
      L1  H     4    44       P1  7957  1.00

> <Gold.PLP.Chemscore.Internal.Correction>
0.0039

> <Gold.Rescore>
     Score         DG    S(hbond)    S(metal)    S(lipo)     H(rot)  DE(clash)    DE(int)     intcor
     19.96     -20.57       1.00        0.00     129.56       1.33       0.27       0.34       ----

> <Gold.Chemscore.Fitness>
19.9609

> <Gold.Chemscore.DG>
-20.5712

> <Gold.Chemscore.ZeroCoef>
-5.4800

> <Gold.Chemscore.Hbond>
0.9970

> <Gold.Chemscore.Metal>
0.0000

> <Gold.Chemscore.Lipo>
129.5633

> <Gold.Chemscore.Internal_Hbond>
0.0000

> <Gold.Chemscore.DEClash>
0.2710

> <Gold.Chemscore.DEInternal>
0.3392

> <Gold.Chemscore.Rot>
1.3272

> <Gold.Chemscore.Internal.Correction>
   9.000000E+99

> <Gold.Chemscore.Hbonds>
donor molecule, donor type, donor heavy atom, donor atom, acceptor molecule, acceptor atom, score
      L1  H     4    44       P1  7957  0.96

> <Gold.Chemscore.Hbond.Weighted>
-3.3299

> <Gold.Chemscore.Metal.Weighted>
-0.0000

> <Gold.Chemscore.Lipo.Weighted>
-15.1589

> <Gold.Chemscore.Internal_Hbond.Weighted>
0.0000

> <Gold.Chemscore.DEClash.Weighted>
0.2710

> <Gold.Chemscore.DEInternal.Weighted>
0.3392

> <Gold.Chemscore.Rot.Weighted>
3.3976

> <Gold.Chemscore.Internal.Correction.Weighted>
   9.000000E+99

> <Gold.Protein.RotatedTorsions>
[ 6907 6896 6895 6894 ] final  -96.19 input  -60.11 | X-H torsion
[ 7974 7965 7964 7962 ] final  155.38 input  175.53 | X-H torsion
[ 8008 7997 7996 7995 ] final  140.84 input   59.86 | X-H torsion
[ 10167 10162 10161 10158 ] final   24.20 input  -65.29 | X-H torsion
[ 10718 10713 10712 10709 ] final   47.69 input   66.30 | X-H torsion
[ 10763 10752 10751 10750 ] final  -55.46 input  -60.55 | X-H torsion
[ 11005 11000 10999 10996 ] final  120.94 input  -57.11 | X-H torsion

> <Gold.Protein.ActiveResidues>
 VAL166  LYS551  ARG553  GLY616  TRP617  ASP618  TYR619  PRO620  LYS621  CYS622 
 ASP623  PHE694  ASN695  SER759  ASP760  ASP761  ALA762  ILE779  LEU786  VAL792 
 PHE793  MET794  SER795  GLU796  ALA797  LYS798  CYS799  TRP800  GLU811  SER814 

> <Gold.Protein.RotatedAtoms>
  150.6982  134.1542  159.4151 H   0  0  0  0  0  0  0  0  0  0  0  0  # atno 6907 bound_to 6896
  151.9524  135.0160  160.0552 H   0  0  0  0  0  0  0  0  0  0  0  0  # atno 6908 bound_to 6896
  152.1999  133.4798  159.5090 H   0  0  0  0  0  0  0  0  0  0  0  0  # atno 6909 bound_to 6896
  144.8029  139.7060  143.6174 H   0  0  0  0  0  0  0  0  0  0  0  0  # atno 7974 bound_to 7965
  156.2974  140.2331  156.4466 H   0  0  0  0  0  0  0  0  0  0  0  0  # atno 8008 bound_to 7997
  154.8138  140.0441  157.1383 H   0  0  0  0  0  0  0  0  0  0  0  0  # atno 8009 bound_to 7997
  154.9392  140.3027  155.5132 H   0  0  0  0  0  0  0  0  0  0  0  0  # atno 8010 bound_to 7997
  140.5207  144.0007  150.6415 H   0  0  0  0  0  0  0  0  0  0  0  0  # atno 10167 bound_to 10162
  157.4610  130.8196  149.7886 H   0  0  0  0  0  0  0  0  0  0  0  0  # atno 10718 bound_to 10713
  154.1912  135.6427  153.5060 H   0  0  0  0  0  0  0  0  0  0  0  0  # atno 10763 bound_to 10752
  153.0034  135.5429  154.6413 H   0  0  0  0  0  0  0  0  0  0  0  0  # atno 10764 bound_to 10752
  154.5802  135.2924  155.0713 H   0  0  0  0  0  0  0  0  0  0  0  0  # atno 10765 bound_to 10752
  139.9205  134.9637  156.7882 H   0  0  0  0  0  0  0  0  0  0  0  0  # atno 11005 bound_to 11000
  146.2314  139.5821  142.9553 LP  0  0  0  0  0  0  0  0  0  0  0  0  # atno 17320 bound_to 7965
  145.5509  141.0413  143.2279 LP  0  0  0  0  0  0  0  0  0  0  0  0  # atno 17321 bound_to 7965
  140.3355  143.3051  152.0643 LP  0  0  0  0  0  0  0  0  0  0  0  0  # atno 17342 bound_to 10162
  139.4922  144.6479  151.6738 LP  0  0  0  0  0  0  0  0  0  0  0  0  # atno 17343 bound_to 10162
  156.0029  130.3871  150.2539 LP  0  0  0  0  0  0  0  0  0  0  0  0  # atno 17370 bound_to 10713
  157.0717  131.0118  151.3188 LP  0  0  0  0  0  0  0  0  0  0  0  0  # atno 17371 bound_to 10713
  140.6488  133.9750  155.7745 LP  0  0  0  0  0  0  0  0  0  0  0  0  # atno 17394 bound_to 11000
  141.0722  134.0189  157.3510 LP  0  0  0  0  0  0  0  0  0  0  0  0  # atno 17395 bound_to 11000

$$$$
