AV-unprocessed.smi:912|AV-procd|sdf|4145|dock9
  -GOLD-   22720 2 53D 1   1.00000     0.00000
 Structure written by MMmdl.
 27 27  0  0  0  0  0  0  0  0  2 V2000
  147.1211  135.8385  154.3038 C   0  0  0  0  0  0  0  0  0  0  0  0
  147.6164  137.1666  153.9477 N   0  0  0  0  0  0  0  0  0  0  0  0
  146.6450  138.2530  153.7257 C   0  0  2  0  0  0  0  0  0  0  0  0
  145.5027  138.0165  154.7477 C   0  0  0  0  0  0  0  0  0  0  0  0
  146.1075  138.2384  152.2683 C   0  0  0  0  0  0  0  0  0  0  0  0
  144.8045  137.9907  152.0926 N   0  0  0  0  0  0  0  0  0  0  0  0
  146.8534  138.4409  151.3116 O   0  0  0  0  0  0  0  0  0  0  0  0
  147.2650  139.6423  153.9875 C   0  0  0  0  0  0  0  0  0  0  0  0
  146.4966  140.8361  153.9516 C   0  0  0  0  0  0  0  0  0  0  0  0
  147.1183  142.0784  154.1923 C   0  0  0  0  0  0  0  0  0  0  0  0
  148.4402  142.1316  154.4568 N   0  3  0  0  0  0  0  0  0  0  0  0
  149.2176  141.0300  154.5029 C   0  0  0  0  0  0  0  0  0  0  0  0
  148.6506  139.7615  154.2684 C   0  0  0  0  0  0  0  0  0  0  0  0
  147.9651  135.2074  154.5817 H   0  0  0  0  0  0  0  0  0  0  0  0
  146.6186  135.3515  153.4681 H   0  0  0  0  0  0  0  0  0  0  0  0
  146.4397  135.8648  155.1531 H   0  0  0  0  0  0  0  0  0  0  0  0
  148.2770  137.1154  153.1861 H   0  0  0  0  0  0  0  0  0  0  0  0
  144.7327  138.7863  154.6883 H   0  0  0  0  0  0  0  0  0  0  0  0
  145.8830  138.0254  155.7700 H   0  0  0  0  0  0  0  0  0  0  0  0
  144.9966  137.0627  154.5989 H   0  0  0  0  0  0  0  0  0  0  0  0
  144.4160  137.9582  151.1616 H   0  0  0  0  0  0  0  0  0  0  0  0
  144.2156  137.8230  152.8958 H   0  0  0  0  0  0  0  0  0  0  0  0
  145.4381  140.8267  153.7399 H   0  0  0  0  0  0  0  0  0  0  0  0
  146.5991  143.0256  154.1801 H   0  0  0  0  0  0  0  0  0  0  0  0
  150.2621  141.1945  154.7244 H   0  0  0  0  0  0  0  0  0  0  0  0
  149.2814  138.8853  154.3094 H   0  0  0  0  0  0  0  0  0  0  0  0
  148.8694  143.0414  154.6282 H   0  0  0  0  0  0  0  0  0  0  0  0
  1  2  1  0  0  0  0
  1 14  1  0  0  0  0
  1 15  1  0  0  0  0
  1 16  1  0  0  0  0
  2  3  1  0  0  0  0
  2 17  1  0  0  0  0
  3  4  1  0  0  0  0
  3  5  1  0  0  0  0
  3  8  1  0  0  0  0
  4 18  1  0  0  0  0
  4 19  1  0  0  0  0
  4 20  1  0  0  0  0
  5  6  1  0  0  0  0
  5  7  2  0  0  0  0
  6 21  1  0  0  0  0
  6 22  1  0  0  0  0
  8 13  1  0  0  0  0
  8  9  2  0  0  0  0
  9 10  1  0  0  0  0
  9 23  1  0  0  0  0
 10 11  2  0  0  0  0
 10 24  1  0  0  0  0
 11 12  1  0  0  0  0
 11 27  1  0  0  0  0
 12 13  2  0  0  0  0
 12 25  1  0  0  0  0
 13 26  1  0  0  0  0
M  CHG  1  11   1
M  END
> <s_m_source_file>
AV-unprocessed.smi

> <i_m_source_file_index>
912

> <i_lp_mmshare_version>
43012

> <i_f3d_flags>
0

> <s_epik_input>
W0NIM11bTkhdW0NAQF0oW0NIM10pKEMoPU8pW05IMl0pYzFbY0hdW2NIXW5bY0hdW2NIXTE=

> <s_epik_cmdline>
J2VwaWtfcHl0aG9uJywgJy1waCcsICc3LjAnLCAnLXRuJywgJzgnLCAnLW1hJywgJzIwMCcsICctbWV0YWxfYmluZGluZycsICctaW1hZScsICc8aW5maWxlLm1hZT4nLCAnLW9tYWUnLCAnPG91dGZpbGUubWFlPic=

> <r_epik_Ionization_Penalty>
0.562542

> <r_epik_Ionization_Penalty_Charging>
0.554844

> <r_epik_Ionization_Penalty_Neutral>
0.00769834

> <r_epik_State_Penalty>
1.39075

> <r_epik_Charging_Adjusted_Penalty>
1.94559

> <i_epik_Tot_Q>
1

> <i_epik_Tot_abs_Q>
1

> <r_epik_Metal_State_Penalty>
1.55563

> <b_epik_Metal_Only>
0

> <s_lp_Force_Field>
OPLS_2005

> <r_lp_Energy>
18.1992

> <b_lp_Chiralities_Consistent>
1

> <s_lp_Variant>
AV-unprocessed.smi:912-6

> <Gold.Version>
5.8.1

> <Gold.Id.Protein>
6NUR|6NUR_protein|mol2

> <Gold.PLP.Fitness>
33.1473

> <Gold.PLP.PLP>
-19.4039

> <Gold.PLP.part.hbond>
-5.0000

> <Gold.PLP.part.metal>
0.0000

> <Gold.PLP.part.buried>
-2.7466

> <Gold.PLP.part.nonpolar>
-14.9968

> <Gold.PLP.part.repulsive>
1.4527

> <Gold.PLP.ligand.clash>
0.1792

> <Gold.PLP.ligand.torsion>
0.4802

> <Gold.PLP.Chemscore.Hbond>
4.9520

> <Gold.PLP.Chemscore.CHOScore>
0.0000

> <Gold.PLP.Chemscore.Metal>
0.0000

> <Gold.Chemscore.Hbonds>
donor molecule, donor type, donor heavy atom, donor atom, acceptor molecule, acceptor atom, score
      L1  H     2    17       P1  7948  1.00
      L1  H     6    21       P1 10171  1.00
      L1  H    11    27       P1  8028  1.95
      P1  H  7954  7966       L1     7  1.00

> <Gold.PLP.Chemscore.Internal.Correction>
0.0268

> <Gold.Rescore>
     Score         DG    S(hbond)    S(metal)    S(lipo)     H(rot)  DE(clash)    DE(int)     intcor
     16.80     -17.98       3.86        0.00      36.61       1.82       0.52       0.66       ----

> <Gold.Chemscore.Fitness>
16.7994

> <Gold.Chemscore.DG>
-17.9778

> <Gold.Chemscore.ZeroCoef>
-5.4800

> <Gold.Chemscore.Hbond>
3.8564

> <Gold.Chemscore.Metal>
0.0000

> <Gold.Chemscore.Lipo>
36.6081

> <Gold.Chemscore.Internal_Hbond>
0.0000

> <Gold.Chemscore.DEClash>
0.5151

> <Gold.Chemscore.DEInternal>
0.6633

> <Gold.Chemscore.Rot>
1.8226

> <Gold.Chemscore.Internal.Correction>
   9.000000E+99

> <Gold.Chemscore.Hbonds>
donor molecule, donor type, donor heavy atom, donor atom, acceptor molecule, acceptor atom, score
      L1  H     2    17       P1  7948  0.94
      L1  H     6    21       P1 10171  0.95
      L1  H    11    27       P1  8028  0.92
      P1  H  7954  7966       L1     7  0.94

> <Gold.Chemscore.Hbond.Weighted>
-12.8805

> <Gold.Chemscore.Metal.Weighted>
-0.0000

> <Gold.Chemscore.Lipo.Weighted>
-4.2831

> <Gold.Chemscore.Internal_Hbond.Weighted>
0.0000

> <Gold.Chemscore.DEClash.Weighted>
0.5151

> <Gold.Chemscore.DEInternal.Weighted>
0.6633

> <Gold.Chemscore.Rot.Weighted>
4.6659

> <Gold.Chemscore.Internal.Correction.Weighted>
   9.000000E+99

> <Gold.Protein.RotatedTorsions>
[ 6907 6896 6895 6894 ] final   21.42 input  -60.11 | X-H torsion
[ 7974 7965 7964 7962 ] final   32.40 input  175.53 | X-H torsion
[ 8008 7997 7996 7995 ] final  -77.49 input   59.86 | X-H torsion
[ 10167 10162 10161 10158 ] final -110.15 input  -65.29 | X-H torsion
[ 10718 10713 10712 10709 ] final -123.40 input   66.30 | X-H torsion
[ 10763 10752 10751 10750 ] final -121.71 input  -60.55 | X-H torsion
[ 11005 11000 10999 10996 ] final  119.08 input  -57.11 | X-H torsion

> <Gold.Protein.ActiveResidues>
 VAL166  LYS551  ARG553  GLY616  TRP617  ASP618  TYR619  PRO620  LYS621  CYS622 
 ASP623  PHE694  ASN695  SER759  ASP760  ASP761  ALA762  ILE779  LEU786  VAL792 
 PHE793  MET794  SER795  GLU796  ALA797  LYS798  CYS799  TRP800  GLU811  SER814 

> <Gold.Protein.RotatedAtoms>
  151.9116  135.0336  160.0514 H   0  0  0  0  0  0  0  0  0  0  0  0  # atno 6907 bound_to 6896
  152.2275  133.5027  159.5205 H   0  0  0  0  0  0  0  0  0  0  0  0  # atno 6908 bound_to 6896
  150.7016  134.1178  159.4066 H   0  0  0  0  0  0  0  0  0  0  0  0  # atno 6909 bound_to 6896
  146.1488  139.6530  142.9113 H   0  0  0  0  0  0  0  0  0  0  0  0  # atno 7974 bound_to 7965
  154.5601  140.0709  156.8805 H   0  0  0  0  0  0  0  0  0  0  0  0  # atno 8008 bound_to 7997
  155.2827  140.3373  155.4239 H   0  0  0  0  0  0  0  0  0  0  0  0  # atno 8009 bound_to 7997
  156.2035  140.1731  156.7835 H   0  0  0  0  0  0  0  0  0  0  0  0  # atno 8010 bound_to 7997
  140.1475  143.4226  152.1518 H   0  0  0  0  0  0  0  0  0  0  0  0  # atno 10167 bound_to 10162
  156.1499  130.6527  150.9898 H   0  0  0  0  0  0  0  0  0  0  0  0  # atno 10718 bound_to 10713
  154.8674  135.4158  154.2664 H   0  0  0  0  0  0  0  0  0  0  0  0  # atno 10763 bound_to 10752
  153.3582  135.7002  153.6739 H   0  0  0  0  0  0  0  0  0  0  0  0  # atno 10764 bound_to 10752
  153.5651  135.3602  155.2787 H   0  0  0  0  0  0  0  0  0  0  0  0  # atno 10765 bound_to 10752
  139.9133  134.9625  156.7601 H   0  0  0  0  0  0  0  0  0  0  0  0  # atno 11005 bound_to 11000
  145.4872  141.0438  143.2613 LP  0  0  0  0  0  0  0  0  0  0  0  0  # atno 17320 bound_to 7965
  144.7879  139.6389  143.7126 LP  0  0  0  0  0  0  0  0  0  0  0  0  # atno 17321 bound_to 7965
  139.5442  144.7283  151.4638 LP  0  0  0  0  0  0  0  0  0  0  0  0  # atno 17342 bound_to 10162
  140.6722  143.8268  150.7014 LP  0  0  0  0  0  0  0  0  0  0  0  0  # atno 17343 bound_to 10162
  157.6648  131.0874  150.7754 LP  0  0  0  0  0  0  0  0  0  0  0  0  # atno 17370 bound_to 10713
  156.7823  130.4863  149.5399 LP  0  0  0  0  0  0  0  0  0  0  0  0  # atno 17371 bound_to 10713
  140.6704  133.9564  155.7853 LP  0  0  0  0  0  0  0  0  0  0  0  0  # atno 17394 bound_to 11000
  141.0581  134.0386  157.3695 LP  0  0  0  0  0  0  0  0  0  0  0  0  # atno 17395 bound_to 11000

$$$$
