AV-unprocessed.smi:578|AV-procd|sdf|2984|dock1
  -GOLD-   2262023493D 1   1.00000     0.00000
 Structure written by MMmdl.
 32 33  0  0  0  0  0  0  0  0  2 V2000
  153.6769  141.9712  161.0068 C   0  0  0  0  0  0  0  0  0  0  0  0
  152.5129  142.4396  160.1280 C   0  0  2  0  0  0  0  0  0  0  0  0
  152.4184  141.6332  158.8206 C   0  0  0  0  0  0  0  0  0  0  0  0
  151.3657  142.1782  157.9757 N   0  0  0  0  0  0  0  0  0  0  0  0
  151.1123  141.4059  156.8337 C   0  0  0  0  0  0  0  0  0  0  0  0
  150.0071  141.7183  156.0189 C   0  0  0  0  0  0  0  0  0  0  0  0
  149.7695  140.9280  154.8787 C   0  0  0  0  0  0  0  0  0  0  0  0
  150.5478  139.8849  154.5245 N   0  0  0  0  0  0  0  0  0  0  0  0
  151.6146  139.5770  155.3015 C   0  0  0  0  0  0  0  0  0  0  0  0
  152.4682  138.4088  154.8847 C   0  0  0  0  0  0  0  0  0  0  0  0
  151.9119  137.3961  154.4033 O   0  0  0  0  0  0  0  0  0  0  0  0
  153.7095  138.4819  155.0306 O   0  5  0  0  0  0  0  0  0  0  0  0
  151.9313  140.3152  156.4669 C   0  0  0  0  0  0  0  0  0  0  0  0
  151.5685  143.5906  157.6821 C   0  0  0  0  0  0  0  0  0  0  0  0
  151.7130  144.4035  158.9847 C   0  0  1  0  0  0  0  0  0  0  0  0
  150.3829  144.6081  159.7314 C   0  0  0  0  0  0  0  0  0  0  0  0
  152.7155  143.8199  159.8221 O   0  0  0  0  0  0  0  0  0  0  0  0
  153.5671  140.9200  161.2749 H   0  0  0  0  0  0  0  0  0  0  0  0
  153.7228  142.5469  161.9314 H   0  0  0  0  0  0  0  0  0  0  0  0
  154.6313  142.0885  160.4927 H   0  0  0  0  0  0  0  0  0  0  0  0
  151.5909  142.3219  160.6978 H   0  0  0  0  0  0  0  0  0  0  0  0
  153.3718  141.6684  158.2913 H   0  0  0  0  0  0  0  0  0  0  0  0
  152.2087  140.5852  159.0391 H   0  0  0  0  0  0  0  0  0  0  0  0
  149.3535  142.5435  156.2608 H   0  0  0  0  0  0  0  0  0  0  0  0
  148.9299  141.1396  154.2333 H   0  0  0  0  0  0  0  0  0  0  0  0
  152.7873  140.0513  157.0709 H   0  0  0  0  0  0  0  0  0  0  0  0
  152.4722  143.7063  157.0820 H   0  0  0  0  0  0  0  0  0  0  0  0
  150.7392  143.9730  157.0852 H   0  0  0  0  0  0  0  0  0  0  0  0
  152.0799  145.3948  158.7176 H   0  0  0  0  0  0  0  0  0  0  0  0
  149.6773  145.1648  159.1145 H   0  0  0  0  0  0  0  0  0  0  0  0
  150.5358  145.1753  160.6497 H   0  0  0  0  0  0  0  0  0  0  0  0
  149.9068  143.6642  159.9953 H   0  0  0  0  0  0  0  0  0  0  0  0
  1  2  1  0  0  0  0
  1 18  1  0  0  0  0
  1 19  1  0  0  0  0
  1 20  1  0  0  0  0
  2 17  1  0  0  0  0
  2  3  1  0  0  0  0
  2 21  1  0  0  0  0
  3  4  1  0  0  0  0
  3 22  1  0  0  0  0
  3 23  1  0  0  0  0
  4  5  1  0  0  0  0
  4 14  1  0  0  0  0
  5 13  1  0  0  0  0
  5  6  2  0  0  0  0
  6  7  1  0  0  0  0
  6 24  1  0  0  0  0
  7  8  2  0  0  0  0
  7 25  1  0  0  0  0
  8  9  1  0  0  0  0
  9 10  1  0  0  0  0
  9 13  2  0  0  0  0
 10 11  2  0  0  0  0
 10 12  1  0  0  0  0
 13 26  1  0  0  0  0
 14 15  1  0  0  0  0
 14 27  1  0  0  0  0
 14 28  1  0  0  0  0
 15 16  1  0  0  0  0
 15 17  1  0  0  0  0
 15 29  1  0  0  0  0
 16 30  1  0  0  0  0
 16 31  1  0  0  0  0
 16 32  1  0  0  0  0
M  CHG  1  12  -1
M  END
> <s_m_source_file>
AV-unprocessed.smi

> <i_m_source_file_index>
578

> <i_lp_mmshare_version>
43012

> <i_f3d_flags>
0

> <s_epik_input>
W0NIM11bQ0BASF0xW0NIMl1OKFtDSDJdW0NASF0oTzEpW0NIM10pYzJbY0hdW2NIXW5jKFtjSF0yKUMoPU8pW09IXQ==

> <s_epik_cmdline>
J2VwaWtfcHl0aG9uJywgJy1waCcsICc3LjAnLCAnLXRuJywgJzgnLCAnLW1hJywgJzIwMCcsICctbWV0YWxfYmluZGluZycsICctaW1hZScsICc8aW5maWxlLm1hZT4nLCAnLW9tYWUnLCAnPG91dGZpbGUubWFlPic=

> <r_epik_Ionization_Penalty>
2.00764

> <r_epik_Ionization_Penalty_Charging>
0.000210348

> <r_epik_Ionization_Penalty_Neutral>
2.00743

> <r_epik_State_Penalty>
2.13668

> <r_epik_Charging_Adjusted_Penalty>
2.13689

> <i_epik_Tot_Q>
-1

> <i_epik_Tot_abs_Q>
1

> <r_epik_Metal_State_Penalty>
0.0208571

> <b_epik_Metal_Only>
0

> <s_lp_Force_Field>
OPLS_2005

> <r_lp_Energy>
23.9914

> <b_lp_Chiralities_Consistent>
1

> <s_lp_Variant>
AV-unprocessed.smi:578-4

> <Gold.Version>
5.8.1

> <Gold.Id.Protein>
6NUR|6NUR_protein|mol2

> <Gold.PLP.Fitness>
51.8793

> <Gold.PLP.PLP>
-41.8129

> <Gold.PLP.part.hbond>
-3.0000

> <Gold.PLP.part.metal>
0.0000

> <Gold.PLP.part.buried>
-5.1954

> <Gold.PLP.part.nonpolar>
-33.5488

> <Gold.PLP.part.repulsive>
0.2882

> <Gold.PLP.ligand.clash>
0.3185

> <Gold.PLP.ligand.torsion>
0.6404

> <Gold.PLP.Chemscore.Hbond>
3.8575

> <Gold.PLP.Chemscore.CHOScore>
0.0000

> <Gold.PLP.Chemscore.Metal>
0.0000

> <Gold.Chemscore.Hbonds>
donor molecule, donor type, donor heavy atom, donor atom, acceptor molecule, acceptor atom, score
      P1  H  7989  7998       L1     8  0.32
      P1  H  7997  8010       L1    12  1.62
      P1  H 10752 10765       L1    11  1.89

> <Gold.PLP.Chemscore.Internal.Correction>
0.0932

> <Gold.Rescore>
     Score         DG    S(hbond)    S(metal)    S(lipo)     H(rot)  DE(clash)    DE(int)     intcor
     18.88     -19.46       1.59        0.00      96.03       1.00       0.03       0.54       ----

> <Gold.Chemscore.Fitness>
18.8828

> <Gold.Chemscore.DG>
-19.4561

> <Gold.Chemscore.ZeroCoef>
-5.4800

> <Gold.Chemscore.Hbond>
1.5870

> <Gold.Chemscore.Metal>
0.0000

> <Gold.Chemscore.Lipo>
96.0312

> <Gold.Chemscore.Internal_Hbond>
0.0000

> <Gold.Chemscore.DEClash>
0.0289

> <Gold.Chemscore.DEInternal>
0.5443

> <Gold.Chemscore.Rot>
1.0000

> <Gold.Chemscore.Internal.Correction>
   9.000000E+99

> <Gold.Chemscore.Hbonds>
donor molecule, donor type, donor heavy atom, donor atom, acceptor molecule, acceptor atom, score
      P1  H  7997  8010       L1    12  0.70
      P1  H 10752 10765       L1    11  0.82

> <Gold.Chemscore.Hbond.Weighted>
-5.3004

> <Gold.Chemscore.Metal.Weighted>
-0.0000

> <Gold.Chemscore.Lipo.Weighted>
-11.2356

> <Gold.Chemscore.Internal_Hbond.Weighted>
0.0000

> <Gold.Chemscore.DEClash.Weighted>
0.0289

> <Gold.Chemscore.DEInternal.Weighted>
0.5443

> <Gold.Chemscore.Rot.Weighted>
2.5600

> <Gold.Chemscore.Internal.Correction.Weighted>
   9.000000E+99

> <Gold.Protein.RotatedTorsions>
[ 6907 6896 6895 6894 ] final   -2.85 input  -60.11 | X-H torsion
[ 7974 7965 7964 7962 ] final   17.08 input  175.53 | X-H torsion
[ 8008 7997 7996 7995 ] final  104.89 input   59.86 | X-H torsion
[ 10167 10162 10161 10158 ] final  -35.72 input  -65.29 | X-H torsion
[ 10718 10713 10712 10709 ] final -118.75 input   66.30 | X-H torsion
[ 10763 10752 10751 10750 ] final  165.60 input  -60.55 | X-H torsion
[ 11005 11000 10999 10996 ] final -164.53 input  -57.11 | X-H torsion

> <Gold.Protein.ActiveResidues>
 VAL166  LYS551  ARG553  GLY616  TRP617  ASP618  TYR619  PRO620  LYS621  CYS622 
 ASP623  PHE694  ASN695  SER759  ASP760  ASP761  ALA762  ILE779  LEU786  VAL792 
 PHE793  MET794  SER795  GLU796  ALA797  LYS798  CYS799  TRP800  GLU811  SER814 

> <Gold.Protein.RotatedAtoms>
  151.5233  135.1067  159.9883 H   0  0  0  0  0  0  0  0  0  0  0  0  # atno 6907 bound_to 6896
  152.4611  133.7820  159.6866 H   0  0  0  0  0  0  0  0  0  0  0  0  # atno 6908 bound_to 6896
  150.8574  133.7631  159.3029 H   0  0  0  0  0  0  0  0  0  0  0  0  # atno 6909 bound_to 6896
  146.2229  139.8654  142.8597 H   0  0  0  0  0  0  0  0  0  0  0  0  # atno 7974 bound_to 7965
  156.1612  140.3140  155.8810 H   0  0  0  0  0  0  0  0  0  0  0  0  # atno 8008 bound_to 7997
  155.3779  140.0486  157.3061 H   0  0  0  0  0  0  0  0  0  0  0  0  # atno 8009 bound_to 7997
  154.5148  140.2177  155.9098 H   0  0  0  0  0  0  0  0  0  0  0  0  # atno 8010 bound_to 7997
  140.7159  143.3458  151.2260 H   0  0  0  0  0  0  0  0  0  0  0  0  # atno 10167 bound_to 10162
  156.1130  130.6263  150.9330 H   0  0  0  0  0  0  0  0  0  0  0  0  # atno 10718 bound_to 10713
  154.3264  135.2755  155.2494 H   0  0  0  0  0  0  0  0  0  0  0  0  # atno 10763 bound_to 10752
  154.4825  135.5855  153.6403 H   0  0  0  0  0  0  0  0  0  0  0  0  # atno 10764 bound_to 10752
  152.9871  135.6115  154.3453 H   0  0  0  0  0  0  0  0  0  0  0  0  # atno 10765 bound_to 10752
  140.5859  134.5094  157.5185 H   0  0  0  0  0  0  0  0  0  0  0  0  # atno 11005 bound_to 11000
  145.2662  141.0093  143.3798 LP  0  0  0  0  0  0  0  0  0  0  0  0  # atno 17320 bound_to 7965
  144.9259  139.4355  143.6518 LP  0  0  0  0  0  0  0  0  0  0  0  0  # atno 17321 bound_to 7965
  139.6977  143.9585  152.2890 LP  0  0  0  0  0  0  0  0  0  0  0  0  # atno 17342 bound_to 10162
  139.9268  144.6766  150.8404 LP  0  0  0  0  0  0  0  0  0  0  0  0  # atno 17343 bound_to 10162
  157.6312  131.0921  150.8438 LP  0  0  0  0  0  0  0  0  0  0  0  0  # atno 17370 bound_to 10713
  156.8546  130.5092  149.5309 LP  0  0  0  0  0  0  0  0  0  0  0  0  # atno 17371 bound_to 10713
  139.9296  134.7989  156.0969 LP  0  0  0  0  0  0  0  0  0  0  0  0  # atno 17394 bound_to 11000
  141.0966  133.6693  156.2660 LP  0  0  0  0  0  0  0  0  0  0  0  0  # atno 17395 bound_to 11000

$$$$
