AV-unprocessed.smi:2069|AV-procd|sdf|8437|dock9
  -GOLD-   2272011133D 1   1.00000     0.00000
 Structure written by MMmdl.
 38 39  0  0  0  0  0  0  0  0  3 V2000
  152.4589  140.3365  159.1850 C   0  0  0  0  0  0  0  0  0  0  0  0
  152.2113  139.9457  157.7685 C   0  0  0  0  0  0  0  0  0  0  0  0
  153.1458  139.3782  157.0019 N   0  0  0  0  0  0  0  0  0  0  0  0
  152.6799  139.1091  155.7230 N   0  0  0  0  0  0  0  0  0  0  0  0
  151.4075  139.4873  155.5362 C   0  0  0  0  0  0  0  0  0  0  0  0
  150.7694  139.3149  154.3667 N   0  5  0  0  0  0  0  0  0  0  0  0
  149.4659  139.6548  154.2528 C   0  0  0  0  0  0  0  0  0  0  0  0
  148.9065  140.6093  154.7973 O   0  0  0  0  0  0  0  0  0  0  0  0
  148.7638  138.8361  153.4592 N   0  0  0  0  0  0  0  0  0  0  0  0
  147.3424  138.9709  153.1621 C   0  0  0  0  0  0  0  0  0  0  0  0
  146.5044  137.8059  153.7516 C   0  0  2  0  0  0  0  0  0  0  0  0
  147.0205  137.4377  155.1635 C   0  0  0  0  0  0  0  0  0  0  0  0
  146.4752  136.5943  152.8655 N   0  3  0  0  0  0  0  0  0  0  0  0
  146.1519  135.3428  153.6058 C   0  0  0  0  0  0  0  0  0  0  0  0
  146.1839  134.1174  152.6780 C   0  0  0  0  0  0  0  0  0  0  0  0
  145.2726  134.3069  151.6071 O   0  0  0  0  0  0  0  0  0  0  0  0
  145.6329  135.4293  150.8175 C   0  0  0  0  0  0  0  0  0  0  0  0
  145.5906  136.7075  151.6719 C   0  0  0  0  0  0  0  0  0  0  0  0
  150.6680  140.1983  156.9708 S   0  0  0  0  0  0  0  0  0  0  0  0
  153.0149  141.2733  159.2204 H   0  0  0  0  0  0  0  0  0  0  0  0
  153.0361  139.5647  159.6947 H   0  0  0  0  0  0  0  0  0  0  0  0
  151.5139  140.4695  159.7119 H   0  0  0  0  0  0  0  0  0  0  0  0
  149.2564  138.0662  153.0302 H   0  0  0  0  0  0  0  0  0  0  0  0
  147.0362  139.9277  153.5855 H   0  0  0  0  0  0  0  0  0  0  0  0
  147.2011  139.0270  152.0814 H   0  0  0  0  0  0  0  0  0  0  0  0
  145.4790  138.1675  153.8474 H   0  0  0  0  0  0  0  0  0  0  0  0
  147.0702  138.3058  155.8205 H   0  0  0  0  0  0  0  0  0  0  0  0
  148.0214  137.0078  155.1167 H   0  0  0  0  0  0  0  0  0  0  0  0
  146.3748  136.7270  155.6757 H   0  0  0  0  0  0  0  0  0  0  0  0
  146.8601  135.1661  154.4123 H   0  0  0  0  0  0  0  0  0  0  0  0
  145.1649  135.4337  154.0620 H   0  0  0  0  0  0  0  0  0  0  0  0
  147.1905  133.9428  152.2944 H   0  0  0  0  0  0  0  0  0  0  0  0
  145.8948  133.2230  153.2302 H   0  0  0  0  0  0  0  0  0  0  0  0
  146.6240  135.2829  150.3844 H   0  0  0  0  0  0  0  0  0  0  0  0
  144.9334  135.5126  149.9856 H   0  0  0  0  0  0  0  0  0  0  0  0
  144.5677  136.9122  151.9921 H   0  0  0  0  0  0  0  0  0  0  0  0
  145.9052  137.5287  151.0295 H   0  0  0  0  0  0  0  0  0  0  0  0
  147.4124  136.4873  152.5044 H   0  0  0  0  0  0  0  0  0  0  0  0
  1  2  1  0  0  0  0
  1 20  1  0  0  0  0
  1 21  1  0  0  0  0
  1 22  1  0  0  0  0
  2 19  1  0  0  0  0
  2  3  2  0  0  0  0
  3  4  1  0  0  0  0
  4  5  2  0  0  0  0
  5  6  1  0  0  0  0
  5 19  1  0  0  0  0
  6  7  1  0  0  0  0
  7  8  2  0  0  0  0
  7  9  1  0  0  0  0
  9 10  1  0  0  0  0
  9 23  1  0  0  0  0
 10 11  1  0  0  0  0
 10 24  1  0  0  0  0
 10 25  1  0  0  0  0
 11 12  1  0  0  0  0
 11 13  1  0  0  0  0
 11 26  1  0  0  0  0
 12 27  1  0  0  0  0
 12 28  1  0  0  0  0
 12 29  1  0  0  0  0
 13 18  1  0  0  0  0
 13 14  1  0  0  0  0
 13 38  1  0  0  0  0
 14 15  1  0  0  0  0
 14 30  1  0  0  0  0
 14 31  1  0  0  0  0
 15 16  1  0  0  0  0
 15 32  1  0  0  0  0
 15 33  1  0  0  0  0
 16 17  1  0  0  0  0
 17 18  1  0  0  0  0
 17 34  1  0  0  0  0
 17 35  1  0  0  0  0
 18 36  1  0  0  0  0
 18 37  1  0  0  0  0
M  CHG  1   6  -1
M  CHG  1  13   1
M  END
> <s_m_source_file>
AV-unprocessed.smi

> <i_m_source_file_index>
2069

> <i_lp_mmshare_version>
43012

> <i_f3d_flags>
0

> <s_epik_input>
W0NIM11jMW5uYyhzMSlbTkhdQyg9TylbTkhdW0NIMl1bQ0BIXShbQ0gzXSlOMltDSDJdW0NIMl1PW0NIMl1bQ0gyXTI=

> <s_epik_cmdline>
J2VwaWtfcHl0aG9uJywgJy1waCcsICc3LjAnLCAnLXRuJywgJzgnLCAnLW1hJywgJzIwMCcsICctbWV0YWxfYmluZGluZycsICctaW1hZScsICc8aW5maWxlLm1hZT4nLCAnLW9tYWUnLCAnPG91dGZpbGUubWFlPic=

> <r_lp_tautomer_probability>
1

> <r_epik_Ionization_Penalty>
3.53072

> <r_epik_Ionization_Penalty_Charging>
3.4216

> <r_epik_Ionization_Penalty_Neutral>
0.109115

> <r_epik_State_Penalty>
3.61496

> <r_epik_Charging_Adjusted_Penalty>
7.03656

> <i_epik_Tot_Q>
0

> <i_epik_Tot_abs_Q>
2

> <r_epik_Metal_State_Penalty>
1.13918

> <b_epik_Metal_Only>
1

> <s_lp_Force_Field>
OPLS_2005

> <r_lp_Energy>
13.5119

> <b_lp_Chiralities_Consistent>
1

> <s_lp_Variant>
AV-unprocessed.smi:2069-7

> <Gold.Version>
5.8.1

> <Gold.Id.Protein>
6NUR|6NUR_protein|mol2

> <Gold.PLP.Fitness>
38.5471

> <Gold.PLP.PLP>
-27.0880

> <Gold.PLP.part.hbond>
-5.9176

> <Gold.PLP.part.metal>
0.0000

> <Gold.PLP.part.buried>
-3.2351

> <Gold.PLP.part.nonpolar>
-18.9196

> <Gold.PLP.part.repulsive>
0.4498

> <Gold.PLP.ligand.clash>
0.0000

> <Gold.PLP.ligand.torsion>
0.9265

> <Gold.PLP.Chemscore.Hbond>
4.4149

> <Gold.PLP.Chemscore.CHOScore>
0.0000

> <Gold.PLP.Chemscore.Metal>
0.0000

> <Gold.Chemscore.Hbonds>
donor molecule, donor type, donor heavy atom, donor atom, acceptor molecule, acceptor atom, score
      L1  H     9    23       P1  7948  0.59
      L1  H    13    38       P1  7948  2.00
      P1  H  7989  7998       L1     6  0.75
      P1  H  7997  8010       L1     3  0.94

> <Gold.PLP.Chemscore.Internal.Correction>
0.0674

> <Gold.Rescore>
     Score         DG    S(hbond)    S(metal)    S(lipo)     H(rot)  DE(clash)    DE(int)     intcor
     13.07     -15.66       2.58        0.00      48.96       1.62       0.27       2.32       ----

> <Gold.Chemscore.Fitness>
13.0738

> <Gold.Chemscore.DG>
-15.6636

> <Gold.Chemscore.ZeroCoef>
-5.4800

> <Gold.Chemscore.Hbond>
2.5751

> <Gold.Chemscore.Metal>
0.0000

> <Gold.Chemscore.Lipo>
48.9589

> <Gold.Chemscore.Internal_Hbond>
0.0000

> <Gold.Chemscore.DEClash>
0.2669

> <Gold.Chemscore.DEInternal>
2.3230

> <Gold.Chemscore.Rot>
1.6192

> <Gold.Chemscore.Internal.Correction>
   9.000000E+99

> <Gold.Chemscore.Hbonds>
donor molecule, donor type, donor heavy atom, donor atom, acceptor molecule, acceptor atom, score
      L1  H     9    23       P1  7948  0.56
      L1  H    13    38       P1  7948  1.00
      P1  H  7989  7998       L1     6  0.03
      P1  H  7997  8010       L1     3  0.56

> <Gold.Chemscore.Hbond.Weighted>
-8.6007

> <Gold.Chemscore.Metal.Weighted>
-0.0000

> <Gold.Chemscore.Lipo.Weighted>
-5.7282

> <Gold.Chemscore.Internal_Hbond.Weighted>
0.0000

> <Gold.Chemscore.DEClash.Weighted>
0.2669

> <Gold.Chemscore.DEInternal.Weighted>
2.3230

> <Gold.Chemscore.Rot.Weighted>
4.1452

> <Gold.Chemscore.Internal.Correction.Weighted>
   9.000000E+99

> <Gold.Protein.RotatedTorsions>
[ 6907 6896 6895 6894 ] final   24.47 input  -60.11 | X-H torsion
[ 7974 7965 7964 7962 ] final -170.59 input  175.53 | X-H torsion
[ 8008 7997 7996 7995 ] final   42.72 input   59.86 | X-H torsion
[ 10167 10162 10161 10158 ] final -126.39 input  -65.29 | X-H torsion
[ 10718 10713 10712 10709 ] final   25.22 input   66.30 | X-H torsion
[ 10763 10752 10751 10750 ] final  -29.28 input  -60.55 | X-H torsion
[ 11005 11000 10999 10996 ] final   29.27 input  -57.11 | X-H torsion

> <Gold.Protein.ActiveResidues>
 VAL166  LYS551  ARG553  GLY616  TRP617  ASP618  TYR619  PRO620  LYS621  CYS622 
 ASP623  PHE694  ASN695  SER759  ASP760  ASP761  ALA762  ILE779  LEU786  VAL792 
 PHE793  MET794  SER795  GLU796  ALA797  LYS798  CYS799  TRP800  GLU811  SER814 

> <Gold.Protein.RotatedAtoms>
  151.9580  135.0137  160.0545 H   0  0  0  0  0  0  0  0  0  0  0  0  # atno 6907 bound_to 6896
  152.1894  133.4757  159.5008 H   0  0  0  0  0  0  0  0  0  0  0  0  # atno 6908 bound_to 6896
  150.6932  134.1650  159.4233 H   0  0  0  0  0  0  0  0  0  0  0  0  # atno 6909 bound_to 6896
  144.7168  140.2049  143.6334 H   0  0  0  0  0  0  0  0  0  0  0  0  # atno 7974 bound_to 7965
  155.2909  140.3378  155.4252 H   0  0  0  0  0  0  0  0  0  0  0  0  # atno 8008 bound_to 7997
  156.2046  140.1746  156.7866 H   0  0  0  0  0  0  0  0  0  0  0  0  # atno 8009 bound_to 7997
  154.5604  140.0688  156.8794 H   0  0  0  0  0  0  0  0  0  0  0  0  # atno 8010 bound_to 7997
  139.9720  143.5835  152.2409 H   0  0  0  0  0  0  0  0  0  0  0  0  # atno 10167 bound_to 10162
  157.1904  130.6843  149.6148 H   0  0  0  0  0  0  0  0  0  0  0  0  # atno 10718 bound_to 10713
  153.7620  135.6918  153.4923 H   0  0  0  0  0  0  0  0  0  0  0  0  # atno 10763 bound_to 10752
  153.1932  135.4463  155.0174 H   0  0  0  0  0  0  0  0  0  0  0  0  # atno 10764 bound_to 10752
  154.8149  135.3394  154.7135 H   0  0  0  0  0  0  0  0  0  0  0  0  # atno 10765 bound_to 10752
  140.3067  134.2695  155.7742 H   0  0  0  0  0  0  0  0  0  0  0  0  # atno 11005 bound_to 11000
  145.8645  139.2240  143.1697 LP  0  0  0  0  0  0  0  0  0  0  0  0  # atno 17320 bound_to 7965
  146.0142  140.8407  142.9955 LP  0  0  0  0  0  0  0  0  0  0  0  0  # atno 17321 bound_to 7965
  139.6474  144.7659  151.2216 LP  0  0  0  0  0  0  0  0  0  0  0  0  # atno 17342 bound_to 10162
  140.7519  143.6217  150.8507 LP  0  0  0  0  0  0  0  0  0  0  0  0  # atno 17343 bound_to 10162
  155.9712  130.4616  150.6117 LP  0  0  0  0  0  0  0  0  0  0  0  0  # atno 17370 bound_to 10713
  157.3866  131.0789  151.1431 LP  0  0  0  0  0  0  0  0  0  0  0  0  # atno 17371 bound_to 10713
  141.2117  133.7681  156.9847 LP  0  0  0  0  0  0  0  0  0  0  0  0  # atno 17394 bound_to 11000
  140.1061  134.9506  157.1996 LP  0  0  0  0  0  0  0  0  0  0  0  0  # atno 17395 bound_to 11000

$$$$
