#       Name:                AV-unprocessed.smi:2743
#       Creating user name   scv26
#       Creation time:       Fri Mar 27 15:02:06 2020


#       File generated by GOLD software.
#

@<TRIPOS>MOLECULE
AV-unprocessed.smi:2743
    42    43     1
SMALL
NO_CHARGES


@<TRIPOS>ATOM
      1 ****        -4.2846   0.4555  -0.9447 N.1            1 S1                 0.0000
      2 ****        -3.9802   0.4581   0.1719 C.1            1 S1                 0.0000
      3 ****        -3.5891   0.4611   1.5902 C.3            1 S1                 0.0000
      4 ****        -2.0937   0.7105   1.7553 C.2            1 S1                 0.0000
      5 ****        -1.6870   1.8293   2.0670 O.2            1 S1                 0.0000
      6 ****        -1.2867  -0.3339   1.5101 N.am           1 S1                 0.0000
      7 ****         0.1759  -0.3011   1.4884 C.3            1 S1                 0.0000
      8 ****         0.7572  -0.2872   0.0418 C.3            1 S1                 0.0000
      9 ****         0.2225   0.9644  -0.6932 C.ar           1 S1                 0.0000
     10 ****         0.6324   2.2577  -0.2791 C.ar           1 S1                 0.0000
     11 ****         0.1182   3.4026  -0.9194 C.ar           1 S1                 0.0000
     12 ****        -0.7691   3.2678  -1.9257 N.pl3          1 S1                 1.0000
     13 ****        -1.1990   2.0651  -2.3584 C.ar           1 S1                 0.0000
     14 ****        -0.7176   0.8859  -1.7551 C.ar           1 S1                 0.0000
     15 ****         2.3129  -0.2167   0.0924 C.3            1 S1                 0.0000
     16 ****         2.9915  -1.4863   0.6398 C.3            1 S1                 0.0000
     17 ****         2.5682  -2.7330  -0.1434 C.3            1 S1                 0.0000
     18 ****         1.0428  -2.8725  -0.1571 C.3            1 S1                 0.0000
     19 ****         0.3731  -1.6016  -0.7102 C.3            1 S1                 0.0000
     20 ****        -4.1596   1.2355   2.1042 H              1 S1                 0.0000
     21 ****        -3.8640  -0.4982   2.0298 H              1 S1                 0.0000
     22 ****        -1.7193  -1.2151   1.2723 H              1 S1                 0.0000
     23 ****         0.5434   0.5589   2.0505 H              1 S1                 0.0000
     24 ****         0.5221  -1.1696   2.0461 H              1 S1                 0.0000
     25 ****         1.3235   2.3870   0.5401 H              1 S1                 0.0000
     26 ****         0.3822   4.4153  -0.6516 H              1 S1                 0.0000
     27 ****        -1.9176   2.0802  -3.1650 H              1 S1                 0.0000
     28 ****        -1.0981  -0.0558  -2.1180 H              1 S1                 0.0000
     29 ****         2.6922  -0.0388  -0.9152 H              1 S1                 0.0000
     30 ****         2.6478   0.6298   0.6912 H              1 S1                 0.0000
     31 ****         4.0747  -1.3732   0.5866 H              1 S1                 0.0000
     32 ****         2.7552  -1.6151   1.6960 H              1 S1                 0.0000
     33 ****         2.9395  -2.6667  -1.1670 H              1 S1                 0.0000
     34 ****         3.0221  -3.6225   0.2942 H              1 S1                 0.0000
     35 ****         0.7615  -3.7299  -0.7694 H              1 S1                 0.0000
     36 ****         0.6791  -3.0898   0.8470 H              1 S1                 0.0000
     37 ****        -0.7070  -1.7512  -0.7115 H              1 S1                 0.0000
     38 ****         0.6695  -1.5143  -1.7566 H              1 S1                 0.0000
     39 ****        -1.1337   4.1091  -2.3736 H              1 S1                 0.0000
     40 ****        -4.5476   0.4532  -1.9095 LP             1 S1                 0.0000
     41 ****        -2.3371   2.5751   2.2121 LP             1 S1                 0.0000
     42 ****        -0.7064   1.9926   2.1752 LP             1 S1                 0.0000
@<TRIPOS>BOND
    1    1    2 3     
    2    2    3 1     
    3    3    4 1     
    4    3   20 1     
    5    3   21 1     
    6    4    5 2     
    7    4    6 am    
    8    6    7 1     
    9    6   22 1     
   10    7    8 1     
   11    7   23 1     
   12    7   24 1     
   13    8   19 1     
   14    8    9 1     
   15    8   15 1     
   16    9   14 ar    
   17    9   10 ar    
   18   10   11 ar    
   19   10   25 1     
   20   11   12 ar    
   21   11   26 1     
   22   12   13 ar    
   23   12   39 1     
   24   13   14 ar    
   25   13   27 1     
   26   14   28 1     
   27   15   16 1     
   28   15   29 1     
   29   15   30 1     
   30   16   17 1     
   31   16   31 1     
   32   16   32 1     
   33   17   18 1     
   34   17   33 1     
   35   17   34 1     
   36   18   19 1     
   37   18   35 1     
   38   18   36 1     
   39   19   37 1     
   40   19   38 1     
   41    1   40 1     
   42    5   41 1     
   43    5   42 1     
@<TRIPOS>SUBSTRUCTURE
      1 S1             1
@<TRIPOS>SET
LONE_PAIRS      STATIC     ATOMS    <user>   **** ""
3 40 41 42
DONOR_HYDROGENS      STATIC     ATOMS    <user>   **** ""
2 22 39
ATOM$BLUE        STATIC     ATOMS    COLORGROUP SYSTEM
3 40 41 42
ATOM$RED        STATIC     ATOMS    COLORGROUP SYSTEM
2 22 39
