AV-unprocessed.smi:790|AV-procd|sdf|3745|dock2
  -GOLD-   22720 1173D 1   1.00000     0.00000
 Structure written by MMmdl.
 38 40  0  0  0  0  0  0  0  0  1 V2000
  145.0007  137.8109  153.2367 O   0  0  0  0  0  0  0  0  0  0  0  0
  146.0662  137.4076  152.7722 C   0  0  0  0  0  0  0  0  0  0  0  0
  147.2652  137.9900  152.9463 N   0  0  0  0  0  0  0  0  0  0  0  0
  147.5993  139.1577  153.6866 C   0  0  0  0  0  0  0  0  0  0  0  0
  148.9184  139.5601  154.0113 C   0  0  0  0  0  0  0  0  0  0  0  0
  149.1052  140.7379  154.7602 C   0  0  0  0  0  0  0  0  0  0  0  0
  147.9700  141.4677  155.1620 C   0  0  0  0  0  0  0  0  0  0  0  0
  146.7076  141.0917  154.8697 N   0  0  0  0  0  0  0  0  0  0  0  0
  146.5366  139.9616  154.1510 C   0  0  0  0  0  0  0  0  0  0  0  0
  146.1747  136.3029  152.0210 N   0  0  0  0  0  0  0  0  0  0  0  0
  145.0715  135.4167  151.6569 C   0  0  1  0  0  0  0  0  0  0  0  0
  145.5847  134.2418  150.7946 C   0  0  2  0  0  0  0  0  0  0  0  0
  144.3818  133.5761  150.1034 C   0  0  0  0  0  0  0  0  0  0  0  0
  143.6840  132.8566  151.2728 C   0  0  0  0  0  0  0  0  0  0  0  0
  144.5822  133.2038  152.4804 C   0  0  1  0  0  0  0  0  0  0  0  0
  145.9614  133.1895  151.8341 C   0  0  0  0  0  0  0  0  0  0  0  0
  144.4583  134.6925  152.8841 C   0  0  2  0  0  0  0  0  0  0  0  0
  143.0345  135.1432  153.2644 C   0  0  0  0  0  0  0  0  0  0  0  0
  142.5754  134.4188  154.3851 O   0  0  0  0  0  0  0  0  0  0  0  0
  148.0498  137.5084  152.5322 H   0  0  0  0  0  0  0  0  0  0  0  0
  149.7878  138.9949  153.7162 H   0  0  0  0  0  0  0  0  0  0  0  0
  150.0978  141.0725  155.0233 H   0  0  0  0  0  0  0  0  0  0  0  0
  148.0791  142.3751  155.7376 H   0  0  0  0  0  0  0  0  0  0  0  0
  145.5125  139.6916  153.9375 H   0  0  0  0  0  0  0  0  0  0  0  0
  147.0904  136.0475  151.6816 H   0  0  0  0  0  0  0  0  0  0  0  0
  144.3178  135.9783  151.1016 H   0  0  0  0  0  0  0  0  0  0  0  0
  146.3818  134.5126  150.1011 H   0  0  0  0  0  0  0  0  0  0  0  0
  143.7315  134.2972  149.6068 H   0  0  0  0  0  0  0  0  0  0  0  0
  144.7138  132.8559  149.3546 H   0  0  0  0  0  0  0  0  0  0  0  0
  142.6483  133.1689  151.4005 H   0  0  0  0  0  0  0  0  0  0  0  0
  143.6771  131.7797  151.1006 H   0  0  0  0  0  0  0  0  0  0  0  0
  144.4677  132.5165  153.3191 H   0  0  0  0  0  0  0  0  0  0  0  0
  146.2268  132.2249  151.3977 H   0  0  0  0  0  0  0  0  0  0  0  0
  146.7604  133.5078  152.5061 H   0  0  0  0  0  0  0  0  0  0  0  0
  145.0995  134.8376  153.7564 H   0  0  0  0  0  0  0  0  0  0  0  0
  142.9974  136.2079  153.4946 H   0  0  0  0  0  0  0  0  0  0  0  0
  142.3472  134.9632  152.4375 H   0  0  0  0  0  0  0  0  0  0  0  0
  142.7656  133.5028  154.2513 H   0  0  0  0  0  0  0  0  0  0  0  0
  1  2  2  0  0  0  0
  2  3  1  0  0  0  0
  2 10  1  0  0  0  0
  3  4  1  0  0  0  0
  3 20  1  0  0  0  0
  4  9  1  0  0  0  0
  4  5  2  0  0  0  0
  5  6  1  0  0  0  0
  5 21  1  0  0  0  0
  6  7  2  0  0  0  0
  6 22  1  0  0  0  0
  7  8  1  0  0  0  0
  7 23  1  0  0  0  0
  8  9  2  0  0  0  0
  9 24  1  0  0  0  0
 10 11  1  0  0  0  0
 10 25  1  0  0  0  0
 11 17  1  0  0  0  0
 11 12  1  0  0  0  0
 11 26  1  0  0  0  0
 12 16  1  0  0  0  0
 12 13  1  0  0  0  0
 12 27  1  0  0  0  0
 13 14  1  0  0  0  0
 13 28  1  0  0  0  0
 13 29  1  0  0  0  0
 14 15  1  0  0  0  0
 14 30  1  0  0  0  0
 14 31  1  0  0  0  0
 15 16  1  0  0  0  0
 15 17  1  0  0  0  0
 15 32  1  0  0  0  0
 16 33  1  0  0  0  0
 16 34  1  0  0  0  0
 17 18  1  0  0  0  0
 17 35  1  0  0  0  0
 18 19  1  0  0  0  0
 18 36  1  0  0  0  0
 18 37  1  0  0  0  0
 19 38  1  0  0  0  0
M  END
> <s_m_source_file>
AV-unprocessed.smi

> <i_m_source_file_index>
790

> <i_lp_mmshare_version>
43012

> <i_f3d_flags>
0

> <s_epik_input>
W0NIMl0xW0NIMl1bQ0BASF0oW0NIMl0yKVtDQEBIXShbQ0gyXVtPSF0pW0NAQEhdKFtDQEhdMTIpW05IXUMoPU8pW05IXWMzW2NIXVtjSF1bY0hdbltjSF0z

> <s_epik_cmdline>
J2VwaWtfcHl0aG9uJywgJy1waCcsICc3LjAnLCAnLXRuJywgJzgnLCAnLW1hJywgJzIwMCcsICctbWV0YWxfYmluZGluZycsICctaW1hZScsICc8aW5maWxlLm1hZT4nLCAnLW9tYWUnLCAnPG91dGZpbGUubWFlPic=

> <r_epik_Ionization_Penalty>
0.00497582

> <r_epik_Ionization_Penalty_Charging>
0

> <r_epik_Ionization_Penalty_Neutral>
0.00497582

> <r_epik_State_Penalty>
0.00358602

> <r_epik_Charging_Adjusted_Penalty>
0.00358602

> <i_epik_Tot_Q>
0

> <i_epik_Tot_abs_Q>
0

> <r_epik_Metal_State_Penalty>
-0

> <b_epik_Metal_Only>
0

> <s_lp_Force_Field>
OPLS_2005

> <r_lp_Energy>
52.5349

> <b_lp_Chiralities_Consistent>
1

> <s_lp_Variant>
AV-unprocessed.smi:790-6

> <Gold.Version>
5.8.1

> <Gold.Id.Protein>
6NUR|6NUR_protein|mol2

> <Gold.PLP.Fitness>
44.1622

> <Gold.PLP.PLP>
-29.0854

> <Gold.PLP.part.hbond>
-3.4541

> <Gold.PLP.part.metal>
0.0000

> <Gold.PLP.part.buried>
-3.7516

> <Gold.PLP.part.nonpolar>
-24.0371

> <Gold.PLP.part.repulsive>
1.0673

> <Gold.PLP.ligand.clash>
0.0000

> <Gold.PLP.ligand.torsion>
0.0452

> <Gold.PLP.Chemscore.Hbond>
3.0492

> <Gold.PLP.Chemscore.CHOScore>
2.0000

> <Gold.PLP.Chemscore.Metal>
0.0000

> <Gold.Chemscore.Hbonds>
donor molecule, donor type, donor heavy atom, donor atom, acceptor molecule, acceptor atom, score
      L1  H     3    20       P1  7948  1.00
      L1  H    10    25       P1  7948  0.98
      L1  H    19    38       P1 10957  1.00
      P1  H 11000 11005       L1    19  0.08
      L1  C     7    23       P1  8028  1.00
      L1  C     9    24       P1 10175  1.00

> <Gold.PLP.Chemscore.Internal.Correction>
0.0196

> <Gold.Rescore>
     Score         DG    S(hbond)    S(metal)    S(lipo)     H(rot)  DE(clash)    DE(int)     intcor
     17.51     -19.12       2.93        0.00      71.96       1.78       0.16       1.46       ----

> <Gold.Chemscore.Fitness>
17.5064

> <Gold.Chemscore.DG>
-19.1217

> <Gold.Chemscore.ZeroCoef>
-5.4800

> <Gold.Chemscore.Hbond>
2.9265

> <Gold.Chemscore.Metal>
0.0000

> <Gold.Chemscore.Lipo>
71.9640

> <Gold.Chemscore.Internal_Hbond>
0.0000

> <Gold.Chemscore.DEClash>
0.1591

> <Gold.Chemscore.DEInternal>
1.4562

> <Gold.Chemscore.Rot>
1.7783

> <Gold.Chemscore.Internal.Correction>
   9.000000E+99

> <Gold.Chemscore.Hbonds>
donor molecule, donor type, donor heavy atom, donor atom, acceptor molecule, acceptor atom, score
      L1  H     3    20       P1  7948  1.00
      L1  H    10    25       P1  7948  0.93
      L1  H    19    38       P1 10957  0.94
      P1  H 11000 11005       L1    19  0.01

> <Gold.Chemscore.Hbond.Weighted>
-9.7744

> <Gold.Chemscore.Metal.Weighted>
-0.0000

> <Gold.Chemscore.Lipo.Weighted>
-8.4198

> <Gold.Chemscore.Internal_Hbond.Weighted>
0.0000

> <Gold.Chemscore.DEClash.Weighted>
0.1591

> <Gold.Chemscore.DEInternal.Weighted>
1.4562

> <Gold.Chemscore.Rot.Weighted>
4.5525

> <Gold.Chemscore.Internal.Correction.Weighted>
   9.000000E+99

> <Gold.Protein.RotatedTorsions>
[ 6907 6896 6895 6894 ] final   -2.33 input  -60.11 | X-H torsion
[ 7974 7965 7964 7962 ] final -127.77 input  175.53 | X-H torsion
[ 8008 7997 7996 7995 ] final   62.73 input   59.86 | X-H torsion
[ 10167 10162 10161 10158 ] final  116.63 input  -65.29 | X-H torsion
[ 10718 10713 10712 10709 ] final   46.82 input   66.30 | X-H torsion
[ 10763 10752 10751 10750 ] final  -32.52 input  -60.55 | X-H torsion
[ 11005 11000 10999 10996 ] final   -7.20 input  -57.11 | X-H torsion

> <Gold.Protein.ActiveResidues>
 VAL166  LYS551  ARG553  GLY616  TRP617  ASP618  TYR619  PRO620  LYS621  CYS622 
 ASP623  PHE694  ASN695  SER759  ASP760  ASP761  ALA762  ILE779  LEU786  VAL792 
 PHE793  MET794  SER795  GLU796  ALA797  LYS798  CYS799  TRP800  GLU811  SER814 

> <Gold.Protein.RotatedAtoms>
  151.5316  135.1068  159.9903 H   0  0  0  0  0  0  0  0  0  0  0  0  # atno 6907 bound_to 6896
  152.4576  133.7751  159.6830 H   0  0  0  0  0  0  0  0  0  0  0  0  # atno 6908 bound_to 6896
  150.8525  133.7699  159.3045 H   0  0  0  0  0  0  0  0  0  0  0  0  # atno 6909 bound_to 6896
  144.9737  140.7571  143.4655 H   0  0  0  0  0  0  0  0  0  0  0  0  # atno 7974 bound_to 7965
  155.6191  140.3495  155.4646 H   0  0  0  0  0  0  0  0  0  0  0  0  # atno 8008 bound_to 7997
  156.0094  140.1230  157.0493 H   0  0  0  0  0  0  0  0  0  0  0  0  # atno 8009 bound_to 7997
  154.4275  140.1084  156.5794 H   0  0  0  0  0  0  0  0  0  0  0  0  # atno 8010 bound_to 7997
  139.6234  144.7104  151.2585 H   0  0  0  0  0  0  0  0  0  0  0  0  # atno 10167 bound_to 10162
  157.4521  130.8145  149.7799 H   0  0  0  0  0  0  0  0  0  0  0  0  # atno 10718 bound_to 10713
  153.8151  135.6879  153.4835 H   0  0  0  0  0  0  0  0  0  0  0  0  # atno 10763 bound_to 10752
  153.1604  135.4582  154.9762 H   0  0  0  0  0  0  0  0  0  0  0  0  # atno 10764 bound_to 10752
  154.7951  135.3316  154.7628 H   0  0  0  0  0  0  0  0  0  0  0  0  # atno 10765 bound_to 10752
  140.7103  133.8915  155.8746 H   0  0  0  0  0  0  0  0  0  0  0  0  # atno 11005 bound_to 11000
  145.2521  139.2027  143.4937 LP  0  0  0  0  0  0  0  0  0  0  0  0  # atno 17320 bound_to 7965
  146.3389  140.2436  142.8596 LP  0  0  0  0  0  0  0  0  0  0  0  0  # atno 17321 bound_to 7965
  140.7396  143.6613  150.8162 LP  0  0  0  0  0  0  0  0  0  0  0  0  # atno 17342 bound_to 10162
  140.0227  143.5525  152.2793 LP  0  0  0  0  0  0  0  0  0  0  0  0  # atno 17343 bound_to 10162
  155.9991  130.3890  150.2675 LP  0  0  0  0  0  0  0  0  0  0  0  0  # atno 17370 bound_to 10713
  157.0847  131.0153  151.3143 LP  0  0  0  0  0  0  0  0  0  0  0  0  # atno 17371 bound_to 10713
  141.0090  134.1046  157.4241 LP  0  0  0  0  0  0  0  0  0  0  0  0  # atno 17394 bound_to 11000
  139.8873  135.0089  156.6555 LP  0  0  0  0  0  0  0  0  0  0  0  0  # atno 17395 bound_to 11000

$$$$
