AV-unprocessed.smi:6|AV-procd|sdf|39|dock6
  -GOLD-   2262015153D 1   1.00000     0.00000
 Structure written by MMmdl.
 37 38  0  0  0  0  0  0  0  0  1 V2000
  153.5548  140.4876  160.4276 C   0  0  0  0  0  0  0  0  0  0  0  0
  153.6222  141.9931  160.7271 C   0  0  0  0  0  0  0  0  0  0  0  0
  153.3156  142.3299  162.1944 C   0  0  0  0  0  0  0  0  0  0  0  0
  152.7675  142.8063  159.7633 C   0  0  0  0  0  0  0  0  0  0  0  0
  152.8644  144.1385  159.8364 N   0  0  0  0  0  0  0  0  0  0  0  0
  152.1024  144.8544  158.9822 C   0  0  0  0  0  0  0  0  0  0  0  0
  151.2446  144.2330  158.0524 C   0  0  0  0  0  0  0  0  0  0  0  0
  151.2235  142.8231  158.0581 C   0  0  0  0  0  0  0  0  0  0  0  0
  150.3918  142.1433  157.1579 N   0  0  0  0  0  0  0  0  0  0  0  0
  150.9359  141.6636  155.8936 C   0  0  0  0  0  0  0  0  0  0  0  0
  149.9005  140.9630  155.0282 C   0  0  0  0  0  0  0  0  0  0  0  0
  148.7529  141.5792  154.6465 C   0  0  0  0  0  0  0  0  0  0  0  0
  147.7977  140.9852  153.8369 N   0  0  0  0  0  0  0  0  0  0  0  0
  146.5819  141.6424  153.4425 C   0  0  0  0  0  0  0  0  0  0  0  0
  148.0018  139.6753  153.3556 C   0  0  0  0  0  0  0  0  0  0  0  0
  147.1951  139.0905  152.6319 O   0  0  0  0  0  0  0  0  0  0  0  0
  149.1862  139.0465  153.7370 N   0  0  0  0  0  0  0  0  0  0  0  0
  150.1768  139.6020  154.5529 C   0  0  0  0  0  0  0  0  0  0  0  0
  151.1831  138.9455  154.8153 O   0  0  0  0  0  0  0  0  0  0  0  0
  151.9908  142.1163  158.9213 N   0  0  0  0  0  0  0  0  0  0  0  0
  149.3424  138.1099  153.3934 H   0  0  0  0  0  0  0  0  0  0  0  0
  153.8490  140.2804  159.3983 H   0  0  0  0  0  0  0  0  0  0  0  0
  152.5470  140.0968  160.5717 H   0  0  0  0  0  0  0  0  0  0  0  0
  154.2237  139.9277  161.0815 H   0  0  0  0  0  0  0  0  0  0  0  0
  154.6604  142.2870  160.5608 H   0  0  0  0  0  0  0  0  0  0  0  0
  153.4551  143.3938  162.3885 H   0  0  0  0  0  0  0  0  0  0  0  0
  153.9747  141.7822  162.8682 H   0  0  0  0  0  0  0  0  0  0  0  0
  152.2882  142.0747  162.4559 H   0  0  0  0  0  0  0  0  0  0  0  0
  152.1772  145.9301  159.0407 H   0  0  0  0  0  0  0  0  0  0  0  0
  150.6373  144.8123  157.3726 H   0  0  0  0  0  0  0  0  0  0  0  0
  149.3942  142.2827  157.2265 H   0  0  0  0  0  0  0  0  0  0  0  0
  151.3585  142.5091  155.3494 H   0  0  0  0  0  0  0  0  0  0  0  0
  151.7556  140.9692  156.0832 H   0  0  0  0  0  0  0  0  0  0  0  0
  148.5759  142.5870  154.9950 H   0  0  0  0  0  0  0  0  0  0  0  0
  145.7455  141.0407  153.8042 H   0  0  0  0  0  0  0  0  0  0  0  0
  146.5888  141.7263  152.3538 H   0  0  0  0  0  0  0  0  0  0  0  0
  146.5611  142.6324  153.8996 H   0  0  0  0  0  0  0  0  0  0  0  0
  1  2  1  0  0  0  0
  1 22  1  0  0  0  0
  1 23  1  0  0  0  0
  1 24  1  0  0  0  0
  2  3  1  0  0  0  0
  2  4  1  0  0  0  0
  2 25  1  0  0  0  0
  3 26  1  0  0  0  0
  3 27  1  0  0  0  0
  3 28  1  0  0  0  0
  4 20  1  0  0  0  0
  4  5  2  0  0  0  0
  5  6  1  0  0  0  0
  6  7  2  0  0  0  0
  6 29  1  0  0  0  0
  7  8  1  0  0  0  0
  7 30  1  0  0  0  0
  8  9  1  0  0  0  0
  8 20  2  0  0  0  0
  9 10  1  0  0  0  0
  9 31  1  0  0  0  0
 10 11  1  0  0  0  0
 10 32  1  0  0  0  0
 10 33  1  0  0  0  0
 11 18  1  0  0  0  0
 11 12  2  0  0  0  0
 12 13  1  0  0  0  0
 12 34  1  0  0  0  0
 13 14  1  0  0  0  0
 13 15  1  0  0  0  0
 14 35  1  0  0  0  0
 14 36  1  0  0  0  0
 14 37  1  0  0  0  0
 15 16  2  0  0  0  0
 15 17  1  0  0  0  0
 17 21  1  0  0  0  0
 17 18  1  0  0  0  0
 18 19  2  0  0  0  0
M  END
> <s_m_source_file>
AV-unprocessed.smi

> <i_m_source_file_index>
6

> <i_lp_mmshare_version>
43012

> <i_f3d_flags>
0

> <s_epik_input>
W0NIM11bQ0hdKFtDSDNdKWMxbltjSF1bY0hdYyhuMSlbTkhdW0NIMl1jMltjSF1uKFtDSDNdKWMoPU8pW25IXWMyPU8=

> <s_epik_cmdline>
J2VwaWtfcHl0aG9uJywgJy1waCcsICc3LjAnLCAnLXRuJywgJzgnLCAnLW1hJywgJzIwMCcsICctbWV0YWxfYmluZGluZycsICctaW1hZScsICc8aW5maWxlLm1hZT4nLCAnLW9tYWUnLCAnPG91dGZpbGUubWFlPic=

> <r_lp_tautomer_probability>
0.999537

> <r_epik_Ionization_Penalty>
0.308056

> <r_epik_Ionization_Penalty_Charging>
0.000755917

> <r_epik_Ionization_Penalty_Neutral>
0.3073

> <r_epik_State_Penalty>
0.300752

> <r_epik_Charging_Adjusted_Penalty>
0.301508

> <i_epik_Tot_Q>
0

> <i_epik_Tot_abs_Q>
0

> <r_epik_Metal_State_Penalty>
0.395738

> <b_epik_Metal_Only>
0

> <s_lp_Force_Field>
OPLS_2005

> <r_lp_Energy>
3.35028

> <b_lp_Chiralities_Consistent>
1

> <s_lp_Variant>
AV-unprocessed.smi:6-1

> <Gold.Version>
5.8.1

> <Gold.Id.Protein>
6NUR|6NUR_protein|mol2

> <Gold.PLP.Fitness>
45.7966

> <Gold.PLP.PLP>
-44.3367

> <Gold.PLP.part.hbond>
-1.2209

> <Gold.PLP.part.metal>
0.0000

> <Gold.PLP.part.buried>
-0.7598

> <Gold.PLP.part.nonpolar>
-40.8617

> <Gold.PLP.part.repulsive>
0.7058

> <Gold.PLP.ligand.clash>
0.0000

> <Gold.PLP.ligand.torsion>
0.8137

> <Gold.PLP.Chemscore.Hbond>
0.0000

> <Gold.PLP.Chemscore.CHOScore>
1.0000

> <Gold.PLP.Chemscore.Metal>
0.0000

> <Gold.Chemscore.Hbonds>
donor molecule, donor type, donor heavy atom, donor atom, acceptor molecule, acceptor atom, score
      L1  H    17    21       P1  7948  0.02
      L1  C    12    34       P1  8028  1.00

> <Gold.PLP.Chemscore.Internal.Correction>
0.0874

> <Gold.Rescore>
     Score         DG    S(hbond)    S(metal)    S(lipo)     H(rot)  DE(clash)    DE(int)     intcor
     10.37     -11.39       0.00        0.00      86.67       1.65       0.20       0.83       ----

> <Gold.Chemscore.Fitness>
10.3672

> <Gold.Chemscore.DG>
-11.3928

> <Gold.Chemscore.ZeroCoef>
-5.4800

> <Gold.Chemscore.Hbond>
0.0000

> <Gold.Chemscore.Metal>
0.0000

> <Gold.Chemscore.Lipo>
86.6690

> <Gold.Chemscore.Internal_Hbond>
0.0000

> <Gold.Chemscore.DEClash>
0.1956

> <Gold.Chemscore.DEInternal>
0.8300

> <Gold.Chemscore.Rot>
1.6514

> <Gold.Chemscore.Internal.Correction>
   9.000000E+99

> <Gold.Chemscore.Hbonds>
donor molecule, donor type, donor heavy atom, donor atom, acceptor molecule, acceptor atom, score
      L1  H    17    21       P1  7948  0.07

> <Gold.Chemscore.Hbond.Weighted>
-0.0000

> <Gold.Chemscore.Metal.Weighted>
-0.0000

> <Gold.Chemscore.Lipo.Weighted>
-10.1403

> <Gold.Chemscore.Internal_Hbond.Weighted>
0.0000

> <Gold.Chemscore.DEClash.Weighted>
0.1956

> <Gold.Chemscore.DEInternal.Weighted>
0.8300

> <Gold.Chemscore.Rot.Weighted>
4.2275

> <Gold.Chemscore.Internal.Correction.Weighted>
   9.000000E+99

> <Gold.Protein.RotatedTorsions>
[ 6907 6896 6895 6894 ] final -155.22 input  -60.11 | X-H torsion
[ 7974 7965 7964 7962 ] final  -46.81 input  175.53 | X-H torsion
[ 8008 7997 7996 7995 ] final  150.89 input   59.86 | X-H torsion
[ 10167 10162 10161 10158 ] final  140.71 input  -65.29 | X-H torsion
[ 10718 10713 10712 10709 ] final   76.75 input   66.30 | X-H torsion
[ 10763 10752 10751 10750 ] final -120.04 input  -60.55 | X-H torsion
[ 11005 11000 10999 10996 ] final  134.87 input  -57.11 | X-H torsion

> <Gold.Protein.ActiveResidues>
 VAL166  LYS551  ARG553  GLY616  TRP617  ASP618  TYR619  PRO620  LYS621  CYS622 
 ASP623  PHE694  ASN695  SER759  ASP760  ASP761  ALA762  ILE779  LEU786  VAL792 
 PHE793  MET794  SER795  GLU796  ALA797  LYS798  CYS799  TRP800  GLU811  SER814 

> <Gold.Protein.RotatedAtoms>
  151.2692  133.4264  159.2620 H   0  0  0  0  0  0  0  0  0  0  0  0  # atno 6907 bound_to 6896
  151.0461  134.9641  159.8197 H   0  0  0  0  0  0  0  0  0  0  0  0  # atno 6908 bound_to 6896
  152.5374  134.2648  159.9001 H   0  0  0  0  0  0  0  0  0  0  0  0  # atno 6909 bound_to 6896
  145.9681  140.7411  142.9424 H   0  0  0  0  0  0  0  0  0  0  0  0  # atno 7974 bound_to 7965
  156.2697  140.2062  156.6088 H   0  0  0  0  0  0  0  0  0  0  0  0  # atno 8008 bound_to 7997
  154.6848  140.0536  157.0326 H   0  0  0  0  0  0  0  0  0  0  0  0  # atno 8009 bound_to 7997
  155.0950  140.3200  155.4566 H   0  0  0  0  0  0  0  0  0  0  0  0  # atno 8010 bound_to 7997
  139.5041  144.6217  151.6034 H   0  0  0  0  0  0  0  0  0  0  0  0  # atno 10167 bound_to 10162
  157.6685  130.9789  150.1542 H   0  0  0  0  0  0  0  0  0  0  0  0  # atno 10718 bound_to 10713
  154.8633  135.4217  154.2395 H   0  0  0  0  0  0  0  0  0  0  0  0  # atno 10763 bound_to 10752
  153.3363  135.6991  153.6910 H   0  0  0  0  0  0  0  0  0  0  0  0  # atno 10764 bound_to 10752
  153.5907  135.3555  155.2882 H   0  0  0  0  0  0  0  0  0  0  0  0  # atno 10765 bound_to 10752
  139.9943  134.9503  156.9927 H   0  0  0  0  0  0  0  0  0  0  0  0  # atno 11005 bound_to 11000
  144.6830  140.2702  143.7307 LP  0  0  0  0  0  0  0  0  0  0  0  0  # atno 17320 bound_to 7965
  145.7945  139.1940  143.2083 LP  0  0  0  0  0  0  0  0  0  0  0  0  # atno 17321 bound_to 7965
  140.5922  143.9760  150.6331 LP  0  0  0  0  0  0  0  0  0  0  0  0  # atno 17342 bound_to 10162
  140.2944  143.3302  152.1032 LP  0  0  0  0  0  0  0  0  0  0  0  0  # atno 17343 bound_to 10162
  156.2334  130.3684  149.8419 LP  0  0  0  0  0  0  0  0  0  0  0  0  # atno 17370 bound_to 10713
  156.6239  130.8638  151.3481 LP  0  0  0  0  0  0  0  0  0  0  0  0  # atno 17371 bound_to 10713
  140.4849  134.1252  155.7223 LP  0  0  0  0  0  0  0  0  0  0  0  0  # atno 17394 bound_to 11000
  141.1591  133.8826  157.1896 LP  0  0  0  0  0  0  0  0  0  0  0  0  # atno 17395 bound_to 11000

$$$$
