AV-unprocessed.smi:1934|AV-procd|sdf|7824|dock7
  -GOLD-   22720 9573D 1   1.00000     0.00000
 Structure written by MMmdl.
 46 47  0  0  0  0  0  0  0  0  2 V2000
  146.4459  129.5596  152.3926 C   0  0  0  0  0  0  0  0  0  0  0  0
  146.2251  131.0183  152.1199 C   0  0  0  0  0  0  0  0  0  0  0  0
  146.9829  132.1268  152.5988 C   0  0  0  0  0  0  0  0  0  0  0  0
  146.3387  133.1959  152.0385 C   0  0  0  0  0  0  0  0  0  0  0  0
  146.6285  134.5202  152.1428 N   0  0  0  0  0  0  0  0  0  0  0  0
  145.7991  135.5438  152.4107 C   0  0  0  0  0  0  0  0  0  0  0  0
  144.5871  135.4513  152.6069 O   0  0  0  0  0  0  0  0  0  0  0  0
  146.4601  136.7102  152.4325 N   0  0  0  0  0  0  0  0  0  0  0  0
  145.8531  138.0103  152.6930 C   0  0  0  0  0  0  0  0  0  0  0  0
  146.9189  139.1154  152.8269 C   0  0  0  0  0  0  0  0  0  0  0  0
  146.3968  140.3235  153.5139 N   0  3  2  0  0  0  0  0  0  0  0  0
  147.1209  141.5569  153.1109 C   0  0  0  0  0  0  0  0  0  0  0  0
  146.4624  142.8085  153.7125 C   0  0  0  0  0  0  0  0  0  0  0  0
  146.3674  142.7005  155.2407 C   0  0  0  0  0  0  0  0  0  0  0  0
  145.6715  141.3943  155.6661 C   0  0  1  0  0  0  0  0  0  0  0  0
  144.1515  141.4217  155.4274 C   0  0  0  0  0  0  0  0  0  0  0  0
  146.3445  140.1792  154.9945 C   0  0  0  0  0  0  0  0  0  0  0  0
  145.2808  132.7345  151.2873 N   0  0  0  0  0  0  0  0  0  0  0  0
  144.3116  133.4772  150.5056 C   0  0  0  0  0  0  0  0  0  0  0  0
  145.2147  131.3867  151.3404 N   0  0  0  0  0  0  0  0  0  0  0  0
  147.3081  129.4058  153.0417 H   0  0  0  0  0  0  0  0  0  0  0  0
  146.6245  129.0100  151.4683 H   0  0  0  0  0  0  0  0  0  0  0  0
  145.5785  129.1162  152.8826 H   0  0  0  0  0  0  0  0  0  0  0  0
  147.8505  132.1154  153.2410 H   0  0  0  0  0  0  0  0  0  0  0  0
  147.5972  134.7599  151.9909 H   0  0  0  0  0  0  0  0  0  0  0  0
  147.4555  136.6968  152.2630 H   0  0  0  0  0  0  0  0  0  0  0  0
  145.1443  138.2567  151.9003 H   0  0  0  0  0  0  0  0  0  0  0  0
  145.2720  137.9159  153.6093 H   0  0  0  0  0  0  0  0  0  0  0  0
  147.8018  138.7434  153.3493 H   0  0  0  0  0  0  0  0  0  0  0  0
  147.2504  139.3931  151.8254 H   0  0  0  0  0  0  0  0  0  0  0  0
  148.1630  141.4886  153.4271 H   0  0  0  0  0  0  0  0  0  0  0  0
  147.1239  141.6469  152.0239 H   0  0  0  0  0  0  0  0  0  0  0  0
  147.0348  143.6955  153.4392 H   0  0  0  0  0  0  0  0  0  0  0  0
  145.4686  142.9441  153.2850 H   0  0  0  0  0  0  0  0  0  0  0  0
  147.3736  142.7239  155.6613 H   0  0  0  0  0  0  0  0  0  0  0  0
  145.8454  143.5657  155.6511 H   0  0  0  0  0  0  0  0  0  0  0  0
  145.8101  141.2901  156.7431 H   0  0  0  0  0  0  0  0  0  0  0  0
  143.9056  141.4924  154.3678 H   0  0  0  0  0  0  0  0  0  0  0  0
  143.6913  142.2716  155.9322 H   0  0  0  0  0  0  0  0  0  0  0  0
  143.6797  140.5180  155.8142 H   0  0  0  0  0  0  0  0  0  0  0  0
  145.8080  139.2736  155.2748 H   0  0  0  0  0  0  0  0  0  0  0  0
  147.3608  140.0651  155.3754 H   0  0  0  0  0  0  0  0  0  0  0  0
  143.9087  134.2973  151.1005 H   0  0  0  0  0  0  0  0  0  0  0  0
  143.4892  132.8294  150.1987 H   0  0  0  0  0  0  0  0  0  0  0  0
  144.7946  133.8839  149.6171 H   0  0  0  0  0  0  0  0  0  0  0  0
  145.4458  140.4424  153.1950 H   0  0  0  0  0  0  0  0  0  0  0  0
  1  2  1  0  0  0  0
  1 21  1  0  0  0  0
  1 22  1  0  0  0  0
  1 23  1  0  0  0  0
  2 20  2  0  0  0  0
  2  3  1  0  0  0  0
  3  4  2  0  0  0  0
  3 24  1  0  0  0  0
  4  5  1  0  0  0  0
  4 18  1  0  0  0  0
  5  6  1  0  0  0  0
  5 25  1  0  0  0  0
  6  7  2  0  0  0  0
  6  8  1  0  0  0  0
  8  9  1  0  0  0  0
  8 26  1  0  0  0  0
  9 10  1  0  0  0  0
  9 27  1  0  0  0  0
  9 28  1  0  0  0  0
 10 11  1  0  0  0  0
 10 29  1  0  0  0  0
 10 30  1  0  0  0  0
 11 17  1  0  0  0  0
 11 12  1  0  0  0  0
 11 46  1  0  0  0  0
 12 13  1  0  0  0  0
 12 31  1  0  0  0  0
 12 32  1  0  0  0  0
 13 14  1  0  0  0  0
 13 33  1  0  0  0  0
 13 34  1  0  0  0  0
 14 15  1  0  0  0  0
 14 35  1  0  0  0  0
 14 36  1  0  0  0  0
 15 16  1  0  0  0  0
 15 17  1  0  0  0  0
 15 37  1  0  0  0  0
 16 38  1  0  0  0  0
 16 39  1  0  0  0  0
 16 40  1  0  0  0  0
 17 41  1  0  0  0  0
 17 42  1  0  0  0  0
 18 19  1  0  0  0  0
 18 20  1  0  0  0  0
 19 43  1  0  0  0  0
 19 44  1  0  0  0  0
 19 45  1  0  0  0  0
M  CHG  1  11   1
M  END
> <s_m_source_file>
AV-unprocessed.smi

> <i_m_source_file_index>
1934

> <i_lp_mmshare_version>
43012

> <i_f3d_flags>
0

> <s_epik_input>
W0NIM11jMVtjSF1jKG4objEpW0NIM10pW05IXUMoPU8pW05IXVtDSDJdW0NIMl1OMltDSDJdW0NIMl1bQ0gyXVtDQEBIXShbQ0gzXSlbQ0gyXTI=

> <s_epik_cmdline>
J2VwaWtfcHl0aG9uJywgJy1waCcsICc3LjAnLCAnLXRuJywgJzgnLCAnLW1hJywgJzIwMCcsICctbWV0YWxfYmluZGluZycsICctaW1hZScsICc8aW5maWxlLm1hZT4nLCAnLW9tYWUnLCAnPG91dGZpbGUubWFlPic=

> <r_lp_tautomer_probability>
1

> <r_epik_Ionization_Penalty>
0.00202955

> <r_epik_Ionization_Penalty_Charging>
0.00195276

> <r_epik_Ionization_Penalty_Neutral>
7.67968e-05

> <r_epik_State_Penalty>
0.00133177

> <r_epik_Charging_Adjusted_Penalty>
0.00328452

> <i_epik_Tot_Q>
1

> <i_epik_Tot_abs_Q>
1

> <r_epik_Metal_State_Penalty>
-0

> <b_epik_Metal_Only>
0

> <s_lp_Force_Field>
OPLS_2005

> <r_lp_Energy>
20.6023

> <b_lp_Chiralities_Consistent>
1

> <s_lp_Variant>
AV-unprocessed.smi:1934-2

> <Gold.Version>
5.8.1

> <Gold.Id.Protein>
6NUR|6NUR_protein|mol2

> <Gold.PLP.Fitness>
42.2278

> <Gold.PLP.PLP>
-31.8297

> <Gold.PLP.part.hbond>
-3.0000

> <Gold.PLP.part.metal>
0.0000

> <Gold.PLP.part.buried>
-4.7734

> <Gold.PLP.part.nonpolar>
-24.1744

> <Gold.PLP.part.repulsive>
0.2604

> <Gold.PLP.ligand.clash>
0.0000

> <Gold.PLP.ligand.torsion>
0.7621

> <Gold.PLP.Chemscore.Hbond>
3.9600

> <Gold.PLP.Chemscore.CHOScore>
0.0000

> <Gold.PLP.Chemscore.Metal>
0.0000

> <Gold.Chemscore.Hbonds>
donor molecule, donor type, donor heavy atom, donor atom, acceptor molecule, acceptor atom, score
      L1  H     5    25       P1  7948  0.96
      L1  H     8    26       P1  7948  1.00
      L1  H    11    46       P1 10175  2.00

> <Gold.PLP.Chemscore.Internal.Correction>
0.0423

> <Gold.Rescore>
     Score         DG    S(hbond)    S(metal)    S(lipo)     H(rot)  DE(clash)    DE(int)     intcor
     17.71     -18.61       2.84        0.00      63.51       1.48       0.04       0.87       ----

> <Gold.Chemscore.Fitness>
17.7064

> <Gold.Chemscore.DG>
-18.6138

> <Gold.Chemscore.ZeroCoef>
-5.4800

> <Gold.Chemscore.Hbond>
2.8448

> <Gold.Chemscore.Metal>
0.0000

> <Gold.Chemscore.Lipo>
63.5100

> <Gold.Chemscore.Internal_Hbond>
0.0000

> <Gold.Chemscore.DEClash>
0.0355

> <Gold.Chemscore.DEInternal>
0.8718

> <Gold.Chemscore.Rot>
1.4838

> <Gold.Chemscore.Internal.Correction>
   9.000000E+99

> <Gold.Chemscore.Hbonds>
donor molecule, donor type, donor heavy atom, donor atom, acceptor molecule, acceptor atom, score
      L1  H     5    25       P1  7948  0.64
      L1  H     8    26       P1  7948  0.99
      L1  H    11    46       P1 10175  0.96

> <Gold.Chemscore.Hbond.Weighted>
-9.5016

> <Gold.Chemscore.Metal.Weighted>
-0.0000

> <Gold.Chemscore.Lipo.Weighted>
-7.4307

> <Gold.Chemscore.Internal_Hbond.Weighted>
0.0000

> <Gold.Chemscore.DEClash.Weighted>
0.0355

> <Gold.Chemscore.DEInternal.Weighted>
0.8718

> <Gold.Chemscore.Rot.Weighted>
3.7985

> <Gold.Chemscore.Internal.Correction.Weighted>
   9.000000E+99

> <Gold.Protein.RotatedTorsions>
[ 6907 6896 6895 6894 ] final -124.58 input  -60.11 | X-H torsion
[ 7974 7965 7964 7962 ] final -143.69 input  175.53 | X-H torsion
[ 8008 7997 7996 7995 ] final -142.41 input   59.86 | X-H torsion
[ 10167 10162 10161 10158 ] final   15.48 input  -65.29 | X-H torsion
[ 10718 10713 10712 10709 ] final  122.29 input   66.30 | X-H torsion
[ 10763 10752 10751 10750 ] final -166.36 input  -60.55 | X-H torsion
[ 11005 11000 10999 10996 ] final -179.85 input  -57.11 | X-H torsion

> <Gold.Protein.ActiveResidues>
 VAL166  LYS551  ARG553  GLY616  TRP617  ASP618  TYR619  PRO620  LYS621  CYS622 
 ASP623  PHE694  ASN695  SER759  ASP760  ASP761  ALA762  ILE779  LEU786  VAL792 
 PHE793  MET794  SER795  GLU796  ALA797  LYS798  CYS799  TRP800  GLU811  SER814 

> <Gold.Protein.RotatedAtoms>
  150.8782  133.7409  159.2940 H   0  0  0  0  0  0  0  0  0  0  0  0  # atno 6907 bound_to 6896
  151.4999  135.1060  159.9836 H   0  0  0  0  0  0  0  0  0  0  0  0  # atno 6908 bound_to 6896
  152.4742  133.8053  159.7030 H   0  0  0  0  0  0  0  0  0  0  0  0  # atno 6909 bound_to 6896
  144.8351  140.5803  143.5489 H   0  0  0  0  0  0  0  0  0  0  0  0  # atno 7974 bound_to 7965
  155.4938  140.0570  157.2949 H   0  0  0  0  0  0  0  0  0  0  0  0  # atno 8008 bound_to 7997
  154.4613  140.1997  156.0188 H   0  0  0  0  0  0  0  0  0  0  0  0  # atno 8009 bound_to 7997
  156.0895  140.3235  155.7801 H   0  0  0  0  0  0  0  0  0  0  0  0  # atno 8010 bound_to 7997
  140.5864  143.8881  150.6834 H   0  0  0  0  0  0  0  0  0  0  0  0  # atno 10167 bound_to 10162
  157.5754  131.1080  150.8289 H   0  0  0  0  0  0  0  0  0  0  0  0  # atno 10718 bound_to 10713
  154.6841  135.2959  154.9572 H   0  0  0  0  0  0  0  0  0  0  0  0  # atno 10763 bound_to 10752
  154.0557  135.6638  153.4809 H   0  0  0  0  0  0  0  0  0  0  0  0  # atno 10764 bound_to 10752
  153.0567  135.5140  154.7899 H   0  0  0  0  0  0  0  0  0  0  0  0  # atno 10765 bound_to 10752
  140.4141  134.6665  157.4630 H   0  0  0  0  0  0  0  0  0  0  0  0  # atno 11005 bound_to 11000
  145.4813  139.1495  143.3760 LP  0  0  0  0  0  0  0  0  0  0  0  0  # atno 17320 bound_to 7965
  146.2650  140.4949  142.8838 LP  0  0  0  0  0  0  0  0  0  0  0  0  # atno 17321 bound_to 7965
  140.2393  143.3676  152.1500 LP  0  0  0  0  0  0  0  0  0  0  0  0  # atno 17342 bound_to 10162
  139.5200  144.7027  151.5445 LP  0  0  0  0  0  0  0  0  0  0  0  0  # atno 17343 bound_to 10162
  156.8750  130.5159  149.5294 LP  0  0  0  0  0  0  0  0  0  0  0  0  # atno 17370 bound_to 10713
  156.0798  130.5812  150.9542 LP  0  0  0  0  0  0  0  0  0  0  0  0  # atno 17371 bound_to 10713
  140.0246  134.6496  155.9190 LP  0  0  0  0  0  0  0  0  0  0  0  0  # atno 17394 bound_to 11000
  141.1810  133.6546  156.5019 LP  0  0  0  0  0  0  0  0  0  0  0  0  # atno 17395 bound_to 11000

$$$$
