AV-unprocessed.smi:3126|AV-procd|sdf|11911|dock9
  -GOLD-   2272017293D 1   1.00000     0.00000
 Structure written by MMmdl.
 42 43  0  0  0  0  0  0  0  0  2 V2000
  153.6458  142.0059  162.0960 C   0  0  0  0  0  0  0  0  0  0  0  0
  153.1896  141.6504  160.6740 C   0  0  0  0  0  0  0  0  0  0  0  0
  152.2016  142.6619  160.0574 C   0  0  1  0  0  0  0  0  0  0  0  0
  152.8365  144.0642  159.9737 C   0  0  0  0  0  0  0  0  0  0  0  0
  151.8666  145.0912  159.3711 C   0  0  0  0  0  0  0  0  0  0  0  0
  151.3767  144.6427  157.9871 C   0  0  0  0  0  0  0  0  0  0  0  0
  150.7234  143.2504  158.0477 C   0  0  1  0  0  0  0  0  0  0  0  0
  150.2879  142.8460  156.6920 N   0  3  0  0  0  0  0  0  0  0  0  0
  149.4025  141.6640  156.6380 C   0  0  0  0  0  0  0  0  0  0  0  0
  149.3921  141.0501  155.2323 C   0  0  0  0  0  0  0  0  0  0  0  0
  150.4878  140.0176  155.0556 C   0  0  0  0  0  0  0  0  0  0  0  0
  150.2660  138.8477  154.2997 C   0  0  0  0  0  0  0  0  0  0  0  0
  151.3175  137.9219  154.1583 C   0  0  0  0  0  0  0  0  0  0  0  0
  152.5496  138.2058  154.7808 C   0  0  0  0  0  0  0  0  0  0  0  0
  152.7731  139.3230  155.5061 N   0  0  0  0  0  0  0  0  0  0  0  0
  151.7597  140.2051  155.6376 C   0  0  0  0  0  0  0  0  0  0  0  0
  151.7000  142.2238  158.6633 C   0  0  0  0  0  0  0  0  0  0  0  0
  154.3924  141.2939  162.4484 H   0  0  0  0  0  0  0  0  0  0  0  0
  152.8188  141.9862  162.8051 H   0  0  0  0  0  0  0  0  0  0  0  0
  154.0957  142.9984  162.1288 H   0  0  0  0  0  0  0  0  0  0  0  0
  154.0777  141.5910  160.0437 H   0  0  0  0  0  0  0  0  0  0  0  0
  152.7516  140.6515  160.6689 H   0  0  0  0  0  0  0  0  0  0  0  0
  151.3389  142.7317  160.7220 H   0  0  0  0  0  0  0  0  0  0  0  0
  153.1418  144.3961  160.9668 H   0  0  0  0  0  0  0  0  0  0  0  0
  153.7446  144.0233  159.3706 H   0  0  0  0  0  0  0  0  0  0  0  0
  151.0135  145.2261  160.0375 H   0  0  0  0  0  0  0  0  0  0  0  0
  152.3555  146.0628  159.2951 H   0  0  0  0  0  0  0  0  0  0  0  0
  150.6665  145.3733  157.5978 H   0  0  0  0  0  0  0  0  0  0  0  0
  152.2183  144.6292  157.2927 H   0  0  0  0  0  0  0  0  0  0  0  0
  149.8379  143.3228  158.6812 H   0  0  0  0  0  0  0  0  0  0  0  0
  149.7764  143.6207  156.2940 H   0  0  0  0  0  0  0  0  0  0  0  0
  149.7365  140.9177  157.3590 H   0  0  0  0  0  0  0  0  0  0  0  0
  148.3910  141.9580  156.9212 H   0  0  0  0  0  0  0  0  0  0  0  0
  148.4272  140.5805  155.0347 H   0  0  0  0  0  0  0  0  0  0  0  0
  149.5155  141.8303  154.4798 H   0  0  0  0  0  0  0  0  0  0  0  0
  149.3092  138.6624  153.8338 H   0  0  0  0  0  0  0  0  0  0  0  0
  151.1842  137.0158  153.5859 H   0  0  0  0  0  0  0  0  0  0  0  0
  153.3780  137.5187  154.6915 H   0  0  0  0  0  0  0  0  0  0  0  0
  151.9717  141.0889  156.2213 H   0  0  0  0  0  0  0  0  0  0  0  0
  152.5517  142.0817  157.9962 H   0  0  0  0  0  0  0  0  0  0  0  0
  151.2086  141.2556  158.7459 H   0  0  0  0  0  0  0  0  0  0  0  0
  151.1050  142.6770  156.1229 H   0  0  0  0  0  0  0  0  0  0  0  0
  1  2  1  0  0  0  0
  1 18  1  0  0  0  0
  1 19  1  0  0  0  0
  1 20  1  0  0  0  0
  2  3  1  0  0  0  0
  2 21  1  0  0  0  0
  2 22  1  0  0  0  0
  3 17  1  0  0  0  0
  3  4  1  0  0  0  0
  3 23  1  0  0  0  0
  4  5  1  0  0  0  0
  4 24  1  0  0  0  0
  4 25  1  0  0  0  0
  5  6  1  0  0  0  0
  5 26  1  0  0  0  0
  5 27  1  0  0  0  0
  6  7  1  0  0  0  0
  6 28  1  0  0  0  0
  6 29  1  0  0  0  0
  7  8  1  0  0  0  0
  7 17  1  0  0  0  0
  7 30  1  0  0  0  0
  8  9  1  0  0  0  0
  8 31  1  0  0  0  0
  8 42  1  0  0  0  0
  9 10  1  0  0  0  0
  9 32  1  0  0  0  0
  9 33  1  0  0  0  0
 10 11  1  0  0  0  0
 10 34  1  0  0  0  0
 10 35  1  0  0  0  0
 11 16  1  0  0  0  0
 11 12  2  0  0  0  0
 12 13  1  0  0  0  0
 12 36  1  0  0  0  0
 13 14  2  0  0  0  0
 13 37  1  0  0  0  0
 14 15  1  0  0  0  0
 14 38  1  0  0  0  0
 15 16  2  0  0  0  0
 16 39  1  0  0  0  0
 17 40  1  0  0  0  0
 17 41  1  0  0  0  0
M  CHG  1   8   1
M  END
> <s_m_source_file>
AV-unprocessed.smi

> <i_m_source_file_index>
3126

> <i_lp_mmshare_version>
43012

> <i_f3d_flags>
0

> <s_epik_input>
W0NIM11bQ0gyXVtDQEBIXTFbQ0gyXVtDSDJdW0NIMl1bQ0BIXShbQ0gyXTEpW05IXVtDSDJdW0NIMl1jMltjSF1bY0hdW2NIXW5bY0hdMg==

> <s_epik_cmdline>
J2VwaWtfcHl0aG9uJywgJy1waCcsICc3LjAnLCAnLXRuJywgJzgnLCAnLW1hJywgJzIwMCcsICctbWV0YWxfYmluZGluZycsICctaW1hZScsICc8aW5maWxlLm1hZT4nLCAnLW9tYWUnLCAnPG91dGZpbGUubWFlPic=

> <r_lp_tautomer_probability>
1

> <r_epik_Ionization_Penalty>
0.000947364

> <r_epik_Ionization_Penalty_Charging>
0.000286103

> <r_epik_Ionization_Penalty_Neutral>
0.000661261

> <r_epik_State_Penalty>
-0

> <r_epik_Charging_Adjusted_Penalty>
0.000286103

> <i_epik_Tot_Q>
1

> <i_epik_Tot_abs_Q>
1

> <r_epik_Metal_State_Penalty>
-0

> <b_epik_Metal_Only>
0

> <s_lp_Force_Field>
OPLS_2005

> <r_lp_Energy>
13.7456

> <b_lp_Chiralities_Consistent>
1

> <s_lp_Variant>
AV-unprocessed.smi:3126-2

> <Gold.Version>
5.8.1

> <Gold.Id.Protein>
6NUR|6NUR_protein|mol2

> <Gold.PLP.Fitness>
53.9212

> <Gold.PLP.PLP>
-46.1902

> <Gold.PLP.part.hbond>
-2.0000

> <Gold.PLP.part.metal>
0.0000

> <Gold.PLP.part.buried>
-2.7589

> <Gold.PLP.part.nonpolar>
-40.4400

> <Gold.PLP.part.repulsive>
0.0477

> <Gold.PLP.ligand.clash>
0.0000

> <Gold.PLP.ligand.torsion>
0.6393

> <Gold.PLP.Chemscore.Hbond>
3.0000

> <Gold.PLP.Chemscore.CHOScore>
0.0000

> <Gold.PLP.Chemscore.Metal>
0.0000

> <Gold.Chemscore.Hbonds>
donor molecule, donor type, donor heavy atom, donor atom, acceptor molecule, acceptor atom, score
      L1  H     8    31       P1  8028  2.00
      P1  H  7997  8008       L1    15  1.00

> <Gold.PLP.Chemscore.Internal.Correction>
0.0097

> <Gold.Rescore>
     Score         DG    S(hbond)    S(metal)    S(lipo)     H(rot)  DE(clash)    DE(int)     intcor
     22.92     -23.84       1.76        0.00     136.38       1.35       0.32       0.61       ----

> <Gold.Chemscore.Fitness>
22.9167

> <Gold.Chemscore.DG>
-23.8430

> <Gold.Chemscore.ZeroCoef>
-5.4800

> <Gold.Chemscore.Hbond>
1.7559

> <Gold.Chemscore.Metal>
0.0000

> <Gold.Chemscore.Lipo>
136.3784

> <Gold.Chemscore.Internal_Hbond>
0.0000

> <Gold.Chemscore.DEClash>
0.3175

> <Gold.Chemscore.DEInternal>
0.6087

> <Gold.Chemscore.Rot>
1.3507

> <Gold.Chemscore.Internal.Correction>
   9.000000E+99

> <Gold.Chemscore.Hbonds>
donor molecule, donor type, donor heavy atom, donor atom, acceptor molecule, acceptor atom, score
      L1  H     8    31       P1  8028  0.94
      P1  H  7997  8008       L1    15  0.57

> <Gold.Chemscore.Hbond.Weighted>
-5.8646

> <Gold.Chemscore.Metal.Weighted>
-0.0000

> <Gold.Chemscore.Lipo.Weighted>
-15.9563

> <Gold.Chemscore.Internal_Hbond.Weighted>
0.0000

> <Gold.Chemscore.DEClash.Weighted>
0.3175

> <Gold.Chemscore.DEInternal.Weighted>
0.6087

> <Gold.Chemscore.Rot.Weighted>
3.4579

> <Gold.Chemscore.Internal.Correction.Weighted>
   9.000000E+99

> <Gold.Protein.RotatedTorsions>
[ 6907 6896 6895 6894 ] final  175.50 input  -60.11 | X-H torsion
[ 7974 7965 7964 7962 ] final  -45.24 input  175.53 | X-H torsion
[ 8008 7997 7996 7995 ] final  -47.96 input   59.86 | X-H torsion
[ 10167 10162 10161 10158 ] final -123.08 input  -65.29 | X-H torsion
[ 10718 10713 10712 10709 ] final  -66.49 input   66.30 | X-H torsion
[ 10763 10752 10751 10750 ] final -139.90 input  -60.55 | X-H torsion
[ 11005 11000 10999 10996 ] final  -52.22 input  -57.11 | X-H torsion

> <Gold.Protein.ActiveResidues>
 VAL166  LYS551  ARG553  GLY616  TRP617  ASP618  TYR619  PRO620  LYS621  CYS622 
 ASP623  PHE694  ASN695  SER759  ASP760  ASP761  ALA762  ILE779  LEU786  VAL792 
 PHE793  MET794  SER795  GLU796  ALA797  LYS798  CYS799  TRP800  GLU811  SER814 

> <Gold.Protein.RotatedAtoms>
  151.7352  133.3319  159.3350 H   0  0  0  0  0  0  0  0  0  0  0  0  # atno 6907 bound_to 6896
  150.7596  134.6328  159.6205 H   0  0  0  0  0  0  0  0  0  0  0  0  # atno 6908 bound_to 6896
  152.3566  134.6933  160.0272 H   0  0  0  0  0  0  0  0  0  0  0  0  # atno 6909 bound_to 6896
  145.9840  140.7253  142.9349 H   0  0  0  0  0  0  0  0  0  0  0  0  # atno 7974 bound_to 7965
  154.4023  140.1333  156.4261 H   0  0  0  0  0  0  0  0  0  0  0  0  # atno 8008 bound_to 7997
  155.7596  140.3486  155.5171 H   0  0  0  0  0  0  0  0  0  0  0  0  # atno 8009 bound_to 7997
  155.8872  140.0997  157.1434 H   0  0  0  0  0  0  0  0  0  0  0  0  # atno 8010 bound_to 7997
  140.0073  143.5478  152.2278 H   0  0  0  0  0  0  0  0  0  0  0  0  # atno 10167 bound_to 10162
  156.0609  130.4263  150.1717 H   0  0  0  0  0  0  0  0  0  0  0  0  # atno 10718 bound_to 10713
  154.8595  135.3569  154.5621 H   0  0  0  0  0  0  0  0  0  0  0  0  # atno 10763 bound_to 10752
  153.6236  135.7005  153.5306 H   0  0  0  0  0  0  0  0  0  0  0  0  # atno 10764 bound_to 10752
  153.3108  135.4179  155.1294 H   0  0  0  0  0  0  0  0  0  0  0  0  # atno 10765 bound_to 10752
  141.0913  133.6632  156.3993 H   0  0  0  0  0  0  0  0  0  0  0  0  # atno 11005 bound_to 11000
  144.6869  140.2957  143.7271 LP  0  0  0  0  0  0  0  0  0  0  0  0  # atno 17320 bound_to 7965
  145.7728  139.1863  143.2203 LP  0  0  0  0  0  0  0  0  0  0  0  0  # atno 17321 bound_to 7965
  139.6229  144.7632  151.2700 LP  0  0  0  0  0  0  0  0  0  0  0  0  # atno 17342 bound_to 10162
  140.7395  143.6615  150.8160 LP  0  0  0  0  0  0  0  0  0  0  0  0  # atno 17343 bound_to 10162
  156.9785  130.9857  151.3443 LP  0  0  0  0  0  0  0  0  0  0  0  0  # atno 17370 bound_to 10713
  157.5617  130.8250  149.8275 LP  0  0  0  0  0  0  0  0  0  0  0  0  # atno 17371 bound_to 10713
  140.5245  134.6272  157.5329 LP  0  0  0  0  0  0  0  0  0  0  0  0  # atno 17394 bound_to 11000
  139.9739  134.7247  155.9987 LP  0  0  0  0  0  0  0  0  0  0  0  0  # atno 17395 bound_to 11000

$$$$
