#       Name:                AV-unprocessed.smi:11
#       Creating user name   scv26
#       Creation time:       Thu Mar 26 15:17:34 2020


#       File generated by GOLD software.
#

@<TRIPOS>MOLECULE
AV-unprocessed.smi:11
    37    39     1
SMALL
NO_CHARGES


@<TRIPOS>ATOM
      1 ****        -2.6854   1.6478  -1.5253 C.3            1 S1                 0.0000
      2 ****        -2.4833   0.1254  -1.4345 C.3            1 S1                 0.0000
      3 ****        -1.1165  -0.3931  -1.9473 C.3            1 S1                 0.0000
      4 ****        -0.9604   0.0001  -3.2969 O.3            1 S1                 0.0000
      5 ****        -1.0192  -1.9213  -1.8407 C.3            1 S1                 0.0000
      6 ****        -0.4982  -2.1422  -0.4222 C.3            1 S1                 0.0000
      7 ****         0.3713  -1.0030  -0.1672 N.pl3          1 S1                 0.0000
      8 ****         0.8538  -0.7290   1.1288 C.ar           1 S1                 0.0000
      9 ****         0.5456  -1.6023   2.1224 N.ar           1 S1                 0.0000
     10 ****         0.9773  -1.3779   3.3665 C.ar           1 S1                 0.0000
     11 ****         1.7185  -0.3661   3.8232 N.ar           1 S1                 0.0000
     12 ****         2.0412   0.5024   2.8242 C.ar           1 S1                 0.0000
     13 ****         2.7998   1.6490   2.9329 N.pl3          1 S1                 0.0000
     14 ****         2.9213   2.2636   1.6993 C.2            1 S1                 0.0000
     15 ****         2.2402   1.5265   0.7644 C.2            1 S1                 0.0000
     16 ****         1.6594   0.4014   1.4547 C.ar           1 S1                 0.0000
     17 ****         0.0768   0.0810  -1.0947 C.3            1 S1                 0.0000
     18 ****         3.2217   2.0072   3.7776 H              1 S1                 0.0000
     19 ****        -3.6793   1.9216  -1.1711 H              1 S1                 0.0000
     20 ****        -2.5971   2.0037  -2.5517 H              1 S1                 0.0000
     21 ****        -1.9648   2.1934  -0.9174 H              1 S1                 0.0000
     22 ****        -2.6253  -0.1813  -0.3976 H              1 S1                 0.0000
     23 ****        -3.2820  -0.3585  -1.9984 H              1 S1                 0.0000
     24 ****        -0.1366  -0.3378  -3.6135 H              1 S1                 0.0000
     25 ****        -1.9617  -2.4351  -2.0328 H              1 S1                 0.0000
     26 ****        -0.2841  -2.3046  -2.5506 H              1 S1                 0.0000
     27 ****        -1.3244  -2.1470   0.2900 H              1 S1                 0.0000
     28 ****         0.0404  -3.0860  -0.3313 H              1 S1                 0.0000
     29 ****         0.6865  -2.1137   4.1016 H              1 S1                 0.0000
     30 ****         3.4868   3.1770   1.5860 H              1 S1                 0.0000
     31 ****         2.1545   1.7464  -0.2889 H              1 S1                 0.0000
     32 ****         0.9596   0.2384  -1.7157 H              1 S1                 0.0000
     33 ****        -0.1365   1.0139  -0.5747 H              1 S1                 0.0000
     34 ****        -0.9625   0.9981  -3.3601 LP             1 S1                 0.0000
     35 ****        -1.7102  -0.3702  -3.8452 LP             1 S1                 0.0000
     36 ****        -0.0044  -2.4132   1.9226 LP             1 S1                 0.0000
     37 ****         2.0008  -0.2592   4.7766 LP             1 S1                 0.0000
@<TRIPOS>BOND
    1    1    2 1     
    2    1   19 1     
    3    1   20 1     
    4    1   21 1     
    5    2    3 1     
    6    2   22 1     
    7    2   23 1     
    8    3   17 1     
    9    3    4 1     
   10    3    5 1     
   11    4   24 1     
   12    5    6 1     
   13    5   25 1     
   14    5   26 1     
   15    6    7 1     
   16    6   27 1     
   17    6   28 1     
   18    7    8 1     
   19    7   17 1     
   20    8   16 ar    
   21    8    9 ar    
   22    9   10 ar    
   23   10   11 ar    
   24   10   29 1     
   25   11   12 ar    
   26   12   16 ar    
   27   12   13 1     
   28   13   18 1     
   29   13   14 1     
   30   14   15 2     
   31   14   30 1     
   32   15   16 1     
   33   15   31 1     
   34   17   32 1     
   35   17   33 1     
   36    4   34 1     
   37    4   35 1     
   38    9   36 1     
   39   11   37 1     
@<TRIPOS>SUBSTRUCTURE
      1 S1             1
@<TRIPOS>SET
LONE_PAIRS      STATIC     ATOMS    <user>   **** ""
4 34 35 36 37
DONOR_HYDROGENS      STATIC     ATOMS    <user>   **** ""
2 24 18
ATOM$BLUE        STATIC     ATOMS    COLORGROUP SYSTEM
4 34 35 36 37
ATOM$RED        STATIC     ATOMS    COLORGROUP SYSTEM
2 24 18
