#       Name:                AV-unprocessed.smi:2352
#       Creating user name   scv26
#       Creation time:       Fri Mar 27 13:00:34 2020


#       File generated by GOLD software.
#

@<TRIPOS>MOLECULE
AV-unprocessed.smi:2352
    42    43     1
SMALL
NO_CHARGES


@<TRIPOS>ATOM
      1 ****        -2.7260   5.1749  -0.0912 C.3            1 S1                 0.0000
      2 ****        -2.1735   3.7607  -0.1182 C.2            1 S1                 0.0000
      3 ****        -2.0975   3.1666  -1.3813 N.2            1 S1                 0.0000
      4 ****        -1.6426   1.9624  -1.5011 C.2            1 S1                 0.0000
      5 ****        -1.2174   1.2200  -0.3872 N.am           1 S1                 0.0000
      6 ****        -0.7222  -0.1401  -0.6598 C.3            1 S1                 0.0000
      7 ****         0.8210  -0.2082  -0.6872 C.3            1 S1                 0.0000
      8 ****         1.2757   0.3134  -1.9206 O.3            1 S1                 0.0000
      9 ****         1.3070  -1.6345  -0.4761 C.ar           1 S1                 0.0000
     10 ****         1.2257  -2.5874  -1.5149 C.ar           1 S1                 0.0000
     11 ****         1.6730  -3.9065  -1.3067 C.ar           1 S1                 0.0000
     12 ****         2.2080  -4.2902  -0.0578 C.ar           1 S1                 0.0000
     13 ****         2.6850  -5.7165   0.1748 C.3            1 S1                 0.0000
     14 ****         3.7258  -5.7345   1.0082 F              1 S1                 0.0000
     15 ****         1.6940  -6.4284   0.7101 F              1 S1                 0.0000
     16 ****         3.0575  -6.2925  -0.9688 F              1 S1                 0.0000
     17 ****         2.2767  -3.3400   0.9836 C.ar           1 S1                 0.0000
     18 ****         1.8296  -2.0207   0.7759 C.ar           1 S1                 0.0000
     19 ****        -1.2484   1.7274   0.8792 C.2            1 S1                 0.0000
     20 ****        -0.8584   1.0724   1.8479 O.2            1 S1                 0.0000
     21 ****        -1.7728   3.0973   1.0006 C.2            1 S1                 0.0000
     22 ****        -1.8322   3.6930   2.4016 C.3            1 S1                 0.0000
     23 ****        -3.6244   5.2227   0.5247 H              1 S1                 0.0000
     24 ****        -2.9891   5.5180  -1.0926 H              1 S1                 0.0000
     25 ****        -1.9871   5.8663   0.3147 H              1 S1                 0.0000
     26 ****        -1.5582   1.4555  -2.4640 H              1 S1                 0.0000
     27 ****        -1.0952  -0.7958   0.1296 H              1 S1                 0.0000
     28 ****        -1.1410  -0.5602  -1.5770 H              1 S1                 0.0000
     29 ****         1.2404   0.4127   0.1056 H              1 S1                 0.0000
     30 ****         2.2203   0.3418  -1.9030 H              1 S1                 0.0000
     31 ****         0.8164  -2.3111  -2.4757 H              1 S1                 0.0000
     32 ****         1.5996  -4.6228  -2.1117 H              1 S1                 0.0000
     33 ****         2.6710  -3.6206   1.9492 H              1 S1                 0.0000
     34 ****         1.8872  -1.3067   1.5846 H              1 S1                 0.0000
     35 ****        -0.8321   3.7367   2.8342 H              1 S1                 0.0000
     36 ****        -2.4539   3.0727   3.0482 H              1 S1                 0.0000
     37 ****        -2.2428   4.7011   2.4224 H              1 S1                 0.0000
     38 ****        -2.3946   3.6724  -2.1912 LP             1 S1                 0.0000
     39 ****         0.9126   1.2359  -2.0515 LP             1 S1                 0.0000
     40 ****         0.9695  -0.2746  -2.6693 LP             1 S1                 0.0000
     41 ****        -0.5083   0.1450   1.7161 LP             1 S1                 0.0000
     42 ****        -0.8921   1.4685   2.7655 LP             1 S1                 0.0000
@<TRIPOS>BOND
    1    1    2 1     
    2    1   23 1     
    3    1   24 1     
    4    1   25 1     
    5    2   21 2     
    6    2    3 1     
    7    3    4 2     
    8    4    5 1     
    9    4   26 1     
   10    5    6 1     
   11    5   19 am    
   12    6    7 1     
   13    6   27 1     
   14    6   28 1     
   15    7    8 1     
   16    7    9 1     
   17    7   29 1     
   18    8   30 1     
   19    9   18 ar    
   20    9   10 ar    
   21   10   11 ar    
   22   10   31 1     
   23   11   12 ar    
   24   11   32 1     
   25   12   13 1     
   26   12   17 ar    
   27   13   14 1     
   28   13   15 1     
   29   13   16 1     
   30   17   18 ar    
   31   17   33 1     
   32   18   34 1     
   33   19   20 2     
   34   19   21 1     
   35   21   22 1     
   36   22   35 1     
   37   22   36 1     
   38   22   37 1     
   39    3   38 1     
   40    8   39 1     
   41    8   40 1     
   42   20   41 1     
   43   20   42 1     
@<TRIPOS>SUBSTRUCTURE
      1 S1             1
@<TRIPOS>SET
LONE_PAIRS      STATIC     ATOMS    <user>   **** ""
5 38 39 40 41 42
DONOR_HYDROGENS      STATIC     ATOMS    <user>   **** ""
1 30
ATOM$BLUE        STATIC     ATOMS    COLORGROUP SYSTEM
5 38 39 40 41 42
ATOM$RED        STATIC     ATOMS    COLORGROUP SYSTEM
1 30
