#       Name:                AV-unprocessed.smi:3266
#       Creating user name   scv26
#       Creation time:       Fri Mar 27 18:40:54 2020


#       File generated by GOLD software.
#

@<TRIPOS>MOLECULE
AV-unprocessed.smi:3266
    43    44     1
SMALL
NO_CHARGES


@<TRIPOS>ATOM
      1 ****        -1.7799   1.3753  -0.5075 O.2            1 S1                 0.0000
      2 ****        -1.1917   0.3342  -0.8001 C.2            1 S1                 0.0000
      3 ****         0.3094   0.3344  -1.1028 C.3            1 S1                 0.0000
      4 ****         0.8612   1.7196  -1.4876 C.3            1 S1                 0.0000
      5 ****         2.3544   1.6770  -1.8441 C.3            1 S1                 0.0000
      6 ****         2.9185   3.0174  -2.3121 C.3            1 S1                 0.0000
      7 ****         4.3869   2.8530  -1.9940 C.3            1 S1                 0.0000
      8 ****         4.3317   2.1037  -0.6661 C.3            1 S1                 0.0000
      9 ****         3.1379   1.3252  -0.7054 O.3            1 S1                 0.0000
     10 ****        -1.7995  -0.8603  -0.8565 N.am           1 S1                 0.0000
     11 ****        -3.2167  -1.0989  -0.5980 C.3            1 S1                 0.0000
     12 ****        -3.6039  -0.9771   0.8911 C.3            1 S1                 0.0000
     13 ****        -2.7301  -1.7964   1.8260 C.ar           1 S1                 0.0000
     14 ****        -3.0395  -3.1321   2.1625 C.ar           1 S1                 0.0000
     15 ****        -2.1804  -3.8415   3.0277 C.ar           1 S1                 0.0000
     16 ****        -1.0307  -3.2022   3.5366 C.ar           1 S1                 0.0000
     17 ****        -0.7685  -1.8675   3.1665 C.ar           1 S1                 0.0000
     18 ****        -1.6162  -1.2217   2.3363 N.pl3          1 S1                 1.0000
     19 ****         0.8330  -0.0432  -0.2238 H              1 S1                 0.0000
     20 ****         0.5043  -0.3715  -1.9115 H              1 S1                 0.0000
     21 ****         0.3039   2.1061  -2.3423 H              1 S1                 0.0000
     22 ****         0.7055   2.4257  -0.6707 H              1 S1                 0.0000
     23 ****         2.5349   0.9295  -2.6183 H              1 S1                 0.0000
     24 ****         2.7269   3.2153  -3.3671 H              1 S1                 0.0000
     25 ****         2.5010   3.8389  -1.7277 H              1 S1                 0.0000
     26 ****         4.8682   2.2366  -2.7548 H              1 S1                 0.0000
     27 ****         4.9234   3.7998  -1.9288 H              1 S1                 0.0000
     28 ****         5.2105   1.4796  -0.5034 H              1 S1                 0.0000
     29 ****         4.2574   2.8068   0.1641 H              1 S1                 0.0000
     30 ****        -1.2406  -1.6632  -1.1077 H              1 S1                 0.0000
     31 ****        -3.8245  -0.4246  -1.2032 H              1 S1                 0.0000
     32 ****        -3.4409  -2.1079  -0.9453 H              1 S1                 0.0000
     33 ****        -3.5593   0.0683   1.1997 H              1 S1                 0.0000
     34 ****        -4.6431  -1.2803   1.0221 H              1 S1                 0.0000
     35 ****        -3.9221  -3.6089   1.7615 H              1 S1                 0.0000
     36 ****        -2.4003  -4.8641   3.2970 H              1 S1                 0.0000
     37 ****        -0.3603  -3.7281   4.2007 H              1 S1                 0.0000
     38 ****         0.0862  -1.3010   3.5061 H              1 S1                 0.0000
     39 ****        -1.4068  -0.2562   2.0800 H              1 S1                 0.0000
     40 ****        -1.2770   2.2386  -0.4646 LP             1 S1                 0.0000
     41 ****        -2.7606   1.3577  -0.3126 LP             1 S1                 0.0000
     42 ****         3.3778   0.3558  -0.7569 LP             1 S1                 0.0000
     43 ****         2.6069   1.4935   0.1251 LP             1 S1                 0.0000
@<TRIPOS>BOND
    1    1    2 2     
    2    2    3 1     
    3    2   10 am    
    4    3    4 1     
    5    3   19 1     
    6    3   20 1     
    7    4    5 1     
    8    4   21 1     
    9    4   22 1     
   10    5    9 1     
   11    5    6 1     
   12    5   23 1     
   13    6    7 1     
   14    6   24 1     
   15    6   25 1     
   16    7    8 1     
   17    7   26 1     
   18    7   27 1     
   19    8    9 1     
   20    8   28 1     
   21    8   29 1     
   22   10   11 1     
   23   10   30 1     
   24   11   12 1     
   25   11   31 1     
   26   11   32 1     
   27   12   13 1     
   28   12   33 1     
   29   12   34 1     
   30   13   18 ar    
   31   13   14 ar    
   32   14   15 ar    
   33   14   35 1     
   34   15   16 ar    
   35   15   36 1     
   36   16   17 ar    
   37   16   37 1     
   38   17   18 ar    
   39   17   38 1     
   40   18   39 1     
   41    1   40 1     
   42    1   41 1     
   43    9   42 1     
   44    9   43 1     
@<TRIPOS>SUBSTRUCTURE
      1 S1             1
@<TRIPOS>SET
LONE_PAIRS      STATIC     ATOMS    <user>   **** ""
4 40 41 42 43
DONOR_HYDROGENS      STATIC     ATOMS    <user>   **** ""
2 30 39
ATOM$BLUE        STATIC     ATOMS    COLORGROUP SYSTEM
4 40 41 42 43
ATOM$RED        STATIC     ATOMS    COLORGROUP SYSTEM
2 30 39
