AV-unprocessed.smi:2116|AV-procd|sdf|8625|dock1
  -GOLD-   2272011373D 1   1.00000     0.00000
 Structure written by MMmdl.
 44 45  0  0  0  0  0  0  0  0  1 V2000
  145.5822  136.2864  151.2984 C   0  0  0  0  0  0  0  0  0  0  0  0
  145.8278  137.1895  152.3619 O   0  0  0  0  0  0  0  0  0  0  0  0
  146.4817  138.3718  151.9314 C   0  0  0  0  0  0  0  0  0  0  0  0
  146.8847  139.1964  153.1575 C   0  0  0  0  0  0  0  0  0  0  0  0
  148.2159  138.8485  153.5271 O   0  0  0  0  0  0  0  0  0  0  0  0
  148.9017  139.6843  154.3843 C   0  0  0  0  0  0  0  0  0  0  0  0
  150.1907  139.3043  154.8072 C   0  0  0  0  0  0  0  0  0  0  0  0
  150.8947  140.1532  155.6817 C   0  0  0  0  0  0  0  0  0  0  0  0
  150.2974  141.3592  156.0995 C   0  0  0  0  0  0  0  0  0  0  0  0
  151.0245  142.1849  156.9988 N   0  0  0  0  0  0  0  0  0  0  0  0
  152.0129  141.8427  157.8503 C   0  0  0  0  0  0  0  0  0  0  0  0
  152.4691  140.7011  157.9272 O   0  0  0  0  0  0  0  0  0  0  0  0
  152.5002  142.8762  158.5898 N   0  0  0  0  0  0  0  0  0  0  0  0
  151.9888  144.2634  158.5265 C   0  0  0  0  0  0  0  0  0  0  0  0
  151.9520  145.0093  159.8780 C   0  0  0  0  0  0  0  0  0  0  0  0
  151.4159  144.1794  161.0593 C   0  0  0  0  0  0  0  0  0  0  0  0
  152.5066  143.3474  161.7554 C   0  0  0  0  0  0  0  0  0  0  0  0
  153.0752  142.1956  160.9112 C   0  0  0  0  0  0  0  0  0  0  0  0
  153.6030  142.6397  159.5348 C   0  0  0  0  0  0  0  0  0  0  0  0
  148.9926  141.6458  155.6294 C   0  0  0  0  0  0  0  0  0  0  0  0
  148.3116  140.8351  154.7917 N   0  0  0  0  0  0  0  0  0  0  0  0
  145.0787  135.3987  151.6810 H   0  0  0  0  0  0  0  0  0  0  0  0
  146.5141  135.9688  150.8285 H   0  0  0  0  0  0  0  0  0  0  0  0
  144.9414  136.7358  150.5386 H   0  0  0  0  0  0  0  0  0  0  0  0
  147.3574  138.1376  151.3241 H   0  0  0  0  0  0  0  0  0  0  0  0
  145.7981  138.9531  151.3110 H   0  0  0  0  0  0  0  0  0  0  0  0
  146.8459  140.2572  152.9041 H   0  0  0  0  0  0  0  0  0  0  0  0
  146.1838  139.0200  153.9753 H   0  0  0  0  0  0  0  0  0  0  0  0
  150.6304  138.3778  154.4686 H   0  0  0  0  0  0  0  0  0  0  0  0
  151.8831  139.8810  156.0227 H   0  0  0  0  0  0  0  0  0  0  0  0
  150.7017  143.1389  157.0665 H   0  0  0  0  0  0  0  0  0  0  0  0
  152.5867  144.8271  157.8094 H   0  0  0  0  0  0  0  0  0  0  0  0
  150.9650  144.2879  158.1518 H   0  0  0  0  0  0  0  0  0  0  0  0
  152.9389  145.4045  160.1216 H   0  0  0  0  0  0  0  0  0  0  0  0
  151.3198  145.8892  159.7538 H   0  0  0  0  0  0  0  0  0  0  0  0
  151.0018  144.8666  161.7978 H   0  0  0  0  0  0  0  0  0  0  0  0
  150.5862  143.5464  160.7420 H   0  0  0  0  0  0  0  0  0  0  0  0
  153.3203  144.0060  162.0616 H   0  0  0  0  0  0  0  0  0  0  0  0
  152.0996  142.9324  162.6781 H   0  0  0  0  0  0  0  0  0  0  0  0
  153.8916  141.7357  161.4687 H   0  0  0  0  0  0  0  0  0  0  0  0
  152.3225  141.4153  160.7928 H   0  0  0  0  0  0  0  0  0  0  0  0
  154.2753  141.8742  159.1429 H   0  0  0  0  0  0  0  0  0  0  0  0
  154.2306  143.5263  159.6295 H   0  0  0  0  0  0  0  0  0  0  0  0
  148.4538  142.5281  155.9372 H   0  0  0  0  0  0  0  0  0  0  0  0
  1  2  1  0  0  0  0
  1 22  1  0  0  0  0
  1 23  1  0  0  0  0
  1 24  1  0  0  0  0
  2  3  1  0  0  0  0
  3  4  1  0  0  0  0
  3 25  1  0  0  0  0
  3 26  1  0  0  0  0
  4  5  1  0  0  0  0
  4 27  1  0  0  0  0
  4 28  1  0  0  0  0
  5  6  1  0  0  0  0
  6 21  1  0  0  0  0
  6  7  2  0  0  0  0
  7  8  1  0  0  0  0
  7 29  1  0  0  0  0
  8  9  2  0  0  0  0
  8 30  1  0  0  0  0
  9 10  1  0  0  0  0
  9 20  1  0  0  0  0
 10 11  1  0  0  0  0
 10 31  1  0  0  0  0
 11 12  2  0  0  0  0
 11 13  1  0  0  0  0
 13 19  1  0  0  0  0
 13 14  1  0  0  0  0
 14 15  1  0  0  0  0
 14 32  1  0  0  0  0
 14 33  1  0  0  0  0
 15 16  1  0  0  0  0
 15 34  1  0  0  0  0
 15 35  1  0  0  0  0
 16 17  1  0  0  0  0
 16 36  1  0  0  0  0
 16 37  1  0  0  0  0
 17 18  1  0  0  0  0
 17 38  1  0  0  0  0
 17 39  1  0  0  0  0
 18 19  1  0  0  0  0
 18 40  1  0  0  0  0
 18 41  1  0  0  0  0
 19 42  1  0  0  0  0
 19 43  1  0  0  0  0
 20 21  2  0  0  0  0
 20 44  1  0  0  0  0
M  END
> <s_m_source_file>
AV-unprocessed.smi

> <i_m_source_file_index>
2116

> <i_lp_mmshare_version>
43012

> <i_f3d_flags>
0

> <s_epik_input>
W0NIM11PW0NIMl1bQ0gyXU9jMVtjSF1bY0hdYyhbY0hdbjEpW05IXUMoPU8pTjJbQ0gyXVtDSDJdW0NIMl1bQ0gyXVtDSDJdW0NIMl0y

> <s_epik_cmdline>
J2VwaWtfcHl0aG9uJywgJy1waCcsICc3LjAnLCAnLXRuJywgJzgnLCAnLW1hJywgJzIwMCcsICctbWV0YWxfYmluZGluZycsICctaW1hZScsICc8aW5maWxlLm1hZT4nLCAnLW9tYWUnLCAnPG91dGZpbGUubWFlPic=

> <r_lp_tautomer_probability>
1

> <r_epik_Ionization_Penalty>
7.94695e-05

> <r_epik_Ionization_Penalty_Charging>
0

> <r_epik_Ionization_Penalty_Neutral>
7.94695e-05

> <r_epik_State_Penalty>
-0

> <r_epik_Charging_Adjusted_Penalty>
0

> <i_epik_Tot_Q>
0

> <i_epik_Tot_abs_Q>
0

> <r_epik_Metal_State_Penalty>
-0

> <b_epik_Metal_Only>
0

> <s_lp_Force_Field>
OPLS_2005

> <r_lp_Energy>
37.7732

> <b_lp_Chiralities_Consistent>
1

> <s_lp_Variant>
AV-unprocessed.smi:2116-1

> <Gold.Version>
5.8.1

> <Gold.Id.Protein>
6NUR|6NUR_protein|mol2

> <Gold.PLP.Fitness>
50.2504

> <Gold.PLP.PLP>
-47.4698

> <Gold.PLP.part.hbond>
-0.5598

> <Gold.PLP.part.metal>
0.0000

> <Gold.PLP.part.buried>
-4.3960

> <Gold.PLP.part.nonpolar>
-44.4671

> <Gold.PLP.part.repulsive>
1.7111

> <Gold.PLP.ligand.clash>
0.0000

> <Gold.PLP.ligand.torsion>
0.4259

> <Gold.PLP.Chemscore.Hbond>
0.1872

> <Gold.PLP.Chemscore.CHOScore>
1.0000

> <Gold.PLP.Chemscore.Metal>
0.0000

> <Gold.Chemscore.Hbonds>
donor molecule, donor type, donor heavy atom, donor atom, acceptor molecule, acceptor atom, score
      P1  H  7997  8008       L1    12  0.16
      L1  C    20    44       P1  8028  1.00

> <Gold.PLP.Chemscore.Internal.Correction>
0.0709

> <Gold.Rescore>
     Score         DG    S(hbond)    S(metal)    S(lipo)     H(rot)  DE(clash)    DE(int)     intcor
     14.42     -16.40       0.24        0.00     120.51       1.55       0.18       1.79       ----

> <Gold.Chemscore.Fitness>
14.4237

> <Gold.Chemscore.DG>
-16.3963

> <Gold.Chemscore.ZeroCoef>
-5.4800

> <Gold.Chemscore.Hbond>
0.2361

> <Gold.Chemscore.Metal>
0.0000

> <Gold.Chemscore.Lipo>
120.5128

> <Gold.Chemscore.Internal_Hbond>
0.0000

> <Gold.Chemscore.DEClash>
0.1834

> <Gold.Chemscore.DEInternal>
1.7892

> <Gold.Chemscore.Rot>
1.5517

> <Gold.Chemscore.Internal.Correction>
   9.000000E+99

> <Gold.Chemscore.Hbonds>
donor molecule, donor type, donor heavy atom, donor atom, acceptor molecule, acceptor atom, score
      P1  H  7997  8008       L1    12  0.18

> <Gold.Chemscore.Hbond.Weighted>
-0.7885

> <Gold.Chemscore.Metal.Weighted>
-0.0000

> <Gold.Chemscore.Lipo.Weighted>
-14.1000

> <Gold.Chemscore.Internal_Hbond.Weighted>
0.0000

> <Gold.Chemscore.DEClash.Weighted>
0.1834

> <Gold.Chemscore.DEInternal.Weighted>
1.7892

> <Gold.Chemscore.Rot.Weighted>
3.9723

> <Gold.Chemscore.Internal.Correction.Weighted>
   9.000000E+99

> <Gold.Protein.RotatedTorsions>
[ 6907 6896 6895 6894 ] final  -11.64 input  -60.11 | X-H torsion
[ 7974 7965 7964 7962 ] final   29.56 input  175.53 | X-H torsion
[ 8008 7997 7996 7995 ] final  -71.00 input   59.86 | X-H torsion
[ 10167 10162 10161 10158 ] final -107.60 input  -65.29 | X-H torsion
[ 10718 10713 10712 10709 ] final -115.25 input   66.30 | X-H torsion
[ 10763 10752 10751 10750 ] final  -27.21 input  -60.55 | X-H torsion
[ 11005 11000 10999 10996 ] final   34.30 input  -57.11 | X-H torsion

> <Gold.Protein.ActiveResidues>
 VAL166  LYS551  ARG553  GLY616  TRP617  ASP618  TYR619  PRO620  LYS621  CYS622 
 ASP623  PHE694  ASN695  SER759  ASP760  ASP761  ALA762  ILE779  LEU786  VAL792 
 PHE793  MET794  SER795  GLU796  ALA797  LYS798  CYS799  TRP800  GLU811  SER814 

> <Gold.Protein.RotatedAtoms>
  151.3830  135.0943  159.9501 H   0  0  0  0  0  0  0  0  0  0  0  0  # atno 6907 bound_to 6896
  152.5102  133.9053  159.7471 H   0  0  0  0  0  0  0  0  0  0  0  0  # atno 6908 bound_to 6896
  150.9490  133.6515  159.2804 H   0  0  0  0  0  0  0  0  0  0  0  0  # atno 6909 bound_to 6896
  146.1664  139.6905  142.8998 H   0  0  0  0  0  0  0  0  0  0  0  0  # atno 7974 bound_to 7965
  154.5054  140.0824  156.7884 H   0  0  0  0  0  0  0  0  0  0  0  0  # atno 8008 bound_to 7997
  155.3905  140.3432  155.4233 H   0  0  0  0  0  0  0  0  0  0  0  0  # atno 8009 bound_to 7997
  156.1509  140.1558  156.8759 H   0  0  0  0  0  0  0  0  0  0  0  0  # atno 8010 bound_to 7997
  140.1752  143.4010  152.1323 H   0  0  0  0  0  0  0  0  0  0  0  0  # atno 10167 bound_to 10162
  156.0883  130.6071  150.8881 H   0  0  0  0  0  0  0  0  0  0  0  0  # atno 10718 bound_to 10713
  153.7284  135.6940  153.4995 H   0  0  0  0  0  0  0  0  0  0  0  0  # atno 10763 bound_to 10752
  153.2154  135.4388  155.0427 H   0  0  0  0  0  0  0  0  0  0  0  0  # atno 10764 bound_to 10752
  154.8261  135.3447  154.6814 H   0  0  0  0  0  0  0  0  0  0  0  0  # atno 10765 bound_to 10752
  140.2543  134.3267  155.7879 H   0  0  0  0  0  0  0  0  0  0  0  0  # atno 11005 bound_to 11000
  145.4456  141.0425  143.2833 LP  0  0  0  0  0  0  0  0  0  0  0  0  # atno 17320 bound_to 7965
  144.8098  139.5983  143.7034 LP  0  0  0  0  0  0  0  0  0  0  0  0  # atno 17321 bound_to 7965
  139.5320  144.7169  151.5023 LP  0  0  0  0  0  0  0  0  0  0  0  0  # atno 17342 bound_to 10162
  140.6556  143.8607  150.6831 LP  0  0  0  0  0  0  0  0  0  0  0  0  # atno 17343 bound_to 10162
  157.6025  131.0940  150.8936 LP  0  0  0  0  0  0  0  0  0  0  0  0  # atno 17370 bound_to 10713
  156.9091  130.5274  149.5281 LP  0  0  0  0  0  0  0  0  0  0  0  0  # atno 17371 bound_to 10713
  141.2198  133.7371  156.9086 LP  0  0  0  0  0  0  0  0  0  0  0  0  # atno 17394 bound_to 11000
  140.1527  134.9219  157.2614 LP  0  0  0  0  0  0  0  0  0  0  0  0  # atno 17395 bound_to 11000

$$$$
