AV-unprocessed.smi:1961|AV-procd|sdf|7919|dock7
  -GOLD-   2272010 83D 1   1.00000     0.00000
 Structure written by MMmdl.
 36 37  0  0  0  0  0  0  0  0  1 V2000
  146.2126  132.3975  151.0848 C   0  0  0  0  0  0  0  0  0  0  0  0
  144.7307  132.7414  151.2937 C   0  0  0  0  0  0  0  0  0  0  0  0
  143.8298  132.2378  150.1565 C   0  0  0  0  0  0  0  0  0  0  0  0
  144.5217  134.1968  151.5770 C   0  0  0  0  0  0  0  0  0  0  0  0
  145.4991  135.1080  151.4770 N   0  0  0  0  0  0  0  0  0  0  0  0
  145.0618  136.3885  151.7852 N   0  0  0  0  0  0  0  0  0  0  0  0
  143.7615  136.4083  152.1079 C   0  0  0  0  0  0  0  0  0  0  0  0
  143.0521  137.5878  152.4574 N   0  0  0  0  0  0  0  0  0  0  0  0
  141.8315  137.6937  153.0115 C   0  0  0  0  0  0  0  0  0  0  0  0
  141.0931  136.7496  153.2930 O   0  0  0  0  0  0  0  0  0  0  0  0
  141.5053  138.9774  153.2207 N   0  0  0  0  0  0  0  0  0  0  0  0
  140.2539  139.4496  153.8050 C   0  0  0  0  0  0  0  0  0  0  0  0
  139.0290  138.8735  153.0745 C   0  0  1  0  0  0  0  0  0  0  0  0
  138.4879  137.5635  153.6479 C   0  0  0  0  0  0  0  0  0  0  0  0
  137.0532  137.5961  153.1744 C   0  0  0  0  0  0  0  0  0  0  0  0
  136.7105  139.0756  153.3221 C   0  0  0  0  0  0  0  0  0  0  0  0
  137.9358  139.7846  153.1507 O   0  0  0  0  0  0  0  0  0  0  0  0
  142.9602  134.8473  152.0651 S   0  0  0  0  0  0  0  0  0  0  0  0
  146.8092  132.6915  151.9490 H   0  0  0  0  0  0  0  0  0  0  0  0
  146.6191  132.9061  150.2101 H   0  0  0  0  0  0  0  0  0  0  0  0
  146.3489  131.3257  150.9385 H   0  0  0  0  0  0  0  0  0  0  0  0
  144.4175  132.2064  152.1912 H   0  0  0  0  0  0  0  0  0  0  0  0
  142.7782  132.4212  150.3788 H   0  0  0  0  0  0  0  0  0  0  0  0
  143.9525  131.1652  150.0039 H   0  0  0  0  0  0  0  0  0  0  0  0
  144.0639  132.7356  149.2149 H   0  0  0  0  0  0  0  0  0  0  0  0
  143.5359  138.4537  152.2719 H   0  0  0  0  0  0  0  0  0  0  0  0
  142.1741  139.6857  152.9565 H   0  0  0  0  0  0  0  0  0  0  0  0
  140.2053  139.2245  154.8718 H   0  0  0  0  0  0  0  0  0  0  0  0
  140.2438  140.5367  153.7242 H   0  0  0  0  0  0  0  0  0  0  0  0
  139.2591  138.7333  152.0169 H   0  0  0  0  0  0  0  0  0  0  0  0
  139.0346  136.6865  153.3000 H   0  0  0  0  0  0  0  0  0  0  0  0
  138.5205  137.5776  154.7384 H   0  0  0  0  0  0  0  0  0  0  0  0
  136.9988  137.2995  152.1261 H   0  0  0  0  0  0  0  0  0  0  0  0
  136.3946  136.9450  153.7498 H   0  0  0  0  0  0  0  0  0  0  0  0
  135.9582  139.4004  152.6027 H   0  0  0  0  0  0  0  0  0  0  0  0
  136.3312  139.2806  154.3238 H   0  0  0  0  0  0  0  0  0  0  0  0
  1  2  1  0  0  0  0
  1 19  1  0  0  0  0
  1 20  1  0  0  0  0
  1 21  1  0  0  0  0
  2  3  1  0  0  0  0
  2  4  1  0  0  0  0
  2 22  1  0  0  0  0
  3 23  1  0  0  0  0
  3 24  1  0  0  0  0
  3 25  1  0  0  0  0
  4 18  1  0  0  0  0
  4  5  2  0  0  0  0
  5  6  1  0  0  0  0
  6  7  2  0  0  0  0
  7  8  1  0  0  0  0
  7 18  1  0  0  0  0
  8  9  1  0  0  0  0
  8 26  1  0  0  0  0
  9 10  2  0  0  0  0
  9 11  1  0  0  0  0
 11 12  1  0  0  0  0
 11 27  1  0  0  0  0
 12 13  1  0  0  0  0
 12 28  1  0  0  0  0
 12 29  1  0  0  0  0
 13 17  1  0  0  0  0
 13 14  1  0  0  0  0
 13 30  1  0  0  0  0
 14 15  1  0  0  0  0
 14 31  1  0  0  0  0
 14 32  1  0  0  0  0
 15 16  1  0  0  0  0
 15 33  1  0  0  0  0
 15 34  1  0  0  0  0
 16 17  1  0  0  0  0
 16 35  1  0  0  0  0
 16 36  1  0  0  0  0
M  END
> <s_m_source_file>
AV-unprocessed.smi

> <i_m_source_file_index>
1961

> <i_lp_mmshare_version>
43012

> <i_f3d_flags>
0

> <s_epik_input>
W0NIM11bQ0hdKFtDSDNdKWMxbm5jKHMxKVtOSF1DKD1PKVtOSF1bQ0gyXVtDQEBIXTJbQ0gyXVtDSDJdW0NIMl1PMg==

> <s_epik_cmdline>
J2VwaWtfcHl0aG9uJywgJy1waCcsICc3LjAnLCAnLXRuJywgJzgnLCAnLW1hJywgJzIwMCcsICctbWV0YWxfYmluZGluZycsICctaW1hZScsICc8aW5maWxlLm1hZT4nLCAnLW9tYWUnLCAnPG91dGZpbGUubWFlPic=

> <r_lp_tautomer_probability>
1

> <r_epik_Ionization_Penalty>
0.000505257

> <r_epik_Ionization_Penalty_Charging>
0

> <r_epik_Ionization_Penalty_Neutral>
0.000505257

> <r_epik_State_Penalty>
-0

> <r_epik_Charging_Adjusted_Penalty>
0

> <i_epik_Tot_Q>
0

> <i_epik_Tot_abs_Q>
0

> <r_epik_Metal_State_Penalty>
0.219912

> <b_epik_Metal_Only>
0

> <s_lp_Force_Field>
OPLS_2005

> <r_lp_Energy>
10.2881

> <b_lp_Chiralities_Consistent>
1

> <s_lp_Variant>
AV-unprocessed.smi:1961-2

> <Gold.Version>
5.8.1

> <Gold.Id.Protein>
6NUR|6NUR_protein|mol2

> <Gold.PLP.Fitness>
35.3574

> <Gold.PLP.PLP>
-30.3112

> <Gold.PLP.part.hbond>
-3.0937

> <Gold.PLP.part.metal>
0.0000

> <Gold.PLP.part.buried>
-6.6116

> <Gold.PLP.part.nonpolar>
-22.2045

> <Gold.PLP.part.repulsive>
0.6641

> <Gold.PLP.ligand.clash>
0.0000

> <Gold.PLP.ligand.torsion>
0.5099

> <Gold.PLP.Chemscore.Hbond>
1.9920

> <Gold.PLP.Chemscore.CHOScore>
0.0000

> <Gold.PLP.Chemscore.Metal>
0.0000

> <Gold.Chemscore.Hbonds>
donor molecule, donor type, donor heavy atom, donor atom, acceptor molecule, acceptor atom, score
      L1  H     8    26       P1 10175  0.99
      L1  H    11    27       P1 10175  1.00

> <Gold.PLP.Chemscore.Internal.Correction>
0.0901

> <Gold.Rescore>
     Score         DG    S(hbond)    S(metal)    S(lipo)     H(rot)  DE(clash)    DE(int)     intcor
     13.28     -16.38       1.93        0.00      69.68       1.45       0.14       2.96       ----

> <Gold.Chemscore.Fitness>
13.2841

> <Gold.Chemscore.DG>
-16.3790

> <Gold.Chemscore.ZeroCoef>
-5.4800

> <Gold.Chemscore.Hbond>
1.9308

> <Gold.Chemscore.Metal>
0.0000

> <Gold.Chemscore.Lipo>
69.6770

> <Gold.Chemscore.Internal_Hbond>
0.0000

> <Gold.Chemscore.DEClash>
0.1373

> <Gold.Chemscore.DEInternal>
2.9577

> <Gold.Chemscore.Rot>
1.4461

> <Gold.Chemscore.Internal.Correction>
   9.000000E+99

> <Gold.Chemscore.Hbonds>
donor molecule, donor type, donor heavy atom, donor atom, acceptor molecule, acceptor atom, score
      L1  H     8    26       P1 10175  0.91
      L1  H    11    27       P1 10175  0.74

> <Gold.Chemscore.Hbond.Weighted>
-6.4488

> <Gold.Chemscore.Metal.Weighted>
-0.0000

> <Gold.Chemscore.Lipo.Weighted>
-8.1522

> <Gold.Chemscore.Internal_Hbond.Weighted>
0.0000

> <Gold.Chemscore.DEClash.Weighted>
0.1373

> <Gold.Chemscore.DEInternal.Weighted>
2.9577

> <Gold.Chemscore.Rot.Weighted>
3.7019

> <Gold.Chemscore.Internal.Correction.Weighted>
   9.000000E+99

> <Gold.Protein.RotatedTorsions>
[ 6907 6896 6895 6894 ] final  169.56 input  -60.11 | X-H torsion
[ 7974 7965 7964 7962 ] final  -48.81 input  175.53 | X-H torsion
[ 8008 7997 7996 7995 ] final   78.54 input   59.86 | X-H torsion
[ 10167 10162 10161 10158 ] final   22.33 input  -65.29 | X-H torsion
[ 10718 10713 10712 10709 ] final   61.67 input   66.30 | X-H torsion
[ 10763 10752 10751 10750 ] final  -62.57 input  -60.55 | X-H torsion
[ 11005 11000 10999 10996 ] final  -42.96 input  -57.11 | X-H torsion

> <Gold.Protein.ActiveResidues>
 VAL166  LYS551  ARG553  GLY616  TRP617  ASP618  TYR619  PRO620  LYS621  CYS622 
 ASP623  PHE694  ASN695  SER759  ASP760  ASP761  ALA762  ILE779  LEU786  VAL792 
 PHE793  MET794  SER795  GLU796  ALA797  LYS798  CYS799  TRP800  GLU811  SER814 

> <Gold.Protein.RotatedAtoms>
  151.8299  133.3407  159.3609 H   0  0  0  0  0  0  0  0  0  0  0  0  # atno 6907 bound_to 6896
  150.7267  134.5493  159.5795 H   0  0  0  0  0  0  0  0  0  0  0  0  # atno 6908 bound_to 6896
  152.2943  134.7686  160.0422 H   0  0  0  0  0  0  0  0  0  0  0  0  # atno 6909 bound_to 6896
  145.9472  140.7606  142.9522 H   0  0  0  0  0  0  0  0  0  0  0  0  # atno 7974 bound_to 7965
  155.8571  140.3455  155.5731 H   0  0  0  0  0  0  0  0  0  0  0  0  # atno 8008 bound_to 7997
  155.7974  140.0880  157.1995 H   0  0  0  0  0  0  0  0  0  0  0  0  # atno 8009 bound_to 7997
  154.4010  140.1472  156.3222 H   0  0  0  0  0  0  0  0  0  0  0  0  # atno 8010 bound_to 7997
  140.5357  143.9764  150.6490 H   0  0  0  0  0  0  0  0  0  0  0  0  # atno 10167 bound_to 10162
  157.5845  130.9008  149.9490 H   0  0  0  0  0  0  0  0  0  0  0  0  # atno 10718 bound_to 10713
  154.3019  135.6233  153.5428 H   0  0  0  0  0  0  0  0  0  0  0  0  # atno 10763 bound_to 10752
  152.9839  135.5680  154.5274 H   0  0  0  0  0  0  0  0  0  0  0  0  # atno 10764 bound_to 10752
  154.4906  135.2867  155.1475 H   0  0  0  0  0  0  0  0  0  0  0  0  # atno 10765 bound_to 10752
  141.0351  133.6803  156.2666 H   0  0  0  0  0  0  0  0  0  0  0  0  # atno 11005 bound_to 11000
  144.6789  140.2376  143.7347 LP  0  0  0  0  0  0  0  0  0  0  0  0  # atno 17320 bound_to 7965
  145.8220  139.2048  143.1932 LP  0  0  0  0  0  0  0  0  0  0  0  0  # atno 17321 bound_to 7965
  140.3151  143.3173  152.0840 LP  0  0  0  0  0  0  0  0  0  0  0  0  # atno 17342 bound_to 10162
  139.4970  144.6610  151.6463 LP  0  0  0  0  0  0  0  0  0  0  0  0  # atno 17343 bound_to 10162
  156.0893  130.3665  150.0426 LP  0  0  0  0  0  0  0  0  0  0  0  0  # atno 17370 bound_to 10713
  156.8560  130.9475  151.3622 LP  0  0  0  0  0  0  0  0  0  0  0  0  # atno 17371 bound_to 10713
  140.6336  134.5238  157.5562 LP  0  0  0  0  0  0  0  0  0  0  0  0  # atno 17394 bound_to 11000
  139.9235  134.8102  156.1139 LP  0  0  0  0  0  0  0  0  0  0  0  0  # atno 17395 bound_to 11000

$$$$
