AV-unprocessed.smi:151|AV-procd|sdf|1244|dock4
  -GOLD-   2262018463D 1   1.00000     0.00000
 Structure written by MMmdl.
 56 59  0  0  0  0  0  0  0  0  1 V2000
  151.4682  139.0749  154.7826 C   0  0  0  0  0  0  0  0  0  0  0  0
  150.0481  138.4846  154.7597 C   0  0  0  0  0  0  0  0  0  0  0  0
  148.9205  139.4894  154.4050 C   0  0  2  0  0  0  0  0  0  0  0  0
  149.2315  140.8950  154.9640 C   0  0  0  0  0  0  0  0  0  0  0  0
  148.1778  141.8080  154.6694 O   0  0  0  0  0  0  0  0  0  0  0  0
  146.8897  141.4233  155.1555 C   0  0  0  0  0  0  0  0  0  0  0  0
  146.8366  141.4289  156.6986 C   0  0  0  0  0  0  0  0  0  0  0  0
  145.9134  142.4777  154.6112 C   0  0  0  0  0  0  0  0  0  0  0  0
  146.5409  140.0392  154.5735 C   0  0  0  0  0  0  0  0  0  0  0  0
  147.5882  139.0605  154.8474 N   0  0  0  0  0  0  0  0  0  0  0  0
  147.1665  137.8230  154.4951 C   0  0  0  0  0  0  0  0  0  0  0  0
  147.2637  136.7859  155.3686 N   0  0  0  0  0  0  0  0  0  0  0  0
  146.8647  135.5649  155.0007 C   0  0  0  0  0  0  0  0  0  0  0  0
  146.3596  135.1690  153.8305 N   0  0  0  0  0  0  0  0  0  0  0  0
  146.2756  136.2048  152.9461 C   0  0  0  0  0  0  0  0  0  0  0  0
  146.6573  137.5521  153.1977 C   0  0  0  0  0  0  0  0  0  0  0  0
  146.4344  138.3319  152.0708 N   0  0  0  0  0  0  0  0  0  0  0  0
  145.9450  137.4925  151.1996 C   0  0  0  0  0  0  0  0  0  0  0  0
  145.8154  136.1929  151.6385 N   0  0  0  0  0  0  0  0  0  0  0  0
  145.3005  135.0862  150.8808 C   0  0  0  0  0  0  0  0  0  0  0  0
  144.3106  134.0948  151.5003 C   0  0  0  0  0  0  0  0  0  0  0  0
  144.9818  132.9342  150.7282 C   0  0  0  0  0  0  0  0  0  0  0  0
  145.2629  131.6514  151.5336 C   0  0  0  0  0  0  0  0  0  0  0  0
  146.1589  130.7759  150.8785 O   0  0  0  0  0  0  0  0  0  0  0  0
  144.2559  132.4553  149.4535 C   0  0  0  0  0  0  0  0  0  0  0  0
  142.9538  131.9629  149.6989 O   0  0  0  0  0  0  0  0  0  0  0  0
  146.1815  133.8874  150.5121 C   0  0  0  0  0  0  0  0  0  0  0  0
  152.1927  138.3129  155.0702 H   0  0  0  0  0  0  0  0  0  0  0  0
  151.5520  139.8917  155.4997 H   0  0  0  0  0  0  0  0  0  0  0  0
  151.7681  139.4526  153.8059 H   0  0  0  0  0  0  0  0  0  0  0  0
  150.0227  137.6607  154.0459 H   0  0  0  0  0  0  0  0  0  0  0  0
  149.8490  138.0244  155.7270 H   0  0  0  0  0  0  0  0  0  0  0  0
  148.8867  139.5798  153.3182 H   0  0  0  0  0  0  0  0  0  0  0  0
  149.4096  140.8746  156.0379 H   0  0  0  0  0  0  0  0  0  0  0  0
  150.1475  141.2782  154.5138 H   0  0  0  0  0  0  0  0  0  0  0  0
  145.8215  141.2469  157.0528 H   0  0  0  0  0  0  0  0  0  0  0  0
  147.1590  142.3899  157.1001 H   0  0  0  0  0  0  0  0  0  0  0  0
  147.4657  140.6569  157.1413 H   0  0  0  0  0  0  0  0  0  0  0  0
  144.8864  142.2562  154.9030 H   0  0  0  0  0  0  0  0  0  0  0  0
  145.9453  142.5214  153.5220 H   0  0  0  0  0  0  0  0  0  0  0  0
  146.1577  143.4722  154.9863 H   0  0  0  0  0  0  0  0  0  0  0  0
  145.5866  139.6992  154.9799 H   0  0  0  0  0  0  0  0  0  0  0  0
  146.4128  140.1145  153.4922 H   0  0  0  0  0  0  0  0  0  0  0  0
  146.9653  134.7944  155.7507 H   0  0  0  0  0  0  0  0  0  0  0  0
  145.6621  137.8037  150.2043 H   0  0  0  0  0  0  0  0  0  0  0  0
  144.8705  135.5144  149.9744 H   0  0  0  0  0  0  0  0  0  0  0  0
  144.4160  134.0192  152.5830 H   0  0  0  0  0  0  0  0  0  0  0  0
  143.2704  134.2799  151.2310 H   0  0  0  0  0  0  0  0  0  0  0  0
  145.6883  131.8922  152.5086 H   0  0  0  0  0  0  0  0  0  0  0  0
  144.3400  131.1013  151.7212 H   0  0  0  0  0  0  0  0  0  0  0  0
  147.0426  131.0542  151.0647 H   0  0  0  0  0  0  0  0  0  0  0  0
  144.1689  133.2676  148.7310 H   0  0  0  0  0  0  0  0  0  0  0  0
  144.8208  131.6616  148.9632 H   0  0  0  0  0  0  0  0  0  0  0  0
  142.3354  132.6626  149.5537 H   0  0  0  0  0  0  0  0  0  0  0  0
  146.5614  133.9151  149.4904 H   0  0  0  0  0  0  0  0  0  0  0  0
  146.9983  133.7295  151.2163 H   0  0  0  0  0  0  0  0  0  0  0  0
  1  2  1  0  0  0  0
  1 28  1  0  0  0  0
  1 29  1  0  0  0  0
  1 30  1  0  0  0  0
  2  3  1  0  0  0  0
  2 31  1  0  0  0  0
  2 32  1  0  0  0  0
  3 10  1  0  0  0  0
  3  4  1  0  0  0  0
  3 33  1  0  0  0  0
  4  5  1  0  0  0  0
  4 34  1  0  0  0  0
  4 35  1  0  0  0  0
  5  6  1  0  0  0  0
  6  7  1  0  0  0  0
  6  8  1  0  0  0  0
  6  9  1  0  0  0  0
  7 36  1  0  0  0  0
  7 37  1  0  0  0  0
  7 38  1  0  0  0  0
  8 39  1  0  0  0  0
  8 40  1  0  0  0  0
  8 41  1  0  0  0  0
  9 10  1  0  0  0  0
  9 42  1  0  0  0  0
  9 43  1  0  0  0  0
 10 11  1  0  0  0  0
 11 16  1  0  0  0  0
 11 12  2  0  0  0  0
 12 13  1  0  0  0  0
 13 14  2  0  0  0  0
 13 44  1  0  0  0  0
 14 15  1  0  0  0  0
 15 19  1  0  0  0  0
 15 16  2  0  0  0  0
 16 17  1  0  0  0  0
 17 18  2  0  0  0  0
 18 19  1  0  0  0  0
 18 45  1  0  0  0  0
 19 20  1  0  0  0  0
 20 27  1  0  0  0  0
 20 21  1  0  0  0  0
 20 46  1  0  0  0  0
 21 22  1  0  0  0  0
 21 47  1  0  0  0  0
 21 48  1  0  0  0  0
 22 23  1  0  0  0  0
 22 25  1  0  0  0  0
 22 27  1  0  0  0  0
 23 24  1  0  0  0  0
 23 49  1  0  0  0  0
 23 50  1  0  0  0  0
 24 51  1  0  0  0  0
 25 26  1  0  0  0  0
 25 52  1  0  0  0  0
 25 53  1  0  0  0  0
 26 54  1  0  0  0  0
 27 55  1  0  0  0  0
 27 56  1  0  0  0  0
M  END
> <s_m_source_file>
AV-unprocessed.smi

> <i_m_source_file_index>
151

> <i_lp_mmshare_version>
43012

> <i_f3d_flags>
0

> <s_epik_input>
W0NIM11DMShbQ0gzXSlPW0NIMl1bQ0BASF0oW0NIMl1bQ0gzXSlOKFtDSDJdMSljKG5bY0hdbjIpYyhjMjMpbltjSF1uM1tDSF0oW0NIMl00KVtDSDJdQzQoW0NIMl1bT0hdKVtDSDJdW09IXQ==

> <s_epik_cmdline>
J2VwaWtfcHl0aG9uJywgJy1waCcsICc3LjAnLCAnLXRuJywgJzgnLCAnLW1hJywgJzIwMCcsICctbWV0YWxfYmluZGluZycsICctaW1hZScsICc8aW5maWxlLm1hZT4nLCAnLW9tYWUnLCAnPG91dGZpbGUubWFlPic=

> <r_lp_tautomer_probability>
1

> <r_epik_Ionization_Penalty>
0.000102837

> <r_epik_Ionization_Penalty_Charging>
0

> <r_epik_Ionization_Penalty_Neutral>
0.000102837

> <r_epik_State_Penalty>
-0

> <r_epik_Charging_Adjusted_Penalty>
0

> <i_epik_Tot_Q>
0

> <i_epik_Tot_abs_Q>
0

> <r_epik_Metal_State_Penalty>
-0

> <b_epik_Metal_Only>
0

> <s_lp_Force_Field>
OPLS_2005

> <r_lp_Energy>
52.7657

> <b_lp_Chiralities_Consistent>
1

> <s_lp_Variant>
AV-unprocessed.smi:151-1

> <Gold.Version>
5.8.1

> <Gold.Id.Protein>
6NUR|6NUR_protein|mol2

> <Gold.PLP.Fitness>
44.0141

> <Gold.PLP.PLP>
-36.7795

> <Gold.PLP.part.hbond>
-3.5290

> <Gold.PLP.part.metal>
0.0000

> <Gold.PLP.part.buried>
1.6445

> <Gold.PLP.part.nonpolar>
-35.6926

> <Gold.PLP.part.repulsive>
0.6908

> <Gold.PLP.ligand.clash>
0.0000

> <Gold.PLP.ligand.torsion>
0.9944

> <Gold.PLP.Chemscore.Hbond>
2.1661

> <Gold.PLP.Chemscore.CHOScore>
0.7335

> <Gold.PLP.Chemscore.Metal>
0.0000

> <Gold.Chemscore.Hbonds>
donor molecule, donor type, donor heavy atom, donor atom, acceptor molecule, acceptor atom, score
      L1  H    24    51       P1 10747  0.66
      L1  H    26    54       P1 10186  0.59
      P1  H 10785 10796       L1    26  0.76
      L1  C    18    45       P1 10171  0.75

> <Gold.PLP.Chemscore.Internal.Correction>
0.5246

> <Gold.Rescore>
     Score         DG    S(hbond)    S(metal)    S(lipo)     H(rot)  DE(clash)    DE(int)     intcor
      8.63     -14.26       2.11        0.00      86.04       3.26       3.79       1.84       ----

> <Gold.Chemscore.Fitness>
8.6317

> <Gold.Chemscore.DG>
-14.2560

> <Gold.Chemscore.ZeroCoef>
-5.4800

> <Gold.Chemscore.Hbond>
2.1121

> <Gold.Chemscore.Metal>
0.0000

> <Gold.Chemscore.Lipo>
86.0365

> <Gold.Chemscore.Internal_Hbond>
0.0000

> <Gold.Chemscore.DEClash>
3.7879

> <Gold.Chemscore.DEInternal>
1.8364

> <Gold.Chemscore.Rot>
3.2596

> <Gold.Chemscore.Internal.Correction>
   9.000000E+99

> <Gold.Chemscore.Hbonds>
donor molecule, donor type, donor heavy atom, donor atom, acceptor molecule, acceptor atom, score
      L1  H    24    51       P1 10747  0.64
      L1  H    26    54       P1 10186  0.58
      P1  H 10785 10796       L1    26  0.13

> <Gold.Chemscore.Hbond.Weighted>
-7.0544

> <Gold.Chemscore.Metal.Weighted>
-0.0000

> <Gold.Chemscore.Lipo.Weighted>
-10.0663

> <Gold.Chemscore.Internal_Hbond.Weighted>
0.0000

> <Gold.Chemscore.DEClash.Weighted>
3.7879

> <Gold.Chemscore.DEInternal.Weighted>
1.8364

> <Gold.Chemscore.Rot.Weighted>
8.3447

> <Gold.Chemscore.Internal.Correction.Weighted>
   9.000000E+99

> <Gold.Protein.RotatedTorsions>
[ 6907 6896 6895 6894 ] final   19.03 input  -60.11 | X-H torsion
[ 7974 7965 7964 7962 ] final -126.17 input  175.53 | X-H torsion
[ 8008 7997 7996 7995 ] final  110.39 input   59.86 | X-H torsion
[ 10167 10162 10161 10158 ] final  -17.02 input  -65.29 | X-H torsion
[ 10718 10713 10712 10709 ] final -144.51 input   66.30 | X-H torsion
[ 10763 10752 10751 10750 ] final    3.84 input  -60.55 | X-H torsion
[ 11005 11000 10999 10996 ] final  101.96 input  -57.11 | X-H torsion

> <Gold.Protein.ActiveResidues>
 VAL166  LYS551  ARG553  GLY616  TRP617  ASP618  TYR619  PRO620  LYS621  CYS622 
 ASP623  PHE694  ASN695  SER759  ASP760  ASP761  ALA762  ILE779  LEU786  VAL792 
 PHE793  MET794  SER795  GLU796  ALA797  LYS798  CYS799  TRP800  GLU811  SER814 

> <Gold.Protein.RotatedAtoms>
  151.8745  135.0477  160.0482 H   0  0  0  0  0  0  0  0  0  0  0  0  # atno 6907 bound_to 6896
  152.2562  133.5253  159.5363 H   0  0  0  0  0  0  0  0  0  0  0  0  # atno 6908 bound_to 6896
  150.7100  134.0808  159.3940 H   0  0  0  0  0  0  0  0  0  0  0  0  # atno 6909 bound_to 6896
  144.9900  140.7723  143.4560 H   0  0  0  0  0  0  0  0  0  0  0  0  # atno 7974 bound_to 7965
  156.2049  140.3039  155.9606 H   0  0  0  0  0  0  0  0  0  0  0  0  # atno 8008 bound_to 7997
  155.2865  140.0440  157.3037 H   0  0  0  0  0  0  0  0  0  0  0  0  # atno 8009 bound_to 7997
  154.5620  140.2323  155.8330 H   0  0  0  0  0  0  0  0  0  0  0  0  # atno 8010 bound_to 7997
  140.7242  143.5057  150.9813 H   0  0  0  0  0  0  0  0  0  0  0  0  # atno 10167 bound_to 10162
  156.3711  130.7788  151.1969 H   0  0  0  0  0  0  0  0  0  0  0  0  # atno 10718 bound_to 10713
  153.2785  135.6938  153.7409 H   0  0  0  0  0  0  0  0  0  0  0  0  # atno 10763 bound_to 10752
  153.6406  135.3394  155.3071 H   0  0  0  0  0  0  0  0  0  0  0  0  # atno 10764 bound_to 10752
  154.8487  135.4430  154.1830 H   0  0  0  0  0  0  0  0  0  0  0  0  # atno 10765 bound_to 10752
  139.8775  134.9205  156.4986 H   0  0  0  0  0  0  0  0  0  0  0  0  # atno 11005 bound_to 11000
  145.2299  139.2120  143.5048 LP  0  0  0  0  0  0  0  0  0  0  0  0  # atno 17320 bound_to 7965
  146.3429  140.2173  142.8591 LP  0  0  0  0  0  0  0  0  0  0  0  0  # atno 17321 bound_to 7965
  139.8768  143.7122  152.3161 LP  0  0  0  0  0  0  0  0  0  0  0  0  # atno 17342 bound_to 10162
  139.7390  144.7564  151.0682 LP  0  0  0  0  0  0  0  0  0  0  0  0  # atno 17343 bound_to 10162
  157.7484  131.0372  150.4445 LP  0  0  0  0  0  0  0  0  0  0  0  0  # atno 17370 bound_to 10713
  156.4672  130.4045  149.6540 LP  0  0  0  0  0  0  0  0  0  0  0  0  # atno 17371 bound_to 10713
  140.8606  133.8063  155.9261 LP  0  0  0  0  0  0  0  0  0  0  0  0  # atno 17394 bound_to 11000
  140.9053  134.2327  157.5018 LP  0  0  0  0  0  0  0  0  0  0  0  0  # atno 17395 bound_to 11000

$$$$
