#       Name:                AV-unprocessed.smi:1247
#       Creating user name   scv26
#       Creation time:       Fri Mar 27 04:35:19 2020


#       File generated by GOLD software.
#

@<TRIPOS>MOLECULE
AV-unprocessed.smi:1247
    52    53     1
SMALL
NO_CHARGES


@<TRIPOS>ATOM
      1 ****        -5.7677   4.5889  -0.8260 C.3            1 S1                 0.0000
      2 ****        -5.2389   3.1896  -0.9417 C.2            1 S1                 0.0000
      3 ****        -3.8796   2.7615  -0.9337 C.2            1 S1                 0.0000
      4 ****        -3.9903   1.4045  -1.0688 C.2            1 S1                 0.0000
      5 ****        -3.0068   0.4670  -1.1199 N.am           1 S1                 0.0000
      6 ****        -1.6743   0.6449  -1.0889 C.2            1 S1                 0.0000
      7 ****        -1.1003   1.7317  -1.0169 O.2            1 S1                 0.0000
      8 ****        -1.0274  -0.5281  -1.1480 N.am           1 S1                 0.0000
      9 ****         0.4222  -0.6852  -1.1383 C.3            1 S1                 0.0000
     10 ****         0.9893  -0.5768   0.2898 C.3            1 S1                 0.0000
     11 ****         2.4465  -0.6494   0.3816 N.3            1 S1                 0.0000
     12 ****         2.9680  -1.9680   0.0303 C.3            1 S1                 0.0000
     13 ****         4.5025  -2.0341   0.1554 C.3            1 S1                 0.0000
     14 ****         5.0468  -3.4383  -0.1273 C.3            1 S1                 0.0000
     15 ****         4.8808  -1.6656   1.4788 O.3            1 S1                 0.0000
     16 ****         4.4349  -0.3642   1.8498 C.3            1 S1                 0.0000
     17 ****         4.9092  -0.0812   3.2792 C.3            1 S1                 0.0000
     18 ****         2.9009  -0.3053   1.7241 C.3            1 S1                 0.0000
     19 ****        -5.3246   1.0728  -1.1474 N.pl3          1 S1                 0.0000
     20 ****        -5.9430  -0.2306  -1.2924 C.3            1 S1                 0.0000
     21 ****        -6.0933   2.1806  -1.0689 N.2            1 S1                 0.0000
     22 ****        -4.9564   5.3091  -0.7175 H              1 S1                 0.0000
     23 ****        -6.4202   4.6916   0.0414 H              1 S1                 0.0000
     24 ****        -6.3409   4.8662  -1.7110 H              1 S1                 0.0000
     25 ****        -2.9897   3.3657  -0.8417 H              1 S1                 0.0000
     26 ****        -3.3267  -0.4875  -1.1924 H              1 S1                 0.0000
     27 ****        -1.5756  -1.3738  -1.2058 H              1 S1                 0.0000
     28 ****         0.6435  -1.6605  -1.5702 H              1 S1                 0.0000
     29 ****         0.8835   0.0584  -1.7904 H              1 S1                 0.0000
     30 ****         0.6639   0.3774   0.7067 H              1 S1                 0.0000
     31 ****         0.5418  -1.3461   0.9211 H              1 S1                 0.0000
     32 ****         2.5176  -2.7254   0.6739 H              1 S1                 0.0000
     33 ****         2.6923  -2.2223  -0.9926 H              1 S1                 0.0000
     34 ****         4.9559  -1.3344  -0.5490 H              1 S1                 0.0000
     35 ****         4.7906  -3.7628  -1.1362 H              1 S1                 0.0000
     36 ****         4.6397  -4.1678   0.5732 H              1 S1                 0.0000
     37 ****         6.1330  -3.4601  -0.0372 H              1 S1                 0.0000
     38 ****         4.8855   0.3693   1.1788 H              1 S1                 0.0000
     39 ****         4.5993   0.9117   3.6059 H              1 S1                 0.0000
     40 ****         5.9964  -0.1287   3.3457 H              1 S1                 0.0000
     41 ****         4.5002  -0.8078   3.9818 H              1 S1                 0.0000
     42 ****         2.5577   0.6972   1.9828 H              1 S1                 0.0000
     43 ****         2.4513  -0.9850   2.4499 H              1 S1                 0.0000
     44 ****        -5.6968  -0.8499  -0.4294 H              1 S1                 0.0000
     45 ****        -5.5718  -0.7138  -2.1966 H              1 S1                 0.0000
     46 ****        -7.0277  -0.1361  -1.3622 H              1 S1                 0.0000
     47 ****        -1.6332   2.5769  -0.9761 LP             1 S1                 0.0000
     48 ****        -0.1012   1.7693  -0.9992 LP             1 S1                 0.0000
     49 ****         2.7985   0.0124  -0.2803 LP             1 S1                 0.0000
     50 ****         5.8785  -1.6895   1.5422 LP             1 S1                 0.0000
     51 ****         4.4903  -2.3290   2.1171 LP             1 S1                 0.0000
     52 ****        -7.0916   2.2305  -1.0999 LP             1 S1                 0.0000
@<TRIPOS>BOND
    1    1    2 1     
    2    1   22 1     
    3    1   23 1     
    4    1   24 1     
    5    2   21 2     
    6    2    3 1     
    7    3    4 2     
    8    3   25 1     
    9    4    5 1     
   10    4   19 1     
   11    5    6 am    
   12    5   26 1     
   13    6    7 2     
   14    6    8 am    
   15    8    9 1     
   16    8   27 1     
   17    9   10 1     
   18    9   28 1     
   19    9   29 1     
   20   10   11 1     
   21   10   30 1     
   22   10   31 1     
   23   11   18 1     
   24   11   12 1     
   25   12   13 1     
   26   12   32 1     
   27   12   33 1     
   28   13   14 1     
   29   13   15 1     
   30   13   34 1     
   31   14   35 1     
   32   14   36 1     
   33   14   37 1     
   34   15   16 1     
   35   16   17 1     
   36   16   18 1     
   37   16   38 1     
   38   17   39 1     
   39   17   40 1     
   40   17   41 1     
   41   18   42 1     
   42   18   43 1     
   43   19   20 1     
   44   19   21 1     
   45   20   44 1     
   46   20   45 1     
   47   20   46 1     
   48    7   47 1     
   49    7   48 1     
   50   11   49 1     
   51   15   50 1     
   52   15   51 1     
   53   21   52 1     
@<TRIPOS>SUBSTRUCTURE
      1 S1             1
@<TRIPOS>SET
LONE_PAIRS      STATIC     ATOMS    <user>   **** ""
6 47 48 49 50 51 52
DONOR_HYDROGENS      STATIC     ATOMS    <user>   **** ""
2 26 27
ATOM$BLUE        STATIC     ATOMS    COLORGROUP SYSTEM
6 47 48 49 50 51 52
ATOM$RED        STATIC     ATOMS    COLORGROUP SYSTEM
2 26 27
