AV-unprocessed.smi:3000|AV-procd|sdf|11430|dock5
  -GOLD-   2272016353D 1   1.00000     0.00000
 Structure written by MMmdl.
 44 45  0  0  0  0  0  0  0  0  1 V2000
  143.3969  132.2172  149.9272 C   0  0  0  0  0  0  0  0  0  0  0  0
  144.3284  133.1507  150.5234 N   0  0  0  0  0  0  0  0  0  0  0  0
  145.5993  132.9039  151.0029 C   0  0  0  0  0  0  0  0  0  0  0  0
  146.0611  134.1064  151.4588 C   0  0  0  0  0  0  0  0  0  0  0  0
  147.3077  134.4237  152.0555 N   0  0  0  0  0  0  0  0  0  0  0  0
  148.0146  133.6721  152.9152 C   0  0  0  0  0  0  0  0  0  0  0  0
  147.6803  132.5553  153.3077 O   0  0  0  0  0  0  0  0  0  0  0  0
  149.1378  134.3047  153.2950 N   0  0  0  0  0  0  0  0  0  0  0  0
  150.1951  133.8426  154.2082 C   0  0  2  0  0  0  0  0  0  0  0  0
  149.4261  133.3063  155.4381 C   0  0  0  0  0  0  0  0  0  0  0  0
  151.0187  135.0727  154.6968 C   0  0  0  0  0  0  0  0  0  0  0  0
  151.7631  135.7124  153.6796 O   0  0  0  0  0  0  0  0  0  0  0  0
  151.0765  132.7090  153.5652 C   0  0  0  0  0  0  0  0  0  0  0  0
  150.2682  131.5144  152.9954 C   0  0  0  0  0  0  0  0  0  0  0  0
  151.1783  130.5111  152.2679 C   0  0  0  0  0  0  0  0  0  0  0  0
  152.2973  130.0024  153.1885 C   0  0  0  0  0  0  0  0  0  0  0  0
  153.1049  131.1705  153.7727 C   0  0  0  0  0  0  0  0  0  0  0  0
  152.1909  132.1710  154.4984 C   0  0  0  0  0  0  0  0  0  0  0  0
  145.0156  135.0368  151.2230 C   0  0  0  0  0  0  0  0  0  0  0  0
  143.9715  134.4515  150.6560 N   0  0  0  0  0  0  0  0  0  0  0  0
  143.7718  131.1983  150.0300 H   0  0  0  0  0  0  0  0  0  0  0  0
  143.2751  132.4460  148.8681 H   0  0  0  0  0  0  0  0  0  0  0  0
  142.4286  132.2897  150.4237 H   0  0  0  0  0  0  0  0  0  0  0  0
  146.0425  131.9193  150.9754 H   0  0  0  0  0  0  0  0  0  0  0  0
  147.6990  135.3199  151.8056 H   0  0  0  0  0  0  0  0  0  0  0  0
  149.2880  135.2208  152.8988 H   0  0  0  0  0  0  0  0  0  0  0  0
  150.0958  132.9596  156.2245 H   0  0  0  0  0  0  0  0  0  0  0  0
  148.7621  132.4807  155.1827 H   0  0  0  0  0  0  0  0  0  0  0  0
  148.8039  134.0854  155.8812 H   0  0  0  0  0  0  0  0  0  0  0  0
  150.3761  135.8066  155.1853 H   0  0  0  0  0  0  0  0  0  0  0  0
  151.7432  134.7616  155.4503 H   0  0  0  0  0  0  0  0  0  0  0  0
  151.2010  135.8434  152.9316 H   0  0  0  0  0  0  0  0  0  0  0  0
  151.5916  133.1465  152.7102 H   0  0  0  0  0  0  0  0  0  0  0  0
  149.7427  130.9953  153.7968 H   0  0  0  0  0  0  0  0  0  0  0  0
  149.5047  131.8569  152.2975 H   0  0  0  0  0  0  0  0  0  0  0  0
  150.5872  129.6704  151.9040 H   0  0  0  0  0  0  0  0  0  0  0  0
  151.6142  130.9853  151.3876 H   0  0  0  0  0  0  0  0  0  0  0  0
  151.8641  129.4165  154.0001 H   0  0  0  0  0  0  0  0  0  0  0  0
  152.9566  129.3306  152.6382 H   0  0  0  0  0  0  0  0  0  0  0  0
  153.8596  130.7900  154.4615 H   0  0  0  0  0  0  0  0  0  0  0  0
  153.6450  131.6802  152.9737 H   0  0  0  0  0  0  0  0  0  0  0  0
  152.8008  132.9870  154.8843 H   0  0  0  0  0  0  0  0  0  0  0  0
  151.7542  131.6759  155.3653 H   0  0  0  0  0  0  0  0  0  0  0  0
  144.9797  136.0946  151.4386 H   0  0  0  0  0  0  0  0  0  0  0  0
  1  2  1  0  0  0  0
  1 21  1  0  0  0  0
  1 22  1  0  0  0  0
  1 23  1  0  0  0  0
  2 20  1  0  0  0  0
  2  3  1  0  0  0  0
  3  4  2  0  0  0  0
  3 24  1  0  0  0  0
  4  5  1  0  0  0  0
  4 19  1  0  0  0  0
  5  6  1  0  0  0  0
  5 25  1  0  0  0  0
  6  7  2  0  0  0  0
  6  8  1  0  0  0  0
  8  9  1  0  0  0  0
  8 26  1  0  0  0  0
  9 10  1  0  0  0  0
  9 11  1  0  0  0  0
  9 13  1  0  0  0  0
 10 27  1  0  0  0  0
 10 28  1  0  0  0  0
 10 29  1  0  0  0  0
 11 12  1  0  0  0  0
 11 30  1  0  0  0  0
 11 31  1  0  0  0  0
 12 32  1  0  0  0  0
 13 18  1  0  0  0  0
 13 14  1  0  0  0  0
 13 33  1  0  0  0  0
 14 15  1  0  0  0  0
 14 34  1  0  0  0  0
 14 35  1  0  0  0  0
 15 16  1  0  0  0  0
 15 36  1  0  0  0  0
 15 37  1  0  0  0  0
 16 17  1  0  0  0  0
 16 38  1  0  0  0  0
 16 39  1  0  0  0  0
 17 18  1  0  0  0  0
 17 40  1  0  0  0  0
 17 41  1  0  0  0  0
 18 42  1  0  0  0  0
 18 43  1  0  0  0  0
 19 20  2  0  0  0  0
 19 44  1  0  0  0  0
M  END
> <s_m_source_file>
AV-unprocessed.smi

> <i_m_source_file_index>
3000

> <i_lp_mmshare_version>
43012

> <i_f3d_flags>
0

> <s_epik_input>
W0NIM11uMVtjSF1jKFtjSF1uMSlbTkhdQyg9TylbTkhdW0NAQF0oW0NIM10pKFtDSDJdW09IXSlbQ0hdMltDSDJdW0NIMl1bQ0gyXVtDSDJdW0NIMl0y

> <s_epik_cmdline>
J2VwaWtfcHl0aG9uJywgJy1waCcsICc3LjAnLCAnLXRuJywgJzgnLCAnLW1hJywgJzIwMCcsICctbWV0YWxfYmluZGluZycsICctaW1hZScsICc8aW5maWxlLm1hZT4nLCAnLW9tYWUnLCAnPG91dGZpbGUubWFlPic=

> <r_lp_tautomer_probability>
1

> <r_epik_Ionization_Penalty>
0.000189471

> <r_epik_Ionization_Penalty_Charging>
0

> <r_epik_Ionization_Penalty_Neutral>
0.000189471

> <r_epik_State_Penalty>
-0

> <r_epik_Charging_Adjusted_Penalty>
0

> <i_epik_Tot_Q>
0

> <i_epik_Tot_abs_Q>
0

> <r_epik_Metal_State_Penalty>
-0

> <b_epik_Metal_Only>
0

> <s_lp_Force_Field>
OPLS_2005

> <r_lp_Energy>
23.0127

> <b_lp_Chiralities_Consistent>
1

> <s_lp_Variant>
AV-unprocessed.smi:3000-2

> <Gold.Version>
5.8.1

> <Gold.Id.Protein>
6NUR|6NUR_protein|mol2

> <Gold.PLP.Fitness>
41.7344

> <Gold.PLP.PLP>
-31.3700

> <Gold.PLP.part.hbond>
-3.5648

> <Gold.PLP.part.metal>
0.0000

> <Gold.PLP.part.buried>
-1.2020

> <Gold.PLP.part.nonpolar>
-25.6376

> <Gold.PLP.part.repulsive>
0.3084

> <Gold.PLP.ligand.clash>
0.0000

> <Gold.PLP.ligand.torsion>
0.5834

> <Gold.PLP.Chemscore.Hbond>
3.6954

> <Gold.PLP.Chemscore.CHOScore>
0.1172

> <Gold.PLP.Chemscore.Metal>
0.0000

> <Gold.Chemscore.Hbonds>
donor molecule, donor type, donor heavy atom, donor atom, acceptor molecule, acceptor atom, score
      L1  H     5    25       P1  7948  0.86
      L1  H     8    26       P1  7948  0.34
      L1  H    12    32       P1  7949  0.67
      P1  H 10752 10765       L1    12  0.40

> <Gold.PLP.Chemscore.Internal.Correction>
0.0935

> <Gold.Rescore>
     Score         DG    S(hbond)    S(metal)    S(lipo)     H(rot)  DE(clash)    DE(int)     intcor
     14.00     -17.65       2.76        0.00      69.50       2.02       0.06       3.59       ----

> <Gold.Chemscore.Fitness>
14.0042

> <Gold.Chemscore.DG>
-17.6542

> <Gold.Chemscore.ZeroCoef>
-5.4800

> <Gold.Chemscore.Hbond>
2.7560

> <Gold.Chemscore.Metal>
0.0000

> <Gold.Chemscore.Lipo>
69.4996

> <Gold.Chemscore.Internal_Hbond>
0.0000

> <Gold.Chemscore.DEClash>
0.0627

> <Gold.Chemscore.DEInternal>
3.5873

> <Gold.Chemscore.Rot>
2.0165

> <Gold.Chemscore.Internal.Correction>
   9.000000E+99

> <Gold.Chemscore.Hbonds>
donor molecule, donor type, donor heavy atom, donor atom, acceptor molecule, acceptor atom, score
      L1  H     5    25       P1  7948  0.72
      L1  H     8    26       P1  7948  0.01
      L1  H    12    32       P1  7949  0.26
      P1  H 10752 10765       L1    12  0.08

> <Gold.Chemscore.Hbond.Weighted>
-9.2050

> <Gold.Chemscore.Metal.Weighted>
-0.0000

> <Gold.Chemscore.Lipo.Weighted>
-8.1315

> <Gold.Chemscore.Internal_Hbond.Weighted>
0.0000

> <Gold.Chemscore.DEClash.Weighted>
0.0627

> <Gold.Chemscore.DEInternal.Weighted>
3.5873

> <Gold.Chemscore.Rot.Weighted>
5.1622

> <Gold.Chemscore.Internal.Correction.Weighted>
   9.000000E+99

> <Gold.Protein.RotatedTorsions>
[ 6907 6896 6895 6894 ] final  -25.08 input  -60.11 | X-H torsion
[ 7974 7965 7964 7962 ] final  -42.65 input  175.53 | X-H torsion
[ 8008 7997 7996 7995 ] final   -5.63 input   59.86 | X-H torsion
[ 10167 10162 10161 10158 ] final   54.17 input  -65.29 | X-H torsion
[ 10718 10713 10712 10709 ] final  137.68 input   66.30 | X-H torsion
[ 10763 10752 10751 10750 ] final  159.79 input  -60.55 | X-H torsion
[ 11005 11000 10999 10996 ] final  -91.57 input  -57.11 | X-H torsion

> <Gold.Protein.ActiveResidues>
 VAL166  LYS551  ARG553  GLY616  TRP617  ASP618  TYR619  PRO620  LYS621  CYS622 
 ASP623  PHE694  ASN695  SER759  ASP760  ASP761  ALA762  ILE779  LEU786  VAL792 
 PHE793  MET794  SER795  GLU796  ALA797  LYS798  CYS799  TRP800  GLU811  SER814 

> <Gold.Protein.RotatedAtoms>
  151.1803  135.0358  159.8789 H   0  0  0  0  0  0  0  0  0  0  0  0  # atno 6907 bound_to 6896
  152.5445  134.1070  159.8352 H   0  0  0  0  0  0  0  0  0  0  0  0  # atno 6908 bound_to 6896
  151.1186  133.5073  159.2635 H   0  0  0  0  0  0  0  0  0  0  0  0  # atno 6909 bound_to 6896
  146.0095  140.6980  142.9231 H   0  0  0  0  0  0  0  0  0  0  0  0  # atno 7974 bound_to 7965
  154.6019  140.2453  155.7781 H   0  0  0  0  0  0  0  0  0  0  0  0  # atno 8008 bound_to 7997
  156.2316  140.2964  156.0156 H   0  0  0  0  0  0  0  0  0  0  0  0  # atno 8009 bound_to 7997
  155.2196  140.0400  157.2936 H   0  0  0  0  0  0  0  0  0  0  0  0  # atno 8010 bound_to 7997
  140.2329  144.3667  150.6407 H   0  0  0  0  0  0  0  0  0  0  0  0  # atno 10167 bound_to 10162
  157.4335  131.1051  151.0224 H   0  0  0  0  0  0  0  0  0  0  0  0  # atno 10718 bound_to 10713
  154.2374  135.2776  155.2867 H   0  0  0  0  0  0  0  0  0  0  0  0  # atno 10763 bound_to 10752
  154.5574  135.5657  153.6979 H   0  0  0  0  0  0  0  0  0  0  0  0  # atno 10764 bound_to 10752
  153.0007  135.6289  154.2517 H   0  0  0  0  0  0  0  0  0  0  0  0  # atno 10765 bound_to 10752
  141.1542  133.7764  156.9897 H   0  0  0  0  0  0  0  0  0  0  0  0  # atno 11005 bound_to 11000
  144.6948  140.3374  143.7205 LP  0  0  0  0  0  0  0  0  0  0  0  0  # atno 17320 bound_to 7965
  145.7363  139.1751  143.2401 LP  0  0  0  0  0  0  0  0  0  0  0  0  # atno 17321 bound_to 7965
  140.6171  143.2173  151.6769 LP  0  0  0  0  0  0  0  0  0  0  0  0  # atno 17342 bound_to 10162
  139.5103  144.3546  152.0620 LP  0  0  0  0  0  0  0  0  0  0  0  0  # atno 17343 bound_to 10162
  157.1112  130.6022  149.5482 LP  0  0  0  0  0  0  0  0  0  0  0  0  # atno 17370 bound_to 10713
  155.9922  130.4979  150.7329 LP  0  0  0  0  0  0  0  0  0  0  0  0  # atno 17371 bound_to 10713
  140.1011  134.9535  157.1924 LP  0  0  0  0  0  0  0  0  0  0  0  0  # atno 17394 bound_to 11000
  140.3317  134.2802  155.7227 LP  0  0  0  0  0  0  0  0  0  0  0  0  # atno 17395 bound_to 11000

$$$$
