AV-unprocessed.smi:3183|AV-procd|sdf|12159|dock5
  -GOLD-   2272017593D 1   1.00000     0.00000
 Structure written by MMmdl.
 43 44  0  0  0  0  0  0  0  0  2 V2000
  152.2049  143.5430  161.4443 C   0  0  0  0  0  0  0  0  0  0  0  0
  152.9249  143.5838  160.0811 C   0  0  2  0  0  0  0  0  0  0  0  0
  152.3662  144.7010  159.1763 C   0  0  0  0  0  0  0  0  0  0  0  0
  150.9721  144.3651  158.6186 C   0  0  0  0  0  0  0  0  0  0  0  0
  150.9729  143.0180  157.8662 C   0  0  2  0  0  0  0  0  0  0  0  0
  149.6191  142.6576  157.3896 N   0  3  0  0  0  0  0  0  0  0  0  0
  149.5014  141.3205  156.7711 C   0  0  0  0  0  0  0  0  0  0  0  0
  150.4827  141.1687  155.5996 C   0  0  0  0  0  0  0  0  0  0  0  0
  150.7884  139.7482  155.2331 C   0  0  0  0  0  0  0  0  0  0  0  0
  150.4052  138.9902  154.1601 C   0  0  0  0  0  0  0  0  0  0  0  0
  151.0222  137.7290  154.3858 C   0  0  0  0  0  0  0  0  0  0  0  0
  151.7282  137.7034  155.5023 N   0  0  0  0  0  0  0  0  0  0  0  0
  151.5863  138.9405  156.0232 N   0  0  0  0  0  0  0  0  0  0  0  0
  152.2449  139.2630  157.2745 C   0  0  0  0  0  0  0  0  0  0  0  0
  151.5213  141.8961  158.7683 C   0  0  0  0  0  0  0  0  0  0  0  0
  152.9218  142.2342  159.3187 C   0  0  2  0  0  0  0  0  0  0  0  0
  153.5105  141.0721  160.1358 C   0  0  0  0  0  0  0  0  0  0  0  0
  151.1616  143.2430  161.3519 H   0  0  0  0  0  0  0  0  0  0  0  0
  152.2220  144.5234  161.9211 H   0  0  0  0  0  0  0  0  0  0  0  0
  152.6893  142.8500  162.1319 H   0  0  0  0  0  0  0  0  0  0  0  0
  153.9648  143.8376  160.2924 H   0  0  0  0  0  0  0  0  0  0  0  0
  152.3320  145.6456  159.7203 H   0  0  0  0  0  0  0  0  0  0  0  0
  153.0510  144.8611  158.3424 H   0  0  0  0  0  0  0  0  0  0  0  0
  150.2459  144.3374  159.4316 H   0  0  0  0  0  0  0  0  0  0  0  0
  150.6579  145.1723  157.9574 H   0  0  0  0  0  0  0  0  0  0  0  0
  151.6283  143.0974  156.9972 H   0  0  0  0  0  0  0  0  0  0  0  0
  149.0015  142.6729  158.1888 H   0  0  0  0  0  0  0  0  0  0  0  0
  149.7003  140.5514  157.5173 H   0  0  0  0  0  0  0  0  0  0  0  0
  148.4787  141.1772  156.4195 H   0  0  0  0  0  0  0  0  0  0  0  0
  150.0782  141.6797  154.7250 H   0  0  0  0  0  0  0  0  0  0  0  0
  151.4146  141.6793  155.8458 H   0  0  0  0  0  0  0  0  0  0  0  0
  149.7773  139.2880  153.3335 H   0  0  0  0  0  0  0  0  0  0  0  0
  150.9784  136.8385  153.7760 H   0  0  0  0  0  0  0  0  0  0  0  0
  152.9219  140.1046  157.1267 H   0  0  0  0  0  0  0  0  0  0  0  0
  152.8188  138.4099  157.6398 H   0  0  0  0  0  0  0  0  0  0  0  0
  151.4991  139.5314  158.0232 H   0  0  0  0  0  0  0  0  0  0  0  0
  150.8324  141.7096  159.5929 H   0  0  0  0  0  0  0  0  0  0  0  0
  151.5703  140.9663  158.1996 H   0  0  0  0  0  0  0  0  0  0  0  0
  153.5787  142.3603  158.4565 H   0  0  0  0  0  0  0  0  0  0  0  0
  152.8730  140.8054  160.9791 H   0  0  0  0  0  0  0  0  0  0  0  0
  154.4963  141.3257  160.5268 H   0  0  0  0  0  0  0  0  0  0  0  0
  153.6229  140.1803  159.5189 H   0  0  0  0  0  0  0  0  0  0  0  0
  149.3074  143.3581  156.7320 H   0  0  0  0  0  0  0  0  0  0  0  0
  1  2  1  0  0  0  0
  1 18  1  0  0  0  0
  1 19  1  0  0  0  0
  1 20  1  0  0  0  0
  2 16  1  0  0  0  0
  2  3  1  0  0  0  0
  2 21  1  0  0  0  0
  3  4  1  0  0  0  0
  3 22  1  0  0  0  0
  3 23  1  0  0  0  0
  4  5  1  0  0  0  0
  4 24  1  0  0  0  0
  4 25  1  0  0  0  0
  5  6  1  0  0  0  0
  5 15  1  0  0  0  0
  5 26  1  0  0  0  0
  6  7  1  0  0  0  0
  6 27  1  0  0  0  0
  6 43  1  0  0  0  0
  7  8  1  0  0  0  0
  7 28  1  0  0  0  0
  7 29  1  0  0  0  0
  8  9  1  0  0  0  0
  8 30  1  0  0  0  0
  8 31  1  0  0  0  0
  9 13  1  0  0  0  0
  9 10  2  0  0  0  0
 10 11  1  0  0  0  0
 10 32  1  0  0  0  0
 11 12  2  0  0  0  0
 11 33  1  0  0  0  0
 12 13  1  0  0  0  0
 13 14  1  0  0  0  0
 14 34  1  0  0  0  0
 14 35  1  0  0  0  0
 14 36  1  0  0  0  0
 15 16  1  0  0  0  0
 15 37  1  0  0  0  0
 15 38  1  0  0  0  0
 16 17  1  0  0  0  0
 16 39  1  0  0  0  0
 17 40  1  0  0  0  0
 17 41  1  0  0  0  0
 17 42  1  0  0  0  0
M  CHG  1   6   1
M  END
> <s_m_source_file>
AV-unprocessed.smi

> <i_m_source_file_index>
3183

> <i_lp_mmshare_version>
43012

> <i_f3d_flags>
0

> <s_epik_input>
W0NIM11bQ0BASF0xW0NIMl1bQ0gyXVtDQEhdKFtDSDJdW0NASF0xW0NIM10pW05IXVtDSDJdW0NIMl1jMltjSF1bY0hdbm4yW0NIM10=

> <s_epik_cmdline>
J2VwaWtfcHl0aG9uJywgJy1waCcsICc3LjAnLCAnLXRuJywgJzgnLCAnLW1hJywgJzIwMCcsICctbWV0YWxfYmluZGluZycsICctaW1hZScsICc8aW5maWxlLm1hZT4nLCAnLW9tYWUnLCAnPG91dGZpbGUubWFlPic=

> <r_lp_tautomer_probability>
1

> <r_epik_Ionization_Penalty>
0.000327718

> <r_epik_Ionization_Penalty_Charging>
0.000294043

> <r_epik_Ionization_Penalty_Neutral>
3.36755e-05

> <r_epik_State_Penalty>
-0

> <r_epik_Charging_Adjusted_Penalty>
0.000294043

> <i_epik_Tot_Q>
1

> <i_epik_Tot_abs_Q>
1

> <r_epik_Metal_State_Penalty>
-0

> <b_epik_Metal_Only>
0

> <s_lp_Force_Field>
OPLS_2005

> <r_lp_Energy>
14.2939

> <b_lp_Chiralities_Consistent>
1

> <s_lp_Variant>
AV-unprocessed.smi:3183-7

> <Gold.Version>
5.8.1

> <Gold.Id.Protein>
6NUR|6NUR_protein|mol2

> <Gold.PLP.Fitness>
51.7151

> <Gold.PLP.PLP>
-43.0516

> <Gold.PLP.part.hbond>
-1.0000

> <Gold.PLP.part.metal>
0.0000

> <Gold.PLP.part.buried>
-3.6993

> <Gold.PLP.part.nonpolar>
-38.4750

> <Gold.PLP.part.repulsive>
0.0635

> <Gold.PLP.ligand.clash>
0.0000

> <Gold.PLP.ligand.torsion>
0.2753

> <Gold.PLP.Chemscore.Hbond>
2.0000

> <Gold.PLP.Chemscore.CHOScore>
1.0677

> <Gold.PLP.Chemscore.Metal>
0.0000

> <Gold.Chemscore.Hbonds>
donor molecule, donor type, donor heavy atom, donor atom, acceptor molecule, acceptor atom, score
      L1  H     6    43       P1  8028  2.00
      L1  C    11    33       P1  7948  0.07
      L1  C    11    33       P1  7949  1.00

> <Gold.PLP.Chemscore.Internal.Correction>
0.0111

> <Gold.Rescore>
     Score         DG    S(hbond)    S(metal)    S(lipo)     H(rot)  DE(clash)    DE(int)     intcor
     20.36     -20.56       1.00        0.00     130.55       1.38       0.03       0.17       ----

> <Gold.Chemscore.Fitness>
20.3562

> <Gold.Chemscore.DG>
-20.5582

> <Gold.Chemscore.ZeroCoef>
-5.4800

> <Gold.Chemscore.Hbond>
0.9967

> <Gold.Chemscore.Metal>
0.0000

> <Gold.Chemscore.Lipo>
130.5474

> <Gold.Chemscore.Internal_Hbond>
0.0000

> <Gold.Chemscore.DEClash>
0.0348

> <Gold.Chemscore.DEInternal>
0.1673

> <Gold.Chemscore.Rot>
1.3768

> <Gold.Chemscore.Internal.Correction>
   9.000000E+99

> <Gold.Chemscore.Hbonds>
donor molecule, donor type, donor heavy atom, donor atom, acceptor molecule, acceptor atom, score
      L1  H     6    43       P1  8028  0.98

> <Gold.Chemscore.Hbond.Weighted>
-3.3289

> <Gold.Chemscore.Metal.Weighted>
-0.0000

> <Gold.Chemscore.Lipo.Weighted>
-15.2740

> <Gold.Chemscore.Internal_Hbond.Weighted>
0.0000

> <Gold.Chemscore.DEClash.Weighted>
0.0348

> <Gold.Chemscore.DEInternal.Weighted>
0.1673

> <Gold.Chemscore.Rot.Weighted>
3.5247

> <Gold.Chemscore.Internal.Correction.Weighted>
   9.000000E+99

> <Gold.Protein.RotatedTorsions>
[ 6907 6896 6895 6894 ] final  -79.33 input  -60.11 | X-H torsion
[ 7974 7965 7964 7962 ] final   61.65 input  175.53 | X-H torsion
[ 8008 7997 7996 7995 ] final  148.92 input   59.86 | X-H torsion
[ 10167 10162 10161 10158 ] final   51.30 input  -65.29 | X-H torsion
[ 10718 10713 10712 10709 ] final  -62.00 input   66.30 | X-H torsion
[ 10763 10752 10751 10750 ] final -104.95 input  -60.55 | X-H torsion
[ 11005 11000 10999 10996 ] final -135.52 input  -57.11 | X-H torsion

> <Gold.Protein.ActiveResidues>
 VAL166  LYS551  ARG553  GLY616  TRP617  ASP618  TYR619  PRO620  LYS621  CYS622 
 ASP623  PHE694  ASN695  SER759  ASP760  ASP761  ALA762  ILE779  LEU786  VAL792 
 PHE793  MET794  SER795  GLU796  ALA797  LYS798  CYS799  TRP800  GLU811  SER814 

> <Gold.Protein.RotatedAtoms>
  150.6952  134.4137  159.5173 H   0  0  0  0  0  0  0  0  0  0  0  0  # atno 6907 bound_to 6896
  152.1892  134.8684  160.0528 H   0  0  0  0  0  0  0  0  0  0  0  0  # atno 6908 bound_to 6896
  151.9646  133.3671  159.4085 H   0  0  0  0  0  0  0  0  0  0  0  0  # atno 6909 bound_to 6896
  145.8823  139.3452  143.0698 H   0  0  0  0  0  0  0  0  0  0  0  0  # atno 7974 bound_to 7965
  156.2774  140.2115  156.5775 H   0  0  0  0  0  0  0  0  0  0  0  0  # atno 8008 bound_to 7997
  154.7085  140.0514  157.0550 H   0  0  0  0  0  0  0  0  0  0  0  0  # atno 8009 bound_to 7997
  155.0637  140.3169  155.4655 H   0  0  0  0  0  0  0  0  0  0  0  0  # atno 8010 bound_to 7997
  140.2633  144.3348  150.6311 H   0  0  0  0  0  0  0  0  0  0  0  0  # atno 10167 bound_to 10162
  156.0884  130.4204  150.1073 H   0  0  0  0  0  0  0  0  0  0  0  0  # atno 10718 bound_to 10713
  154.7913  135.4767  154.0060 H   0  0  0  0  0  0  0  0  0  0  0  0  # atno 10763 bound_to 10752
  153.1636  135.6813  153.8715 H   0  0  0  0  0  0  0  0  0  0  0  0  # atno 10764 bound_to 10752
  153.8320  135.3190  155.3397 H   0  0  0  0  0  0  0  0  0  0  0  0  # atno 10765 bound_to 10752
  140.8891  134.1835  157.4540 H   0  0  0  0  0  0  0  0  0  0  0  0  # atno 11005 bound_to 11000
  145.9008  140.9244  143.0504 LP  0  0  0  0  0  0  0  0  0  0  0  0  # atno 17320 bound_to 7965
  144.6727  140.1030  143.7459 LP  0  0  0  0  0  0  0  0  0  0  0  0  # atno 17321 bound_to 7965
  140.5948  143.2167  151.7184 LP  0  0  0  0  0  0  0  0  0  0  0  0  # atno 17342 bound_to 10162
  139.5010  144.3884  152.0305 LP  0  0  0  0  0  0  0  0  0  0  0  0  # atno 17343 bound_to 10162
  156.9088  130.9645  151.3566 LP  0  0  0  0  0  0  0  0  0  0  0  0  # atno 17370 bound_to 10713
  157.6026  130.8524  149.8825 LP  0  0  0  0  0  0  0  0  0  0  0  0  # atno 17371 bound_to 10713
  139.8727  134.9850  156.5265 LP  0  0  0  0  0  0  0  0  0  0  0  0  # atno 17394 bound_to 11000
  140.8369  133.8235  155.9037 LP  0  0  0  0  0  0  0  0  0  0  0  0  # atno 17395 bound_to 11000

$$$$
