AV-unprocessed.smi:55|AV-procd|sdf|574|dock6
  -GOLD-   2262016473D 1   1.00000     0.00000
 Structure written by MMmdl.
 30 31  0  0  0  0  0  0  0  0  2 V2000
  151.7455  144.6740  158.3643 C   0  0  0  0  0  0  0  0  0  0  0  0
  151.6584  143.1608  158.4575 C   0  0  0  0  0  0  0  0  0  0  0  0
  150.8919  142.4293  157.6182 C   0  0  0  0  0  0  0  0  0  0  0  0
  150.8148  141.0507  157.7098 N   0  0  0  0  0  0  0  0  0  0  0  0
  149.9303  140.2647  156.7723 C   0  0  1  0  0  0  0  0  0  0  0  0
  149.3049  141.1714  155.7201 C   0  0  0  0  0  0  0  0  0  0  0  0
  149.1407  140.2232  154.5382 C   0  0  1  0  0  0  0  0  0  0  0  0
  149.5505  140.8629  153.3433 O   0  0  0  0  0  0  0  0  0  0  0  0
  149.9669  138.9673  154.9116 C   0  0  1  0  0  0  0  0  0  0  0  0
  150.9337  138.4418  153.8335 C   0  0  0  0  0  0  0  0  0  0  0  0
  151.3271  137.1199  154.1356 O   0  0  0  0  0  0  0  0  0  0  0  0
  150.7040  139.3543  156.0651 O   0  0  0  0  0  0  0  0  0  0  0  0
  151.5294  140.3724  158.7306 C   0  0  0  0  0  0  0  0  0  0  0  0
  151.4042  139.1503  158.8129 O   0  0  0  0  0  0  0  0  0  0  0  0
  152.3128  141.1011  159.5762 N   0  5  0  0  0  0  0  0  0  0  0  0
  152.4231  142.4585  159.4957 C   0  0  0  0  0  0  0  0  0  0  0  0
  153.1364  143.1033  160.2642 O   0  0  0  0  0  0  0  0  0  0  0  0
  149.2041  139.7195  157.3781 H   0  0  0  0  0  0  0  0  0  0  0  0
  148.0924  139.9439  154.4265 H   0  0  0  0  0  0  0  0  0  0  0  0
  149.2686  138.1800  155.2024 H   0  0  0  0  0  0  0  0  0  0  0  0
  151.1253  145.0581  157.5541 H   0  0  0  0  0  0  0  0  0  0  0  0
  152.7738  144.9858  158.1796 H   0  0  0  0  0  0  0  0  0  0  0  0
  151.4077  145.1321  159.2944 H   0  0  0  0  0  0  0  0  0  0  0  0
  150.3186  142.9410  156.8594 H   0  0  0  0  0  0  0  0  0  0  0  0
  148.3688  141.5996  156.0796 H   0  0  0  0  0  0  0  0  0  0  0  0
  150.0001  141.9799  155.4861 H   0  0  0  0  0  0  0  0  0  0  0  0
  149.4429  140.2575  152.6259 H   0  0  0  0  0  0  0  0  0  0  0  0
  150.4421  138.4080  152.8610 H   0  0  0  0  0  0  0  0  0  0  0  0
  151.8078  139.0869  153.7381 H   0  0  0  0  0  0  0  0  0  0  0  0
  151.1384  136.5723  153.3889 H   0  0  0  0  0  0  0  0  0  0  0  0
  1  2  1  0  0  0  0
  1 21  1  0  0  0  0
  1 22  1  0  0  0  0
  1 23  1  0  0  0  0
  2 16  1  0  0  0  0
  2  3  2  0  0  0  0
  3  4  1  0  0  0  0
  3 24  1  0  0  0  0
  4  5  1  0  0  0  0
  4 13  1  0  0  0  0
  5 18  1  0  0  0  0
  5 12  1  0  0  0  0
  5  6  1  0  0  0  0
  6  7  1  0  0  0  0
  6 25  1  0  0  0  0
  6 26  1  0  0  0  0
  7 19  1  0  0  0  0
  7  8  1  0  0  0  0
  7  9  1  0  0  0  0
  8 27  1  0  0  0  0
  9 20  1  0  0  0  0
  9 10  1  0  0  0  0
  9 12  1  0  0  0  0
 10 11  1  0  0  0  0
 10 28  1  0  0  0  0
 10 29  1  0  0  0  0
 11 30  1  0  0  0  0
 13 14  2  0  0  0  0
 13 15  1  0  0  0  0
 15 16  1  0  0  0  0
 16 17  2  0  0  0  0
M  CHG  1  15  -1
M  END
> <s_m_source_file>
AV-unprocessed.smi

> <i_m_source_file_index>
55

> <i_lp_mmshare_version>
43012

> <i_f3d_flags>
0

> <s_epik_input>
Tz1jMVtuSF1jKD1PKW4oW2NIXWMxW0NIM10pW0NAQEhdMltDSDJdW0NAQEhdKFtPSF0pW0NAQEhdKE8yKVtDSDJdW09IXQ==

> <s_epik_cmdline>
J2VwaWtfcHl0aG9uJywgJy1waCcsICc3LjAnLCAnLXRuJywgJzgnLCAnLW1hJywgJzIwMCcsICctbWV0YWxfYmluZGluZycsICctaW1hZScsICc8aW5maWxlLm1hZT4nLCAnLW9tYWUnLCAnPG91dGZpbGUubWFlPic=

> <r_lp_tautomer_probability>
0.999537

> <r_epik_Ionization_Penalty>
3.66603

> <r_epik_Ionization_Penalty_Charging>
1.09773e-07

> <r_epik_Ionization_Penalty_Neutral>
3.66603

> <r_epik_State_Penalty>
3.66562

> <r_epik_Charging_Adjusted_Penalty>
3.66562

> <i_epik_Tot_Q>
-1

> <i_epik_Tot_abs_Q>
1

> <r_epik_Metal_State_Penalty>
0.234536

> <b_epik_Metal_Only>
1

> <s_epik_Chemistry_Notes>
This compound contains an acetal/aminal-like group ( X-CH(R)-Y where X, Y are N, S, or O) that may be acid/base labile, releasing an aldehyde.

> <s_lp_Force_Field>
OPLS_2005

> <r_lp_Energy>
40.7451

> <b_lp_Chiralities_Consistent>
1

> <s_lp_Variant>
AV-unprocessed.smi:55-14

> <Gold.Version>
5.8.1

> <Gold.Id.Protein>
6NUR|6NUR_protein|mol2

> <Gold.PLP.Fitness>
44.7831

> <Gold.PLP.PLP>
-33.2375

> <Gold.PLP.part.hbond>
-3.8659

> <Gold.PLP.part.metal>
0.0000

> <Gold.PLP.part.buried>
-7.0560

> <Gold.PLP.part.nonpolar>
-23.3082

> <Gold.PLP.part.repulsive>
0.0000

> <Gold.PLP.ligand.clash>
0.0000

> <Gold.PLP.ligand.torsion>
0.1634

> <Gold.PLP.Chemscore.Hbond>
3.1125

> <Gold.PLP.Chemscore.CHOScore>
0.8369

> <Gold.PLP.Chemscore.Metal>
0.0000

> <Gold.Chemscore.Hbonds>
donor molecule, donor type, donor heavy atom, donor atom, acceptor molecule, acceptor atom, score
      L1  H     8    27       P1  7957  0.82
      L1  H    11    30       P1  7949  1.00
      P1  H  7989  7998       L1     8  0.23
      P1  H  8011  8017       L1     8  0.85
      P1  H 10752 10763       L1    11  0.09
      L1  C     3    24       P1  8028  0.89

> <Gold.PLP.Chemscore.Internal.Correction>
0.0242

> <Gold.Rescore>
     Score         DG    S(hbond)    S(metal)    S(lipo)     H(rot)  DE(clash)    DE(int)     intcor
      9.79     -12.08       1.89        0.00      61.20       2.69       1.09       1.21       ----

> <Gold.Chemscore.Fitness>
9.7852

> <Gold.Chemscore.DG>
-12.0784

> <Gold.Chemscore.ZeroCoef>
-5.4800

> <Gold.Chemscore.Hbond>
1.8913

> <Gold.Chemscore.Metal>
0.0000

> <Gold.Chemscore.Lipo>
61.2001

> <Gold.Chemscore.Internal_Hbond>
0.0000

> <Gold.Chemscore.DEClash>
1.0859

> <Gold.Chemscore.DEInternal>
1.2073

> <Gold.Chemscore.Rot>
2.6871

> <Gold.Chemscore.Internal.Correction>
   9.000000E+99

> <Gold.Chemscore.Hbonds>
donor molecule, donor type, donor heavy atom, donor atom, acceptor molecule, acceptor atom, score
      L1  H     8    27       P1  7957  0.77
      L1  H    11    30       P1  7949  0.43
      P1  H  7989  7998       L1     8  0.03
      P1  H  8011  8017       L1     8  0.15

> <Gold.Chemscore.Hbond.Weighted>
-6.3171

> <Gold.Chemscore.Metal.Weighted>
-0.0000

> <Gold.Chemscore.Lipo.Weighted>
-7.1604

> <Gold.Chemscore.Internal_Hbond.Weighted>
0.0000

> <Gold.Chemscore.DEClash.Weighted>
1.0859

> <Gold.Chemscore.DEInternal.Weighted>
1.2073

> <Gold.Chemscore.Rot.Weighted>
6.8791

> <Gold.Chemscore.Internal.Correction.Weighted>
   9.000000E+99

> <Gold.Protein.RotatedTorsions>
[ 6907 6896 6895 6894 ] final   64.09 input  -60.11 | X-H torsion
[ 7974 7965 7964 7962 ] final  -20.70 input  175.53 | X-H torsion
[ 8008 7997 7996 7995 ] final   98.54 input   59.86 | X-H torsion
[ 10167 10162 10161 10158 ] final   65.78 input  -65.29 | X-H torsion
[ 10718 10713 10712 10709 ] final  155.77 input   66.30 | X-H torsion
[ 10763 10752 10751 10750 ] final   59.51 input  -60.55 | X-H torsion
[ 11005 11000 10999 10996 ] final  -81.15 input  -57.11 | X-H torsion

> <Gold.Protein.ActiveResidues>
 VAL166  LYS551  ARG553  GLY616  TRP617  ASP618  TYR619  PRO620  LYS621  CYS622 
 ASP623  PHE694  ASN695  SER759  ASP760  ASP761  ALA762  ILE779  LEU786  VAL792 
 PHE793  MET794  SER795  GLU796  ALA797  LYS798  CYS799  TRP800  GLU811  SER814 

> <Gold.Protein.RotatedAtoms>
  152.4304  134.5788  159.9941 H   0  0  0  0  0  0  0  0  0  0  0  0  # atno 6907 bound_to 6896
  151.5913  133.3360  159.3036 H   0  0  0  0  0  0  0  0  0  0  0  0  # atno 6908 bound_to 6896
  150.8196  134.7433  159.6826 H   0  0  0  0  0  0  0  0  0  0  0  0  # atno 6909 bound_to 6896
  146.1774  140.4239  142.8508 H   0  0  0  0  0  0  0  0  0  0  0  0  # atno 7974 bound_to 7965
  156.1015  140.3242  155.7948 H   0  0  0  0  0  0  0  0  0  0  0  0  # atno 8008 bound_to 7997
  155.4829  140.0555  157.2982 H   0  0  0  0  0  0  0  0  0  0  0  0  # atno 8009 bound_to 7997
  154.4700  140.2007  156.0035 H   0  0  0  0  0  0  0  0  0  0  0  0  # atno 8010 bound_to 7997
  140.1076  144.4847  150.6998 H   0  0  0  0  0  0  0  0  0  0  0  0  # atno 10167 bound_to 10162
  157.2139  131.0703  151.1953 H   0  0  0  0  0  0  0  0  0  0  0  0  # atno 10718 bound_to 10713
  152.9896  135.5569  154.5725 H   0  0  0  0  0  0  0  0  0  0  0  0  # atno 10763 bound_to 10752
  154.5122  135.2803  155.1335 H   0  0  0  0  0  0  0  0  0  0  0  0  # atno 10764 bound_to 10752
  154.2722  135.6361  153.5367 H   0  0  0  0  0  0  0  0  0  0  0  0  # atno 10765 bound_to 10752
  141.1667  133.7183  156.8380 H   0  0  0  0  0  0  0  0  0  0  0  0  # atno 11005 bound_to 11000
  144.8258  140.6625  143.6323 LP  0  0  0  0  0  0  0  0  0  0  0  0  # atno 17320 bound_to 7965
  145.4174  139.1569  143.4092 LP  0  0  0  0  0  0  0  0  0  0  0  0  # atno 17321 bound_to 7965
  140.6943  143.2394  151.5043 LP  0  0  0  0  0  0  0  0  0  0  0  0  # atno 17342 bound_to 10162
  139.5637  144.2095  152.1731 LP  0  0  0  0  0  0  0  0  0  0  0  0  # atno 17343 bound_to 10162
  157.3644  130.7148  149.6523 LP  0  0  0  0  0  0  0  0  0  0  0  0  # atno 17370 bound_to 10713
  155.9688  130.4216  150.4478 LP  0  0  0  0  0  0  0  0  0  0  0  0  # atno 17371 bound_to 10713
  140.2003  134.8901  157.3162 LP  0  0  0  0  0  0  0  0  0  0  0  0  # atno 17394 bound_to 11000
  140.2194  134.4042  155.7573 LP  0  0  0  0  0  0  0  0  0  0  0  0  # atno 17395 bound_to 11000

$$$$
