AV-unprocessed.smi:290|AV-procd|sdf|2236|dock8
  -GOLD-   2262022103D 1   1.00000     0.00000
 Structure written by MMmdl.
 59 62  0  0  0  0  0  0  0  0  2 V2000
  149.8462  137.6115  154.7773 C   0  0  0  0  0  0  0  0  0  0  0  0
  150.0744  138.8179  155.7008 C   0  0  1  0  0  0  0  0  0  0  0  0
  151.4255  138.8738  156.1553 O   0  0  0  0  0  0  0  0  0  0  0  0
  151.9247  140.2036  156.0722 C   0  0  0  0  0  0  0  0  0  0  0  0
  150.6931  141.0902  155.9183 C   0  0  0  0  0  0  0  0  0  0  0  0
  149.7490  140.2091  155.1117 C   0  0  1  0  0  0  0  0  0  0  0  0
  150.1322  140.2694  153.7478 O   0  0  0  0  0  0  0  0  0  0  0  0
  148.2562  140.6281  155.1557 C   0  0  0  0  0  0  0  0  0  0  0  0
  147.3445  139.7305  154.4631 N   0  0  0  0  0  0  0  0  0  0  0  0
  147.2615  139.5236  153.1043 C   0  0  0  0  0  0  0  0  0  0  0  0
  146.3588  138.6604  152.7259 N   0  0  0  0  0  0  0  0  0  0  0  0
  145.7851  138.2280  153.9153 C   0  0  0  0  0  0  0  0  0  0  0  0
  144.7530  137.3054  154.2460 C   0  0  0  0  0  0  0  0  0  0  0  0
  144.0456  136.5831  153.3509 N   0  0  0  0  0  0  0  0  0  0  0  0
  144.4569  136.7129  151.9565 C   0  0  0  0  0  0  0  0  0  0  0  0
  144.3329  135.3167  151.3441 C   0  0  0  0  0  0  0  0  0  0  0  0
  144.5712  134.3999  152.5483 C   0  0  2  0  0  0  0  0  0  0  0  0
  144.1453  132.9787  152.3795 N   0  3  1  0  0  0  0  0  0  0  0  0
  143.1336  132.8067  151.3055 C   0  0  0  0  0  0  0  0  0  0  0  0
  145.3044  132.0593  152.2068 C   0  0  0  0  0  0  0  0  0  0  0  0
  146.2058  132.4317  151.0145 C   0  0  0  0  0  0  0  0  0  0  0  0
  146.5054  131.2854  150.2473 O   0  0  0  0  0  0  0  0  0  0  0  0
  143.8536  135.1729  153.6791 C   0  0  2  0  0  0  0  0  0  0  0  0
  142.3460  134.8802  153.7972 C   0  0  0  0  0  0  0  0  0  0  0  0
  144.4580  137.1210  155.5553 N   0  0  0  0  0  0  0  0  0  0  0  0
  145.1263  137.8007  156.4923 C   0  0  0  0  0  0  0  0  0  0  0  0
  146.1056  138.6944  156.3364 N   0  0  0  0  0  0  0  0  0  0  0  0
  146.4033  138.8809  155.0182 C   0  0  0  0  0  0  0  0  0  0  0  0
  145.6435  134.3980  152.7493 H   0  0  0  0  0  0  0  0  0  0  0  0
  144.3220  134.9393  154.6368 H   0  0  0  0  0  0  0  0  0  0  0  0
  148.8136  137.5742  154.4299 H   0  0  0  0  0  0  0  0  0  0  0  0
  150.0523  136.6792  155.3033 H   0  0  0  0  0  0  0  0  0  0  0  0
  150.4965  137.6435  153.9029 H   0  0  0  0  0  0  0  0  0  0  0  0
  149.4909  138.6659  156.6074 H   0  0  0  0  0  0  0  0  0  0  0  0
  152.5198  140.4615  156.9483 H   0  0  0  0  0  0  0  0  0  0  0  0
  152.5653  140.2829  155.1931 H   0  0  0  0  0  0  0  0  0  0  0  0
  150.2886  141.2912  156.9097 H   0  0  0  0  0  0  0  0  0  0  0  0
  150.9113  142.0486  155.4458 H   0  0  0  0  0  0  0  0  0  0  0  0
  149.3998  139.9972  153.2166 H   0  0  0  0  0  0  0  0  0  0  0  0
  147.9234  140.7080  156.1916 H   0  0  0  0  0  0  0  0  0  0  0  0
  148.1382  141.6232  154.7244 H   0  0  0  0  0  0  0  0  0  0  0  0
  147.8919  140.0429  152.3971 H   0  0  0  0  0  0  0  0  0  0  0  0
  143.8245  137.4313  151.4345 H   0  0  0  0  0  0  0  0  0  0  0  0
  145.4862  137.0669  151.8823 H   0  0  0  0  0  0  0  0  0  0  0  0
  143.3272  135.1743  150.9462 H   0  0  0  0  0  0  0  0  0  0  0  0
  145.0455  135.1612  150.5334 H   0  0  0  0  0  0  0  0  0  0  0  0
  143.5224  133.1512  150.3463 H   0  0  0  0  0  0  0  0  0  0  0  0
  142.2222  133.3625  151.5245 H   0  0  0  0  0  0  0  0  0  0  0  0
  142.8323  131.7670  151.1921 H   0  0  0  0  0  0  0  0  0  0  0  0
  145.8893  132.0437  153.1275 H   0  0  0  0  0  0  0  0  0  0  0  0
  144.9600  131.0364  152.0559 H   0  0  0  0  0  0  0  0  0  0  0  0
  145.7641  133.1957  150.3765 H   0  0  0  0  0  0  0  0  0  0  0  0
  147.1449  132.8447  151.3837 H   0  0  0  0  0  0  0  0  0  0  0  0
  147.4029  131.0372  150.4120 H   0  0  0  0  0  0  0  0  0  0  0  0
  142.1573  133.8497  154.0928 H   0  0  0  0  0  0  0  0  0  0  0  0
  141.8222  135.0610  152.8584 H   0  0  0  0  0  0  0  0  0  0  0  0
  141.8890  135.5176  154.5550 H   0  0  0  0  0  0  0  0  0  0  0  0
  144.8342  137.6014  157.5129 H   0  0  0  0  0  0  0  0  0  0  0  0
  143.6981  132.7145  153.2460 H   0  0  0  0  0  0  0  0  0  0  0  0
  1  2  1  0  0  0  0
  1 31  1  0  0  0  0
  1 32  1  0  0  0  0
  1 33  1  0  0  0  0
  2  6  1  0  0  0  0
  2  3  1  0  0  0  0
  2 34  1  0  0  0  0
  3  4  1  0  0  0  0
  4  5  1  0  0  0  0
  4 35  1  0  0  0  0
  4 36  1  0  0  0  0
  5  6  1  0  0  0  0
  5 37  1  0  0  0  0
  5 38  1  0  0  0  0
  6  7  1  0  0  0  0
  6  8  1  0  0  0  0
  7 39  1  0  0  0  0
  8  9  1  0  0  0  0
  8 40  1  0  0  0  0
  8 41  1  0  0  0  0
  9 28  1  0  0  0  0
  9 10  1  0  0  0  0
 10 11  2  0  0  0  0
 10 42  1  0  0  0  0
 11 12  1  0  0  0  0
 12 28  2  0  0  0  0
 12 13  1  0  0  0  0
 13 14  1  0  0  0  0
 13 25  2  0  0  0  0
 14 23  1  0  0  0  0
 14 15  1  0  0  0  0
 15 16  1  0  0  0  0
 15 43  1  0  0  0  0
 15 44  1  0  0  0  0
 16 17  1  0  0  0  0
 16 45  1  0  0  0  0
 16 46  1  0  0  0  0
 17 29  1  0  0  0  0
 17 18  1  0  0  0  0
 17 23  1  0  0  0  0
 18 19  1  0  0  0  0
 18 20  1  0  0  0  0
 18 59  1  0  0  0  0
 19 47  1  0  0  0  0
 19 48  1  0  0  0  0
 19 49  1  0  0  0  0
 20 21  1  0  0  0  0
 20 50  1  0  0  0  0
 20 51  1  0  0  0  0
 21 22  1  0  0  0  0
 21 52  1  0  0  0  0
 21 53  1  0  0  0  0
 22 54  1  0  0  0  0
 23 30  1  0  0  0  0
 23 24  1  0  0  0  0
 24 55  1  0  0  0  0
 24 56  1  0  0  0  0
 24 57  1  0  0  0  0
 25 26  1  0  0  0  0
 26 27  2  0  0  0  0
 26 58  1  0  0  0  0
 27 28  1  0  0  0  0
M  CHG  1  18   1
M  END
> <s_m_source_file>
AV-unprocessed.smi

> <i_m_source_file_index>
290

> <i_lp_mmshare_version>
43012

> <i_f3d_flags>
0

> <s_epik_input>
W0NIMl0xW0NIMl1PW0NAQEhdKFtDSDNdKVtDQEBdMShbT0hdKVtDSDJdbihbY0hdbjIpYyhjMjMpbltjSF1uYzNONFtDSDJdW0NIMl1bQ0BIXShbQ0BIXTRbQ0gzXSlOKFtDSDNdKVtDSDJdW0NIMl1bT0hd

> <s_epik_cmdline>
J2VwaWtfcHl0aG9uJywgJy1waCcsICc3LjAnLCAnLXRuJywgJzgnLCAnLW1hJywgJzIwMCcsICctbWV0YWxfYmluZGluZycsICctaW1hZScsICc8aW5maWxlLm1hZT4nLCAnLW9tYWUnLCAnPG91dGZpbGUubWFlPic=

> <r_lp_tautomer_probability>
1

> <r_epik_Ionization_Penalty>
0.0036983

> <r_epik_Ionization_Penalty_Charging>
0.0032725

> <r_epik_Ionization_Penalty_Neutral>
0.000425798

> <r_epik_State_Penalty>
-0

> <r_epik_Charging_Adjusted_Penalty>
0.0032725

> <i_epik_Tot_Q>
1

> <i_epik_Tot_abs_Q>
1

> <r_epik_Metal_State_Penalty>
-0

> <b_epik_Metal_Only>
0

> <s_lp_Force_Field>
OPLS_2005

> <r_lp_Energy>
67.6637

> <b_lp_Chiralities_Consistent>
1

> <s_lp_Variant>
AV-unprocessed.smi:290-22

> <Gold.Version>
5.8.1

> <Gold.Id.Protein>
6NUR|6NUR_protein|mol2

> <Gold.PLP.Fitness>
44.0226

> <Gold.PLP.PLP>
-32.2302

> <Gold.PLP.part.hbond>
-3.6276

> <Gold.PLP.part.metal>
0.0000

> <Gold.PLP.part.buried>
-2.9671

> <Gold.PLP.part.nonpolar>
-27.4459

> <Gold.PLP.part.repulsive>
0.4215

> <Gold.PLP.ligand.clash>
0.0000

> <Gold.PLP.ligand.torsion>
1.8495

> <Gold.PLP.Chemscore.Hbond>
4.0713

> <Gold.PLP.Chemscore.CHOScore>
1.0000

> <Gold.PLP.Chemscore.Metal>
0.0000

> <Gold.Chemscore.Hbonds>
donor molecule, donor type, donor heavy atom, donor atom, acceptor molecule, acceptor atom, score
      L1  H     7    39       P1  7957  0.33
      L1  H    18    59       P1 10957  1.82
      L1  H    22    54       P1 10747  1.00
      P1  H  7989  7998       L1     7  0.74
      L1  C    10    42       P1  7957  1.00

> <Gold.PLP.Chemscore.Internal.Correction>
0.2775

> <Gold.Rescore>
     Score         DG    S(hbond)    S(metal)    S(lipo)     H(rot)  DE(clash)    DE(int)     intcor
     10.97     -14.42       2.83        0.00      75.71       3.67       0.12       3.33       ----

> <Gold.Chemscore.Fitness>
10.9680

> <Gold.Chemscore.DG>
-14.4189

> <Gold.Chemscore.ZeroCoef>
-5.4800

> <Gold.Chemscore.Hbond>
2.8339

> <Gold.Chemscore.Metal>
0.0000

> <Gold.Chemscore.Lipo>
75.7103

> <Gold.Chemscore.Internal_Hbond>
0.0000

> <Gold.Chemscore.DEClash>
0.1228

> <Gold.Chemscore.DEInternal>
3.3282

> <Gold.Chemscore.Rot>
3.6658

> <Gold.Chemscore.Internal.Correction>
   9.000000E+99

> <Gold.Chemscore.Hbonds>
donor molecule, donor type, donor heavy atom, donor atom, acceptor molecule, acceptor atom, score
      L1  H     7    39       P1  7957  0.31
      L1  H    18    59       P1 10957  0.35
      L1  H    22    54       P1 10747  0.98
      P1  H  7989  7998       L1     7  0.68

> <Gold.Chemscore.Hbond.Weighted>
-9.4652

> <Gold.Chemscore.Metal.Weighted>
-0.0000

> <Gold.Chemscore.Lipo.Weighted>
-8.8581

> <Gold.Chemscore.Internal_Hbond.Weighted>
0.0000

> <Gold.Chemscore.DEClash.Weighted>
0.1228

> <Gold.Chemscore.DEInternal.Weighted>
3.3282

> <Gold.Chemscore.Rot.Weighted>
9.3844

> <Gold.Chemscore.Internal.Correction.Weighted>
   9.000000E+99

> <Gold.Protein.RotatedTorsions>
[ 6907 6896 6895 6894 ] final  100.66 input  -60.11 | X-H torsion
[ 7974 7965 7964 7962 ] final  -86.66 input  175.53 | X-H torsion
[ 8008 7997 7996 7995 ] final  -27.58 input   59.86 | X-H torsion
[ 10167 10162 10161 10158 ] final  105.10 input  -65.29 | X-H torsion
[ 10718 10713 10712 10709 ] final   71.26 input   66.30 | X-H torsion
[ 10763 10752 10751 10750 ] final  142.90 input  -60.55 | X-H torsion
[ 11005 11000 10999 10996 ] final -154.04 input  -57.11 | X-H torsion

> <Gold.Protein.ActiveResidues>
 VAL166  LYS551  ARG553  GLY616  TRP617  ASP618  TYR619  PRO620  LYS621  CYS622 
 ASP623  PHE694  ASN695  SER759  ASP760  ASP761  ALA762  ILE779  LEU786  VAL792 
 PHE793  MET794  SER795  GLU796  ALA797  LYS798  CYS799  TRP800  GLU811  SER814 

> <Gold.Protein.RotatedAtoms>
  152.5367  134.0243  159.7995 H   0  0  0  0  0  0  0  0  0  0  0  0  # atno 6907 bound_to 6896
  151.0424  133.5687  159.2657 H   0  0  0  0  0  0  0  0  0  0  0  0  # atno 6908 bound_to 6896
  151.2651  135.0674  159.9167 H   0  0  0  0  0  0  0  0  0  0  0  0  # atno 6909 bound_to 6896
  145.4770  140.9558  143.1885 H   0  0  0  0  0  0  0  0  0  0  0  0  # atno 7974 bound_to 7965
  154.4371  140.1868  156.0955 H   0  0  0  0  0  0  0  0  0  0  0  0  # atno 8008 bound_to 7997
  156.0333  140.3328  155.7137 H   0  0  0  0  0  0  0  0  0  0  0  0  # atno 8009 bound_to 7997
  155.5808  140.0621  157.2774 H   0  0  0  0  0  0  0  0  0  0  0  0  # atno 8010 bound_to 7997
  139.7121  144.7075  151.1010 H   0  0  0  0  0  0  0  0  0  0  0  0  # atno 10167 bound_to 10162
  157.6442  130.9519  150.0764 H   0  0  0  0  0  0  0  0  0  0  0  0  # atno 10718 bound_to 10713
  153.9634  135.2958  155.3432 H   0  0  0  0  0  0  0  0  0  0  0  0  # atno 10763 bound_to 10752
  154.7362  135.5045  153.9049 H   0  0  0  0  0  0  0  0  0  0  0  0  # atno 10764 bound_to 10752
  153.0935  135.6714  153.9918 H   0  0  0  0  0  0  0  0  0  0  0  0  # atno 10765 bound_to 10752
  140.7016  134.3931  157.5209 H   0  0  0  0  0  0  0  0  0  0  0  0  # atno 11005 bound_to 11000
  144.7911  139.6326  143.7113 LP  0  0  0  0  0  0  0  0  0  0  0  0  # atno 17320 bound_to 7965
  146.2363  139.5913  142.9521 LP  0  0  0  0  0  0  0  0  0  0  0  0  # atno 17321 bound_to 7965
  140.7735  143.5279  150.9458 LP  0  0  0  0  0  0  0  0  0  0  0  0  # atno 17342 bound_to 10162
  139.8964  143.6890  152.3138 LP  0  0  0  0  0  0  0  0  0  0  0  0  # atno 17343 bound_to 10162
  156.1753  130.3648  149.9108 LP  0  0  0  0  0  0  0  0  0  0  0  0  # atno 17370 bound_to 10713
  156.7074  130.8957  151.3606 LP  0  0  0  0  0  0  0  0  0  0  0  0  # atno 17371 bound_to 10713
  139.8895  134.8828  156.2416 LP  0  0  0  0  0  0  0  0  0  0  0  0  # atno 17394 bound_to 11000
  141.0159  133.7069  156.1188 LP  0  0  0  0  0  0  0  0  0  0  0  0  # atno 17395 bound_to 11000

$$$$
