AV-unprocessed.smi:291|AV-procd|sdf|2247|dock2
  -GOLD-   2262022133D 1   1.00000     0.00000
 Structure written by MMmdl.
 35 36  0  0  0  0  0  0  0  0  1 V2000
  153.4556  142.0498  160.6540 C   0  0  0  0  0  0  0  0  0  0  0  0
  152.2751  141.9969  159.6736 C   0  0  2  0  0  0  0  0  0  0  0  0
  152.5522  141.0250  158.5107 C   0  0  0  0  0  0  0  0  0  0  0  0
  151.3763  140.9716  157.5219 C   0  0  0  0  0  0  0  0  0  0  0  0
  151.0254  142.3735  156.9864 C   0  0  1  0  0  0  0  0  0  0  0  0
  149.8568  142.3078  156.1151 N   0  0  0  0  0  0  0  0  0  0  0  0
  149.6460  141.3866  155.1613 C   0  0  0  0  0  0  0  0  0  0  0  0
  150.4267  140.4660  154.9217 O   0  0  0  0  0  0  0  0  0  0  0  0
  148.3499  141.5154  154.3582 C   0  0  0  0  0  0  0  0  0  0  0  0
  147.1864  141.5520  155.2267 N   0  0  0  0  0  0  0  0  0  0  0  0
  145.8825  141.5929  154.9319 C   0  0  0  0  0  0  0  0  0  0  0  0
  145.0899  141.6251  155.9962 N   0  0  0  0  0  0  0  0  0  0  0  0
  146.0439  141.5984  156.9717 C   0  0  0  0  0  0  0  0  0  0  0  0
  145.6901  141.6175  158.3809 C   0  0  0  0  0  0  0  0  0  0  0  0
  145.4089  141.6320  159.5032 N   0  0  0  0  0  0  0  0  0  0  0  0
  147.3144  141.5545  156.5764 N   0  0  0  0  0  0  0  0  0  0  0  0
  150.7487  143.3460  158.1468 C   0  0  0  0  0  0  0  0  0  0  0  0
  151.9285  143.3967  159.1310 C   0  0  0  0  0  0  0  0  0  0  0  0
  154.3598  142.4174  160.1675 H   0  0  0  0  0  0  0  0  0  0  0  0
  153.6738  141.0610  161.0586 H   0  0  0  0  0  0  0  0  0  0  0  0
  153.2387  142.7091  161.4950 H   0  0  0  0  0  0  0  0  0  0  0  0
  151.4088  141.6254  160.2232 H   0  0  0  0  0  0  0  0  0  0  0  0
  153.4560  141.3304  157.9817 H   0  0  0  0  0  0  0  0  0  0  0  0
  152.7464  140.0247  158.8994 H   0  0  0  0  0  0  0  0  0  0  0  0
  151.6250  140.3047  156.6953 H   0  0  0  0  0  0  0  0  0  0  0  0
  150.5072  140.5370  158.0180 H   0  0  0  0  0  0  0  0  0  0  0  0
  151.8766  142.7583  156.4209 H   0  0  0  0  0  0  0  0  0  0  0  0
  149.1562  143.0241  156.2415 H   0  0  0  0  0  0  0  0  0  0  0  0
  148.3678  142.4297  153.7632 H   0  0  0  0  0  0  0  0  0  0  0  0
  148.2622  140.6796  153.6624 H   0  0  0  0  0  0  0  0  0  0  0  0
  145.5073  141.6019  153.9188 H   0  0  0  0  0  0  0  0  0  0  0  0
  150.5528  144.3460  157.7576 H   0  0  0  0  0  0  0  0  0  0  0  0
  149.8472  143.0404  158.6803 H   0  0  0  0  0  0  0  0  0  0  0  0
  151.6863  144.0670  159.9564 H   0  0  0  0  0  0  0  0  0  0  0  0
  152.7987  143.8255  158.6319 H   0  0  0  0  0  0  0  0  0  0  0  0
  1  2  1  0  0  0  0
  1 19  1  0  0  0  0
  1 20  1  0  0  0  0
  1 21  1  0  0  0  0
  2 18  1  0  0  0  0
  2  3  1  0  0  0  0
  2 22  1  0  0  0  0
  3  4  1  0  0  0  0
  3 23  1  0  0  0  0
  3 24  1  0  0  0  0
  4  5  1  0  0  0  0
  4 25  1  0  0  0  0
  4 26  1  0  0  0  0
  5  6  1  0  0  0  0
  5 17  1  0  0  0  0
  5 27  1  0  0  0  0
  6  7  1  0  0  0  0
  6 28  1  0  0  0  0
  7  8  2  0  0  0  0
  7  9  1  0  0  0  0
  9 10  1  0  0  0  0
  9 29  1  0  0  0  0
  9 30  1  0  0  0  0
 10 16  1  0  0  0  0
 10 11  1  0  0  0  0
 11 12  2  0  0  0  0
 11 31  1  0  0  0  0
 12 13  1  0  0  0  0
 13 14  1  0  0  0  0
 13 16  2  0  0  0  0
 14 15  3  0  0  0  0
 17 18  1  0  0  0  0
 17 32  1  0  0  0  0
 17 33  1  0  0  0  0
 18 34  1  0  0  0  0
 18 35  1  0  0  0  0
M  END
> <s_m_source_file>
AV-unprocessed.smi

> <i_m_source_file_index>
291

> <i_lp_mmshare_version>
43012

> <i_f3d_flags>
0

> <s_epik_input>
W0NIM11bQ0BASF0xW0NIMl1bQ0gyXVtDQEhdKFtDSDJdW0NIMl0xKVtOSF1DKD1PKVtDSDJdbjJbY0hdbmMobjIpQyNO

> <s_epik_cmdline>
J2VwaWtfcHl0aG9uJywgJy1waCcsICc3LjAnLCAnLXRuJywgJzgnLCAnLW1hJywgJzIwMCcsICctbWV0YWxfYmluZGluZycsICctaW1hZScsICc8aW5maWxlLm1hZT4nLCAnLW9tYWUnLCAnPG91dGZpbGUubWFlPic=

> <r_lp_tautomer_probability>
1

> <r_epik_Ionization_Penalty>
5.31112e-08

> <r_epik_Ionization_Penalty_Charging>
0

> <r_epik_Ionization_Penalty_Neutral>
5.31112e-08

> <r_epik_State_Penalty>
-0

> <r_epik_Charging_Adjusted_Penalty>
0

> <i_epik_Tot_Q>
0

> <i_epik_Tot_abs_Q>
0

> <r_epik_Metal_State_Penalty>
-0

> <b_epik_Metal_Only>
0

> <s_lp_Force_Field>
OPLS_2005

> <r_lp_Energy>
12.4936

> <b_lp_Chiralities_Consistent>
1

> <s_lp_Variant>
AV-unprocessed.smi:291-1

> <Gold.Version>
5.8.1

> <Gold.Id.Protein>
6NUR|6NUR_protein|mol2

> <Gold.PLP.Fitness>
42.9408

> <Gold.PLP.PLP>
-32.4085

> <Gold.PLP.part.hbond>
-3.0000

> <Gold.PLP.part.metal>
0.0000

> <Gold.PLP.part.buried>
-5.7058

> <Gold.PLP.part.nonpolar>
-25.9219

> <Gold.PLP.part.repulsive>
0.3603

> <Gold.PLP.ligand.clash>
0.0000

> <Gold.PLP.ligand.torsion>
0.2141

> <Gold.PLP.Chemscore.Hbond>
2.7113

> <Gold.PLP.Chemscore.CHOScore>
0.9412

> <Gold.PLP.Chemscore.Metal>
0.0000

> <Gold.Chemscore.Hbonds>
donor molecule, donor type, donor heavy atom, donor atom, acceptor molecule, acceptor atom, score
      L1  H     6    28       P1  8028  0.74
      P1  H  6934  6946       L1    15  0.91
      P1  H  7989  7998       L1     8  1.00
      L1  C    11    31       P1 10175  0.91

> <Gold.PLP.Chemscore.Internal.Correction>
0.0031

> <Gold.Rescore>
     Score         DG    S(hbond)    S(metal)    S(lipo)     H(rot)  DE(clash)    DE(int)     intcor
     13.78     -16.93       2.51        0.00      68.84       1.95       0.00       3.14       ----

> <Gold.Chemscore.Fitness>
13.7806

> <Gold.Chemscore.DG>
-16.9269

> <Gold.Chemscore.ZeroCoef>
-5.4800

> <Gold.Chemscore.Hbond>
2.5085

> <Gold.Chemscore.Metal>
0.0000

> <Gold.Chemscore.Lipo>
68.8357

> <Gold.Chemscore.Internal_Hbond>
0.0000

> <Gold.Chemscore.DEClash>
0.0042

> <Gold.Chemscore.DEInternal>
3.1421

> <Gold.Chemscore.Rot>
1.9474

> <Gold.Chemscore.Internal.Correction>
   9.000000E+99

> <Gold.Chemscore.Hbonds>
donor molecule, donor type, donor heavy atom, donor atom, acceptor molecule, acceptor atom, score
      L1  H     6    28       P1  8028  0.74
      P1  H  6934  6946       L1    15  0.72
      P1  H  7989  7998       L1     8  0.78

> <Gold.Chemscore.Hbond.Weighted>
-8.3784

> <Gold.Chemscore.Metal.Weighted>
-0.0000

> <Gold.Chemscore.Lipo.Weighted>
-8.0538

> <Gold.Chemscore.Internal_Hbond.Weighted>
0.0000

> <Gold.Chemscore.DEClash.Weighted>
0.0042

> <Gold.Chemscore.DEInternal.Weighted>
3.1421

> <Gold.Chemscore.Rot.Weighted>
4.9852

> <Gold.Chemscore.Internal.Correction.Weighted>
   9.000000E+99

> <Gold.Protein.RotatedTorsions>
[ 6907 6896 6895 6894 ] final  -13.12 input  -60.11 | X-H torsion
[ 7974 7965 7964 7962 ] final   83.62 input  175.53 | X-H torsion
[ 8008 7997 7996 7995 ] final   17.89 input   59.86 | X-H torsion
[ 10167 10162 10161 10158 ] final   66.25 input  -65.29 | X-H torsion
[ 10718 10713 10712 10709 ] final  149.74 input   66.30 | X-H torsion
[ 10763 10752 10751 10750 ] final -159.16 input  -60.55 | X-H torsion
[ 11005 11000 10999 10996 ] final   21.82 input  -57.11 | X-H torsion

> <Gold.Protein.ActiveResidues>
 VAL166  LYS551  ARG553  GLY616  TRP617  ASP618  TYR619  PRO620  LYS621  CYS622 
 ASP623  PHE694  ASN695  SER759  ASP760  ASP761  ALA762  ILE779  LEU786  VAL792 
 PHE793  MET794  SER795  GLU796  ALA797  LYS798  CYS799  TRP800  GLU811  SER814 

> <Gold.Protein.RotatedAtoms>
  151.3599  135.0902  159.9430 H   0  0  0  0  0  0  0  0  0  0  0  0  # atno 6907 bound_to 6896
  152.5165  133.9269  159.7572 H   0  0  0  0  0  0  0  0  0  0  0  0  # atno 6908 bound_to 6896
  150.9661  133.6339  159.2775 H   0  0  0  0  0  0  0  0  0  0  0  0  # atno 6909 bound_to 6896
  145.6096  139.2366  143.2200 H   0  0  0  0  0  0  0  0  0  0  0  0  # atno 7974 bound_to 7965
  154.8980  140.2996  155.5333 H   0  0  0  0  0  0  0  0  0  0  0  0  # atno 8008 bound_to 7997
  156.3019  140.2412  156.3939 H   0  0  0  0  0  0  0  0  0  0  0  0  # atno 8009 bound_to 7997
  154.8550  140.0408  157.1617 H   0  0  0  0  0  0  0  0  0  0  0  0  # atno 8010 bound_to 7997
  140.1024  144.4892  150.7029 H   0  0  0  0  0  0  0  0  0  0  0  0  # atno 10167 bound_to 10162
  157.2923  131.0855  151.1452 H   0  0  0  0  0  0  0  0  0  0  0  0  # atno 10718 bound_to 10713
  154.7498  135.3089  154.8579 H   0  0  0  0  0  0  0  0  0  0  0  0  # atno 10763 bound_to 10752
  153.9369  135.6779  153.4749 H   0  0  0  0  0  0  0  0  0  0  0  0  # atno 10764 bound_to 10752
  153.1094  135.4874  154.8936 H   0  0  0  0  0  0  0  0  0  0  0  0  # atno 10765 bound_to 10752
  140.3873  134.1856  155.7663 H   0  0  0  0  0  0  0  0  0  0  0  0  # atno 11005 bound_to 11000
  146.1515  140.6919  142.9320 LP  0  0  0  0  0  0  0  0  0  0  0  0  # atno 17320 bound_to 7965
  144.7275  140.4571  143.6962 LP  0  0  0  0  0  0  0  0  0  0  0  0  # atno 17321 bound_to 7965
  140.6970  143.2410  151.4971 LP  0  0  0  0  0  0  0  0  0  0  0  0  # atno 17342 bound_to 10162
  139.5664  144.2033  152.1771 LP  0  0  0  0  0  0  0  0  0  0  0  0  # atno 17343 bound_to 10162
  157.2844  130.6765  149.6082 LP  0  0  0  0  0  0  0  0  0  0  0  0  # atno 17370 bound_to 10713
  155.9667  130.4440  150.5443 LP  0  0  0  0  0  0  0  0  0  0  0  0  # atno 17371 bound_to 10713
  141.1903  133.8220  157.0924 LP  0  0  0  0  0  0  0  0  0  0  0  0  # atno 17394 bound_to 11000
  140.0433  134.9843  157.1002 LP  0  0  0  0  0  0  0  0  0  0  0  0  # atno 17395 bound_to 11000

$$$$
