#       Name:                AV-unprocessed.smi:72
#       Creating user name   scv26
#       Creation time:       Thu Mar 26 17:08:29 2020


#       File generated by GOLD software.
#

@<TRIPOS>MOLECULE
AV-unprocessed.smi:72
    41    42     1
SMALL
NO_CHARGES


@<TRIPOS>ATOM
      1 ****        -5.0356  -0.1211   0.1917 N.pl3          1 S1                 0.0000
      2 ****        -3.6774  -0.3538   0.2393 C.2            1 S1                 0.0000
      3 ****        -2.9086   0.5873   0.9364 N.2            1 S1                 0.0000
      4 ****        -1.6303   0.3816   0.9708 C.2            1 S1                 0.0000
      5 ****        -1.0269  -0.7561   0.2933 N.am           1 S1                 0.0000
      6 ****         0.4671  -1.0427   0.3341 C.3            1 S1                 0.0000
      7 ****         1.1245  -0.0873   1.1120 O.3            1 S1                 0.0000
      8 ****         1.6119   0.9555   0.2769 C.3            1 S1                 0.0000
      9 ****         2.7184   1.7336   1.0037 C.3            1 S1                 0.0000
     10 ****         2.1460   2.6954   1.8639 O.3            1 S1                 0.0000
     11 ****         2.1065   0.1783  -0.9439 C.3            1 S1                 0.0000
     12 ****         2.0842   1.0006  -2.0935 O.3            1 S1                 0.0000
     13 ****         1.0965  -0.9601  -1.0753 C.3            1 S1                 0.0000
     14 ****         1.7588  -2.1594  -1.4210 O.3            1 S1                 0.0000
     15 ****        -1.8779  -1.6979  -0.3510 C.2            1 S1                 0.0000
     16 ****        -1.4012  -2.7072  -0.8707 O.2            1 S1                 0.0000
     17 ****        -3.2504  -1.4246  -0.3651 N.2            1 S1                 0.0000
     18 ****         0.5464  -2.0220   0.8096 H              1 S1                 0.0000
     19 ****         0.7938   1.6174  -0.0140 H              1 S1                 0.0000
     20 ****         3.1127  -0.2050  -0.7651 H              1 S1                 0.0000
     21 ****         0.3308  -0.7287  -1.8179 H              1 S1                 0.0000
     22 ****        -5.6871  -0.7315  -0.2795 H              1 S1                 0.0000
     23 ****        -5.4791   0.6742   0.6273 H              1 S1                 0.0000
     24 ****        -0.9460   1.0407   1.5050 H              1 S1                 0.0000
     25 ****         3.3743   1.0649   1.5618 H              1 S1                 0.0000
     26 ****         3.3369   2.2675   0.2818 H              1 S1                 0.0000
     27 ****         2.8431   3.1693   2.2910 H              1 S1                 0.0000
     28 ****         2.3477   0.4798  -2.8368 H              1 S1                 0.0000
     29 ****         1.1190  -2.8541  -1.4578 H              1 S1                 0.0000
     30 ****        -3.3257   1.3779   1.3847 LP             1 S1                 0.0000
     31 ****         1.8910  -0.5170   1.5892 LP             1 S1                 0.0000
     32 ****         0.4863   0.2932   1.7812 LP             1 S1                 0.0000
     33 ****         1.5789   2.2393   2.5497 LP             1 S1                 0.0000
     34 ****         1.5829   3.3293   1.3337 LP             1 S1                 0.0000
     35 ****         2.7180   1.7649  -1.9747 LP             1 S1                 0.0000
     36 ****         1.1599   1.3535  -2.2388 LP             1 S1                 0.0000
     37 ****         2.4507  -2.3738  -0.7316 LP             1 S1                 0.0000
     38 ****         2.1981  -2.0573  -2.3136 LP             1 S1                 0.0000
     39 ****        -0.4144  -2.8666  -0.8407 LP             1 S1                 0.0000
     40 ****        -2.0008  -3.3676  -1.3229 LP             1 S1                 0.0000
     41 ****        -3.8889  -2.0384  -0.8293 LP             1 S1                 0.0000
@<TRIPOS>BOND
    1    1    2 1     
    2    1   22 1     
    3    1   23 1     
    4    2   17 2     
    5    2    3 1     
    6    3    4 2     
    7    4    5 1     
    8    4   24 1     
    9    5    6 1     
   10    5   15 am    
   11    6   18 1     
   12    6   13 1     
   13    6    7 1     
   14    7    8 1     
   15    8   19 1     
   16    8    9 1     
   17    8   11 1     
   18    9   10 1     
   19    9   25 1     
   20    9   26 1     
   21   10   27 1     
   22   11   20 1     
   23   11   12 1     
   24   11   13 1     
   25   12   28 1     
   26   13   21 1     
   27   13   14 1     
   28   14   29 1     
   29   15   16 2     
   30   15   17 1     
   31    3   30 1     
   32    7   31 1     
   33    7   32 1     
   34   10   33 1     
   35   10   34 1     
   36   12   35 1     
   37   12   36 1     
   38   14   37 1     
   39   14   38 1     
   40   16   39 1     
   41   16   40 1     
   42   17   41 1     
@<TRIPOS>SUBSTRUCTURE
      1 S1             1
@<TRIPOS>SET
LONE_PAIRS      STATIC     ATOMS    <user>   **** ""
12 30 31 32 33 34 35 36 37 38 39 40 41
DONOR_HYDROGENS      STATIC     ATOMS    <user>   **** ""
5 22 23 27 28 29
ATOM$BLUE        STATIC     ATOMS    COLORGROUP SYSTEM
12 30 31 32 33 34 35 36 37 38 39 40 41
ATOM$RED        STATIC     ATOMS    COLORGROUP SYSTEM
5 22 23 27 28 29
