AV-unprocessed.smi:588|AV-procd|sdf|3004|dock6
  -GOLD-   2262023513D 1   1.00000     0.00000
 Structure written by MMmdl.
 50 51  0  0  0  0  0  0  0  0  1 V2000
  148.4061  141.5383  155.1583 C   0  0  0  0  0  0  0  0  0  0  0  0
  149.8662  141.0872  155.2628 C   0  0  0  0  0  0  0  0  0  0  0  0
  150.0309  139.5785  155.0152 C   0  0  0  0  0  0  0  0  0  0  0  0
  150.2643  138.8349  156.2374 N   0  0  0  0  0  0  0  0  0  0  0  0
  149.3737  137.8859  156.7478 C   0  0  0  0  0  0  0  0  0  0  0  0
  148.2065  137.6388  156.0400 N   0  0  0  0  0  0  0  0  0  0  0  0
  149.6296  137.2147  157.9102 C   0  0  0  0  0  0  0  0  0  0  0  0
  148.7477  136.2377  158.4062 N   0  0  0  0  0  0  0  0  0  0  0  0
  148.5150  135.0652  157.5493 C   0  0  0  0  0  0  0  0  0  0  0  0
  149.7990  134.6193  156.8318 C   0  0  0  0  0  0  0  0  0  0  0  0
  150.3309  133.4904  157.5033 O   0  0  0  0  0  0  0  0  0  0  0  0
  151.2047  132.7350  156.6827 C   0  0  0  0  0  0  0  0  0  0  0  0
  148.1384  136.3456  159.6170 C   0  0  0  0  0  0  0  0  0  0  0  0
  148.2522  137.3585  160.3101 O   0  0  0  0  0  0  0  0  0  0  0  0
  147.3012  135.1689  160.1783 C   0  0  0  0  0  0  0  0  0  0  0  0
  145.8659  135.6173  160.5399 C   0  0  0  0  0  0  0  0  0  0  0  0
  145.6612  135.3102  162.0278 C   0  0  0  0  0  0  0  0  0  0  0  0
  147.0668  135.2388  162.6150 C   0  0  0  0  0  0  0  0  0  0  0  0
  147.8943  134.6168  161.4916 C   0  0  0  0  0  0  0  0  0  0  0  0
  150.8769  137.4484  158.6505 C   0  0  0  0  0  0  0  0  0  0  0  0
  151.2067  136.8913  159.6968 O   0  0  0  0  0  0  0  0  0  0  0  0
  151.7331  138.3826  158.0736 N   0  0  0  0  0  0  0  0  0  0  0  0
  151.4930  139.0821  156.8962 C   0  0  0  0  0  0  0  0  0  0  0  0
  152.3427  139.8696  156.4788 O   0  0  0  0  0  0  0  0  0  0  0  0
  152.6072  138.5614  158.5463 H   0  0  0  0  0  0  0  0  0  0  0  0
  148.3168  142.6098  155.3382 H   0  0  0  0  0  0  0  0  0  0  0  0
  147.7829  141.0246  155.8907 H   0  0  0  0  0  0  0  0  0  0  0  0
  148.0005  141.3315  154.1677 H   0  0  0  0  0  0  0  0  0  0  0  0
  150.4669  141.6450  154.5435 H   0  0  0  0  0  0  0  0  0  0  0  0
  150.2503  141.3453  156.2503 H   0  0  0  0  0  0  0  0  0  0  0  0
  149.1629  139.1474  154.5133 H   0  0  0  0  0  0  0  0  0  0  0  0
  150.8698  139.3711  154.3515 H   0  0  0  0  0  0  0  0  0  0  0  0
  147.9930  138.1230  155.1795 H   0  0  0  0  0  0  0  0  0  0  0  0
  147.5043  136.9967  156.3785 H   0  0  0  0  0  0  0  0  0  0  0  0
  148.1046  134.2407  158.1350 H   0  0  0  0  0  0  0  0  0  0  0  0
  147.7558  135.2962  156.8005 H   0  0  0  0  0  0  0  0  0  0  0  0
  149.5796  134.3623  155.7943 H   0  0  0  0  0  0  0  0  0  0  0  0
  150.5342  135.4253  156.8226 H   0  0  0  0  0  0  0  0  0  0  0  0
  151.5847  131.8796  157.2412 H   0  0  0  0  0  0  0  0  0  0  0  0
  152.0582  133.3325  156.3603 H   0  0  0  0  0  0  0  0  0  0  0  0
  150.6881  132.3575  155.7992 H   0  0  0  0  0  0  0  0  0  0  0  0
  147.2598  134.3371  159.4762 H   0  0  0  0  0  0  0  0  0  0  0  0
  145.7226  136.6854  160.3666 H   0  0  0  0  0  0  0  0  0  0  0  0
  145.1230  135.1020  159.9302 H   0  0  0  0  0  0  0  0  0  0  0  0
  145.0362  136.0515  162.5265 H   0  0  0  0  0  0  0  0  0  0  0  0
  145.1737  134.3404  162.1361 H   0  0  0  0  0  0  0  0  0  0  0  0
  147.4301  136.2439  162.8338 H   0  0  0  0  0  0  0  0  0  0  0  0
  147.1083  134.6598  163.5379 H   0  0  0  0  0  0  0  0  0  0  0  0
  147.7768  133.5325  161.5124 H   0  0  0  0  0  0  0  0  0  0  0  0
  148.9599  134.8192  161.6108 H   0  0  0  0  0  0  0  0  0  0  0  0
  1  2  1  0  0  0  0
  1 26  1  0  0  0  0
  1 27  1  0  0  0  0
  1 28  1  0  0  0  0
  2  3  1  0  0  0  0
  2 29  1  0  0  0  0
  2 30  1  0  0  0  0
  3  4  1  0  0  0  0
  3 31  1  0  0  0  0
  3 32  1  0  0  0  0
  4 23  1  0  0  0  0
  4  5  1  0  0  0  0
  5  6  1  0  0  0  0
  5  7  2  0  0  0  0
  6 33  1  0  0  0  0
  6 34  1  0  0  0  0
  7  8  1  0  0  0  0
  7 20  1  0  0  0  0
  8  9  1  0  0  0  0
  8 13  1  0  0  0  0
  9 10  1  0  0  0  0
  9 35  1  0  0  0  0
  9 36  1  0  0  0  0
 10 11  1  0  0  0  0
 10 37  1  0  0  0  0
 10 38  1  0  0  0  0
 11 12  1  0  0  0  0
 12 39  1  0  0  0  0
 12 40  1  0  0  0  0
 12 41  1  0  0  0  0
 13 14  2  0  0  0  0
 13 15  1  0  0  0  0
 15 19  1  0  0  0  0
 15 16  1  0  0  0  0
 15 42  1  0  0  0  0
 16 17  1  0  0  0  0
 16 43  1  0  0  0  0
 16 44  1  0  0  0  0
 17 18  1  0  0  0  0
 17 45  1  0  0  0  0
 17 46  1  0  0  0  0
 18 19  1  0  0  0  0
 18 47  1  0  0  0  0
 18 48  1  0  0  0  0
 19 49  1  0  0  0  0
 19 50  1  0  0  0  0
 20 21  2  0  0  0  0
 20 22  1  0  0  0  0
 22 25  1  0  0  0  0
 22 23  1  0  0  0  0
 23 24  2  0  0  0  0
M  END
> <s_m_source_file>
AV-unprocessed.smi

> <i_m_source_file_index>
588

> <i_lp_mmshare_version>
43012

> <i_f3d_flags>
0

> <s_epik_input>
W0NIM11bQ0gyXVtDSDJdbjFjKFtOSDJdKWMoYyg9TylbbkhdYzE9TylOKFtDSDJdW0NIMl1PW0NIM10pQyg9TylbQ0hdMltDSDJdW0NIMl1bQ0gyXVtDSDJdMg==

> <s_epik_cmdline>
J2VwaWtfcHl0aG9uJywgJy1waCcsICc3LjAnLCAnLXRuJywgJzgnLCAnLW1hJywgJzIwMCcsICctbWV0YWxfYmluZGluZycsICctaW1hZScsICc8aW5maWxlLm1hZT4nLCAnLW9tYWUnLCAnPG91dGZpbGUubWFlPic=

> <r_lp_tautomer_probability>
1

> <r_epik_Ionization_Penalty>
2.06963e-05

> <r_epik_Ionization_Penalty_Charging>
5.41733e-06

> <r_epik_Ionization_Penalty_Neutral>
1.52789e-05

> <r_epik_State_Penalty>
-0

> <r_epik_Charging_Adjusted_Penalty>
5.41733e-06

> <i_epik_Tot_Q>
0

> <i_epik_Tot_abs_Q>
0

> <r_epik_Metal_State_Penalty>
-0

> <b_epik_Metal_Only>
0

> <s_epik_Chemistry_Notes>
This compound has an imine and may undergo hydrolysis.

> <s_lp_Force_Field>
OPLS_2005

> <r_lp_Energy>
42.8074

> <b_lp_Chiralities_Consistent>
1

> <s_lp_Variant>
AV-unprocessed.smi:588-1

> <Gold.Version>
5.8.1

> <Gold.Id.Protein>
6NUR|6NUR_protein|mol2

> <Gold.PLP.Fitness>
39.7553

> <Gold.PLP.PLP>
-29.6756

> <Gold.PLP.part.hbond>
-5.0000

> <Gold.PLP.part.metal>
0.0000

> <Gold.PLP.part.buried>
-4.3109

> <Gold.PLP.part.nonpolar>
-21.2451

> <Gold.PLP.part.repulsive>
0.0601

> <Gold.PLP.ligand.clash>
0.0160

> <Gold.PLP.ligand.torsion>
2.2744

> <Gold.PLP.Chemscore.Hbond>
4.1211

> <Gold.PLP.Chemscore.CHOScore>
0.0000

> <Gold.PLP.Chemscore.Metal>
0.0000

> <Gold.Chemscore.Hbonds>
donor molecule, donor type, donor heavy atom, donor atom, acceptor molecule, acceptor atom, score
      P1  H  6896  6908       L1    11  1.00
      P1  H  6896  6909       L1    21  1.00
      P1  H  6931  6943       L1    14  0.61
      P1  H  6934  6947       L1    14  0.55
      P1  H  7997  8009       L1    24  1.00

> <Gold.PLP.Chemscore.Internal.Correction>
2.2813

> <Gold.Rescore>
     Score         DG    S(hbond)    S(metal)    S(lipo)     H(rot)  DE(clash)    DE(int)     intcor
     17.57     -20.74       3.99        0.00      61.80       2.07       0.00       3.17       ----

> <Gold.Chemscore.Fitness>
17.5689

> <Gold.Chemscore.DG>
-20.7355

> <Gold.Chemscore.ZeroCoef>
-5.4800

> <Gold.Chemscore.Hbond>
3.9867

> <Gold.Chemscore.Metal>
0.0000

> <Gold.Chemscore.Lipo>
61.7980

> <Gold.Chemscore.Internal_Hbond>
0.0000

> <Gold.Chemscore.DEClash>
0.0009

> <Gold.Chemscore.DEInternal>
3.1656

> <Gold.Chemscore.Rot>
2.0666

> <Gold.Chemscore.Internal.Correction>
   9.000000E+99

> <Gold.Chemscore.Hbonds>
donor molecule, donor type, donor heavy atom, donor atom, acceptor molecule, acceptor atom, score
      P1  H  6896  6908       L1    11  0.80
      P1  H  6896  6909       L1    21  1.00
      P1  H  6931  6943       L1    14  0.61
      P1  H  6934  6947       L1    14  0.53
      P1  H  7997  8009       L1    24  0.95

> <Gold.Chemscore.Hbond.Weighted>
-13.3156

> <Gold.Chemscore.Metal.Weighted>
-0.0000

> <Gold.Chemscore.Lipo.Weighted>
-7.2304

> <Gold.Chemscore.Internal_Hbond.Weighted>
0.0000

> <Gold.Chemscore.DEClash.Weighted>
0.0009

> <Gold.Chemscore.DEInternal.Weighted>
3.1656

> <Gold.Chemscore.Rot.Weighted>
5.2905

> <Gold.Chemscore.Internal.Correction.Weighted>
   9.000000E+99

> <Gold.Protein.RotatedTorsions>
[ 6907 6896 6895 6894 ] final  108.93 input  -60.11 | X-H torsion
[ 7974 7965 7964 7962 ] final  121.42 input  175.53 | X-H torsion
[ 8008 7997 7996 7995 ] final -163.38 input   59.86 | X-H torsion
[ 10167 10162 10161 10158 ] final  141.59 input  -65.29 | X-H torsion
[ 10718 10713 10712 10709 ] final  -58.20 input   66.30 | X-H torsion
[ 10763 10752 10751 10750 ] final  175.07 input  -60.55 | X-H torsion
[ 11005 11000 10999 10996 ] final  -28.08 input  -57.11 | X-H torsion

> <Gold.Protein.ActiveResidues>
 VAL166  LYS551  ARG553  GLY616  TRP617  ASP618  TYR619  PRO620  LYS621  CYS622 
 ASP623  PHE694  ASN695  SER759  ASP760  ASP761  ALA762  ILE779  LEU786  VAL792 
 PHE793  MET794  SER795  GLU796  ALA797  LYS798  CYS799  TRP800  GLU811  SER814 

> <Gold.Protein.RotatedAtoms>
  152.5090  133.9018  159.7444 H   0  0  0  0  0  0  0  0  0  0  0  0  # atno 6907 bound_to 6896
  150.9432  133.6624  159.2793 H   0  0  0  0  0  0  0  0  0  0  0  0  # atno 6908 bound_to 6896
  151.3928  135.0963  159.9584 H   0  0  0  0  0  0  0  0  0  0  0  0  # atno 6909 bound_to 6896
  145.1196  139.3398  143.4721 H   0  0  0  0  0  0  0  0  0  0  0  0  # atno 7974 bound_to 7965
  155.8204  140.0919  157.1852 H   0  0  0  0  0  0  0  0  0  0  0  0  # atno 8008 bound_to 7997
  154.3979  140.1438  156.3554 H   0  0  0  0  0  0  0  0  0  0  0  0  # atno 8009 bound_to 7997
  155.8272  140.3444  155.5552 H   0  0  0  0  0  0  0  0  0  0  0  0  # atno 8010 bound_to 7997
  139.5016  144.6162  151.6159 H   0  0  0  0  0  0  0  0  0  0  0  0  # atno 10167 bound_to 10162
  156.1153  130.4171  150.0544 H   0  0  0  0  0  0  0  0  0  0  0  0  # atno 10718 bound_to 10713
  154.4626  135.2768  155.1701 H   0  0  0  0  0  0  0  0  0  0  0  0  # atno 10763 bound_to 10752
  154.3483  135.6155  153.5633 H   0  0  0  0  0  0  0  0  0  0  0  0  # atno 10764 bound_to 10752
  152.9856  135.5805  154.4992 H   0  0  0  0  0  0  0  0  0  0  0  0  # atno 10765 bound_to 10752
  140.9176  133.7420  156.0757 H   0  0  0  0  0  0  0  0  0  0  0  0  # atno 11005 bound_to 11000
  146.3522  140.1149  142.8602 LP  0  0  0  0  0  0  0  0  0  0  0  0  # atno 17320 bound_to 7965
  145.0755  140.9185  143.4856 LP  0  0  0  0  0  0  0  0  0  0  0  0  # atno 17321 bound_to 7965
  140.5850  143.9879  150.6290 LP  0  0  0  0  0  0  0  0  0  0  0  0  # atno 17342 bound_to 10162
  140.3041  143.3241  152.0943 LP  0  0  0  0  0  0  0  0  0  0  0  0  # atno 17343 bound_to 10162
  156.8497  130.9454  151.3626 LP  0  0  0  0  0  0  0  0  0  0  0  0  # atno 17370 bound_to 10713
  157.6336  130.8749  149.9318 LP  0  0  0  0  0  0  0  0  0  0  0  0  # atno 17371 bound_to 10713
  140.8029  134.3488  157.5434 LP  0  0  0  0  0  0  0  0  0  0  0  0  # atno 17394 bound_to 11000
  139.8769  134.9208  156.3261 LP  0  0  0  0  0  0  0  0  0  0  0  0  # atno 17395 bound_to 11000

$$$$
