AV-unprocessed.smi:560|AV-procd|sdf|2934|dock7
  -GOLD-   2262023433D 1   1.00000     0.00000
 Structure written by MMmdl.
 41 42  0  0  0  0  0  0  0  0  3 V2000
  152.3604  140.0759  158.5627 C   0  0  0  0  0  0  0  0  0  0  0  0
  151.2716  141.0370  158.0437 C   0  0  2  0  0  0  0  0  0  0  0  0
  150.9808  140.8581  156.5447 C   0  0  0  0  0  0  0  0  0  0  0  0
  150.6837  141.8226  155.8391 O   0  0  0  0  0  0  0  0  0  0  0  0
  151.0778  139.6064  156.0686 N   0  0  0  0  0  0  0  0  0  0  0  0
  150.8350  139.2042  154.6843 C   0  0  2  0  0  0  0  0  0  0  0  0
  149.3280  139.0219  154.4358 C   0  0  0  0  0  0  0  0  0  0  0  0
  148.7725  137.7719  155.1427 C   0  0  0  0  0  0  0  0  0  0  0  0
  149.5228  136.5513  154.7527 N   0  3  2  0  0  0  0  0  0  0  0  0
  148.9216  135.3182  155.3190 C   0  0  0  0  0  0  0  0  0  0  0  0
  149.5306  134.0787  154.6550 C   0  0  0  0  0  0  0  0  0  0  0  0
  149.0153  133.8424  153.4333 N   0  5  0  0  0  0  0  0  0  0  0  0
  150.3795  133.4237  155.2568 O   0  0  0  0  0  0  0  0  0  0  0  0
  150.9759  136.6817  155.0449 C   0  0  0  0  0  0  0  0  0  0  0  0
  151.5788  137.9023  154.3280 C   0  0  0  0  0  0  0  0  0  0  0  0
  151.5840  142.4303  158.3416 N   0  0  0  0  0  0  0  0  0  0  0  0
  150.8546  143.5538  158.0081 C   0  0  0  0  0  0  0  0  0  0  0  0
  151.5433  144.6412  158.4637 C   0  0  0  0  0  0  0  0  0  0  0  0
  152.7042  144.0789  159.0635 C   0  0  0  0  0  0  0  0  0  0  0  0
  152.7301  142.7589  158.9823 N   0  0  0  0  0  0  0  0  0  0  0  0
  152.0854  139.0360  158.3834 H   0  0  0  0  0  0  0  0  0  0  0  0
  152.5020  140.1945  159.6372 H   0  0  0  0  0  0  0  0  0  0  0  0
  153.3241  140.2498  158.0825 H   0  0  0  0  0  0  0  0  0  0  0  0
  150.3510  140.7942  158.5768 H   0  0  0  0  0  0  0  0  0  0  0  0
  151.3244  138.8753  156.7197 H   0  0  0  0  0  0  0  0  0  0  0  0
  151.1909  140.0048  154.0334 H   0  0  0  0  0  0  0  0  0  0  0  0
  148.7810  139.9094  154.7571 H   0  0  0  0  0  0  0  0  0  0  0  0
  149.1518  138.9301  153.3630 H   0  0  0  0  0  0  0  0  0  0  0  0
  148.8162  137.8955  156.2260 H   0  0  0  0  0  0  0  0  0  0  0  0
  147.7203  137.6545  154.8810 H   0  0  0  0  0  0  0  0  0  0  0  0
  149.0224  135.3101  156.4067 H   0  0  0  0  0  0  0  0  0  0  0  0
  147.8518  135.2938  155.1071 H   0  0  0  0  0  0  0  0  0  0  0  0
  148.6726  134.6337  152.8756 H   0  0  0  0  0  0  0  0  0  0  0  0
  151.1278  136.7624  156.1224 H   0  0  0  0  0  0  0  0  0  0  0  0
  151.5079  135.7865  154.7220 H   0  0  0  0  0  0  0  0  0  0  0  0
  151.5236  137.7433  153.2502 H   0  0  0  0  0  0  0  0  0  0  0  0
  152.6402  137.9875  154.5634 H   0  0  0  0  0  0  0  0  0  0  0  0
  149.9149  143.4870  157.4802 H   0  0  0  0  0  0  0  0  0  0  0  0
  151.2623  145.6806  158.3798 H   0  0  0  0  0  0  0  0  0  0  0  0
  153.5245  144.5872  159.5485 H   0  0  0  0  0  0  0  0  0  0  0  0
  149.4304  136.4662  153.7502 H   0  0  0  0  0  0  0  0  0  0  0  0
  1  2  1  0  0  0  0
  1 21  1  0  0  0  0
  1 22  1  0  0  0  0
  1 23  1  0  0  0  0
  2  3  1  0  0  0  0
  2 16  1  0  0  0  0
  2 24  1  0  0  0  0
  3  4  2  0  0  0  0
  3  5  1  0  0  0  0
  5  6  1  0  0  0  0
  5 25  1  0  0  0  0
  6 15  1  0  0  0  0
  6  7  1  0  0  0  0
  6 26  1  0  0  0  0
  7  8  1  0  0  0  0
  7 27  1  0  0  0  0
  7 28  1  0  0  0  0
  8  9  1  0  0  0  0
  8 29  1  0  0  0  0
  8 30  1  0  0  0  0
  9 10  1  0  0  0  0
  9 14  1  0  0  0  0
  9 41  1  0  0  0  0
 10 11  1  0  0  0  0
 10 31  1  0  0  0  0
 10 32  1  0  0  0  0
 11 12  1  0  0  0  0
 11 13  2  0  0  0  0
 12 33  1  0  0  0  0
 14 15  1  0  0  0  0
 14 34  1  0  0  0  0
 14 35  1  0  0  0  0
 15 36  1  0  0  0  0
 15 37  1  0  0  0  0
 16 20  1  0  0  0  0
 16 17  1  0  0  0  0
 17 18  2  0  0  0  0
 17 38  1  0  0  0  0
 18 19  1  0  0  0  0
 18 39  1  0  0  0  0
 19 20  2  0  0  0  0
 19 40  1  0  0  0  0
M  CHG  1   9   1
M  CHG  1  12  -1
M  END
> <s_m_source_file>
AV-unprocessed.smi

> <i_m_source_file_index>
560

> <i_lp_mmshare_version>
43012

> <i_f3d_flags>
0

> <s_epik_input>
bjFbY0hdW2NIXVtjSF1uMVtDQEhdKFtDSDNdKUMoPU8pW05IXVtDSF0yW0NIMl1bQ0gyXU4oW0NIMl1bQ0gyXTIpW0NIMl1DKD1PKVtOSDJd

> <s_epik_cmdline>
J2VwaWtfcHl0aG9uJywgJy1waCcsICc3LjAnLCAnLXRuJywgJzgnLCAnLW1hJywgJzIwMCcsICctbWV0YWxfYmluZGluZycsICctaW1hZScsICc8aW5maWxlLm1hZT4nLCAnLW9tYWUnLCAnPG91dGZpbGUubWFlPic=

> <r_lp_tautomer_probability>
1

> <r_epik_Ionization_Penalty>
5.71084

> <r_epik_Ionization_Penalty_Charging>
5.71081

> <r_epik_Ionization_Penalty_Neutral>
3.04611e-05

> <r_epik_State_Penalty>
6.71277

> <r_epik_Charging_Adjusted_Penalty>
12.4236

> <i_epik_Tot_Q>
0

> <i_epik_Tot_abs_Q>
2

> <r_epik_Metal_State_Penalty>
2.67562

> <b_epik_Metal_Only>
1

> <s_lp_Force_Field>
OPLS_2005

> <r_lp_Energy>
9.92131

> <b_lp_Chiralities_Consistent>
1

> <s_lp_Variant>
AV-unprocessed.smi:560-9

> <Gold.Version>
5.8.1

> <Gold.Id.Protein>
6NUR|6NUR_protein|mol2

> <Gold.PLP.Fitness>
45.6987

> <Gold.PLP.PLP>
-36.1275

> <Gold.PLP.part.hbond>
-2.3581

> <Gold.PLP.part.metal>
0.0000

> <Gold.PLP.part.buried>
-3.8170

> <Gold.PLP.part.nonpolar>
-30.1910

> <Gold.PLP.part.repulsive>
0.2328

> <Gold.PLP.ligand.clash>
0.0000

> <Gold.PLP.ligand.torsion>
1.2868

> <Gold.PLP.Chemscore.Hbond>
3.0000

> <Gold.PLP.Chemscore.CHOScore>
1.0000

> <Gold.PLP.Chemscore.Metal>
0.0000

> <Gold.Chemscore.Hbonds>
donor molecule, donor type, donor heavy atom, donor atom, acceptor molecule, acceptor atom, score
      L1  H     9    41       P1  7948  2.00
      L1  H    12    33       P1  7948  0.85
      L1  C    17    38       P1  8028  1.00

> <Gold.PLP.Chemscore.Internal.Correction>
0.1448

> <Gold.Rescore>
     Score         DG    S(hbond)    S(metal)    S(lipo)     H(rot)  DE(clash)    DE(int)     intcor
     12.06     -14.75       1.83        0.00      81.12       2.47       0.16       2.53       ----

> <Gold.Chemscore.Fitness>
12.0619

> <Gold.Chemscore.DG>
-14.7546

> <Gold.Chemscore.ZeroCoef>
-5.4800

> <Gold.Chemscore.Hbond>
1.8308

> <Gold.Chemscore.Metal>
0.0000

> <Gold.Chemscore.Lipo>
81.1233

> <Gold.Chemscore.Internal_Hbond>
0.0000

> <Gold.Chemscore.DEClash>
0.1624

> <Gold.Chemscore.DEInternal>
2.5302

> <Gold.Chemscore.Rot>
2.4734

> <Gold.Chemscore.Internal.Correction>
   9.000000E+99

> <Gold.Chemscore.Hbonds>
donor molecule, donor type, donor heavy atom, donor atom, acceptor molecule, acceptor atom, score
      L1  H     9    41       P1  7948  0.82
      L1  H    12    33       P1  7948  0.14

> <Gold.Chemscore.Hbond.Weighted>
-6.1149

> <Gold.Chemscore.Metal.Weighted>
-0.0000

> <Gold.Chemscore.Lipo.Weighted>
-9.4914

> <Gold.Chemscore.Internal_Hbond.Weighted>
0.0000

> <Gold.Chemscore.DEClash.Weighted>
0.1624

> <Gold.Chemscore.DEInternal.Weighted>
2.5302

> <Gold.Chemscore.Rot.Weighted>
6.3318

> <Gold.Chemscore.Internal.Correction.Weighted>
   9.000000E+99

> <Gold.Protein.RotatedTorsions>
[ 6907 6896 6895 6894 ] final  -96.84 input  -60.11 | X-H torsion
[ 7974 7965 7964 7962 ] final   54.10 input  175.53 | X-H torsion
[ 8008 7997 7996 7995 ] final  179.51 input   59.86 | X-H torsion
[ 10167 10162 10161 10158 ] final  -85.81 input  -65.29 | X-H torsion
[ 10718 10713 10712 10709 ] final  -27.42 input   66.30 | X-H torsion
[ 10763 10752 10751 10750 ] final  127.16 input  -60.55 | X-H torsion
[ 11005 11000 10999 10996 ] final -102.07 input  -57.11 | X-H torsion

> <Gold.Protein.ActiveResidues>
 VAL166  LYS551  ARG553  GLY616  TRP617  ASP618  TYR619  PRO620  LYS621  CYS622 
 ASP623  PHE694  ASN695  SER759  ASP760  ASP761  ALA762  ILE779  LEU786  VAL792 
 PHE793  MET794  SER795  GLU796  ALA797  LYS798  CYS799  TRP800  GLU811  SER814 

> <Gold.Protein.RotatedAtoms>
  150.6999  134.1441  159.4115 H   0  0  0  0  0  0  0  0  0  0  0  0  # atno 6907 bound_to 6896
  151.9425  135.0204  160.0546 H   0  0  0  0  0  0  0  0  0  0  0  0  # atno 6908 bound_to 6896
  152.2081  133.4856  159.5132 H   0  0  0  0  0  0  0  0  0  0  0  0  # atno 6909 bound_to 6896
  145.9644  139.4089  143.0228 H   0  0  0  0  0  0  0  0  0  0  0  0  # atno 7974 bound_to 7965
  156.0425  140.1307  157.0140 H   0  0  0  0  0  0  0  0  0  0  0  0  # atno 8008 bound_to 7997
  154.4397  140.1027  156.6329 H   0  0  0  0  0  0  0  0  0  0  0  0  # atno 8009 bound_to 7997
  155.5645  140.3465  155.4502 H   0  0  0  0  0  0  0  0  0  0  0  0  # atno 8010 bound_to 7997
  140.4002  143.2666  151.9152 H   0  0  0  0  0  0  0  0  0  0  0  0  # atno 10167 bound_to 10162
  156.4384  130.4459  149.7070 H   0  0  0  0  0  0  0  0  0  0  0  0  # atno 10718 bound_to 10713
  153.7050  135.3277  155.3233 H   0  0  0  0  0  0  0  0  0  0  0  0  # atno 10763 bound_to 10752
  154.8402  135.4463  154.1372 H   0  0  0  0  0  0  0  0  0  0  0  0  # atno 10764 bound_to 10752
  153.2450  135.6975  153.7820 H   0  0  0  0  0  0  0  0  0  0  0  0  # atno 10765 bound_to 10752
  141.1204  133.8529  157.1313 H   0  0  0  0  0  0  0  0  0  0  0  0  # atno 11005 bound_to 11000
  145.7995  140.9777  143.1006 LP  0  0  0  0  0  0  0  0  0  0  0  0  # atno 17320 bound_to 7965
  144.6822  139.9783  143.7483 LP  0  0  0  0  0  0  0  0  0  0  0  0  # atno 17321 bound_to 7965
  139.4785  144.5641  151.8193 LP  0  0  0  0  0  0  0  0  0  0  0  0  # atno 17342 bound_to 10162
  140.4748  144.1535  150.5923 LP  0  0  0  0  0  0  0  0  0  0  0  0  # atno 17343 bound_to 10162
  156.3944  130.7643  151.2647 LP  0  0  0  0  0  0  0  0  0  0  0  0  # atno 17370 bound_to 10713
  157.7507  131.0258  150.3935 LP  0  0  0  0  0  0  0  0  0  0  0  0  # atno 17371 bound_to 10713
  140.0158  134.9968  157.0489 LP  0  0  0  0  0  0  0  0  0  0  0  0  # atno 17394 bound_to 11000
  140.4523  134.1570  155.7183 LP  0  0  0  0  0  0  0  0  0  0  0  0  # atno 17395 bound_to 11000

$$$$
