#       Name:                AV-unprocessed.smi:456
#       Creating user name   scv26
#       Creation time:       Thu Mar 26 23:01:40 2020


#       File generated by GOLD software.
#

@<TRIPOS>MOLECULE
AV-unprocessed.smi:456
    35    37     1
SMALL
NO_CHARGES


@<TRIPOS>ATOM
      1 ****        -1.6722   2.9562   1.4279 O.3            1 S1                 0.0000
      2 ****        -1.1795   1.6364   1.3200 C.3            1 S1                 0.0000
      3 ****         0.3478   1.6726   1.5267 C.3            1 S1                 0.0000
      4 ****         0.9210   0.3413   1.6142 N.pl3          1 S1                 0.0000
      5 ****         0.9940  -0.4379   2.7102 C.2            1 S1                 0.0000
      6 ****         1.5483  -1.6384   2.5686 N.2            1 S1                 0.0000
      7 ****         1.8750  -1.6388   1.2233 C.ar           1 S1                 0.0000
      8 ****         2.4923  -2.6321   0.4299 C.ar           1 S1                 0.0000
      9 ****         2.7244  -2.4085  -0.9432 C.ar           1 S1                 0.0000
     10 ****         3.3159  -3.3717  -1.6891 F              1 S1                 0.0000
     11 ****         2.3443  -1.1893  -1.5426 C.ar           1 S1                 0.0000
     12 ****         2.5689  -0.9829  -2.8619 F              1 S1                 0.0000
     13 ****         1.7303  -0.1841  -0.7717 C.ar           1 S1                 0.0000
     14 ****         1.4988  -0.4123   0.5975 C.ar           1 S1                 0.0000
     15 ****        -1.5694   0.9822   0.0013 C.ar           1 S1                 0.0000
     16 ****        -2.0523  -0.3444  -0.0111 C.ar           1 S1                 0.0000
     17 ****        -2.3853  -0.9677  -1.2292 C.ar           1 S1                 0.0000
     18 ****        -2.2389  -0.2679  -2.4421 C.ar           1 S1                 0.0000
     19 ****        -1.7593   1.0558  -2.4364 C.ar           1 S1                 0.0000
     20 ****        -1.4249   1.6793  -1.2187 C.ar           1 S1                 0.0000
     21 ****        -2.6163   2.9267   1.3961 H              1 S1                 0.0000
     22 ****        -1.6328   1.0718   2.1361 H              1 S1                 0.0000
     23 ****         0.8383   2.2181   0.7193 H              1 S1                 0.0000
     24 ****         0.5892   2.2013   2.4500 H              1 S1                 0.0000
     25 ****         0.6135  -0.1062   3.6654 H              1 S1                 0.0000
     26 ****         2.7873  -3.5693   0.8776 H              1 S1                 0.0000
     27 ****         1.4358   0.7484  -1.2294 H              1 S1                 0.0000
     28 ****        -2.1589  -0.8926   0.9135 H              1 S1                 0.0000
     29 ****        -2.7500  -1.9843  -1.2335 H              1 S1                 0.0000
     30 ****        -2.4925  -0.7468  -3.3764 H              1 S1                 0.0000
     31 ****        -1.6441   1.5922  -3.3667 H              1 S1                 0.0000
     32 ****        -1.0473   2.6913  -1.2253 H              1 S1                 0.0000
     33 ****        -1.3261   3.5087   0.6696 LP             1 S1                 0.0000
     34 ****        -1.3761   3.3572   2.2948 LP             1 S1                 0.0000
     35 ****         1.6914  -2.3527   3.2536 LP             1 S1                 0.0000
@<TRIPOS>BOND
    1    1    2 1     
    2    1   21 1     
    3    2    3 1     
    4    2   15 1     
    5    2   22 1     
    6    3    4 1     
    7    3   23 1     
    8    3   24 1     
    9    4   14 1     
   10    4    5 1     
   11    5    6 2     
   12    5   25 1     
   13    6    7 1     
   14    7   14 ar    
   15    7    8 ar    
   16    8    9 ar    
   17    8   26 1     
   18    9   10 1     
   19    9   11 ar    
   20   11   12 1     
   21   11   13 ar    
   22   13   14 ar    
   23   13   27 1     
   24   15   20 ar    
   25   15   16 ar    
   26   16   17 ar    
   27   16   28 1     
   28   17   18 ar    
   29   17   29 1     
   30   18   19 ar    
   31   18   30 1     
   32   19   20 ar    
   33   19   31 1     
   34   20   32 1     
   35    1   33 1     
   36    1   34 1     
   37    6   35 1     
@<TRIPOS>SUBSTRUCTURE
      1 S1             1
@<TRIPOS>SET
LONE_PAIRS      STATIC     ATOMS    <user>   **** ""
3 33 34 35
DONOR_HYDROGENS      STATIC     ATOMS    <user>   **** ""
1 21
ATOM$BLUE        STATIC     ATOMS    COLORGROUP SYSTEM
3 33 34 35
ATOM$RED        STATIC     ATOMS    COLORGROUP SYSTEM
1 21
