AV-unprocessed.smi:79|AV-procd|sdf|783|dock4
  -GOLD-   2262017143D 1   1.00000     0.00000
 Structure written by MMmdl.
 56 59  0  0  0  0  0  0  0  0  2 V2000
  151.4759  145.1321  160.2710 C   0  0  0  0  0  0  0  0  0  0  0  0
  151.2356  143.8225  159.5053 C   0  0  2  0  0  0  0  0  0  0  0  0
  152.3288  142.9625  159.7469 O   0  0  0  0  0  0  0  0  0  0  0  0
  151.1058  144.0274  157.9823 C   0  0  0  0  0  0  0  0  0  0  0  0
  150.3234  142.9519  157.3211 N   0  3  1  0  0  0  0  0  0  0  0  0
  151.1840  141.8383  156.8459 C   0  0  0  0  0  0  0  0  0  0  0  0
  150.3639  140.7960  156.0673 C   0  0  0  0  0  0  0  0  0  0  0  0
  149.2299  140.3338  156.8643 N   0  0  0  0  0  0  0  0  0  0  0  0
  149.4665  139.2296  157.6203 C   0  0  0  0  0  0  0  0  0  0  0  0
  150.7420  138.8794  157.9356 N   0  0  0  0  0  0  0  0  0  0  0  0
  150.9820  137.7891  158.6698 C   0  0  0  0  0  0  0  0  0  0  0  0
  150.1089  136.9214  159.1838 N   0  0  0  0  0  0  0  0  0  0  0  0
  148.8268  137.2681  158.8752 C   0  0  0  0  0  0  0  0  0  0  0  0
  148.4210  138.3948  158.1059 C   0  0  0  0  0  0  0  0  0  0  0  0
  147.0350  138.4278  158.0116 N   0  0  0  0  0  0  0  0  0  0  0  0
  146.6442  137.3776  158.6808 C   0  0  0  0  0  0  0  0  0  0  0  0
  147.6555  136.6183  159.2253 N   0  0  0  0  0  0  0  0  0  0  0  0
  147.5070  135.4061  160.0165 C   0  0  0  0  0  0  0  0  0  0  0  0
  146.8791  135.6405  161.4032 C   0  0  0  0  0  0  0  0  0  0  0  0
  146.6450  134.2718  162.0741 C   0  0  0  0  0  0  0  0  0  0  0  0
  145.8607  133.4057  161.2783 O   0  0  0  0  0  0  0  0  0  0  0  0
  147.5797  136.7056  162.2589 C   0  0  0  0  0  0  0  0  0  0  0  0
  146.3499  137.4346  162.4667 O   0  0  0  0  0  0  0  0  0  0  0  0
  145.7039  136.6274  161.4577 C   0  0  0  0  0  0  0  0  0  0  0  0
  148.3568  141.3882  157.3911 C   0  0  2  0  0  0  0  0  0  0  0  0
  147.4922  142.0076  156.2797 C   0  0  0  0  0  0  0  0  0  0  0  0
  149.1810  142.4610  158.1397 C   0  0  0  0  0  0  0  0  0  0  0  0
  150.6381  145.8195  160.1513 H   0  0  0  0  0  0  0  0  0  0  0  0
  152.3755  145.6400  159.9212 H   0  0  0  0  0  0  0  0  0  0  0  0
  151.5929  144.9457  161.3392 H   0  0  0  0  0  0  0  0  0  0  0  0
  150.3513  143.3265  159.9039 H   0  0  0  0  0  0  0  0  0  0  0  0
  152.3293  142.2775  159.0954 H   0  0  0  0  0  0  0  0  0  0  0  0
  150.6228  144.9899  157.8058 H   0  0  0  0  0  0  0  0  0  0  0  0
  152.0909  144.0923  157.5168 H   0  0  0  0  0  0  0  0  0  0  0  0
  151.9739  142.2263  156.2020 H   0  0  0  0  0  0  0  0  0  0  0  0
  151.6720  141.3684  157.7015 H   0  0  0  0  0  0  0  0  0  0  0  0
  149.9892  141.2304  155.1403 H   0  0  0  0  0  0  0  0  0  0  0  0
  151.0132  139.9723  155.7716 H   0  0  0  0  0  0  0  0  0  0  0  0
  152.0220  137.5818  158.8749 H   0  0  0  0  0  0  0  0  0  0  0  0
  145.5993  137.1294  158.7969 H   0  0  0  0  0  0  0  0  0  0  0  0
  146.9167  134.6894  159.4440 H   0  0  0  0  0  0  0  0  0  0  0  0
  148.4960  134.9570  160.1163 H   0  0  0  0  0  0  0  0  0  0  0  0
  147.5881  133.7615  162.2681 H   0  0  0  0  0  0  0  0  0  0  0  0
  146.1454  134.3917  163.0360 H   0  0  0  0  0  0  0  0  0  0  0  0
  146.4173  132.7208  160.9405 H   0  0  0  0  0  0  0  0  0  0  0  0
  148.0072  136.3291  163.1888 H   0  0  0  0  0  0  0  0  0  0  0  0
  148.3133  137.3012  161.7135 H   0  0  0  0  0  0  0  0  0  0  0  0
  145.5497  137.1904  160.5367 H   0  0  0  0  0  0  0  0  0  0  0  0
  144.7677  136.1896  161.8059 H   0  0  0  0  0  0  0  0  0  0  0  0
  147.6556  140.9452  158.0999 H   0  0  0  0  0  0  0  0  0  0  0  0
  146.7898  142.7319  156.6929 H   0  0  0  0  0  0  0  0  0  0  0  0
  146.9077  141.2418  155.7689 H   0  0  0  0  0  0  0  0  0  0  0  0
  148.0922  142.5235  155.5301 H   0  0  0  0  0  0  0  0  0  0  0  0
  149.5712  142.0461  159.0698 H   0  0  0  0  0  0  0  0  0  0  0  0
  148.5266  143.2839  158.4244 H   0  0  0  0  0  0  0  0  0  0  0  0
  149.9255  143.3638  156.4892 H   0  0  0  0  0  0  0  0  0  0  0  0
  1  2  1  0  0  0  0
  1 28  1  0  0  0  0
  1 29  1  0  0  0  0
  1 30  1  0  0  0  0
  2  3  1  0  0  0  0
  2  4  1  0  0  0  0
  2 31  1  0  0  0  0
  3 32  1  0  0  0  0
  4  5  1  0  0  0  0
  4 33  1  0  0  0  0
  4 34  1  0  0  0  0
  5 27  1  0  0  0  0
  5  6  1  0  0  0  0
  5 56  1  0  0  0  0
  6  7  1  0  0  0  0
  6 35  1  0  0  0  0
  6 36  1  0  0  0  0
  7  8  1  0  0  0  0
  7 37  1  0  0  0  0
  7 38  1  0  0  0  0
  8  9  1  0  0  0  0
  8 25  1  0  0  0  0
  9 14  1  0  0  0  0
  9 10  2  0  0  0  0
 10 11  1  0  0  0  0
 11 12  2  0  0  0  0
 11 39  1  0  0  0  0
 12 13  1  0  0  0  0
 13 17  1  0  0  0  0
 13 14  2  0  0  0  0
 14 15  1  0  0  0  0
 15 16  2  0  0  0  0
 16 17  1  0  0  0  0
 16 40  1  0  0  0  0
 17 18  1  0  0  0  0
 18 19  1  0  0  0  0
 18 41  1  0  0  0  0
 18 42  1  0  0  0  0
 19 24  1  0  0  0  0
 19 20  1  0  0  0  0
 19 22  1  0  0  0  0
 20 21  1  0  0  0  0
 20 43  1  0  0  0  0
 20 44  1  0  0  0  0
 21 45  1  0  0  0  0
 22 23  1  0  0  0  0
 22 46  1  0  0  0  0
 22 47  1  0  0  0  0
 23 24  1  0  0  0  0
 24 48  1  0  0  0  0
 24 49  1  0  0  0  0
 25 26  1  0  0  0  0
 25 27  1  0  0  0  0
 25 50  1  0  0  0  0
 26 51  1  0  0  0  0
 26 52  1  0  0  0  0
 26 53  1  0  0  0  0
 27 54  1  0  0  0  0
 27 55  1  0  0  0  0
M  CHG  1   5   1
M  END
> <s_m_source_file>
AV-unprocessed.smi

> <i_m_source_file_index>
79

> <i_lp_mmshare_version>
43012

> <i_f3d_flags>
0

> <s_epik_input>
W0NIM11bQ0BIXShbT0hdKVtDSDJdTjFbQ0gyXVtDSDJdTihbQ0BASF0oW0NIM10pW0NIMl0xKWMobltjSF1uMiljKGMyMyluW2NIXW4zW0NIMl1DNChbQ0gyXVtPSF0pW0NIMl1PW0NIMl00

> <s_epik_cmdline>
J2VwaWtfcHl0aG9uJywgJy1waCcsICc3LjAnLCAnLXRuJywgJzgnLCAnLW1hJywgJzIwMCcsICctbWV0YWxfYmluZGluZycsICctaW1hZScsICc8aW5maWxlLm1hZT4nLCAnLW9tYWUnLCAnPG91dGZpbGUubWFlPic=

> <r_lp_tautomer_probability>
1

> <r_epik_Ionization_Penalty>
0.00515943

> <r_epik_Ionization_Penalty_Charging>
0.00509693

> <r_epik_Ionization_Penalty_Neutral>
6.25007e-05

> <r_epik_State_Penalty>
-0

> <r_epik_Charging_Adjusted_Penalty>
0.00509693

> <i_epik_Tot_Q>
1

> <i_epik_Tot_abs_Q>
1

> <r_epik_Metal_State_Penalty>
-0

> <b_epik_Metal_Only>
0

> <s_lp_Force_Field>
OPLS_2005

> <r_lp_Energy>
51.2807

> <b_lp_Chiralities_Consistent>
1

> <s_lp_Variant>
AV-unprocessed.smi:79-7

> <Gold.Version>
5.8.1

> <Gold.Id.Protein>
6NUR|6NUR_protein|mol2

> <Gold.PLP.Fitness>
51.6794

> <Gold.PLP.PLP>
-44.1372

> <Gold.PLP.part.hbond>
-4.4598

> <Gold.PLP.part.metal>
0.0000

> <Gold.PLP.part.buried>
-5.7365

> <Gold.PLP.part.nonpolar>
-34.7855

> <Gold.PLP.part.repulsive>
0.0236

> <Gold.PLP.ligand.clash>
0.0000

> <Gold.PLP.ligand.torsion>
1.1688

> <Gold.PLP.Chemscore.Hbond>
2.9840

> <Gold.PLP.Chemscore.CHOScore>
0.0000

> <Gold.PLP.Chemscore.Metal>
0.0000

> <Gold.Chemscore.Hbonds>
donor molecule, donor type, donor heavy atom, donor atom, acceptor molecule, acceptor atom, score
      L1  H     5    56       P1  8028  1.98
      P1  H  6896  6907       L1    12  0.59
      P1  H  6934  6947       L1    23  0.05

> <Gold.PLP.Chemscore.Internal.Correction>
0.9278

> <Gold.Rescore>
     Score         DG    S(hbond)    S(metal)    S(lipo)     H(rot)  DE(clash)    DE(int)     intcor
     10.75     -14.15       1.92        0.00     100.73       3.72       1.28       2.12       ----

> <Gold.Chemscore.Fitness>
10.7519

> <Gold.Chemscore.DG>
-14.1517

> <Gold.Chemscore.ZeroCoef>
-5.4800

> <Gold.Chemscore.Hbond>
1.9211

> <Gold.Chemscore.Metal>
0.0000

> <Gold.Chemscore.Lipo>
100.7273

> <Gold.Chemscore.Internal_Hbond>
0.0000

> <Gold.Chemscore.DEClash>
1.2833

> <Gold.Chemscore.DEInternal>
2.1165

> <Gold.Chemscore.Rot>
3.7226

> <Gold.Chemscore.Internal.Correction>
   9.000000E+99

> <Gold.Chemscore.Hbonds>
donor molecule, donor type, donor heavy atom, donor atom, acceptor molecule, acceptor atom, score
      L1  H     5    56       P1  8028  0.94
      P1  H  6896  6907       L1    12  0.46

> <Gold.Chemscore.Hbond.Weighted>
-6.4164

> <Gold.Chemscore.Metal.Weighted>
-0.0000

> <Gold.Chemscore.Lipo.Weighted>
-11.7851

> <Gold.Chemscore.Internal_Hbond.Weighted>
0.0000

> <Gold.Chemscore.DEClash.Weighted>
1.2833

> <Gold.Chemscore.DEInternal.Weighted>
2.1165

> <Gold.Chemscore.Rot.Weighted>
9.5298

> <Gold.Chemscore.Internal.Correction.Weighted>
   9.000000E+99

> <Gold.Protein.RotatedTorsions>
[ 6907 6896 6895 6894 ] final  -28.43 input  -60.11 | X-H torsion
[ 7974 7965 7964 7962 ] final  -46.79 input  175.53 | X-H torsion
[ 8008 7997 7996 7995 ] final -110.02 input   59.86 | X-H torsion
[ 10167 10162 10161 10158 ] final   43.76 input  -65.29 | X-H torsion
[ 10718 10713 10712 10709 ] final  123.11 input   66.30 | X-H torsion
[ 10763 10752 10751 10750 ] final  165.84 input  -60.55 | X-H torsion
[ 11005 11000 10999 10996 ] final   50.61 input  -57.11 | X-H torsion

> <Gold.Protein.ActiveResidues>
 VAL166  LYS551  ARG553  GLY616  TRP617  ASP618  TYR619  PRO620  LYS621  CYS622 
 ASP623  PHE694  ASN695  SER759  ASP760  ASP761  ALA762  ILE779  LEU786  VAL792 
 PHE793  MET794  SER795  GLU796  ALA797  LYS798  CYS799  TRP800  GLU811  SER814 

> <Gold.Protein.RotatedAtoms>
  151.1331  135.0140  159.8591 H   0  0  0  0  0  0  0  0  0  0  0  0  # atno 6907 bound_to 6896
  152.5451  134.1587  159.8559 H   0  0  0  0  0  0  0  0  0  0  0  0  # atno 6908 bound_to 6896
  151.1656  133.4772  159.2627 H   0  0  0  0  0  0  0  0  0  0  0  0  # atno 6909 bound_to 6896
  145.9683  140.7410  142.9423 H   0  0  0  0  0  0  0  0  0  0  0  0  # atno 7974 bound_to 7965
  154.9682  140.0398  157.2222 H   0  0  0  0  0  0  0  0  0  0  0  0  # atno 8008 bound_to 7997
  154.7826  140.2821  155.6030 H   0  0  0  0  0  0  0  0  0  0  0  0  # atno 8009 bound_to 7997
  156.2938  140.2589  156.2655 H   0  0  0  0  0  0  0  0  0  0  0  0  # atno 8010 bound_to 7997
  140.3411  144.2468  150.6155 H   0  0  0  0  0  0  0  0  0  0  0  0  # atno 10167 bound_to 10162
  157.5691  131.1084  150.8401 H   0  0  0  0  0  0  0  0  0  0  0  0  # atno 10718 bound_to 10713
  154.3301  135.2755  155.2476 H   0  0  0  0  0  0  0  0  0  0  0  0  # atno 10763 bound_to 10752
  154.4792  135.5863  153.6380 H   0  0  0  0  0  0  0  0  0  0  0  0  # atno 10764 bound_to 10752
  152.9867  135.6107  154.3493 H   0  0  0  0  0  0  0  0  0  0  0  0  # atno 10765 bound_to 10752
  140.1003  134.5090  155.8769 H   0  0  0  0  0  0  0  0  0  0  0  0  # atno 11005 bound_to 11000
  144.6830  140.2705  143.7306 LP  0  0  0  0  0  0  0  0  0  0  0  0  # atno 17320 bound_to 7965
  145.7943  139.1939  143.2085 LP  0  0  0  0  0  0  0  0  0  0  0  0  # atno 17321 bound_to 7965
  140.5308  143.2244  151.8242 LP  0  0  0  0  0  0  0  0  0  0  0  0  # atno 17342 bound_to 10162
  139.4840  144.4723  151.9410 LP  0  0  0  0  0  0  0  0  0  0  0  0  # atno 17343 bound_to 10162
  156.8877  130.5202  149.5287 LP  0  0  0  0  0  0  0  0  0  0  0  0  # atno 17370 bound_to 10713
  156.0737  130.5764  150.9432 LP  0  0  0  0  0  0  0  0  0  0  0  0  # atno 17371 bound_to 10713
  141.2104  133.6694  156.6504 LP  0  0  0  0  0  0  0  0  0  0  0  0  # atno 17394 bound_to 11000
  140.3229  134.7992  157.4267 LP  0  0  0  0  0  0  0  0  0  0  0  0  # atno 17395 bound_to 11000

$$$$
