AV-unprocessed.smi:3008|AV-procd|sdf|11448|dock6
  -GOLD-   2272016383D 1   1.00000     0.00000
 Structure written by MMmdl.
 38 39  0  0  0  0  0  0  0  0  1 V2000
  148.2748  138.6928  152.8502 N   0  0  0  0  0  0  0  0  0  0  0  0
  147.7236  139.4395  153.8106 C   0  0  0  0  0  0  0  0  0  0  0  0
  146.7609  139.0570  154.4724 O   0  0  0  0  0  0  0  0  0  0  0  0
  148.3410  140.8153  154.0652 C   0  0  0  0  0  0  0  0  0  0  0  0
  149.5512  140.7074  154.8593 N   0  0  0  0  0  0  0  0  0  0  0  0
  149.9435  141.4924  155.9258 C   0  0  0  0  0  0  0  0  0  0  0  0
  151.1449  140.9953  156.3324 C   0  0  0  0  0  0  0  0  0  0  0  0
  151.9037  141.5071  157.4146 N   0  0  0  0  0  0  0  0  0  0  0  0
  151.8023  142.7196  157.9934 C   0  0  0  0  0  0  0  0  0  0  0  0
  151.0160  143.5835  157.6017 O   0  0  0  0  0  0  0  0  0  0  0  0
  152.6846  142.9363  159.0067 N   0  0  0  0  0  0  0  0  0  0  0  0
  153.5635  141.8959  159.5854 C   0  0  0  0  0  0  0  0  0  0  0  0
  153.7728  141.9928  161.1122 C   0  0  0  0  0  0  0  0  0  0  0  0
  152.4940  142.2783  161.9213 C   0  0  0  0  0  0  0  0  0  0  0  0
  152.1872  143.7800  162.0529 C   0  0  0  0  0  0  0  0  0  0  0  0
  151.7830  144.4726  160.7415 C   0  0  0  0  0  0  0  0  0  0  0  0
  152.7979  144.2779  159.6003 C   0  0  0  0  0  0  0  0  0  0  0  0
  151.4285  139.9044  155.4623 C   0  0  0  0  0  0  0  0  0  0  0  0
  150.4581  139.7390  154.5758 N   0  0  0  0  0  0  0  0  0  0  0  0
  147.8947  137.7807  152.6430 H   0  0  0  0  0  0  0  0  0  0  0  0
  149.0649  139.0458  152.3295 H   0  0  0  0  0  0  0  0  0  0  0  0
  148.5881  141.2892  153.1144 H   0  0  0  0  0  0  0  0  0  0  0  0
  147.6277  141.4681  154.5717 H   0  0  0  0  0  0  0  0  0  0  0  0
  149.3463  142.3148  156.2916 H   0  0  0  0  0  0  0  0  0  0  0  0
  152.5966  140.8824  157.8005 H   0  0  0  0  0  0  0  0  0  0  0  0
  153.1597  140.8984  159.4083 H   0  0  0  0  0  0  0  0  0  0  0  0
  154.5280  141.9268  159.0771 H   0  0  0  0  0  0  0  0  0  0  0  0
  154.1961  141.0462  161.4502 H   0  0  0  0  0  0  0  0  0  0  0  0
  154.5326  142.7398  161.3449 H   0  0  0  0  0  0  0  0  0  0  0  0
  151.6423  141.7423  161.5003 H   0  0  0  0  0  0  0  0  0  0  0  0
  152.6307  141.8785  162.9267 H   0  0  0  0  0  0  0  0  0  0  0  0
  151.3834  143.9140  162.7775 H   0  0  0  0  0  0  0  0  0  0  0  0
  153.0542  144.2882  162.4771 H   0  0  0  0  0  0  0  0  0  0  0  0
  150.7955  144.1295  160.4299 H   0  0  0  0  0  0  0  0  0  0  0  0
  151.6760  145.5398  160.9384 H   0  0  0  0  0  0  0  0  0  0  0  0
  153.8137  144.4636  159.9508 H   0  0  0  0  0  0  0  0  0  0  0  0
  152.6324  145.0407  158.8372 H   0  0  0  0  0  0  0  0  0  0  0  0
  152.2769  139.2369  155.4365 H   0  0  0  0  0  0  0  0  0  0  0  0
  1  2  1  0  0  0  0
  1 20  1  0  0  0  0
  1 21  1  0  0  0  0
  2  3  2  0  0  0  0
  2  4  1  0  0  0  0
  4  5  1  0  0  0  0
  4 22  1  0  0  0  0
  4 23  1  0  0  0  0
  5 19  1  0  0  0  0
  5  6  1  0  0  0  0
  6  7  2  0  0  0  0
  6 24  1  0  0  0  0
  7  8  1  0  0  0  0
  7 18  1  0  0  0  0
  8  9  1  0  0  0  0
  8 25  1  0  0  0  0
  9 10  2  0  0  0  0
  9 11  1  0  0  0  0
 11 17  1  0  0  0  0
 11 12  1  0  0  0  0
 12 13  1  0  0  0  0
 12 26  1  0  0  0  0
 12 27  1  0  0  0  0
 13 14  1  0  0  0  0
 13 28  1  0  0  0  0
 13 29  1  0  0  0  0
 14 15  1  0  0  0  0
 14 30  1  0  0  0  0
 14 31  1  0  0  0  0
 15 16  1  0  0  0  0
 15 32  1  0  0  0  0
 15 33  1  0  0  0  0
 16 17  1  0  0  0  0
 16 34  1  0  0  0  0
 16 35  1  0  0  0  0
 17 36  1  0  0  0  0
 17 37  1  0  0  0  0
 18 19  2  0  0  0  0
 18 38  1  0  0  0  0
M  END
> <s_m_source_file>
AV-unprocessed.smi

> <i_m_source_file_index>
3008

> <i_lp_mmshare_version>
43012

> <i_f3d_flags>
0

> <s_epik_input>
W05IMl1DKD1PKVtDSDJdbjFbY0hdYyhbY0hdbjEpW05IXUMoPU8pTjJbQ0gyXVtDSDJdW0NIMl1bQ0gyXVtDSDJdW0NIMl0y

> <s_epik_cmdline>
J2VwaWtfcHl0aG9uJywgJy1waCcsICc3LjAnLCAnLXRuJywgJzgnLCAnLW1hJywgJzIwMCcsICctbWV0YWxfYmluZGluZycsICctaW1hZScsICc8aW5maWxlLm1hZT4nLCAnLW9tYWUnLCAnPG91dGZpbGUubWFlPic=

> <r_lp_tautomer_probability>
1

> <r_epik_Ionization_Penalty>
4.99812e-05

> <r_epik_Ionization_Penalty_Charging>
0

> <r_epik_Ionization_Penalty_Neutral>
4.99812e-05

> <r_epik_State_Penalty>
-0

> <r_epik_Charging_Adjusted_Penalty>
0

> <i_epik_Tot_Q>
0

> <i_epik_Tot_abs_Q>
0

> <r_epik_Metal_State_Penalty>
-0

> <b_epik_Metal_Only>
0

> <s_lp_Force_Field>
OPLS_2005

> <r_lp_Energy>
37.733

> <b_lp_Chiralities_Consistent>
1

> <s_lp_Variant>
AV-unprocessed.smi:3008-1

> <Gold.Version>
5.8.1

> <Gold.Id.Protein>
6NUR|6NUR_protein|mol2

> <Gold.PLP.Fitness>
48.8722

> <Gold.PLP.PLP>
-42.3928

> <Gold.PLP.part.hbond>
-2.9561

> <Gold.PLP.part.metal>
0.0000

> <Gold.PLP.part.buried>
-2.1586

> <Gold.PLP.part.nonpolar>
-38.3282

> <Gold.PLP.part.repulsive>
0.8536

> <Gold.PLP.ligand.clash>
0.0000

> <Gold.PLP.ligand.torsion>
0.5790

> <Gold.PLP.Chemscore.Hbond>
1.5440

> <Gold.PLP.Chemscore.CHOScore>
1.0000

> <Gold.PLP.Chemscore.Metal>
0.0000

> <Gold.Chemscore.Hbonds>
donor molecule, donor type, donor heavy atom, donor atom, acceptor molecule, acceptor atom, score
      L1  H     1    20       P1  7948  0.48
      L1  H     1    21       P1  7957  0.96
      P1  H  7989  7998       L1    19  0.08
      L1  C     6    24       P1  8028  1.00

> <Gold.PLP.Chemscore.Internal.Correction>
0.0053

> <Gold.Rescore>
     Score         DG    S(hbond)    S(metal)    S(lipo)     H(rot)  DE(clash)    DE(int)     intcor
     15.04     -17.59       1.34        0.00      98.42       1.52       0.63       1.92       ----

> <Gold.Chemscore.Fitness>
15.0449

> <Gold.Chemscore.DG>
-17.5940

> <Gold.Chemscore.ZeroCoef>
-5.4800

> <Gold.Chemscore.Hbond>
1.3426

> <Gold.Chemscore.Metal>
0.0000

> <Gold.Chemscore.Lipo>
98.4163

> <Gold.Chemscore.Internal_Hbond>
0.0000

> <Gold.Chemscore.DEClash>
0.6295

> <Gold.Chemscore.DEInternal>
1.9197

> <Gold.Chemscore.Rot>
1.5176

> <Gold.Chemscore.Internal.Correction>
   9.000000E+99

> <Gold.Chemscore.Hbonds>
donor molecule, donor type, donor heavy atom, donor atom, acceptor molecule, acceptor atom, score
      L1  H     1    20       P1  7948  0.45
      L1  H     1    21       P1  7957  0.89

> <Gold.Chemscore.Hbond.Weighted>
-4.4844

> <Gold.Chemscore.Metal.Weighted>
-0.0000

> <Gold.Chemscore.Lipo.Weighted>
-11.5147

> <Gold.Chemscore.Internal_Hbond.Weighted>
0.0000

> <Gold.Chemscore.DEClash.Weighted>
0.6295

> <Gold.Chemscore.DEInternal.Weighted>
1.9197

> <Gold.Chemscore.Rot.Weighted>
3.8851

> <Gold.Chemscore.Internal.Correction.Weighted>
   9.000000E+99

> <Gold.Protein.RotatedTorsions>
[ 6907 6896 6895 6894 ] final   -3.87 input  -60.11 | X-H torsion
[ 7974 7965 7964 7962 ] final  119.02 input  175.53 | X-H torsion
[ 8008 7997 7996 7995 ] final  115.38 input   59.86 | X-H torsion
[ 10167 10162 10161 10158 ] final -167.80 input  -65.29 | X-H torsion
[ 10718 10713 10712 10709 ] final  -82.74 input   66.30 | X-H torsion
[ 10763 10752 10751 10750 ] final  -79.40 input  -60.55 | X-H torsion
[ 11005 11000 10999 10996 ] final -153.55 input  -57.11 | X-H torsion

> <Gold.Protein.ActiveResidues>
 VAL166  LYS551  ARG553  GLY616  TRP617  ASP618  TYR619  PRO620  LYS621  CYS622 
 ASP623  PHE694  ASN695  SER759  ASP760  ASP761  ALA762  ILE779  LEU786  VAL792 
 PHE793  MET794  SER795  GLU796  ALA797  LYS798  CYS799  TRP800  GLU811  SER814 

> <Gold.Protein.RotatedAtoms>
  151.5068  135.1063  159.9843 H   0  0  0  0  0  0  0  0  0  0  0  0  # atno 6907 bound_to 6896
  152.4679  133.7959  159.6937 H   0  0  0  0  0  0  0  0  0  0  0  0  # atno 6908 bound_to 6896
  150.8672  133.7494  159.2998 H   0  0  0  0  0  0  0  0  0  0  0  0  # atno 6909 bound_to 6896
  145.1482  139.3226  143.4580 H   0  0  0  0  0  0  0  0  0  0  0  0  # atno 7974 bound_to 7965
  156.2378  140.2939  156.0360 H   0  0  0  0  0  0  0  0  0  0  0  0  # atno 8008 bound_to 7997
  155.2041  140.0410  157.2939 H   0  0  0  0  0  0  0  0  0  0  0  0  # atno 8009 bound_to 7997
  154.6111  140.2452  155.7675 H   0  0  0  0  0  0  0  0  0  0  0  0  # atno 8010 bound_to 7997
  139.6026  144.0979  152.1759 H   0  0  0  0  0  0  0  0  0  0  0  0  # atno 10167 bound_to 10162
  156.0028  130.4643  150.4151 H   0  0  0  0  0  0  0  0  0  0  0  0  # atno 10718 bound_to 10713
  154.5381  135.5697  153.6816 H   0  0  0  0  0  0  0  0  0  0  0  0  # atno 10763 bound_to 10752
  152.9956  135.6221  154.2539 H   0  0  0  0  0  0  0  0  0  0  0  0  # atno 10764 bound_to 10752
  154.2468  135.2860  155.2812 H   0  0  0  0  0  0  0  0  0  0  0  0  # atno 10765 bound_to 10752
  140.7069  134.3875  157.5203 H   0  0  0  0  0  0  0  0  0  0  0  0  # atno 11005 bound_to 11000
  146.3497  140.1546  142.8592 LP  0  0  0  0  0  0  0  0  0  0  0  0  # atno 17320 bound_to 7965
  145.0459  140.8981  143.5024 LP  0  0  0  0  0  0  0  0  0  0  0  0  # atno 17321 bound_to 7965
  140.0579  144.5880  150.7285 LP  0  0  0  0  0  0  0  0  0  0  0  0  # atno 17342 bound_to 10162
  140.7261  143.2638  151.4116 LP  0  0  0  0  0  0  0  0  0  0  0  0  # atno 17343 bound_to 10162
  157.2211  131.0482  151.2546 LP  0  0  0  0  0  0  0  0  0  0  0  0  # atno 17370 bound_to 10713
  157.3800  130.7226  149.6623 LP  0  0  0  0  0  0  0  0  0  0  0  0  # atno 17371 bound_to 10713
  139.8882  134.8863  156.2489 LP  0  0  0  0  0  0  0  0  0  0  0  0  # atno 17394 bound_to 11000
  141.0117  133.7092  156.1122 LP  0  0  0  0  0  0  0  0  0  0  0  0  # atno 17395 bound_to 11000

$$$$
