#       Name:                AV-unprocessed.smi:72
#       Creating user name   scv26
#       Creation time:       Thu Mar 26 17:02:33 2020


#       File generated by GOLD software.
#

@<TRIPOS>MOLECULE
AV-unprocessed.smi:72
    41    42     1
SMALL
NO_CHARGES


@<TRIPOS>ATOM
      1 ****        -5.0902  -0.2743   0.3080 N.pl3          1 S1                 0.0000
      2 ****        -3.7458  -0.5782   0.2517 C.2            1 S1                 0.0000
      3 ****        -2.8463   0.4242   0.5681 N.pl3          1 S1                 1.0000
      4 ****        -1.5126   0.2931   0.5649 C.2            1 S1                 0.0000
      5 ****        -0.9848  -0.8691   0.2374 N.am           1 S1                 0.0000
      6 ****         0.5093  -1.0855   0.2096 C.3            1 S1                 0.0000
      7 ****         1.1152  -0.1024   0.9939 O.3            1 S1                 0.0000
      8 ****         1.7711   0.8524   0.1650 C.3            1 S1                 0.0000
      9 ****         2.8633   1.6079   0.9412 C.3            1 S1                 0.0000
     10 ****         2.2846   2.6663   1.6743 O.3            1 S1                 0.0000
     11 ****         2.2598   0.0006  -1.0123 C.3            1 S1                 0.0000
     12 ****         3.4495  -0.6935  -0.6839 O.3            1 S1                 0.0000
     13 ****         1.1112  -0.9793  -1.2129 C.3            1 S1                 0.0000
     14 ****         0.2114  -0.4619  -2.1789 O.3            1 S1                 0.0000
     15 ****        -1.8280  -1.9574  -0.1057 C.2            1 S1                 0.0000
     16 ****        -1.3441  -3.0438  -0.4215 O.2            1 S1                 0.0000
     17 ****        -3.2105  -1.7232  -0.0699 N.2            1 S1                 0.0000
     18 ****         0.6821  -2.0512   0.6877 H              1 S1                 0.0000
     19 ****         1.0347   1.5595  -0.2208 H              1 S1                 0.0000
     20 ****         2.4580   0.6055  -1.8984 H              1 S1                 0.0000
     21 ****         1.4504  -1.9613  -1.5459 H              1 S1                 0.0000
     22 ****        -5.8172  -0.9431   0.0951 H              1 S1                 0.0000
     23 ****        -5.4547   0.6325   0.5626 H              1 S1                 0.0000
     24 ****        -0.8997   1.1430   0.8330 H              1 S1                 0.0000
     25 ****         3.4137   0.9427   1.6074 H              1 S1                 0.0000
     26 ****         3.5823   2.0457   0.2482 H              1 S1                 0.0000
     27 ****         2.9712   3.1225   2.1369 H              1 S1                 0.0000
     28 ****         4.1395  -0.0629  -0.5444 H              1 S1                 0.0000
     29 ****         0.6541  -0.4317  -3.0138 H              1 S1                 0.0000
     30 ****        -3.2279   1.3242   0.8221 H              1 S1                 0.0000
     31 ****         1.7860  -0.5301   1.5999 LP             1 S1                 0.0000
     32 ****         0.4178   0.3594   1.5419 LP             1 S1                 0.0000
     33 ****         1.6226   2.3007   2.3286 LP             1 S1                 0.0000
     34 ****         1.8229   3.2961   1.0497 LP             1 S1                 0.0000
     35 ****         3.6998  -1.3059  -1.4338 LP             1 S1                 0.0000
     36 ****         3.3083  -1.2278   0.1496 LP             1 S1                 0.0000
     37 ****        -0.0744   0.4592  -1.9148 LP             1 S1                 0.0000
     38 ****        -0.5916  -1.0544  -2.2437 LP             1 S1                 0.0000
     39 ****        -0.3514  -3.1634  -0.4373 LP             1 S1                 0.0000
     40 ****        -1.9435  -3.8072  -0.6623 LP             1 S1                 0.0000
     41 ****        -3.8219  -2.4789  -0.3048 LP             1 S1                 0.0000
@<TRIPOS>BOND
    1    1    2 1     
    2    1   22 1     
    3    1   23 1     
    4    2   17 2     
    5    2    3 1     
    6    3    4 2     
    7    3   30 1     
    8    4    5 1     
    9    4   24 1     
   10    5    6 1     
   11    5   15 am    
   12    6   18 1     
   13    6   13 1     
   14    6    7 1     
   15    7    8 1     
   16    8   19 1     
   17    8    9 1     
   18    8   11 1     
   19    9   10 1     
   20    9   25 1     
   21    9   26 1     
   22   10   27 1     
   23   11   20 1     
   24   11   12 1     
   25   11   13 1     
   26   12   28 1     
   27   13   21 1     
   28   13   14 1     
   29   14   29 1     
   30   15   16 2     
   31   15   17 1     
   32    7   31 1     
   33    7   32 1     
   34   10   33 1     
   35   10   34 1     
   36   12   35 1     
   37   12   36 1     
   38   14   37 1     
   39   14   38 1     
   40   16   39 1     
   41   16   40 1     
   42   17   41 1     
@<TRIPOS>SUBSTRUCTURE
      1 S1             1
@<TRIPOS>SET
LONE_PAIRS      STATIC     ATOMS    <user>   **** ""
11 31 32 33 34 35 36 37 38 39 40 41
DONOR_HYDROGENS      STATIC     ATOMS    <user>   **** ""
6 22 23 30 27 28 29
ATOM$BLUE        STATIC     ATOMS    COLORGROUP SYSTEM
11 31 32 33 34 35 36 37 38 39 40 41
ATOM$RED        STATIC     ATOMS    COLORGROUP SYSTEM
6 22 23 30 27 28 29
