AV-unprocessed.smi:1201|AV-procd|sdf|5027|dock4
  -GOLD-   22720 4 53D 1   1.00000     0.00000
 Structure written by MMmdl.
 31 32  0  0  0  0  0  0  0  0  1 V2000
  153.6444  143.1764  163.7946 C   0  0  0  0  0  0  0  0  0  0  0  0
  153.8976  142.2911  162.7093 O   0  0  0  0  0  0  0  0  0  0  0  0
  153.1664  142.4496  161.5500 C   0  0  0  0  0  0  0  0  0  0  0  0
  152.3046  143.5591  161.4429 C   0  0  0  0  0  0  0  0  0  0  0  0
  151.5538  143.7285  160.2640 C   0  0  0  0  0  0  0  0  0  0  0  0
  151.6951  142.7820  159.2207 C   0  0  0  0  0  0  0  0  0  0  0  0
  150.9864  142.8252  157.9888 N   0  0  0  0  0  0  0  0  0  0  0  0
  150.7270  141.8267  157.1271 C   0  0  0  0  0  0  0  0  0  0  0  0
  151.0558  140.6501  157.2760 O   0  0  0  0  0  0  0  0  0  0  0  0
  150.0368  142.2717  156.0681 N   0  0  0  0  0  0  0  0  0  0  0  0
  149.6039  141.4467  154.9479 C   0  0  0  0  0  0  0  0  0  0  0  0
  148.1021  141.2708  154.8294 C   0  0  0  0  0  0  0  0  0  0  0  0
  147.4822  140.8908  153.5051 C   0  0  0  0  0  0  0  0  0  0  0  0
  147.2521  142.2685  154.0768 C   0  0  0  0  0  0  0  0  0  0  0  0
  152.5767  141.7018  159.4321 C   0  0  0  0  0  0  0  0  0  0  0  0
  153.2990  141.5331  160.5595 N   0  0  0  0  0  0  0  0  0  0  0  0
  154.2936  142.9170  164.6307 H   0  0  0  0  0  0  0  0  0  0  0  0
  152.6129  143.0989  164.1413 H   0  0  0  0  0  0  0  0  0  0  0  0
  153.8544  144.2115  163.5216 H   0  0  0  0  0  0  0  0  0  0  0  0
  152.2168  144.2668  162.2540 H   0  0  0  0  0  0  0  0  0  0  0  0
  150.8822  144.5694  160.1950 H   0  0  0  0  0  0  0  0  0  0  0  0
  150.5906  143.7234  157.7530 H   0  0  0  0  0  0  0  0  0  0  0  0
  149.8015  143.2526  156.0291 H   0  0  0  0  0  0  0  0  0  0  0  0
  150.0036  141.8433  154.0128 H   0  0  0  0  0  0  0  0  0  0  0  0
  150.0504  140.4607  155.0754 H   0  0  0  0  0  0  0  0  0  0  0  0
  147.6454  140.8135  155.7053 H   0  0  0  0  0  0  0  0  0  0  0  0
  148.1381  140.8114  152.6403 H   0  0  0  0  0  0  0  0  0  0  0  0
  146.6483  140.1920  153.5235 H   0  0  0  0  0  0  0  0  0  0  0  0
  146.2654  142.4895  154.4785 H   0  0  0  0  0  0  0  0  0  0  0  0
  147.7558  143.1035  153.5937 H   0  0  0  0  0  0  0  0  0  0  0  0
  152.7109  140.9474  158.6705 H   0  0  0  0  0  0  0  0  0  0  0  0
  1  2  1  0  0  0  0
  1 17  1  0  0  0  0
  1 18  1  0  0  0  0
  1 19  1  0  0  0  0
  2  3  1  0  0  0  0
  3 16  1  0  0  0  0
  3  4  2  0  0  0  0
  4  5  1  0  0  0  0
  4 20  1  0  0  0  0
  5  6  2  0  0  0  0
  5 21  1  0  0  0  0
  6  7  1  0  0  0  0
  6 15  1  0  0  0  0
  7  8  1  0  0  0  0
  7 22  1  0  0  0  0
  8  9  2  0  0  0  0
  8 10  1  0  0  0  0
 10 11  1  0  0  0  0
 10 23  1  0  0  0  0
 11 12  1  0  0  0  0
 11 24  1  0  0  0  0
 11 25  1  0  0  0  0
 12 14  1  0  0  0  0
 12 13  1  0  0  0  0
 12 26  1  0  0  0  0
 13 14  1  0  0  0  0
 13 27  1  0  0  0  0
 13 28  1  0  0  0  0
 14 29  1  0  0  0  0
 14 30  1  0  0  0  0
 15 16  2  0  0  0  0
 15 31  1  0  0  0  0
M  END
> <s_m_source_file>
AV-unprocessed.smi

> <i_m_source_file_index>
1201

> <i_lp_mmshare_version>
43012

> <i_f3d_flags>
0

> <s_epik_input>
W0NIM11PYzFbY0hdW2NIXWMoW2NIXW4xKVtOSF1DKD1PKVtOSF1bQ0gyXVtDSF0yW0NIMl1bQ0gyXTI=

> <s_epik_cmdline>
J2VwaWtfcHl0aG9uJywgJy1waCcsICc3LjAnLCAnLXRuJywgJzgnLCAnLW1hJywgJzIwMCcsICctbWV0YWxfYmluZGluZycsICctaW1hZScsICc8aW5maWxlLm1hZT4nLCAnLW9tYWUnLCAnPG91dGZpbGUubWFlPic=

> <r_lp_tautomer_probability>
1

> <r_epik_Ionization_Penalty>
9.92182e-05

> <r_epik_Ionization_Penalty_Charging>
0

> <r_epik_Ionization_Penalty_Neutral>
9.92182e-05

> <r_epik_State_Penalty>
-0

> <r_epik_Charging_Adjusted_Penalty>
0

> <i_epik_Tot_Q>
0

> <i_epik_Tot_abs_Q>
0

> <r_epik_Metal_State_Penalty>
-0

> <b_epik_Metal_Only>
0

> <s_lp_Force_Field>
OPLS_2005

> <r_lp_Energy>
14.9196

> <b_lp_Chiralities_Consistent>
1

> <s_lp_Variant>
AV-unprocessed.smi:1201-1

> <Gold.Version>
5.8.1

> <Gold.Id.Protein>
6NUR|6NUR_protein|mol2

> <Gold.PLP.Fitness>
40.1154

> <Gold.PLP.PLP>
-38.0430

> <Gold.PLP.part.hbond>
-2.0000

> <Gold.PLP.part.metal>
0.0000

> <Gold.PLP.part.buried>
-5.2053

> <Gold.PLP.part.nonpolar>
-30.1874

> <Gold.PLP.part.repulsive>
0.1833

> <Gold.PLP.ligand.clash>
0.5981

> <Gold.PLP.ligand.torsion>
0.4341

> <Gold.PLP.Chemscore.Hbond>
1.0000

> <Gold.PLP.Chemscore.CHOScore>
0.0000

> <Gold.PLP.Chemscore.Metal>
0.0000

> <Gold.Chemscore.Hbonds>
donor molecule, donor type, donor heavy atom, donor atom, acceptor molecule, acceptor atom, score
      L1  H    10    23       P1  8028  1.00

> <Gold.PLP.Chemscore.Internal.Correction>
0.5387

> <Gold.Rescore>
     Score         DG    S(hbond)    S(metal)    S(lipo)     H(rot)  DE(clash)    DE(int)     intcor
     13.18     -14.94       1.00        0.00      84.20       1.45       0.01       1.75       ----

> <Gold.Chemscore.Fitness>
13.1849

> <Gold.Chemscore.DG>
-14.9441

> <Gold.Chemscore.ZeroCoef>
-5.4800

> <Gold.Chemscore.Hbond>
0.9952

> <Gold.Chemscore.Metal>
0.0000

> <Gold.Chemscore.Lipo>
84.1985

> <Gold.Chemscore.Internal_Hbond>
0.0000

> <Gold.Chemscore.DEClash>
0.0073

> <Gold.Chemscore.DEInternal>
1.7519

> <Gold.Chemscore.Rot>
1.4497

> <Gold.Chemscore.Internal.Correction>
   9.000000E+99

> <Gold.Chemscore.Hbonds>
donor molecule, donor type, donor heavy atom, donor atom, acceptor molecule, acceptor atom, score
      L1  H    10    23       P1  8028  1.00

> <Gold.Chemscore.Hbond.Weighted>
-3.3240

> <Gold.Chemscore.Metal.Weighted>
-0.0000

> <Gold.Chemscore.Lipo.Weighted>
-9.8512

> <Gold.Chemscore.Internal_Hbond.Weighted>
0.0000

> <Gold.Chemscore.DEClash.Weighted>
0.0073

> <Gold.Chemscore.DEInternal.Weighted>
1.7519

> <Gold.Chemscore.Rot.Weighted>
3.7111

> <Gold.Chemscore.Internal.Correction.Weighted>
   9.000000E+99

> <Gold.Protein.RotatedTorsions>
[ 6907 6896 6895 6894 ] final   98.03 input  -60.11 | X-H torsion
[ 7974 7965 7964 7962 ] final -160.52 input  175.53 | X-H torsion
[ 8008 7997 7996 7995 ] final   25.64 input   59.86 | X-H torsion
[ 10167 10162 10161 10158 ] final  -96.63 input  -65.29 | X-H torsion
[ 10718 10713 10712 10709 ] final  157.39 input   66.30 | X-H torsion
[ 10763 10752 10751 10750 ] final -127.55 input  -60.55 | X-H torsion
[ 11005 11000 10999 10996 ] final -141.90 input  -57.11 | X-H torsion

> <Gold.Protein.ActiveResidues>
 VAL166  LYS551  ARG553  GLY616  TRP617  ASP618  TYR619  PRO620  LYS621  CYS622 
 ASP623  PHE694  ASN695  SER759  ASP760  ASP761  ALA762  ILE779  LEU786  VAL792 
 PHE793  MET794  SER795  GLU796  ALA797  LYS798  CYS799  TRP800  GLU811  SER814 

> <Gold.Protein.RotatedAtoms>
  152.5415  134.0642  159.8165 H   0  0  0  0  0  0  0  0  0  0  0  0  # atno 6907 bound_to 6896
  151.0766  133.5416  159.2630 H   0  0  0  0  0  0  0  0  0  0  0  0  # atno 6908 bound_to 6896
  151.2259  135.0544  159.9022 H   0  0  0  0  0  0  0  0  0  0  0  0  # atno 6909 bound_to 6896
  144.7424  140.3529  143.6112 H   0  0  0  0  0  0  0  0  0  0  0  0  # atno 7974 bound_to 7965
  155.0148  140.3141  155.4816 H   0  0  0  0  0  0  0  0  0  0  0  0  # atno 8008 bound_to 7997
  156.2903  140.2208  156.5205 H   0  0  0  0  0  0  0  0  0  0  0  0  # atno 8009 bound_to 7997
  154.7503  140.0466  157.0875 H   0  0  0  0  0  0  0  0  0  0  0  0  # atno 8010 bound_to 7997
  140.2918  143.3217  152.0338 H   0  0  0  0  0  0  0  0  0  0  0  0  # atno 10167 bound_to 10162
  157.1922  131.0657  151.2073 H   0  0  0  0  0  0  0  0  0  0  0  0  # atno 10718 bound_to 10713
  154.8753  135.3958  154.3611 H   0  0  0  0  0  0  0  0  0  0  0  0  # atno 10763 bound_to 10752
  153.4384  135.7026  153.6190 H   0  0  0  0  0  0  0  0  0  0  0  0  # atno 10764 bound_to 10752
  153.4782  135.3775  155.2397 H   0  0  0  0  0  0  0  0  0  0  0  0  # atno 10765 bound_to 10752
  140.8278  134.2553  157.4871 H   0  0  0  0  0  0  0  0  0  0  0  0  # atno 11005 bound_to 11000
  145.7257  139.1722  143.2459 LP  0  0  0  0  0  0  0  0  0  0  0  0  # atno 17320 bound_to 7965
  146.1244  140.7268  142.9442 LP  0  0  0  0  0  0  0  0  0  0  0  0  # atno 17321 bound_to 7965
  139.4936  144.6519  151.6656 LP  0  0  0  0  0  0  0  0  0  0  0  0  # atno 17342 bound_to 10162
  140.5726  144.0083  150.6224 LP  0  0  0  0  0  0  0  0  0  0  0  0  # atno 17343 bound_to 10162
  157.3850  130.7251  149.6656 LP  0  0  0  0  0  0  0  0  0  0  0  0  # atno 17370 bound_to 10713
  155.9710  130.4162  150.4219 LP  0  0  0  0  0  0  0  0  0  0  0  0  # atno 17371 bound_to 10713
  139.8706  134.9570  156.4255 LP  0  0  0  0  0  0  0  0  0  0  0  0  # atno 17394 bound_to 11000
  140.9030  133.7766  155.9702 LP  0  0  0  0  0  0  0  0  0  0  0  0  # atno 17395 bound_to 11000

$$$$
