AV-unprocessed.smi:153|AV-procd|sdf|1263|dock6
  -GOLD-   2262018513D 1   1.00000     0.00000
 Structure written by MMmdl.
 59 62  0  0  0  0  0  0  0  0  1 V2000
  147.8722  136.4017  163.3329 C   0  0  0  0  0  0  0  0  0  0  0  0
  146.9952  135.3875  162.5804 C   0  0  1  0  0  0  0  0  0  0  0  0
  146.4865  134.4438  163.5192 O   0  0  0  0  0  0  0  0  0  0  0  0
  145.2208  133.9938  163.0700 C   0  0  0  0  0  0  0  0  0  0  0  0
  144.5918  135.2754  162.5490 C   0  0  0  0  0  0  0  0  0  0  0  0
  145.7577  135.9567  161.8311 C   0  0  1  0  0  0  0  0  0  0  0  0
  145.6177  137.3589  161.9888 O   0  0  0  0  0  0  0  0  0  0  0  0
  145.8325  135.6381  160.3145 C   0  0  0  0  0  0  0  0  0  0  0  0
  147.0530  136.0934  159.6651 N   0  0  0  0  0  0  0  0  0  0  0  0
  148.3127  135.5618  159.8106 C   0  0  0  0  0  0  0  0  0  0  0  0
  149.2449  136.1474  159.1117 N   0  0  0  0  0  0  0  0  0  0  0  0
  148.5837  137.1595  158.4227 C   0  0  0  0  0  0  0  0  0  0  0  0
  148.9814  138.1683  157.4919 C   0  0  0  0  0  0  0  0  0  0  0  0
  150.2630  138.3700  157.0704 N   0  0  0  0  0  0  0  0  0  0  0  0
  150.5289  138.3645  155.6331 C   0  0  0  0  0  0  0  0  0  0  0  0
  151.1723  139.1445  157.9155 C   0  0  0  0  0  0  0  0  0  0  0  0
  151.0050  140.6724  157.7573 C   0  0  1  0  0  0  0  0  0  0  0  0
  149.7660  141.1054  158.2828 O   0  0  0  0  0  0  0  0  0  0  0  0
  152.1392  141.4864  158.4209 C   0  0  0  0  0  0  0  0  0  0  0  0
  151.7791  142.7988  158.9679 N   0  0  0  0  0  0  0  0  0  0  0  0
  151.8694  143.8756  157.9834 C   0  0  0  0  0  0  0  0  0  0  0  0
  151.5157  145.2441  158.5920 C   0  0  0  0  0  0  0  0  0  0  0  0
  152.3567  145.5054  159.7106 O   0  0  0  0  0  0  0  0  0  0  0  0
  152.2585  144.5013  160.7150 C   0  0  0  0  0  0  0  0  0  0  0  0
  152.6219  143.1339  160.1112 C   0  0  0  0  0  0  0  0  0  0  0  0
  147.9980  138.9725  157.0034 N   0  0  0  0  0  0  0  0  0  0  0  0
  146.7311  138.8246  157.3980 C   0  0  0  0  0  0  0  0  0  0  0  0
  146.2257  137.9445  158.2614 N   0  0  0  0  0  0  0  0  0  0  0  0
  147.1968  137.1236  158.7519 C   0  0  0  0  0  0  0  0  0  0  0  0
  148.2987  137.1371  162.6501 H   0  0  0  0  0  0  0  0  0  0  0  0
  148.6998  135.8994  163.8343 H   0  0  0  0  0  0  0  0  0  0  0  0
  147.3015  136.9352  164.0939 H   0  0  0  0  0  0  0  0  0  0  0  0
  147.6278  134.8357  161.8833 H   0  0  0  0  0  0  0  0  0  0  0  0
  145.3451  133.2609  162.2712 H   0  0  0  0  0  0  0  0  0  0  0  0
  144.6460  133.5378  163.8760 H   0  0  0  0  0  0  0  0  0  0  0  0
  143.7140  135.0979  161.9299 H   0  0  0  0  0  0  0  0  0  0  0  0
  144.2672  135.8715  163.4038 H   0  0  0  0  0  0  0  0  0  0  0  0
  146.4206  137.7715  161.7100 H   0  0  0  0  0  0  0  0  0  0  0  0
  145.7481  134.5621  160.1557 H   0  0  0  0  0  0  0  0  0  0  0  0
  144.9849  136.0853  159.7939 H   0  0  0  0  0  0  0  0  0  0  0  0
  148.5204  134.7211  160.4566 H   0  0  0  0  0  0  0  0  0  0  0  0
  150.1289  137.4629  155.1677 H   0  0  0  0  0  0  0  0  0  0  0  0
  151.6007  138.3869  155.4353 H   0  0  0  0  0  0  0  0  0  0  0  0
  150.0793  139.2336  155.1518 H   0  0  0  0  0  0  0  0  0  0  0  0
  151.1279  138.8432  158.9591 H   0  0  0  0  0  0  0  0  0  0  0  0
  152.1829  138.8803  157.6024 H   0  0  0  0  0  0  0  0  0  0  0  0
  151.0012  140.9291  156.6974 H   0  0  0  0  0  0  0  0  0  0  0  0
  149.5413  140.5485  159.0124 H   0  0  0  0  0  0  0  0  0  0  0  0
  152.5078  140.8754  159.2460 H   0  0  0  0  0  0  0  0  0  0  0  0
  152.9831  141.5814  157.7355 H   0  0  0  0  0  0  0  0  0  0  0  0
  152.8771  143.9135  157.5668 H   0  0  0  0  0  0  0  0  0  0  0  0
  151.1914  143.6874  157.1520 H   0  0  0  0  0  0  0  0  0  0  0  0
  151.6494  146.0339  157.8529 H   0  0  0  0  0  0  0  0  0  0  0  0
  150.4696  145.2687  158.9016 H   0  0  0  0  0  0  0  0  0  0  0  0
  152.9353  144.7474  161.5334 H   0  0  0  0  0  0  0  0  0  0  0  0
  151.2481  144.4858  161.1272 H   0  0  0  0  0  0  0  0  0  0  0  0
  152.5258  142.3667  160.8803 H   0  0  0  0  0  0  0  0  0  0  0  0
  153.6702  143.1415  159.8081 H   0  0  0  0  0  0  0  0  0  0  0  0
  146.0217  139.5110  156.9598 H   0  0  0  0  0  0  0  0  0  0  0  0
  1  2  1  0  0  0  0
  1 30  1  0  0  0  0
  1 31  1  0  0  0  0
  1 32  1  0  0  0  0
  2  6  1  0  0  0  0
  2  3  1  0  0  0  0
  2 33  1  0  0  0  0
  3  4  1  0  0  0  0
  4  5  1  0  0  0  0
  4 34  1  0  0  0  0
  4 35  1  0  0  0  0
  5  6  1  0  0  0  0
  5 36  1  0  0  0  0
  5 37  1  0  0  0  0
  6  7  1  0  0  0  0
  6  8  1  0  0  0  0
  7 38  1  0  0  0  0
  8  9  1  0  0  0  0
  8 39  1  0  0  0  0
  8 40  1  0  0  0  0
  9 29  1  0  0  0  0
  9 10  1  0  0  0  0
 10 11  2  0  0  0  0
 10 41  1  0  0  0  0
 11 12  1  0  0  0  0
 12 29  2  0  0  0  0
 12 13  1  0  0  0  0
 13 14  1  0  0  0  0
 13 26  2  0  0  0  0
 14 15  1  0  0  0  0
 14 16  1  0  0  0  0
 15 42  1  0  0  0  0
 15 43  1  0  0  0  0
 15 44  1  0  0  0  0
 16 17  1  0  0  0  0
 16 45  1  0  0  0  0
 16 46  1  0  0  0  0
 17 18  1  0  0  0  0
 17 19  1  0  0  0  0
 17 47  1  0  0  0  0
 18 48  1  0  0  0  0
 19 20  1  0  0  0  0
 19 49  1  0  0  0  0
 19 50  1  0  0  0  0
 20 25  1  0  0  0  0
 20 21  1  0  0  0  0
 21 22  1  0  0  0  0
 21 51  1  0  0  0  0
 21 52  1  0  0  0  0
 22 23  1  0  0  0  0
 22 53  1  0  0  0  0
 22 54  1  0  0  0  0
 23 24  1  0  0  0  0
 24 25  1  0  0  0  0
 24 55  1  0  0  0  0
 24 56  1  0  0  0  0
 25 57  1  0  0  0  0
 25 58  1  0  0  0  0
 26 27  1  0  0  0  0
 27 28  2  0  0  0  0
 27 59  1  0  0  0  0
 28 29  1  0  0  0  0
M  END
> <s_m_source_file>
AV-unprocessed.smi

> <i_m_source_file_index>
153

> <i_lp_mmshare_version>
43012

> <i_f3d_flags>
0

> <s_epik_input>
W0NIMl0xW0NIMl1PW0NAQEhdKFtDSDNdKVtDQEBdMShbT0hdKVtDSDJdbihbY0hdbjIpYyhjMjMpbltjSF1uYzNOKFtDSDNdKVtDSDJdW0NASF0oW09IXSlbQ0gyXU40W0NIMl1bQ0gyXU9bQ0gyXVtDSDJdNA==

> <s_epik_cmdline>
J2VwaWtfcHl0aG9uJywgJy1waCcsICc3LjAnLCAnLXRuJywgJzgnLCAnLW1hJywgJzIwMCcsICctbWV0YWxfYmluZGluZycsICctaW1hZScsICc8aW5maWxlLm1hZT4nLCAnLW9tYWUnLCAnPG91dGZpbGUubWFlPic=

> <r_lp_tautomer_probability>
1

> <r_epik_Ionization_Penalty>
0.424123

> <r_epik_Ionization_Penalty_Charging>
0

> <r_epik_Ionization_Penalty_Neutral>
0.424123

> <r_epik_State_Penalty>
0.421495

> <r_epik_Charging_Adjusted_Penalty>
0.421495

> <i_epik_Tot_Q>
0

> <i_epik_Tot_abs_Q>
0

> <r_epik_Metal_State_Penalty>
0.421223

> <b_epik_Metal_Only>
0

> <s_lp_Force_Field>
OPLS_2005

> <r_lp_Energy>
60.0656

> <b_lp_Chiralities_Consistent>
1

> <s_lp_Variant>
AV-unprocessed.smi:153-14

> <Gold.Version>
5.8.1

> <Gold.Id.Protein>
6NUR|6NUR_protein|mol2

> <Gold.PLP.Fitness>
41.4941

> <Gold.PLP.PLP>
-42.8331

> <Gold.PLP.part.hbond>
-2.0000

> <Gold.PLP.part.metal>
0.0000

> <Gold.PLP.part.buried>
-8.1338

> <Gold.PLP.part.nonpolar>
-34.3477

> <Gold.PLP.part.repulsive>
0.1557

> <Gold.PLP.ligand.clash>
0.0000

> <Gold.PLP.ligand.torsion>
2.4738

> <Gold.PLP.Chemscore.Hbond>
1.0000

> <Gold.PLP.Chemscore.CHOScore>
0.0000

> <Gold.PLP.Chemscore.Metal>
0.0000

> <Gold.Chemscore.Hbonds>
donor molecule, donor type, donor heavy atom, donor atom, acceptor molecule, acceptor atom, score
      P1  H  6896  6907       L1    11  0.63

> <Gold.PLP.Chemscore.Internal.Correction>
0.6086

> <Gold.Rescore>
     Score         DG    S(hbond)    S(metal)    S(lipo)     H(rot)  DE(clash)    DE(int)     intcor
      8.61     -11.41       0.73        0.00     106.70       3.52       0.16       2.64       ----

> <Gold.Chemscore.Fitness>
8.6061

> <Gold.Chemscore.DG>
-11.4117

> <Gold.Chemscore.ZeroCoef>
-5.4800

> <Gold.Chemscore.Hbond>
0.7341

> <Gold.Chemscore.Metal>
0.0000

> <Gold.Chemscore.Lipo>
106.6975

> <Gold.Chemscore.Internal_Hbond>
0.0000

> <Gold.Chemscore.DEClash>
0.1649

> <Gold.Chemscore.DEInternal>
2.6408

> <Gold.Chemscore.Rot>
3.5170

> <Gold.Chemscore.Internal.Correction>
   9.000000E+99

> <Gold.Chemscore.Hbonds>
donor molecule, donor type, donor heavy atom, donor atom, acceptor molecule, acceptor atom, score
      P1  H  6896  6907       L1    11  0.13

> <Gold.Chemscore.Hbond.Weighted>
-2.4517

> <Gold.Chemscore.Metal.Weighted>
-0.0000

> <Gold.Chemscore.Lipo.Weighted>
-12.4836

> <Gold.Chemscore.Internal_Hbond.Weighted>
0.0000

> <Gold.Chemscore.DEClash.Weighted>
0.1649

> <Gold.Chemscore.DEInternal.Weighted>
2.6408

> <Gold.Chemscore.Rot.Weighted>
9.0036

> <Gold.Chemscore.Internal.Correction.Weighted>
   9.000000E+99

> <Gold.Protein.RotatedTorsions>
[ 6907 6896 6895 6894 ] final  -42.94 input  -60.11 | X-H torsion
[ 7974 7965 7964 7962 ] final  175.39 input  175.53 | X-H torsion
[ 8008 7997 7996 7995 ] final   -2.84 input   59.86 | X-H torsion
[ 10167 10162 10161 10158 ] final   93.03 input  -65.29 | X-H torsion
[ 10718 10713 10712 10709 ] final -122.09 input   66.30 | X-H torsion
[ 10763 10752 10751 10750 ] final   13.10 input  -60.55 | X-H torsion
[ 11005 11000 10999 10996 ] final  131.75 input  -57.11 | X-H torsion

> <Gold.Protein.ActiveResidues>
 VAL166  LYS551  ARG553  GLY616  TRP617  ASP618  TYR619  PRO620  LYS621  CYS622 
 ASP623  PHE694  ASN695  SER759  ASP760  ASP761  ALA762  ILE779  LEU786  VAL792 
 PHE793  MET794  SER795  GLU796  ALA797  LYS798  CYS799  TRP800  GLU811  SER814 

> <Gold.Protein.RotatedAtoms>
  150.9495  134.8897  159.7662 H   0  0  0  0  0  0  0  0  0  0  0  0  # atno 6907 bound_to 6896
  152.5114  134.3826  159.9366 H   0  0  0  0  0  0  0  0  0  0  0  0  # atno 6908 bound_to 6896
  151.3843  133.3770  159.2748 H   0  0  0  0  0  0  0  0  0  0  0  0  # atno 6909 bound_to 6896
  144.7203  139.9939  143.6440 H   0  0  0  0  0  0  0  0  0  0  0  0  # atno 7974 bound_to 7965
  154.6314  140.2524  155.7430 H   0  0  0  0  0  0  0  0  0  0  0  0  # atno 8008 bound_to 7997
  156.2481  140.2906  156.0587 H   0  0  0  0  0  0  0  0  0  0  0  0  # atno 8009 bound_to 7997
  155.1739  140.0387  157.2859 H   0  0  0  0  0  0  0  0  0  0  0  0  # atno 8010 bound_to 7997
  139.8219  144.6727  150.9508 H   0  0  0  0  0  0  0  0  0  0  0  0  # atno 10167 bound_to 10162
  156.1390  130.6452  150.9742 H   0  0  0  0  0  0  0  0  0  0  0  0  # atno 10718 bound_to 10713
  153.1755  135.6819  153.8549 H   0  0  0  0  0  0  0  0  0  0  0  0  # atno 10763 bound_to 10752
  153.7899  135.3170  155.3378 H   0  0  0  0  0  0  0  0  0  0  0  0  # atno 10764 bound_to 10752
  154.8026  135.4768  154.0406 H   0  0  0  0  0  0  0  0  0  0  0  0  # atno 10765 bound_to 10752
  139.9749  134.9566  156.9483 H   0  0  0  0  0  0  0  0  0  0  0  0  # atno 11005 bound_to 11000
  146.0389  139.3403  143.0709 LP  0  0  0  0  0  0  0  0  0  0  0  0  # atno 17320 bound_to 7965
  145.8359  140.9606  143.0824 LP  0  0  0  0  0  0  0  0  0  0  0  0  # atno 17321 bound_to 7965
  140.7812  143.4083  151.1034 LP  0  0  0  0  0  0  0  0  0  0  0  0  # atno 17342 bound_to 10162
  139.7743  143.8448  152.3126 LP  0  0  0  0  0  0  0  0  0  0  0  0  # atno 17343 bound_to 10162
  157.6559  131.0889  150.7949 LP  0  0  0  0  0  0  0  0  0  0  0  0  # atno 17370 bound_to 10713
  156.8026  130.4926  149.5367 LP  0  0  0  0  0  0  0  0  0  0  0  0  # atno 17371 bound_to 10713
  140.5216  134.0902  155.7293 LP  0  0  0  0  0  0  0  0  0  0  0  0  # atno 17394 bound_to 11000
  141.1426  133.9111  157.2289 LP  0  0  0  0  0  0  0  0  0  0  0  0  # atno 17395 bound_to 11000

$$$$
