AV-unprocessed.smi:2188|AV-procd|sdf|8880|dock3
  -GOLD-   2272012 83D 1   1.00000     0.00000
 Structure written by MMmdl.
 39 41  0  0  0  0  0  0  0  0  1 V2000
  145.3306  137.6419  154.9203 O   0  0  0  0  0  0  0  0  0  0  0  0
  146.3769  137.6773  154.2705 C   0  0  0  0  0  0  0  0  0  0  0  0
  146.7780  136.6356  153.5163 N   0  0  0  0  0  0  0  0  0  0  0  0
  146.0535  135.3811  153.3290 C   0  0  0  0  0  0  0  0  0  0  0  0
  146.6301  134.5477  152.1691 C   0  0  0  0  0  0  0  0  0  0  0  0
  145.5953  133.6836  151.4696 C   0  0  0  0  0  0  0  0  0  0  0  0
  144.2178  133.8462  151.7254 C   0  0  0  0  0  0  0  0  0  0  0  0
  143.3014  133.0056  151.0653 C   0  0  0  0  0  0  0  0  0  0  0  0
  143.8030  132.0376  150.1722 C   0  0  0  0  0  0  0  0  0  0  0  0
  145.1189  131.8751  149.9167 N   0  0  0  0  0  0  0  0  0  0  0  0
  145.9911  132.6831  150.5567 C   0  0  0  0  0  0  0  0  0  0  0  0
  147.3005  138.8227  154.2212 C   0  0  0  0  0  0  0  0  0  0  0  0
  146.8276  140.0295  153.8133 C   0  0  0  0  0  0  0  0  0  0  0  0
  147.6803  141.1895  153.7318 C   0  0  0  0  0  0  0  0  0  0  0  0
  148.9597  141.0564  154.0978 C   0  0  0  0  0  0  0  0  0  0  0  0
  149.5032  139.8567  154.5545 N   0  0  0  0  0  0  0  0  0  0  0  0
  150.8926  139.8902  155.0006 C   0  0  0  0  0  0  0  0  0  0  0  0
  151.6192  138.6256  154.5790 C   0  0  0  0  0  0  0  0  0  0  0  0
  150.7757  137.2539  155.4451 S   0  0  0  0  0  0  0  0  0  0  0  0
  151.2802  135.9865  154.8953 O   0  0  0  0  0  0  0  0  0  0  0  0
  150.8677  137.5014  156.8926 O   0  0  0  0  0  0  0  0  0  0  0  0
  149.1988  137.5064  154.9411 N   0  0  0  0  0  0  0  0  0  0  0  0
  148.7170  138.6709  154.6094 C   0  0  0  0  0  0  0  0  0  0  0  0
  147.6504  136.7301  153.0172 H   0  0  0  0  0  0  0  0  0  0  0  0
  146.1238  134.8113  154.2557 H   0  0  0  0  0  0  0  0  0  0  0  0
  144.9900  135.5650  153.1682 H   0  0  0  0  0  0  0  0  0  0  0  0
  147.0961  135.2087  151.4370 H   0  0  0  0  0  0  0  0  0  0  0  0
  147.4264  133.9030  152.5428 H   0  0  0  0  0  0  0  0  0  0  0  0
  143.8684  134.5943  152.4220 H   0  0  0  0  0  0  0  0  0  0  0  0
  142.2399  133.0980  151.2405 H   0  0  0  0  0  0  0  0  0  0  0  0
  143.1285  131.3760  149.6490 H   0  0  0  0  0  0  0  0  0  0  0  0
  147.0367  132.5238  150.3372 H   0  0  0  0  0  0  0  0  0  0  0  0
  145.7890  140.1613  153.5453 H   0  0  0  0  0  0  0  0  0  0  0  0
  147.2972  142.1379  153.3849 H   0  0  0  0  0  0  0  0  0  0  0  0
  149.6467  141.8896  154.0605 H   0  0  0  0  0  0  0  0  0  0  0  0
  151.4117  140.7497  154.5751 H   0  0  0  0  0  0  0  0  0  0  0  0
  150.9215  140.0136  156.0836 H   0  0  0  0  0  0  0  0  0  0  0  0
  151.5690  138.4613  153.5020 H   0  0  0  0  0  0  0  0  0  0  0  0
  152.6664  138.6397  154.8805 H   0  0  0  0  0  0  0  0  0  0  0  0
  1  2  2  0  0  0  0
  2  3  1  0  0  0  0
  2 12  1  0  0  0  0
  3  4  1  0  0  0  0
  3 24  1  0  0  0  0
  4  5  1  0  0  0  0
  4 25  1  0  0  0  0
  4 26  1  0  0  0  0
  5  6  1  0  0  0  0
  5 27  1  0  0  0  0
  5 28  1  0  0  0  0
  6 11  1  0  0  0  0
  6  7  2  0  0  0  0
  7  8  1  0  0  0  0
  7 29  1  0  0  0  0
  8  9  2  0  0  0  0
  8 30  1  0  0  0  0
  9 10  1  0  0  0  0
  9 31  1  0  0  0  0
 10 11  2  0  0  0  0
 11 32  1  0  0  0  0
 12 23  1  0  0  0  0
 12 13  2  0  0  0  0
 13 14  1  0  0  0  0
 13 33  1  0  0  0  0
 14 15  2  0  0  0  0
 14 34  1  0  0  0  0
 15 16  1  0  0  0  0
 15 35  1  0  0  0  0
 16 23  1  0  0  0  0
 16 17  1  0  0  0  0
 17 18  1  0  0  0  0
 17 36  1  0  0  0  0
 17 37  1  0  0  0  0
 18 19  1  0  0  0  0
 18 38  1  0  0  0  0
 18 39  1  0  0  0  0
 19 20  2  0  0  0  0
 19 21  2  0  0  0  0
 19 22  1  0  0  0  0
 22 23  2  0  0  0  0
M  END
> <s_m_source_file>
AV-unprocessed.smi

> <i_m_source_file_index>
2188

> <i_lp_mmshare_version>
43012

> <i_f3d_flags>
0

> <s_epik_input>
W0NIMl0xW0NIMl1TKD1PKSg9TylOPUMoTjEyKUMoPVtDSF1bQ0hdPVtDSF0yKUMoPU8pW05IXVtDSDJdW0NIMl1jM1tjSF1bY0hdW2NIXW5bY0hdMw==

> <s_epik_cmdline>
J2VwaWtfcHl0aG9uJywgJy1waCcsICc3LjAnLCAnLXRuJywgJzgnLCAnLW1hJywgJzIwMCcsICctbWV0YWxfYmluZGluZycsICctaW1hZScsICc8aW5maWxlLm1hZT4nLCAnLW9tYWUnLCAnPG91dGZpbGUubWFlPic=

> <r_epik_Ionization_Penalty>
0.00945125

> <r_epik_Ionization_Penalty_Charging>
8.06468e-09

> <r_epik_Ionization_Penalty_Neutral>
0.00945124

> <r_epik_State_Penalty>
0.0071398

> <r_epik_Charging_Adjusted_Penalty>
0.0071398

> <i_epik_Tot_Q>
0

> <i_epik_Tot_abs_Q>
0

> <r_epik_Metal_State_Penalty>
0.0479458

> <b_epik_Metal_Only>
0

> <s_lp_Force_Field>
OPLS_2005

> <r_lp_Energy>
29.0495

> <b_lp_Chiralities_Consistent>
1

> <s_lp_Variant>
AV-unprocessed.smi:2188-1

> <Gold.Version>
5.8.1

> <Gold.Id.Protein>
6NUR|6NUR_protein|mol2

> <Gold.PLP.Fitness>
43.7609

> <Gold.PLP.PLP>
-34.3996

> <Gold.PLP.part.hbond>
-2.0000

> <Gold.PLP.part.metal>
0.0000

> <Gold.PLP.part.buried>
0.1153

> <Gold.PLP.part.nonpolar>
-32.7120

> <Gold.PLP.part.repulsive>
0.4781

> <Gold.PLP.ligand.clash>
0.0000

> <Gold.PLP.ligand.torsion>
1.4463

> <Gold.PLP.Chemscore.Hbond>
2.0000

> <Gold.PLP.Chemscore.CHOScore>
1.9971

> <Gold.PLP.Chemscore.Metal>
0.0000

> <Gold.Chemscore.Hbonds>
donor molecule, donor type, donor heavy atom, donor atom, acceptor molecule, acceptor atom, score
      L1  H     3    24       P1  7948  1.00
      P1  H 10752 10765       L1    20  1.00
      L1  C     9    31       P1 10952  1.00
      L1  C    11    32       P1 10747  0.95

> <Gold.PLP.Chemscore.Internal.Correction>
0.2625

> <Gold.Rescore>
     Score         DG    S(hbond)    S(metal)    S(lipo)     H(rot)  DE(clash)    DE(int)     intcor
     14.81     -18.43       1.98        0.00      86.20       1.47       0.98       2.63       ----

> <Gold.Chemscore.Fitness>
14.8125

> <Gold.Chemscore.DG>
-18.4262

> <Gold.Chemscore.ZeroCoef>
-5.4800

> <Gold.Chemscore.Hbond>
1.9815

> <Gold.Chemscore.Metal>
0.0000

> <Gold.Chemscore.Lipo>
86.2020

> <Gold.Chemscore.Internal_Hbond>
0.0000

> <Gold.Chemscore.DEClash>
0.9847

> <Gold.Chemscore.DEInternal>
2.6290

> <Gold.Chemscore.Rot>
1.4679

> <Gold.Chemscore.Internal.Correction>
   9.000000E+99

> <Gold.Chemscore.Hbonds>
donor molecule, donor type, donor heavy atom, donor atom, acceptor molecule, acceptor atom, score
      L1  H     3    24       P1  7948  0.99
      P1  H 10752 10765       L1    20  1.00

> <Gold.Chemscore.Hbond.Weighted>
-6.6183

> <Gold.Chemscore.Metal.Weighted>
-0.0000

> <Gold.Chemscore.Lipo.Weighted>
-10.0856

> <Gold.Chemscore.Internal_Hbond.Weighted>
0.0000

> <Gold.Chemscore.DEClash.Weighted>
0.9847

> <Gold.Chemscore.DEInternal.Weighted>
2.6290

> <Gold.Chemscore.Rot.Weighted>
3.7578

> <Gold.Chemscore.Internal.Correction.Weighted>
   9.000000E+99

> <Gold.Protein.RotatedTorsions>
[ 6907 6896 6895 6894 ] final  -55.03 input  -60.11 | X-H torsion
[ 7974 7965 7964 7962 ] final -103.34 input  175.53 | X-H torsion
[ 8008 7997 7996 7995 ] final -156.26 input   59.86 | X-H torsion
[ 10167 10162 10161 10158 ] final   11.49 input  -65.29 | X-H torsion
[ 10718 10713 10712 10709 ] final    1.59 input   66.30 | X-H torsion
[ 10763 10752 10751 10750 ] final  169.50 input  -60.55 | X-H torsion
[ 11005 11000 10999 10996 ] final -173.92 input  -57.11 | X-H torsion

> <Gold.Protein.ActiveResidues>
 VAL166  LYS551  ARG553  GLY616  TRP617  ASP618  TYR619  PRO620  LYS621  CYS622 
 ASP623  PHE694  ASN695  SER759  ASP760  ASP761  ALA762  ILE779  LEU786  VAL792 
 PHE793  MET794  SER795  GLU796  ALA797  LYS798  CYS799  TRP800  GLU811  SER814 

> <Gold.Protein.RotatedAtoms>
  150.8287  134.7530  159.6834 H   0  0  0  0  0  0  0  0  0  0  0  0  # atno 6907 bound_to 6896
  152.4394  134.5617  159.9906 H   0  0  0  0  0  0  0  0  0  0  0  0  # atno 6908 bound_to 6896
  151.5784  133.3343  159.3039 H   0  0  0  0  0  0  0  0  0  0  0  0  # atno 6909 bound_to 6896
  145.2571  140.9257  143.3062 H   0  0  0  0  0  0  0  0  0  0  0  0  # atno 7974 bound_to 7965
  155.7144  140.0782  157.2357 H   0  0  0  0  0  0  0  0  0  0  0  0  # atno 8008 bound_to 7997
  154.4054  140.1624  156.2386 H   0  0  0  0  0  0  0  0  0  0  0  0  # atno 8009 bound_to 7997
  155.9253  140.3395  155.6208 H   0  0  0  0  0  0  0  0  0  0  0  0  # atno 8010 bound_to 7997
  140.6128  143.8371  150.7085 H   0  0  0  0  0  0  0  0  0  0  0  0  # atno 10167 bound_to 10162
  156.8504  130.5552  149.5670 H   0  0  0  0  0  0  0  0  0  0  0  0  # atno 10718 bound_to 10713
  154.3840  135.2753  155.2194 H   0  0  0  0  0  0  0  0  0  0  0  0  # atno 10763 bound_to 10752
  154.4289  135.5982  153.6059 H   0  0  0  0  0  0  0  0  0  0  0  0  # atno 10764 bound_to 10752
  152.9833  135.5990  154.4087 H   0  0  0  0  0  0  0  0  0  0  0  0  # atno 10765 bound_to 10752
  140.4804  134.6081  157.4917 H   0  0  0  0  0  0  0  0  0  0  0  0  # atno 11005 bound_to 11000
  144.9451  139.4145  143.6430 LP  0  0  0  0  0  0  0  0  0  0  0  0  # atno 17320 bound_to 7965
  146.3286  139.8431  142.8887 LP  0  0  0  0  0  0  0  0  0  0  0  0  # atno 17321 bound_to 7965
  140.1943  143.4011  152.1839 LP  0  0  0  0  0  0  0  0  0  0  0  0  # atno 17342 bound_to 10162
  139.5375  144.7224  151.4845 LP  0  0  0  0  0  0  0  0  0  0  0  0  # atno 17343 bound_to 10162
  156.0831  130.5836  150.9599 LP  0  0  0  0  0  0  0  0  0  0  0  0  # atno 17370 bound_to 10713
  157.6306  131.0921  150.8448 LP  0  0  0  0  0  0  0  0  0  0  0  0  # atno 17371 bound_to 10713
  139.9830  134.7106  155.9825 LP  0  0  0  0  0  0  0  0  0  0  0  0  # atno 17394 bound_to 11000
  141.1534  133.6545  156.4084 LP  0  0  0  0  0  0  0  0  0  0  0  0  # atno 17395 bound_to 11000

$$$$
