AV-unprocessed.smi:450|AV-procd|sdf|2607|dock3
  -GOLD-   2262023 03D 1   1.00000     0.00000
 Structure written by MMmdl.
 32 32  0  0  0  0  0  0  0  0  1 V2000
  145.0938  133.3870  150.3453 C   0  0  0  0  0  0  0  0  0  0  0  0
  145.1760  134.8339  150.8531 C   0  0  0  0  0  0  0  0  0  0  0  0
  145.7262  134.9611  152.2869 C   0  0  2  0  0  0  0  0  0  0  0  0
  145.6987  136.4150  152.7787 C   0  0  0  0  0  0  0  0  0  0  0  0
  147.0962  134.4555  152.3575 N   0  0  0  0  0  0  0  0  0  0  0  0
  147.5047  133.3736  153.0384 C   0  0  0  0  0  0  0  0  0  0  0  0
  146.7486  132.6655  153.7054 O   0  0  0  0  0  0  0  0  0  0  0  0
  149.0009  133.0541  152.9340 C   0  0  0  0  0  0  0  0  0  0  0  0
  149.7114  133.2485  154.1973 N   0  0  0  0  0  0  0  0  0  0  0  0
  149.9585  134.4055  154.8443 C   0  0  0  0  0  0  0  0  0  0  0  0
  149.5250  135.6187  154.3302 N   0  0  0  0  0  0  0  0  0  0  0  0
  150.6389  134.2667  155.9789 N   0  0  0  0  0  0  0  0  0  0  0  0
  150.8744  132.8981  156.0948 C   0  0  0  0  0  0  0  0  0  0  0  0
  151.5920  132.3483  157.1949 C   0  0  0  0  0  0  0  0  0  0  0  0
  152.1762  131.8994  158.0869 N   0  0  0  0  0  0  0  0  0  0  0  0
  150.3073  132.2796  155.0013 C   0  0  0  0  0  0  0  0  0  0  0  0
  150.3220  130.8971  154.7195 C   0  0  0  0  0  0  0  0  0  0  0  0
  150.3342  129.7640  154.4871 N   0  0  0  0  0  0  0  0  0  0  0  0
  144.6424  133.3507  149.3538 H   0  0  0  0  0  0  0  0  0  0  0  0
  144.4866  132.7711  151.0092 H   0  0  0  0  0  0  0  0  0  0  0  0
  146.0808  132.9298  150.2726 H   0  0  0  0  0  0  0  0  0  0  0  0
  145.7883  135.4214  150.1677 H   0  0  0  0  0  0  0  0  0  0  0  0
  144.1773  135.2704  150.8155 H   0  0  0  0  0  0  0  0  0  0  0  0
  145.0762  134.3840  152.9468 H   0  0  0  0  0  0  0  0  0  0  0  0
  144.6847  136.8154  152.7623 H   0  0  0  0  0  0  0  0  0  0  0  0
  146.3206  137.0583  152.1553 H   0  0  0  0  0  0  0  0  0  0  0  0
  146.0643  136.4898  153.8035 H   0  0  0  0  0  0  0  0  0  0  0  0
  147.7919  134.9720  151.8388 H   0  0  0  0  0  0  0  0  0  0  0  0
  149.1304  132.0227  152.6040 H   0  0  0  0  0  0  0  0  0  0  0  0
  149.4536  133.6818  152.1658 H   0  0  0  0  0  0  0  0  0  0  0  0
  149.0144  135.6667  153.4601 H   0  0  0  0  0  0  0  0  0  0  0  0
  149.6661  136.4858  154.8276 H   0  0  0  0  0  0  0  0  0  0  0  0
  1  2  1  0  0  0  0
  1 19  1  0  0  0  0
  1 20  1  0  0  0  0
  1 21  1  0  0  0  0
  2  3  1  0  0  0  0
  2 22  1  0  0  0  0
  2 23  1  0  0  0  0
  3  4  1  0  0  0  0
  3  5  1  0  0  0  0
  3 24  1  0  0  0  0
  4 25  1  0  0  0  0
  4 26  1  0  0  0  0
  4 27  1  0  0  0  0
  5  6  1  0  0  0  0
  5 28  1  0  0  0  0
  6  7  2  0  0  0  0
  6  8  1  0  0  0  0
  8  9  1  0  0  0  0
  8 29  1  0  0  0  0
  8 30  1  0  0  0  0
  9 16  1  0  0  0  0
  9 10  1  0  0  0  0
 10 11  1  0  0  0  0
 10 12  2  0  0  0  0
 11 31  1  0  0  0  0
 11 32  1  0  0  0  0
 12 13  1  0  0  0  0
 13 14  1  0  0  0  0
 13 16  2  0  0  0  0
 14 15  3  0  0  0  0
 16 17  1  0  0  0  0
 17 18  3  0  0  0  0
M  END
> <s_m_source_file>
AV-unprocessed.smi

> <i_m_source_file_index>
450

> <i_lp_mmshare_version>
43012

> <i_f3d_flags>
0

> <s_epik_input>
W0NIM11bQ0gyXVtDQEhdKFtDSDNdKVtOSF1DKD1PKVtDSDJdbjFjKFtOSDJdKW5jKEMjTiljMUMjTg==

> <s_epik_cmdline>
J2VwaWtfcHl0aG9uJywgJy1waCcsICc3LjAnLCAnLXRuJywgJzgnLCAnLW1hJywgJzIwMCcsICctbWV0YWxfYmluZGluZycsICctaW1hZScsICc8aW5maWxlLm1hZT4nLCAnLW9tYWUnLCAnPG91dGZpbGUubWFlPic=

> <r_epik_Ionization_Penalty>
0.000482749

> <r_epik_Ionization_Penalty_Charging>
7.71074e-10

> <r_epik_Ionization_Penalty_Neutral>
0.000482748

> <r_epik_State_Penalty>
0.000433536

> <r_epik_Charging_Adjusted_Penalty>
0.000433537

> <i_epik_Tot_Q>
0

> <i_epik_Tot_abs_Q>
0

> <r_epik_Metal_State_Penalty>
-0

> <b_epik_Metal_Only>
0

> <s_lp_Force_Field>
OPLS_2005

> <r_lp_Energy>
6.35239

> <b_lp_Chiralities_Consistent>
1

> <s_lp_Variant>
AV-unprocessed.smi:450-1

> <Gold.Version>
5.8.1

> <Gold.Id.Protein>
6NUR|6NUR_protein|mol2

> <Gold.PLP.Fitness>
37.2344

> <Gold.PLP.PLP>
-28.9546

> <Gold.PLP.part.hbond>
-3.0000

> <Gold.PLP.part.metal>
0.0000

> <Gold.PLP.part.buried>
-3.6478

> <Gold.PLP.part.nonpolar>
-22.2730

> <Gold.PLP.part.repulsive>
0.2439

> <Gold.PLP.ligand.clash>
0.0000

> <Gold.PLP.ligand.torsion>
0.1459

> <Gold.PLP.Chemscore.Hbond>
2.8480

> <Gold.PLP.Chemscore.CHOScore>
0.0000

> <Gold.PLP.Chemscore.Metal>
0.0000

> <Gold.Chemscore.Hbonds>
donor molecule, donor type, donor heavy atom, donor atom, acceptor molecule, acceptor atom, score
      L1  H     5    28       P1  7948  0.98
      L1  H    11    31       P1  7948  0.94
      P1  H  6896  6907       L1    15  0.95

> <Gold.PLP.Chemscore.Internal.Correction>
0.0277

> <Gold.Rescore>
     Score         DG    S(hbond)    S(metal)    S(lipo)     H(rot)  DE(clash)    DE(int)     intcor
     11.81     -12.18       2.43        0.00      36.39       2.21       0.18       0.18       ----

> <Gold.Chemscore.Fitness>
11.8131

> <Gold.Chemscore.DG>
-12.1779

> <Gold.Chemscore.ZeroCoef>
-5.4800

> <Gold.Chemscore.Hbond>
2.4261

> <Gold.Chemscore.Metal>
0.0000

> <Gold.Chemscore.Lipo>
36.3895

> <Gold.Chemscore.Internal_Hbond>
0.0000

> <Gold.Chemscore.DEClash>
0.1799

> <Gold.Chemscore.DEInternal>
0.1850

> <Gold.Chemscore.Rot>
2.2121

> <Gold.Chemscore.Internal.Correction>
   9.000000E+99

> <Gold.Chemscore.Hbonds>
donor molecule, donor type, donor heavy atom, donor atom, acceptor molecule, acceptor atom, score
      L1  H     5    28       P1  7948  0.56
      L1  H    11    31       P1  7948  0.75
      P1  H  6896  6907       L1    15  0.22

> <Gold.Chemscore.Hbond.Weighted>
-8.1032

> <Gold.Chemscore.Metal.Weighted>
-0.0000

> <Gold.Chemscore.Lipo.Weighted>
-4.2576

> <Gold.Chemscore.Internal_Hbond.Weighted>
0.0000

> <Gold.Chemscore.DEClash.Weighted>
0.1799

> <Gold.Chemscore.DEInternal.Weighted>
0.1850

> <Gold.Chemscore.Rot.Weighted>
5.6629

> <Gold.Chemscore.Internal.Correction.Weighted>
   9.000000E+99

> <Gold.Protein.RotatedTorsions>
[ 6907 6896 6895 6894 ] final  164.09 input  -60.11 | X-H torsion
[ 7974 7965 7964 7962 ] final    4.59 input  175.53 | X-H torsion
[ 8008 7997 7996 7995 ] final  155.08 input   59.86 | X-H torsion
[ 10167 10162 10161 10158 ] final    2.23 input  -65.29 | X-H torsion
[ 10718 10713 10712 10709 ] final  174.70 input   66.30 | X-H torsion
[ 10763 10752 10751 10750 ] final -165.54 input  -60.55 | X-H torsion
[ 11005 11000 10999 10996 ] final   86.59 input  -57.11 | X-H torsion

> <Gold.Protein.ActiveResidues>
 VAL166  LYS551  ARG553  GLY616  TRP617  ASP618  TYR619  PRO620  LYS621  CYS622 
 ASP623  PHE694  ASN695  SER759  ASP760  ASP761  ALA762  ILE779  LEU786  VAL792 
 PHE793  MET794  SER795  GLU796  ALA797  LYS798  CYS799  TRP800  GLU811  SER814 

> <Gold.Protein.RotatedAtoms>
  151.9152  133.3571  159.3877 H   0  0  0  0  0  0  0  0  0  0  0  0  # atno 6907 bound_to 6896
  150.7049  134.4692  159.5426 H   0  0  0  0  0  0  0  0  0  0  0  0  # atno 6908 bound_to 6896
  152.2305  134.8326  160.0525 H   0  0  0  0  0  0  0  0  0  0  0  0  # atno 6909 bound_to 6896
  146.2443  140.0512  142.8375 H   0  0  0  0  0  0  0  0  0  0  0  0  # atno 7974 bound_to 7965
  156.2497  140.1949  156.6746 H   0  0  0  0  0  0  0  0  0  0  0  0  # atno 8008 bound_to 7997
  154.6367  140.0589  156.9823 H   0  0  0  0  0  0  0  0  0  0  0  0  # atno 8009 bound_to 7997
  155.1626  140.3261  155.4411 H   0  0  0  0  0  0  0  0  0  0  0  0  # atno 8010 bound_to 7997
  140.6645  143.7217  150.7800 H   0  0  0  0  0  0  0  0  0  0  0  0  # atno 10167 bound_to 10162
  156.9457  131.0015  151.2959 H   0  0  0  0  0  0  0  0  0  0  0  0  # atno 10718 bound_to 10713
  154.6922  135.2973  154.9463 H   0  0  0  0  0  0  0  0  0  0  0  0  # atno 10763 bound_to 10752
  154.0423  135.6656  153.4795 H   0  0  0  0  0  0  0  0  0  0  0  0  # atno 10764 bound_to 10752
  153.0620  135.5110  154.8020 H   0  0  0  0  0  0  0  0  0  0  0  0  # atno 10765 bound_to 10752
  139.8941  134.8365  156.2742 H   0  0  0  0  0  0  0  0  0  0  0  0  # atno 11005 bound_to 11000
  145.0982  140.9329  143.4728 LP  0  0  0  0  0  0  0  0  0  0  0  0  # atno 17320 bound_to 7965
  145.0700  139.3039  143.5837 LP  0  0  0  0  0  0  0  0  0  0  0  0  # atno 17321 bound_to 7965
  140.0891  143.4894  152.2488 LP  0  0  0  0  0  0  0  0  0  0  0  0  # atno 17342 bound_to 10162
  139.5889  144.7542  151.3451 LP  0  0  0  0  0  0  0  0  0  0  0  0  # atno 17343 bound_to 10162
  157.5755  130.8340  149.8450 LP  0  0  0  0  0  0  0  0  0  0  0  0  # atno 17370 bound_to 10713
  156.0385  130.3745  150.1498 LP  0  0  0  0  0  0  0  0  0  0  0  0  # atno 17371 bound_to 10713
  141.0081  133.7112  156.1067 LP  0  0  0  0  0  0  0  0  0  0  0  0  # atno 17394 bound_to 11000
  140.7405  134.4155  157.5555 LP  0  0  0  0  0  0  0  0  0  0  0  0  # atno 17395 bound_to 11000

$$$$
