AV-unprocessed.smi:610|AV-procd|sdf|3056|dock8
  -GOLD-   2262023583D 1   1.00000     0.00000
 Structure written by MMmdl.
 38 39  0  0  0  0  0  0  0  0  2 V2000
  151.0773  140.2645  158.1364 C   0  0  0  0  0  0  0  0  0  0  0  0
  150.3003  141.3843  157.4312 C   0  0  1  0  0  0  0  0  0  0  0  0
  151.2494  142.4849  156.9124 C   0  0  0  0  0  0  0  0  0  0  0  0
  151.7061  143.3721  157.9661 N   0  0  0  0  0  0  0  0  0  0  0  0
  152.4290  143.0250  159.0998 C   0  0  0  0  0  0  0  0  0  0  0  0
  152.6254  144.1868  159.8114 C   0  0  0  0  0  0  0  0  0  0  0  0
  152.0437  145.2558  159.1338 N   0  0  0  0  0  0  0  0  0  0  0  0
  151.5265  144.6974  158.0475 C   0  0  0  0  0  0  0  0  0  0  0  0
  149.5271  140.8049  156.3331 N   0  0  0  0  0  0  0  0  0  0  0  0
  150.0305  140.1671  155.2615 C   0  0  0  0  0  0  0  0  0  0  0  0
  151.2411  140.0291  155.0841 O   0  0  0  0  0  0  0  0  0  0  0  0
  149.0418  139.6157  154.2070 C   0  0  0  0  0  0  0  0  0  0  0  0
  149.8374  138.8647  153.2192 N   0  3  0  0  0  0  0  0  0  0  0  0
  147.9700  138.7197  154.8568 C   0  0  0  0  0  0  0  0  0  0  0  0
  146.8684  139.6751  155.3388 C   0  0  0  0  0  0  0  0  0  0  0  0
  147.0215  140.9596  154.5091 C   0  0  0  0  0  0  0  0  0  0  0  0
  148.1652  140.6864  153.5242 C   0  0  0  0  0  0  0  0  0  0  0  0
  151.6469  140.6549  158.9804 H   0  0  0  0  0  0  0  0  0  0  0  0
  151.7792  139.7780  157.4581 H   0  0  0  0  0  0  0  0  0  0  0  0
  150.4017  139.5003  158.5226 H   0  0  0  0  0  0  0  0  0  0  0  0
  149.6285  141.8222  158.1716 H   0  0  0  0  0  0  0  0  0  0  0  0
  152.1306  142.0344  156.4541 H   0  0  0  0  0  0  0  0  0  0  0  0
  150.7627  143.0775  156.1363 H   0  0  0  0  0  0  0  0  0  0  0  0
  152.7292  142.0078  159.3043 H   0  0  0  0  0  0  0  0  0  0  0  0
  153.1384  144.3343  160.7504 H   0  0  0  0  0  0  0  0  0  0  0  0
  150.9949  145.2655  157.2982 H   0  0  0  0  0  0  0  0  0  0  0  0
  148.5226  140.8800  156.4050 H   0  0  0  0  0  0  0  0  0  0  0  0
  150.7423  138.6440  153.6093 H   0  0  0  0  0  0  0  0  0  0  0  0
  149.9551  139.4301  152.3903 H   0  0  0  0  0  0  0  0  0  0  0  0
  147.5503  138.0450  154.1087 H   0  0  0  0  0  0  0  0  0  0  0  0
  148.3451  138.0915  155.6662 H   0  0  0  0  0  0  0  0  0  0  0  0
  145.8807  139.2291  155.2179 H   0  0  0  0  0  0  0  0  0  0  0  0
  146.9955  139.8979  156.3984 H   0  0  0  0  0  0  0  0  0  0  0  0
  146.0999  141.2263  153.9904 H   0  0  0  0  0  0  0  0  0  0  0  0
  147.2798  141.7932  155.1634 H   0  0  0  0  0  0  0  0  0  0  0  0
  148.6957  141.5949  153.2370 H   0  0  0  0  0  0  0  0  0  0  0  0
  147.7433  140.2772  152.6044 H   0  0  0  0  0  0  0  0  0  0  0  0
  149.3546  138.0116  152.9767 H   0  0  0  0  0  0  0  0  0  0  0  0
  1  2  1  0  0  0  0
  1 18  1  0  0  0  0
  1 19  1  0  0  0  0
  1 20  1  0  0  0  0
  2  3  1  0  0  0  0
  2  9  1  0  0  0  0
  2 21  1  0  0  0  0
  3  4  1  0  0  0  0
  3 22  1  0  0  0  0
  3 23  1  0  0  0  0
  4  8  1  0  0  0  0
  4  5  1  0  0  0  0
  5  6  2  0  0  0  0
  5 24  1  0  0  0  0
  6  7  1  0  0  0  0
  6 25  1  0  0  0  0
  7  8  2  0  0  0  0
  8 26  1  0  0  0  0
  9 10  1  0  0  0  0
  9 27  1  0  0  0  0
 10 11  2  0  0  0  0
 10 12  1  0  0  0  0
 12 17  1  0  0  0  0
 12 13  1  0  0  0  0
 12 14  1  0  0  0  0
 13 28  1  0  0  0  0
 13 29  1  0  0  0  0
 13 38  1  0  0  0  0
 14 15  1  0  0  0  0
 14 30  1  0  0  0  0
 14 31  1  0  0  0  0
 15 16  1  0  0  0  0
 15 32  1  0  0  0  0
 15 33  1  0  0  0  0
 16 17  1  0  0  0  0
 16 34  1  0  0  0  0
 16 35  1  0  0  0  0
 17 36  1  0  0  0  0
 17 37  1  0  0  0  0
M  CHG  1  13   1
M  END
> <s_m_source_file>
AV-unprocessed.smi

> <i_m_source_file_index>
610

> <i_lp_mmshare_version>
43012

> <i_f3d_flags>
0

> <s_epik_input>
W2NIXTFuW2NIXVtjSF1uMVtDSDJdW0NAQEhdKFtDSDNdKVtOSF1DKD1PKUMyKFtOSDJdKVtDSDJdW0NIMl1bQ0gyXVtDSDJdMg==

> <s_epik_cmdline>
J2VwaWtfcHl0aG9uJywgJy1waCcsICc3LjAnLCAnLXRuJywgJzgnLCAnLW1hJywgJzIwMCcsICctbWV0YWxfYmluZGluZycsICctaW1hZScsICc8aW5maWxlLm1hZT4nLCAnLW9tYWUnLCAnPG91dGZpbGUubWFlPic=

> <r_lp_tautomer_probability>
1

> <r_epik_Ionization_Penalty>
0.661147

> <r_epik_Ionization_Penalty_Charging>
0.661145

> <r_epik_Ionization_Penalty_Neutral>
1.19451e-06

> <r_epik_State_Penalty>
0.679243

> <r_epik_Charging_Adjusted_Penalty>
1.34039

> <i_epik_Tot_Q>
1

> <i_epik_Tot_abs_Q>
1

> <r_epik_Metal_State_Penalty>
0.372892

> <b_epik_Metal_Only>
0

> <s_lp_Force_Field>
OPLS_2005

> <r_lp_Energy>
24.5235

> <b_lp_Chiralities_Consistent>
1

> <s_lp_Variant>
AV-unprocessed.smi:610-4

> <Gold.Version>
5.8.1

> <Gold.Id.Protein>
6NUR|6NUR_protein|mol2

> <Gold.PLP.Fitness>
45.6211

> <Gold.PLP.PLP>
-31.0616

> <Gold.PLP.part.hbond>
-2.9936

> <Gold.PLP.part.metal>
0.0000

> <Gold.PLP.part.buried>
-3.6437

> <Gold.PLP.part.nonpolar>
-24.9775

> <Gold.PLP.part.repulsive>
0.2621

> <Gold.PLP.ligand.clash>
0.0000

> <Gold.PLP.ligand.torsion>
0.2493

> <Gold.PLP.Chemscore.Hbond>
4.0000

> <Gold.PLP.Chemscore.CHOScore>
1.0000

> <Gold.PLP.Chemscore.Metal>
0.0000

> <Gold.Chemscore.Hbonds>
donor molecule, donor type, donor heavy atom, donor atom, acceptor molecule, acceptor atom, score
      L1  H    13    29       P1  7957  0.68
      L1  H    13    38       P1  7948  1.66
      P1  H  7989  7998       L1    11  1.00
      L1  C     8    26       P1  8028  0.65

> <Gold.PLP.Chemscore.Internal.Correction>
0.0581

> <Gold.Rescore>
     Score         DG    S(hbond)    S(metal)    S(lipo)     H(rot)  DE(clash)    DE(int)     intcor
     14.75     -16.91       2.79        0.00      61.73       2.00       0.00       2.15       ----

> <Gold.Chemscore.Fitness>
14.7482

> <Gold.Chemscore.DG>
-16.9064

> <Gold.Chemscore.ZeroCoef>
-5.4800

> <Gold.Chemscore.Hbond>
2.7894

> <Gold.Chemscore.Metal>
0.0000

> <Gold.Chemscore.Lipo>
61.7297

> <Gold.Chemscore.Internal_Hbond>
0.0000

> <Gold.Chemscore.DEClash>
0.0043

> <Gold.Chemscore.DEInternal>
2.1539

> <Gold.Chemscore.Rot>
1.9972

> <Gold.Chemscore.Internal.Correction>
   9.000000E+99

> <Gold.Chemscore.Hbonds>
donor molecule, donor type, donor heavy atom, donor atom, acceptor molecule, acceptor atom, score
      L1  H    13    29       P1  7957  0.60
      L1  H    13    38       P1  7948  0.74
      P1  H  7989  7998       L1    11  0.60

> <Gold.Chemscore.Hbond.Weighted>
-9.3167

> <Gold.Chemscore.Metal.Weighted>
-0.0000

> <Gold.Chemscore.Lipo.Weighted>
-7.2224

> <Gold.Chemscore.Internal_Hbond.Weighted>
0.0000

> <Gold.Chemscore.DEClash.Weighted>
0.0043

> <Gold.Chemscore.DEInternal.Weighted>
2.1539

> <Gold.Chemscore.Rot.Weighted>
5.1127

> <Gold.Chemscore.Internal.Correction.Weighted>
   9.000000E+99

> <Gold.Protein.RotatedTorsions>
[ 6907 6896 6895 6894 ] final  -93.39 input  -60.11 | X-H torsion
[ 7974 7965 7964 7962 ] final  120.75 input  175.53 | X-H torsion
[ 8008 7997 7996 7995 ] final  -73.99 input   59.86 | X-H torsion
[ 10167 10162 10161 10158 ] final   34.74 input  -65.29 | X-H torsion
[ 10718 10713 10712 10709 ] final   26.42 input   66.30 | X-H torsion
[ 10763 10752 10751 10750 ] final   24.77 input  -60.55 | X-H torsion
[ 11005 11000 10999 10996 ] final  -86.52 input  -57.11 | X-H torsion

> <Gold.Protein.ActiveResidues>
 VAL166  LYS551  ARG553  GLY616  TRP617  ASP618  TYR619  PRO620  LYS621  CYS622 
 ASP623  PHE694  ASN695  SER759  ASP760  ASP761  ALA762  ILE779  LEU786  VAL792 
 PHE793  MET794  SER795  GLU796  ALA797  LYS798  CYS799  TRP800  GLU811  SER814 

> <Gold.Protein.RotatedAtoms>
  150.6922  134.1974  159.4308 H   0  0  0  0  0  0  0  0  0  0  0  0  # atno 6907 bound_to 6896
  151.9942  134.9960  160.0572 H   0  0  0  0  0  0  0  0  0  0  0  0  # atno 6908 bound_to 6896
  152.1639  133.4564  159.4912 H   0  0  0  0  0  0  0  0  0  0  0  0  # atno 6909 bound_to 6896
  145.1275  139.3349  143.4682 H   0  0  0  0  0  0  0  0  0  0  0  0  # atno 7974 bound_to 7965
  154.5293  140.0769  156.8315 H   0  0  0  0  0  0  0  0  0  0  0  0  # atno 8008 bound_to 7997
  155.3409  140.3407  155.4221 H   0  0  0  0  0  0  0  0  0  0  0  0  # atno 8009 bound_to 7997
  156.1764  140.1637  156.8341 H   0  0  0  0  0  0  0  0  0  0  0  0  # atno 8010 bound_to 7997
  140.4287  144.1356  150.6156 H   0  0  0  0  0  0  0  0  0  0  0  0  # atno 10167 bound_to 10162
  157.2066  130.6914  149.6210 H   0  0  0  0  0  0  0  0  0  0  0  0  # atno 10718 bound_to 10713
  153.0740  135.6598  154.0186 H   0  0  0  0  0  0  0  0  0  0  0  0  # atno 10763 bound_to 10752
  153.9825  135.2954  155.3420 H   0  0  0  0  0  0  0  0  0  0  0  0  # atno 10764 bound_to 10752
  154.7123  135.5200  153.8755 H   0  0  0  0  0  0  0  0  0  0  0  0  # atno 10765 bound_to 10752
  141.1629  133.7459  156.9173 H   0  0  0  0  0  0  0  0  0  0  0  0  # atno 11005 bound_to 11000
  146.3516  140.1259  142.8598 LP  0  0  0  0  0  0  0  0  0  0  0  0  # atno 17320 bound_to 7965
  145.0672  140.9130  143.4903 LP  0  0  0  0  0  0  0  0  0  0  0  0  # atno 17321 bound_to 7965
  140.4452  143.2510  151.9421 LP  0  0  0  0  0  0  0  0  0  0  0  0  # atno 17342 bound_to 10162
  139.4784  144.5616  151.8230 LP  0  0  0  0  0  0  0  0  0  0  0  0  # atno 17343 bound_to 10162
  155.9695  130.4565  150.5927 LP  0  0  0  0  0  0  0  0  0  0  0  0  # atno 17370 bound_to 10713
  157.3714  131.0766  151.1554 LP  0  0  0  0  0  0  0  0  0  0  0  0  # atno 17371 bound_to 10713
  140.1475  134.9252  157.2549 LP  0  0  0  0  0  0  0  0  0  0  0  0  # atno 17394 bound_to 11000
  140.2762  134.3403  155.7357 LP  0  0  0  0  0  0  0  0  0  0  0  0  # atno 17395 bound_to 11000

$$$$
