AV-unprocessed.smi:181|AV-procd|sdf|1453|dock1
  -GOLD-   2262019253D 1   1.00000     0.00000
 Structure written by MMmdl.
 50 53  0  0  0  0  0  0  0  0  1 V2000
  146.7271  131.7324  160.2713 C   0  0  0  0  0  0  0  0  0  0  0  0
  146.1452  132.8721  159.4265 C   0  0  0  0  0  0  0  0  0  0  0  0
  147.1377  133.9133  159.1633 N   0  0  0  0  0  0  0  0  0  0  0  0
  147.8036  133.7682  157.9946 C   0  0  0  0  0  0  0  0  0  0  0  0
  149.1232  134.0787  157.9218 N   0  0  0  0  0  0  0  0  0  0  0  0
  149.7796  133.9292  156.7673 C   0  0  0  0  0  0  0  0  0  0  0  0
  149.3173  133.4884  155.5945 N   0  0  0  0  0  0  0  0  0  0  0  0
  147.9942  133.1651  155.6727 C   0  0  0  0  0  0  0  0  0  0  0  0
  147.1696  133.2717  156.8264 C   0  0  0  0  0  0  0  0  0  0  0  0
  145.8784  132.8528  156.5336 N   0  0  0  0  0  0  0  0  0  0  0  0
  145.9365  132.5140  155.2740 C   0  0  0  0  0  0  0  0  0  0  0  0
  147.1697  132.6663  154.6798 N   0  0  0  0  0  0  0  0  0  0  0  0
  147.5149  132.3676  153.2987 C   0  0  0  0  0  0  0  0  0  0  0  0
  146.5268  132.9588  152.2631 C   0  0  0  0  0  0  0  0  0  0  0  0
  147.1401  132.8736  150.9881 O   0  0  0  0  0  0  0  0  0  0  0  0
  145.2244  132.1343  152.2324 C   0  0  0  0  0  0  0  0  0  0  0  0
  144.1479  132.7820  151.3436 C   0  0  0  0  0  0  0  0  0  0  0  0
  143.9037  134.1167  151.7701 O   0  0  0  0  0  0  0  0  0  0  0  0
  145.0474  134.9527  151.6419 C   0  0  0  0  0  0  0  0  0  0  0  0
  146.1843  134.4390  152.5430 C   0  0  0  0  0  0  0  0  0  0  0  0
  147.7846  134.6111  160.2869 C   0  0  2  0  0  0  0  0  0  0  0  0
  147.0783  134.4112  161.6439 C   0  0  0  0  0  0  0  0  0  0  0  0
  147.3481  135.7122  162.4140 C   0  0  0  0  0  0  0  0  0  0  0  0
  147.6497  136.6848  161.3799 N   0  0  0  0  0  0  0  0  0  0  0  0
  147.8747  136.1330  160.1878 C   0  0  0  0  0  0  0  0  0  0  0  0
  148.1406  136.7444  159.1550 O   0  0  0  0  0  0  0  0  0  0  0  0
  145.9693  130.9748  160.4712 H   0  0  0  0  0  0  0  0  0  0  0  0
  147.0880  132.1031  161.2312 H   0  0  0  0  0  0  0  0  0  0  0  0
  147.5592  131.2410  159.7674 H   0  0  0  0  0  0  0  0  0  0  0  0
  145.7773  132.4733  158.4812 H   0  0  0  0  0  0  0  0  0  0  0  0
  145.2730  133.2817  159.9403 H   0  0  0  0  0  0  0  0  0  0  0  0
  150.8248  134.2000  156.7866 H   0  0  0  0  0  0  0  0  0  0  0  0
  145.0766  132.1363  154.7398 H   0  0  0  0  0  0  0  0  0  0  0  0
  148.5256  132.7340  153.1124 H   0  0  0  0  0  0  0  0  0  0  0  0
  147.5630  131.2833  153.1911 H   0  0  0  0  0  0  0  0  0  0  0  0
  147.4322  131.9849  150.8547 H   0  0  0  0  0  0  0  0  0  0  0  0
  145.4234  131.1154  151.8974 H   0  0  0  0  0  0  0  0  0  0  0  0
  144.8276  132.0495  153.2450 H   0  0  0  0  0  0  0  0  0  0  0  0
  144.4442  132.7715  150.2935 H   0  0  0  0  0  0  0  0  0  0  0  0
  143.2186  132.2166  151.4138 H   0  0  0  0  0  0  0  0  0  0  0  0
  145.3629  134.9993  150.5984 H   0  0  0  0  0  0  0  0  0  0  0  0
  144.7732  135.9669  151.9327 H   0  0  0  0  0  0  0  0  0  0  0  0
  145.8750  134.5452  153.5836 H   0  0  0  0  0  0  0  0  0  0  0  0
  147.0631  135.0727  152.4182 H   0  0  0  0  0  0  0  0  0  0  0  0
  148.8096  134.2498  160.3751 H   0  0  0  0  0  0  0  0  0  0  0  0
  146.0001  134.2918  161.5371 H   0  0  0  0  0  0  0  0  0  0  0  0
  147.4486  133.5339  162.1753 H   0  0  0  0  0  0  0  0  0  0  0  0
  146.4914  136.0209  163.0135 H   0  0  0  0  0  0  0  0  0  0  0  0
  148.2121  135.6096  163.0717 H   0  0  0  0  0  0  0  0  0  0  0  0
  147.6637  137.6790  161.5550 H   0  0  0  0  0  0  0  0  0  0  0  0
  1  2  1  0  0  0  0
  1 27  1  0  0  0  0
  1 28  1  0  0  0  0
  1 29  1  0  0  0  0
  2  3  1  0  0  0  0
  2 30  1  0  0  0  0
  2 31  1  0  0  0  0
  3  4  1  0  0  0  0
  3 21  1  0  0  0  0
  4  9  1  0  0  0  0
  4  5  2  0  0  0  0
  5  6  1  0  0  0  0
  6  7  2  0  0  0  0
  6 32  1  0  0  0  0
  7  8  1  0  0  0  0
  8 12  1  0  0  0  0
  8  9  2  0  0  0  0
  9 10  1  0  0  0  0
 10 11  2  0  0  0  0
 11 12  1  0  0  0  0
 11 33  1  0  0  0  0
 12 13  1  0  0  0  0
 13 14  1  0  0  0  0
 13 34  1  0  0  0  0
 13 35  1  0  0  0  0
 14 20  1  0  0  0  0
 14 15  1  0  0  0  0
 14 16  1  0  0  0  0
 15 36  1  0  0  0  0
 16 17  1  0  0  0  0
 16 37  1  0  0  0  0
 16 38  1  0  0  0  0
 17 18  1  0  0  0  0
 17 39  1  0  0  0  0
 17 40  1  0  0  0  0
 18 19  1  0  0  0  0
 19 20  1  0  0  0  0
 19 41  1  0  0  0  0
 19 42  1  0  0  0  0
 20 43  1  0  0  0  0
 20 44  1  0  0  0  0
 21 25  1  0  0  0  0
 21 22  1  0  0  0  0
 21 45  1  0  0  0  0
 22 23  1  0  0  0  0
 22 46  1  0  0  0  0
 22 47  1  0  0  0  0
 23 24  1  0  0  0  0
 23 48  1  0  0  0  0
 23 49  1  0  0  0  0
 24 25  1  0  0  0  0
 24 50  1  0  0  0  0
 25 26  2  0  0  0  0
M  END
> <s_m_source_file>
AV-unprocessed.smi

> <i_m_source_file_index>
181

> <i_lp_mmshare_version>
43012

> <i_f3d_flags>
0

> <s_epik_input>
Tz1DMVtOSF1bQ0gyXVtDSDJdW0NASF0xTihbQ0gyXVtDSDNdKWMobltjSF1uMiljKGMyMyluW2NIXW4zW0NIMl1DNChbT0hdKVtDSDJdW0NIMl1PW0NIMl1bQ0gyXTQ=

> <s_epik_cmdline>
J2VwaWtfcHl0aG9uJywgJy1waCcsICc3LjAnLCAnLXRuJywgJzgnLCAnLW1hJywgJzIwMCcsICctbWV0YWxfYmluZGluZycsICctaW1hZScsICc8aW5maWxlLm1hZT4nLCAnLW9tYWUnLCAnPG91dGZpbGUubWFlPic=

> <r_lp_tautomer_probability>
1

> <r_epik_Ionization_Penalty>
0.000985257

> <r_epik_Ionization_Penalty_Charging>
0

> <r_epik_Ionization_Penalty_Neutral>
0.000985257

> <r_epik_State_Penalty>
0.000517047

> <r_epik_Charging_Adjusted_Penalty>
0.000517047

> <i_epik_Tot_Q>
0

> <i_epik_Tot_abs_Q>
0

> <r_epik_Metal_State_Penalty>
-0

> <b_epik_Metal_Only>
0

> <s_lp_Force_Field>
OPLS_2005

> <r_lp_Energy>
35.7055

> <b_lp_Chiralities_Consistent>
1

> <s_lp_Variant>
AV-unprocessed.smi:181-1

> <Gold.Version>
5.8.1

> <Gold.Id.Protein>
6NUR|6NUR_protein|mol2

> <Gold.PLP.Fitness>
38.2065

> <Gold.PLP.PLP>
-30.0093

> <Gold.PLP.part.hbond>
-2.0000

> <Gold.PLP.part.metal>
0.0000

> <Gold.PLP.part.buried>
-6.4724

> <Gold.PLP.part.nonpolar>
-22.7803

> <Gold.PLP.part.repulsive>
0.4176

> <Gold.PLP.ligand.clash>
0.0000

> <Gold.PLP.ligand.torsion>
1.0946

> <Gold.PLP.Chemscore.Hbond>
1.9920

> <Gold.PLP.Chemscore.CHOScore>
0.9802

> <Gold.PLP.Chemscore.Metal>
0.0000

> <Gold.Chemscore.Hbonds>
donor molecule, donor type, donor heavy atom, donor atom, acceptor molecule, acceptor atom, score
      L1  H    15    36       P1 10747  0.88
      P1  H  6896  6909       L1     5  0.81
      L1  C    11    33       P1 10957  1.00

> <Gold.PLP.Chemscore.Internal.Correction>
1.4697

> <Gold.Rescore>
     Score         DG    S(hbond)    S(metal)    S(lipo)     H(rot)  DE(clash)    DE(int)     intcor
     10.75     -12.88       1.91        0.00      63.23       2.49       0.01       2.12       ----

> <Gold.Chemscore.Fitness>
10.7542

> <Gold.Chemscore.DG>
-12.8832

> <Gold.Chemscore.ZeroCoef>
-5.4800

> <Gold.Chemscore.Hbond>
1.9099

> <Gold.Chemscore.Metal>
0.0000

> <Gold.Chemscore.Lipo>
63.2281

> <Gold.Chemscore.Internal_Hbond>
0.0000

> <Gold.Chemscore.DEClash>
0.0126

> <Gold.Chemscore.DEInternal>
2.1164

> <Gold.Chemscore.Rot>
2.4897

> <Gold.Chemscore.Internal.Correction>
   9.000000E+99

> <Gold.Chemscore.Hbonds>
donor molecule, donor type, donor heavy atom, donor atom, acceptor molecule, acceptor atom, score
      L1  H    15    36       P1 10747  0.84
      P1  H  6896  6909       L1     5  0.24

> <Gold.Chemscore.Hbond.Weighted>
-6.3790

> <Gold.Chemscore.Metal.Weighted>
-0.0000

> <Gold.Chemscore.Lipo.Weighted>
-7.3977

> <Gold.Chemscore.Internal_Hbond.Weighted>
0.0000

> <Gold.Chemscore.DEClash.Weighted>
0.0126

> <Gold.Chemscore.DEInternal.Weighted>
2.1164

> <Gold.Chemscore.Rot.Weighted>
6.3735

> <Gold.Chemscore.Internal.Correction.Weighted>
   9.000000E+99

> <Gold.Protein.RotatedTorsions>
[ 6907 6896 6895 6894 ] final    9.06 input  -60.11 | X-H torsion
[ 7974 7965 7964 7962 ] final -121.85 input  175.53 | X-H torsion
[ 8008 7997 7996 7995 ] final  118.40 input   59.86 | X-H torsion
[ 10167 10162 10161 10158 ] final -118.40 input  -65.29 | X-H torsion
[ 10718 10713 10712 10709 ] final   72.88 input   66.30 | X-H torsion
[ 10763 10752 10751 10750 ] final -161.03 input  -60.55 | X-H torsion
[ 11005 11000 10999 10996 ] final   -0.62 input  -57.11 | X-H torsion

> <Gold.Protein.ActiveResidues>
 VAL166  LYS551  ARG553  GLY616  TRP617  ASP618  TYR619  PRO620  LYS621  CYS622 
 ASP623  PHE694  ASN695  SER759  ASP760  ASP761  ALA762  ILE779  LEU786  VAL792 
 PHE793  MET794  SER795  GLU796  ALA797  LYS798  CYS799  TRP800  GLU811  SER814 

> <Gold.Protein.RotatedAtoms>
  151.7161  135.0903  160.0275 H   0  0  0  0  0  0  0  0  0  0  0  0  # atno 6907 bound_to 6896
  152.3631  133.6318  159.6038 H   0  0  0  0  0  0  0  0  0  0  0  0  # atno 6908 bound_to 6896
  150.7618  133.9308  159.3467 H   0  0  0  0  0  0  0  0  0  0  0  0  # atno 6909 bound_to 6896
  145.0358  140.8105  143.4296 H   0  0  0  0  0  0  0  0  0  0  0  0  # atno 7974 bound_to 7965
  156.2544  140.2875  156.0829 H   0  0  0  0  0  0  0  0  0  0  0  0  # atno 8008 bound_to 7997
  155.1547  140.0398  157.2846 H   0  0  0  0  0  0  0  0  0  0  0  0  # atno 8009 bound_to 7997
  154.6435  140.2528  155.7301 H   0  0  0  0  0  0  0  0  0  0  0  0  # atno 8010 bound_to 7997
  140.0579  143.4996  152.2047 H   0  0  0  0  0  0  0  0  0  0  0  0  # atno 10167 bound_to 10162
  157.6522  130.9601  150.0991 H   0  0  0  0  0  0  0  0  0  0  0  0  # atno 10718 bound_to 10713
  154.7339  135.3053  154.8844 H   0  0  0  0  0  0  0  0  0  0  0  0  # atno 10763 bound_to 10752
  153.9679  135.6745  153.4750 H   0  0  0  0  0  0  0  0  0  0  0  0  # atno 10764 bound_to 10752
  153.0944  135.4943  154.8673 H   0  0  0  0  0  0  0  0  0  0  0  0  # atno 10765 bound_to 10752
  140.6383  133.9512  155.8312 H   0  0  0  0  0  0  0  0  0  0  0  0  # atno 11005 bound_to 11000
  145.1711  139.2404  143.5341 LP  0  0  0  0  0  0  0  0  0  0  0  0  # atno 17320 bound_to 7965
  146.3504  140.1462  142.8593 LP  0  0  0  0  0  0  0  0  0  0  0  0  # atno 17321 bound_to 7965
  139.5912  144.7551  151.3396 LP  0  0  0  0  0  0  0  0  0  0  0  0  # atno 17342 bound_to 10162
  140.7186  143.7198  150.7704 LP  0  0  0  0  0  0  0  0  0  0  0  0  # atno 17343 bound_to 10162
  156.1918  130.3655  149.8899 LP  0  0  0  0  0  0  0  0  0  0  0  0  # atno 17370 bound_to 10713
  156.6826  130.8864  151.3578 LP  0  0  0  0  0  0  0  0  0  0  0  0  # atno 17371 bound_to 10713
  141.0625  134.0325  157.3639 LP  0  0  0  0  0  0  0  0  0  0  0  0  # atno 17394 bound_to 11000
  139.9090  135.0186  156.7609 LP  0  0  0  0  0  0  0  0  0  0  0  0  # atno 17395 bound_to 11000

$$$$
