AV-unprocessed.smi:1055|AV-procd|sdf|4625|dock7
  -GOLD-   22720 3123D 1   1.00000     0.00000
 Structure written by MMmdl.
 52 53  0  0  0  0  0  0  0  0  3 V2000
  143.9383  142.0910  158.3446 C   0  0  0  0  0  0  0  0  0  0  0  0
  144.0104  142.7927  157.2015 C   0  0  0  0  0  0  0  0  0  0  0  0
  144.4760  144.2364  157.1732 C   0  0  0  0  0  0  0  0  0  0  0  0
  143.6242  142.1913  155.8594 C   0  0  0  0  0  0  0  0  0  0  0  0
  144.8130  141.9097  155.0164 N   0  3  2  0  0  0  0  0  0  0  0  0
  145.7967  141.0390  155.7084 C   0  0  0  0  0  0  0  0  0  0  0  0
  146.9422  140.6318  154.7641 C   0  0  0  0  0  0  0  0  0  0  0  0
  147.6379  141.8516  154.1354 C   0  0  2  0  0  0  0  0  0  0  0  0
  148.4495  142.5522  155.1310 N   0  0  0  0  0  0  0  0  0  0  0  0
  149.4364  141.9980  155.8504 C   0  0  0  0  0  0  0  0  0  0  0  0
  149.7880  140.8254  155.7264 O   0  0  0  0  0  0  0  0  0  0  0  0
  149.9872  142.8893  156.6929 N   0  0  0  0  0  0  0  0  0  0  0  0
  151.0263  142.6843  157.6414 C   0  0  0  0  0  0  0  0  0  0  0  0
  151.0726  143.5381  158.7631 C   0  0  0  0  0  0  0  0  0  0  0  0
  152.0755  143.3631  159.7388 C   0  0  0  0  0  0  0  0  0  0  0  0
  153.0267  142.3237  159.5934 C   0  0  0  0  0  0  0  0  0  0  0  0
  154.0578  142.0831  160.5272 N   0  0  0  0  0  0  0  0  0  0  0  0
  155.2480  141.3453  160.1191 C   0  0  0  0  0  0  0  0  0  0  0  0
  153.9372  142.5905  161.8875 C   0  0  0  0  0  0  0  0  0  0  0  0
  152.9341  141.5214  158.5050 N   0  3  0  0  0  0  0  0  0  0  0  0
  151.9925  141.6546  157.5461 C   0  0  0  0  0  0  0  0  0  0  0  0
  146.5878  142.7807  153.4944 C   0  0  0  0  0  0  0  0  0  0  0  0
  145.4540  143.1361  154.4723 C   0  0  0  0  0  0  0  0  0  0  0  0
  144.2135  142.5318  159.2919 H   0  0  0  0  0  0  0  0  0  0  0  0
  143.6032  141.0640  158.3524 H   0  0  0  0  0  0  0  0  0  0  0  0
  143.6997  144.8765  156.7532 H   0  0  0  0  0  0  0  0  0  0  0  0
  145.3739  144.3395  156.5636 H   0  0  0  0  0  0  0  0  0  0  0  0
  144.7068  144.5987  158.1757 H   0  0  0  0  0  0  0  0  0  0  0  0
  143.0448  141.2768  155.9973 H   0  0  0  0  0  0  0  0  0  0  0  0
  142.9697  142.9041  155.3558 H   0  0  0  0  0  0  0  0  0  0  0  0
  146.1905  141.5565  156.5846 H   0  0  0  0  0  0  0  0  0  0  0  0
  145.2983  140.1394  156.0717 H   0  0  0  0  0  0  0  0  0  0  0  0
  147.6668  140.0143  155.2964 H   0  0  0  0  0  0  0  0  0  0  0  0
  146.5380  140.0040  153.9687 H   0  0  0  0  0  0  0  0  0  0  0  0
  148.3066  141.4874  153.3532 H   0  0  0  0  0  0  0  0  0  0  0  0
  148.2291  143.5231  155.2975 H   0  0  0  0  0  0  0  0  0  0  0  0
  149.6441  143.8361  156.6246 H   0  0  0  0  0  0  0  0  0  0  0  0
  150.3463  144.3295  158.8782 H   0  0  0  0  0  0  0  0  0  0  0  0
  152.0962  144.0315  160.5863 H   0  0  0  0  0  0  0  0  0  0  0  0
  154.9792  140.3537  159.7532 H   0  0  0  0  0  0  0  0  0  0  0  0
  155.9401  141.2158  160.9515 H   0  0  0  0  0  0  0  0  0  0  0  0
  155.7743  141.8775  159.3263 H   0  0  0  0  0  0  0  0  0  0  0  0
  153.0618  142.1647  162.3788 H   0  0  0  0  0  0  0  0  0  0  0  0
  153.8426  143.6768  161.8852 H   0  0  0  0  0  0  0  0  0  0  0  0
  154.8119  142.3344  162.4856 H   0  0  0  0  0  0  0  0  0  0  0  0
  152.0489  140.9231  156.7544 H   0  0  0  0  0  0  0  0  0  0  0  0
  147.0571  143.6904  153.1184 H   0  0  0  0  0  0  0  0  0  0  0  0
  146.1591  142.2838  152.6232 H   0  0  0  0  0  0  0  0  0  0  0  0
  144.7178  143.7458  153.9483 H   0  0  0  0  0  0  0  0  0  0  0  0
  145.8376  143.7441  155.2930 H   0  0  0  0  0  0  0  0  0  0  0  0
  144.4766  141.3807  154.2242 H   0  0  0  0  0  0  0  0  0  0  0  0
  153.6148  140.7683  158.4040 H   0  0  0  0  0  0  0  0  0  0  0  0
  1  2  2  0  0  0  0
  1 24  1  0  0  0  0
  1 25  1  0  0  0  0
  2  3  1  0  0  0  0
  2  4  1  0  0  0  0
  3 26  1  0  0  0  0
  3 27  1  0  0  0  0
  3 28  1  0  0  0  0
  4  5  1  0  0  0  0
  4 29  1  0  0  0  0
  4 30  1  0  0  0  0
  5 23  1  0  0  0  0
  5  6  1  0  0  0  0
  5 51  1  0  0  0  0
  6  7  1  0  0  0  0
  6 31  1  0  0  0  0
  6 32  1  0  0  0  0
  7  8  1  0  0  0  0
  7 33  1  0  0  0  0
  7 34  1  0  0  0  0
  8  9  1  0  0  0  0
  8 22  1  0  0  0  0
  8 35  1  0  0  0  0
  9 10  1  0  0  0  0
  9 36  1  0  0  0  0
 10 11  2  0  0  0  0
 10 12  1  0  0  0  0
 12 13  1  0  0  0  0
 12 37  1  0  0  0  0
 13 21  1  0  0  0  0
 13 14  2  0  0  0  0
 14 15  1  0  0  0  0
 14 38  1  0  0  0  0
 15 16  2  0  0  0  0
 15 39  1  0  0  0  0
 16 17  1  0  0  0  0
 16 20  1  0  0  0  0
 17 18  1  0  0  0  0
 17 19  1  0  0  0  0
 18 40  1  0  0  0  0
 18 41  1  0  0  0  0
 18 42  1  0  0  0  0
 19 43  1  0  0  0  0
 19 44  1  0  0  0  0
 19 45  1  0  0  0  0
 20 21  2  0  0  0  0
 20 52  1  0  0  0  0
 21 46  1  0  0  0  0
 22 23  1  0  0  0  0
 22 47  1  0  0  0  0
 22 48  1  0  0  0  0
 23 49  1  0  0  0  0
 23 50  1  0  0  0  0
M  CHG  1   5   1
M  CHG  1  20   1
M  END
> <s_m_source_file>
AV-unprocessed.smi

> <i_m_source_file_index>
1055

> <i_lp_mmshare_version>
43012

> <i_f3d_flags>
0

> <s_epik_input>
W0NIMl09QyhbQ0gzXSlbQ0gyXU4xW0NIMl1bQ0gyXVtDSF0oW0NIMl1bQ0gyXTEpW05IXUMoPU8pW05IXWMyW2NIXVtjSF1jKE4oW0NIM10pW0NIM10pbltjSF0y

> <s_epik_cmdline>
J2VwaWtfcHl0aG9uJywgJy1waCcsICc3LjAnLCAnLXRuJywgJzgnLCAnLW1hJywgJzIwMCcsICctbWV0YWxfYmluZGluZycsICctaW1hZScsICc8aW5maWxlLm1hZT4nLCAnLW9tYWUnLCAnPG91dGZpbGUubWFlPic=

> <r_lp_tautomer_probability>
0.999994

> <r_epik_Ionization_Penalty>
0.344238

> <r_epik_Ionization_Penalty_Charging>
0.344219

> <r_epik_Ionization_Penalty_Neutral>
1.87459e-05

> <r_epik_State_Penalty>
0.320654

> <r_epik_Charging_Adjusted_Penalty>
0.664873

> <i_epik_Tot_Q>
2

> <i_epik_Tot_abs_Q>
2

> <r_epik_Metal_State_Penalty>
0.58246

> <b_epik_Metal_Only>
0

> <s_lp_Force_Field>
OPLS_2005

> <r_lp_Energy>
26.4869

> <b_lp_Chiralities_Consistent>
1

> <s_lp_Variant>
AV-unprocessed.smi:1055-2

> <Gold.Version>
5.8.1

> <Gold.Id.Protein>
6NUR|6NUR_protein|mol2

> <Gold.PLP.Fitness>
51.5689

> <Gold.PLP.PLP>
-40.5888

> <Gold.PLP.part.hbond>
-3.0000

> <Gold.PLP.part.metal>
0.0000

> <Gold.PLP.part.buried>
-6.3901

> <Gold.PLP.part.nonpolar>
-31.0411

> <Gold.PLP.part.repulsive>
0.3439

> <Gold.PLP.ligand.clash>
0.0000

> <Gold.PLP.ligand.torsion>
0.5292

> <Gold.PLP.Chemscore.Hbond>
4.0000

> <Gold.PLP.Chemscore.CHOScore>
0.0000

> <Gold.PLP.Chemscore.Metal>
0.0000

> <Gold.Chemscore.Hbonds>
donor molecule, donor type, donor heavy atom, donor atom, acceptor molecule, acceptor atom, score
      L1  H     5    51       P1 10175  1.69
      L1  H     9    36       P1  8028  0.52
      L1  H    12    37       P1  8028  0.76

> <Gold.PLP.Chemscore.Internal.Correction>
0.0386

> <Gold.Rescore>
     Score         DG    S(hbond)    S(metal)    S(lipo)     H(rot)  DE(clash)    DE(int)     intcor
     19.13     -20.89       2.80        0.00      81.28       1.35       0.30       1.46       ----

> <Gold.Chemscore.Fitness>
19.1320

> <Gold.Chemscore.DG>
-20.8876

> <Gold.Chemscore.ZeroCoef>
-5.4800

> <Gold.Chemscore.Hbond>
2.7979

> <Gold.Chemscore.Metal>
0.0000

> <Gold.Chemscore.Lipo>
81.2779

> <Gold.Chemscore.Internal_Hbond>
0.0000

> <Gold.Chemscore.DEClash>
0.2987

> <Gold.Chemscore.DEInternal>
1.4569

> <Gold.Chemscore.Rot>
1.3465

> <Gold.Chemscore.Internal.Correction>
   9.000000E+99

> <Gold.Chemscore.Hbonds>
donor molecule, donor type, donor heavy atom, donor atom, acceptor molecule, acceptor atom, score
      L1  H     5    51       P1 10175  0.41
      L1  H     9    36       P1  8028  0.45
      L1  H    12    37       P1  8028  0.72

> <Gold.Chemscore.Hbond.Weighted>
-9.3451

> <Gold.Chemscore.Metal.Weighted>
-0.0000

> <Gold.Chemscore.Lipo.Weighted>
-9.5095

> <Gold.Chemscore.Internal_Hbond.Weighted>
0.0000

> <Gold.Chemscore.DEClash.Weighted>
0.2987

> <Gold.Chemscore.DEInternal.Weighted>
1.4569

> <Gold.Chemscore.Rot.Weighted>
3.4470

> <Gold.Chemscore.Internal.Correction.Weighted>
   9.000000E+99

> <Gold.Protein.RotatedTorsions>
[ 6907 6896 6895 6894 ] final  156.34 input  -60.11 | X-H torsion
[ 7974 7965 7964 7962 ] final   65.01 input  175.53 | X-H torsion
[ 8008 7997 7996 7995 ] final   89.07 input   59.86 | X-H torsion
[ 10167 10162 10161 10158 ] final  126.70 input  -65.29 | X-H torsion
[ 10718 10713 10712 10709 ] final  -41.38 input   66.30 | X-H torsion
[ 10763 10752 10751 10750 ] final  -83.85 input  -60.55 | X-H torsion
[ 11005 11000 10999 10996 ] final   38.73 input  -57.11 | X-H torsion

> <Gold.Protein.ActiveResidues>
 VAL166  LYS551  ARG553  GLY616  TRP617  ASP618  TYR619  PRO620  LYS621  CYS622 
 ASP623  PHE694  ASN695  SER759  ASP760  ASP761  ALA762  ILE779  LEU786  VAL792 
 PHE793  MET794  SER795  GLU796  ALA797  LYS798  CYS799  TRP800  GLU811  SER814 

> <Gold.Protein.RotatedAtoms>
  152.0310  133.3937  159.4297 H   0  0  0  0  0  0  0  0  0  0  0  0  # atno 6907 bound_to 6896
  150.6882  134.3520  159.4922 H   0  0  0  0  0  0  0  0  0  0  0  0  # atno 6908 bound_to 6896
  152.1307  134.9137  160.0609 H   0  0  0  0  0  0  0  0  0  0  0  0  # atno 6909 bound_to 6896
  145.8435  139.3210  143.0917 H   0  0  0  0  0  0  0  0  0  0  0  0  # atno 7974 bound_to 7965
  155.9955  140.3365  155.6794 H   0  0  0  0  0  0  0  0  0  0  0  0  # atno 8008 bound_to 7997
  155.6362  140.0690  157.2651 H   0  0  0  0  0  0  0  0  0  0  0  0  # atno 8009 bound_to 7997
  154.4232  140.1751  156.1512 H   0  0  0  0  0  0  0  0  0  0  0  0  # atno 8010 bound_to 7997
  139.5617  144.6886  151.4024 H   0  0  0  0  0  0  0  0  0  0  0  0  # atno 10167 bound_to 10162
  156.2710  130.4206  149.8438 H   0  0  0  0  0  0  0  0  0  0  0  0  # atno 10718 bound_to 10713
  154.5926  135.5541  153.7293 H   0  0  0  0  0  0  0  0  0  0  0  0  # atno 10763 bound_to 10752
  153.0122  135.6347  154.1828 H   0  0  0  0  0  0  0  0  0  0  0  0  # atno 10764 bound_to 10752
  154.1769  135.2889  155.3044 H   0  0  0  0  0  0  0  0  0  0  0  0  # atno 10765 bound_to 10752
  140.2098  134.3769  155.8055 H   0  0  0  0  0  0  0  0  0  0  0  0  # atno 11005 bound_to 11000
  145.9438  140.8960  143.0294 LP  0  0  0  0  0  0  0  0  0  0  0  0  # atno 17320 bound_to 7965
  144.6732  140.1585  143.7424 LP  0  0  0  0  0  0  0  0  0  0  0  0  # atno 17321 bound_to 7965
  140.6897  143.7889  150.7238 LP  0  0  0  0  0  0  0  0  0  0  0  0  # atno 17342 bound_to 10162
  140.1368  143.4477  152.2219 LP  0  0  0  0  0  0  0  0  0  0  0  0  # atno 17343 bound_to 10162
  156.5920  130.8510  151.3410 LP  0  0  0  0  0  0  0  0  0  0  0  0  # atno 17370 bound_to 10713
  157.7283  130.9656  150.1739 LP  0  0  0  0  0  0  0  0  0  0  0  0  # atno 17371 bound_to 10713
  141.2226  133.7137  156.8398 LP  0  0  0  0  0  0  0  0  0  0  0  0  # atno 17394 bound_to 11000
  140.1963  134.8929  157.3119 LP  0  0  0  0  0  0  0  0  0  0  0  0  # atno 17395 bound_to 11000

$$$$
