AV-unprocessed.smi:1798|AV-procd|sdf|7259|dock5
  -GOLD-   22720 8513D 1   1.00000     0.00000
 Structure written by MMmdl.
 40 41  0  0  0  0  0  0  0  0  3 V2000
  153.1169  142.6123  160.5562 C   0  0  0  0  0  0  0  0  0  0  0  0
  151.9831  142.3341  159.5592 C   0  0  2  0  0  0  0  0  0  0  0  0
  152.3424  141.1789  158.6053 C   0  0  0  0  0  0  0  0  0  0  0  0
  151.2113  140.8988  157.6026 C   0  0  0  0  0  0  0  0  0  0  0  0
  150.8399  142.1643  156.8035 C   0  0  1  0  0  0  0  0  0  0  0  0
  149.7160  141.8990  155.9104 N   0  0  0  0  0  0  0  0  0  0  0  0
  149.7217  141.0219  154.8952 C   0  0  0  0  0  0  0  0  0  0  0  0
  150.6947  140.3205  154.6144 O   0  0  0  0  0  0  0  0  0  0  0  0
  148.4158  140.9140  154.0946 C   0  0  0  0  0  0  0  0  0  0  0  0
  147.2646  141.5345  154.7717 N   0  0  0  0  0  0  0  0  0  0  0  0
  146.6475  142.6212  154.1208 C   0  0  0  0  0  0  0  0  0  0  0  0
  145.5911  143.2678  154.6515 C   0  0  0  0  0  0  0  0  0  0  0  0
  144.9737  144.3853  153.9716 N   0  3  0  0  0  0  0  0  0  0  0  0
  145.3880  144.6993  152.8603 O   0  0  0  0  0  0  0  0  0  0  0  0
  144.0572  144.9862  154.5242 O   0  5  0  0  0  0  0  0  0  0  0  0
  145.0940  142.8078  155.9339 C   0  0  0  0  0  0  0  0  0  0  0  0
  145.6818  141.7713  156.5630 C   0  0  0  0  0  0  0  0  0  0  0  0
  146.8338  141.0714  155.9850 C   0  0  0  0  0  0  0  0  0  0  0  0
  147.3780  140.1268  156.5568 O   0  0  0  0  0  0  0  0  0  0  0  0
  150.4820  143.3204  157.7548 C   0  0  0  0  0  0  0  0  0  0  0  0
  151.6152  143.5967  158.7565 C   0  0  0  0  0  0  0  0  0  0  0  0
  154.0281  142.9233  160.0441 H   0  0  0  0  0  0  0  0  0  0  0  0
  153.3512  141.7234  161.1424 H   0  0  0  0  0  0  0  0  0  0  0  0
  152.8407  143.4029  161.2542 H   0  0  0  0  0  0  0  0  0  0  0  0
  151.1061  142.0346  160.1350 H   0  0  0  0  0  0  0  0  0  0  0  0
  153.2566  141.4204  158.0613 H   0  0  0  0  0  0  0  0  0  0  0  0
  152.5542  140.2748  159.1771 H   0  0  0  0  0  0  0  0  0  0  0  0
  151.5158  140.1000  156.9254 H   0  0  0  0  0  0  0  0  0  0  0  0
  150.3357  140.5305  158.1394 H   0  0  0  0  0  0  0  0  0  0  0  0
  151.7020  142.4718  156.2081 H   0  0  0  0  0  0  0  0  0  0  0  0
  148.8713  142.4275  156.0744 H   0  0  0  0  0  0  0  0  0  0  0  0
  148.5781  141.3726  153.1183 H   0  0  0  0  0  0  0  0  0  0  0  0
  148.2059  139.8637  153.8833 H   0  0  0  0  0  0  0  0  0  0  0  0
  147.0965  142.8916  153.1760 H   0  0  0  0  0  0  0  0  0  0  0  0
  144.2475  143.2910  156.3990 H   0  0  0  0  0  0  0  0  0  0  0  0
  145.2962  141.4458  157.5179 H   0  0  0  0  0  0  0  0  0  0  0  0
  150.2720  144.2242  157.1817 H   0  0  0  0  0  0  0  0  0  0  0  0
  149.5683  143.0817  158.3014 H   0  0  0  0  0  0  0  0  0  0  0  0
  151.3145  144.3960  159.4347 H   0  0  0  0  0  0  0  0  0  0  0  0
  152.4921  143.9621  158.2201 H   0  0  0  0  0  0  0  0  0  0  0  0
  1  2  1  0  0  0  0
  1 22  1  0  0  0  0
  1 23  1  0  0  0  0
  1 24  1  0  0  0  0
  2 21  1  0  0  0  0
  2  3  1  0  0  0  0
  2 25  1  0  0  0  0
  3  4  1  0  0  0  0
  3 26  1  0  0  0  0
  3 27  1  0  0  0  0
  4  5  1  0  0  0  0
  4 28  1  0  0  0  0
  4 29  1  0  0  0  0
  5  6  1  0  0  0  0
  5 20  1  0  0  0  0
  5 30  1  0  0  0  0
  6  7  1  0  0  0  0
  6 31  1  0  0  0  0
  7  8  2  0  0  0  0
  7  9  1  0  0  0  0
  9 10  1  0  0  0  0
  9 32  1  0  0  0  0
  9 33  1  0  0  0  0
 10 18  1  0  0  0  0
 10 11  1  0  0  0  0
 11 12  2  0  0  0  0
 11 34  1  0  0  0  0
 12 13  1  0  0  0  0
 12 16  1  0  0  0  0
 13 14  2  0  0  0  0
 13 15  1  0  0  0  0
 16 17  2  0  0  0  0
 16 35  1  0  0  0  0
 17 18  1  0  0  0  0
 17 36  1  0  0  0  0
 18 19  2  0  0  0  0
 20 21  1  0  0  0  0
 20 37  1  0  0  0  0
 20 38  1  0  0  0  0
 21 39  1  0  0  0  0
 21 40  1  0  0  0  0
M  CHG  1  13   1
M  CHG  1  15  -1
M  END
> <s_m_source_file>
AV-unprocessed.smi

> <i_m_source_file_index>
1798

> <i_lp_mmshare_version>
43012

> <i_f3d_flags>
0

> <s_epik_input>
W0NIM11bQ0BASF0xW0NIMl1bQ0gyXVtDQEhdKFtDSDJdW0NIMl0xKVtOSF1DKD1PKVtDSDJdbjJbY0hdYyhbTitdKD1PKVtPLV0pW2NIXVtjSF1jMj1P

> <s_epik_cmdline>
J2VwaWtfcHl0aG9uJywgJy1waCcsICc3LjAnLCAnLXRuJywgJzgnLCAnLW1hJywgJzIwMCcsICctbWV0YWxfYmluZGluZycsICctaW1hZScsICc8aW5maWxlLm1hZT4nLCAnLW9tYWUnLCAnPG91dGZpbGUubWFlPic=

> <r_lp_tautomer_probability>
1

> <r_epik_Ionization_Penalty>
1.91292e-08

> <r_epik_Ionization_Penalty_Charging>
8.23013e-11

> <r_epik_Ionization_Penalty_Neutral>
1.90469e-08

> <r_epik_State_Penalty>
-0

> <r_epik_Charging_Adjusted_Penalty>
8.23013e-11

> <i_epik_Tot_Q>
0

> <i_epik_Tot_abs_Q>
2

> <r_epik_Metal_State_Penalty>
-0

> <b_epik_Metal_Only>
0

> <s_lp_Force_Field>
OPLS_2005

> <r_lp_Energy>
19.9033

> <b_lp_Chiralities_Consistent>
1

> <s_lp_Variant>
AV-unprocessed.smi:1798-1

> <Gold.Version>
5.8.1

> <Gold.Id.Protein>
6NUR|6NUR_protein|mol2

> <Gold.PLP.Fitness>
43.1647

> <Gold.PLP.PLP>
-40.0144

> <Gold.PLP.part.hbond>
-2.8059

> <Gold.PLP.part.metal>
0.0000

> <Gold.PLP.part.buried>
-3.6535

> <Gold.PLP.part.nonpolar>
-34.7244

> <Gold.PLP.part.repulsive>
0.4934

> <Gold.PLP.ligand.clash>
0.0138

> <Gold.PLP.ligand.torsion>
0.2169

> <Gold.PLP.Chemscore.Hbond>
1.1966

> <Gold.PLP.Chemscore.CHOScore>
0.0000

> <Gold.PLP.Chemscore.Metal>
0.0000

> <Gold.Chemscore.Hbonds>
donor molecule, donor type, donor heavy atom, donor atom, acceptor molecule, acceptor atom, score
      L1  H     6    31       P1  8028  0.10
      P1  H  7989  7998       L1     8  1.00

> <Gold.PLP.Chemscore.Internal.Correction>
0.0083

> <Gold.Rescore>
     Score         DG    S(hbond)    S(metal)    S(lipo)     H(rot)  DE(clash)    DE(int)     intcor
     13.03     -14.71       1.05        0.00      82.83       1.55       0.52       1.16       ----

> <Gold.Chemscore.Fitness>
13.0274

> <Gold.Chemscore.DG>
-14.7069

> <Gold.Chemscore.ZeroCoef>
-5.4800

> <Gold.Chemscore.Hbond>
1.0493

> <Gold.Chemscore.Metal>
0.0000

> <Gold.Chemscore.Lipo>
82.8336

> <Gold.Chemscore.Internal_Hbond>
0.0000

> <Gold.Chemscore.DEClash>
0.5203

> <Gold.Chemscore.DEInternal>
1.1592

> <Gold.Chemscore.Rot>
1.5505

> <Gold.Chemscore.Internal.Correction>
   9.000000E+99

> <Gold.Chemscore.Hbonds>
donor molecule, donor type, donor heavy atom, donor atom, acceptor molecule, acceptor atom, score
      L1  H     6    31       P1  8028  0.10
      P1  H  7989  7998       L1     8  0.87

> <Gold.Chemscore.Hbond.Weighted>
-3.5045

> <Gold.Chemscore.Metal.Weighted>
-0.0000

> <Gold.Chemscore.Lipo.Weighted>
-9.6915

> <Gold.Chemscore.Internal_Hbond.Weighted>
0.0000

> <Gold.Chemscore.DEClash.Weighted>
0.5203

> <Gold.Chemscore.DEInternal.Weighted>
1.1592

> <Gold.Chemscore.Rot.Weighted>
3.9692

> <Gold.Chemscore.Internal.Correction.Weighted>
   9.000000E+99

> <Gold.Protein.RotatedTorsions>
[ 6907 6896 6895 6894 ] final  -62.35 input  -60.11 | X-H torsion
[ 7974 7965 7964 7962 ] final    8.74 input  175.53 | X-H torsion
[ 8008 7997 7996 7995 ] final  -44.38 input   59.86 | X-H torsion
[ 10167 10162 10161 10158 ] final  -79.36 input  -65.29 | X-H torsion
[ 10718 10713 10712 10709 ] final   95.93 input   66.30 | X-H torsion
[ 10763 10752 10751 10750 ] final  132.73 input  -60.55 | X-H torsion
[ 11005 11000 10999 10996 ] final   46.52 input  -57.11 | X-H torsion

> <Gold.Protein.ActiveResidues>
 VAL166  LYS551  ARG553  GLY616  TRP617  ASP618  TYR619  PRO620  LYS621  CYS622 
 ASP623  PHE694  ASN695  SER759  ASP760  ASP761  ALA762  ILE779  LEU786  VAL792 
 PHE793  MET794  SER795  GLU796  ALA797  LYS798  CYS799  TRP800  GLU811  SER814 

> <Gold.Protein.RotatedAtoms>
  150.7721  134.6582  159.6324 H   0  0  0  0  0  0  0  0  0  0  0  0  # atno 6907 bound_to 6896
  152.3778  134.6634  160.0162 H   0  0  0  0  0  0  0  0  0  0  0  0  # atno 6908 bound_to 6896
  151.6973  133.3274  159.3294 H   0  0  0  0  0  0  0  0  0  0  0  0  # atno 6909 bound_to 6896
  146.2412  139.9888  142.8428 H   0  0  0  0  0  0  0  0  0  0  0  0  # atno 7974 bound_to 7965
  154.3997  140.1423  156.3674 H   0  0  0  0  0  0  0  0  0  0  0  0  # atno 8008 bound_to 7997
  155.8125  140.3472  155.5445 H   0  0  0  0  0  0  0  0  0  0  0  0  # atno 8009 bound_to 7997
  155.8372  140.0921  157.1747 H   0  0  0  0  0  0  0  0  0  0  0  0  # atno 8010 bound_to 7997
  140.4600  143.2456  151.8362 H   0  0  0  0  0  0  0  0  0  0  0  0  # atno 10167 bound_to 10162
  157.6933  131.0561  150.4414 H   0  0  0  0  0  0  0  0  0  0  0  0  # atno 10718 bound_to 10713
  153.7954  135.3149  155.3384 H   0  0  0  0  0  0  0  0  0  0  0  0  # atno 10763 bound_to 10752
  154.8109  135.4667  154.0518 H   0  0  0  0  0  0  0  0  0  0  0  0  # atno 10764 bound_to 10752
  153.1849  135.6899  153.8515 H   0  0  0  0  0  0  0  0  0  0  0  0  # atno 10765 bound_to 10752
  140.1361  134.4643  155.8484 H   0  0  0  0  0  0  0  0  0  0  0  0  # atno 11005 bound_to 11000
  145.1523  140.9629  143.4426 LP  0  0  0  0  0  0  0  0  0  0  0  0  # atno 17320 bound_to 7965
  145.0194  139.3438  143.6080 LP  0  0  0  0  0  0  0  0  0  0  0  0  # atno 17321 bound_to 7965
  139.4805  144.5018  151.9050 LP  0  0  0  0  0  0  0  0  0  0  0  0  # atno 17342 bound_to 10162
  140.4104  144.2376  150.5889 LP  0  0  0  0  0  0  0  0  0  0  0  0  # atno 17343 bound_to 10162
  156.4772  130.4066  149.6483 LP  0  0  0  0  0  0  0  0  0  0  0  0  # atno 17370 bound_to 10713
  156.3541  130.7447  151.2411 LP  0  0  0  0  0  0  0  0  0  0  0  0  # atno 17371 bound_to 10713
  141.2178  133.6815  156.7160 LP  0  0  0  0  0  0  0  0  0  0  0  0  # atno 17394 bound_to 11000
  140.2780  134.8339  157.3908 LP  0  0  0  0  0  0  0  0  0  0  0  0  # atno 17395 bound_to 11000

$$$$
