#       Name:                AV-unprocessed.smi:3329
#       Creating user name   scv26
#       Creation time:       Fri Mar 27 19:14:58 2020


#       File generated by GOLD software.
#

@<TRIPOS>MOLECULE
AV-unprocessed.smi:3329
    46    47     1
SMALL
NO_CHARGES


@<TRIPOS>ATOM
      1 ****        -2.8789   2.2080   4.5765 C.3            1 S1                 0.0000
      2 ****        -2.6771   2.6582   3.1582 C.2            1 S1                 0.0000
      3 ****        -1.9156   3.7686   2.6955 C.2            1 S1                 0.0000
      4 ****        -1.9392   3.8948   1.3785 N.2            1 S1                 0.0000
      5 ****        -2.7116   2.8725   0.9549 N.pl3          1 S1                 0.0000
      6 ****        -2.9661   2.6993  -0.4644 C.3            1 S1                 0.0000
      7 ****        -1.6866   2.3854  -1.2583 C.3            1 S1                 0.0000
      8 ****        -1.0623   1.1293  -0.7981 N.4            1 S1                 1.0000
      9 ****         0.1879   0.7777  -1.5015 C.3            1 S1                 0.0000
     10 ****         0.8166  -0.5062  -0.9566 C.2            1 S1                 0.0000
     11 ****         0.2908  -1.1156  -0.0252 O.2            1 S1                 0.0000
     12 ****         1.9532  -0.9029  -1.5518 N.am           1 S1                 0.0000
     13 ****         2.7508  -2.0828  -1.2127 C.3            1 S1                 0.0000
     14 ****         4.0142  -2.0210  -2.0867 C.3            1 S1                 0.0000
     15 ****         3.1732  -2.0267   0.2019 C.1            1 S1                 0.0000
     16 ****         3.5051  -1.9800   1.3095 N.1            1 S1                 0.0000
     17 ****         2.0202  -3.3966  -1.5025 C.3            1 S1                 0.0000
     18 ****         1.2075  -4.1440  -0.4659 C.3            1 S1                 0.0000
     19 ****         2.5143  -4.7195  -0.9584 C.3            1 S1                 0.0000
     20 ****        -3.1765   2.1143   2.0087 C.2            1 S1                 0.0000
     21 ****        -3.5431   2.8803   5.1198 H              1 S1                 0.0000
     22 ****        -1.9376   2.1720   5.1252 H              1 S1                 0.0000
     23 ****        -3.3177   1.2112   4.6286 H              1 S1                 0.0000
     24 ****        -1.3492   4.4825   3.2752 H              1 S1                 0.0000
     25 ****        -3.6988   1.9017  -0.5950 H              1 S1                 0.0000
     26 ****        -3.4269   3.6129  -0.8424 H              1 S1                 0.0000
     27 ****        -1.9259   2.2961  -2.3186 H              1 S1                 0.0000
     28 ****        -0.9714   3.2037  -1.1628 H              1 S1                 0.0000
     29 ****        -0.8553   1.2193   0.1868 H              1 S1                 0.0000
     30 ****        -0.0171   0.6533  -2.5658 H              1 S1                 0.0000
     31 ****         0.9041   1.5940  -1.3970 H              1 S1                 0.0000
     32 ****         2.3072  -0.3325  -2.3062 H              1 S1                 0.0000
     33 ****         4.6806  -2.8588  -1.8774 H              1 S1                 0.0000
     34 ****         4.5780  -1.1049  -1.9057 H              1 S1                 0.0000
     35 ****         3.7684  -2.0546  -3.1490 H              1 S1                 0.0000
     36 ****         1.6282  -3.4423  -2.5172 H              1 S1                 0.0000
     37 ****         1.1825  -3.7608   0.5520 H              1 S1                 0.0000
     38 ****         0.2900  -4.6230  -0.8013 H              1 S1                 0.0000
     39 ****         2.4655  -5.5823  -1.6193 H              1 S1                 0.0000
     40 ****         3.3566  -4.7099  -0.2697 H              1 S1                 0.0000
     41 ****        -3.8155   1.2569   1.8567 H              1 S1                 0.0000
     42 ****        -1.7213   0.3734  -0.9184 H              1 S1                 0.0000
     43 ****        -1.4863   4.5914   0.8220 LP             1 S1                 0.0000
     44 ****        -0.5553  -0.7724   0.3826 LP             1 S1                 0.0000
     45 ****         0.7097  -1.9539   0.3237 LP             1 S1                 0.0000
     46 ****         3.7919  -1.9397   2.2666 LP             1 S1                 0.0000
@<TRIPOS>BOND
    1    1    2 1     
    2    1   21 1     
    3    1   22 1     
    4    1   23 1     
    5    2   20 2     
    6    2    3 1     
    7    3    4 2     
    8    3   24 1     
    9    4    5 1     
   10    5    6 1     
   11    5   20 1     
   12    6    7 1     
   13    6   25 1     
   14    6   26 1     
   15    7    8 1     
   16    7   27 1     
   17    7   28 1     
   18    8    9 1     
   19    8   29 1     
   20    8   42 1     
   21    9   10 1     
   22    9   30 1     
   23    9   31 1     
   24   10   11 2     
   25   10   12 am    
   26   12   13 1     
   27   12   32 1     
   28   13   14 1     
   29   13   15 1     
   30   13   17 1     
   31   14   33 1     
   32   14   34 1     
   33   14   35 1     
   34   15   16 3     
   35   17   19 1     
   36   17   18 1     
   37   17   36 1     
   38   18   19 1     
   39   18   37 1     
   40   18   38 1     
   41   19   39 1     
   42   19   40 1     
   43   20   41 1     
   44    4   43 1     
   45   11   44 1     
   46   11   45 1     
   47   16   46 1     
@<TRIPOS>SUBSTRUCTURE
      1 S1             1
@<TRIPOS>SET
LONE_PAIRS      STATIC     ATOMS    <user>   **** ""
4 43 44 45 46
DONOR_HYDROGENS      STATIC     ATOMS    <user>   **** ""
3 29 42 32
ATOM$BLUE        STATIC     ATOMS    COLORGROUP SYSTEM
4 43 44 45 46
ATOM$RED        STATIC     ATOMS    COLORGROUP SYSTEM
3 29 42 32
