AV-unprocessed.smi:2059|AV-procd|sdf|8350|dock1
  -GOLD-   2272011 13D 1   1.00000     0.00000
 Structure written by MMmdl.
 29 30  0  0  0  0  0  0  0  0  2 V2000
  146.0891  133.0310  162.2284 C   0  0  0  0  0  0  0  0  0  0  0  0
  146.6635  134.3763  161.9418 C   0  0  0  0  0  0  0  0  0  0  0  0
  147.0506  134.9928  160.7860 C   0  0  0  0  0  0  0  0  0  0  0  0
  147.5049  136.2639  161.2314 C   0  0  0  0  0  0  0  0  0  0  0  0
  147.9849  137.2464  160.4487 N   0  5  0  0  0  0  0  0  0  0  0  0
  149.0055  137.0574  159.5705 C   0  0  0  0  0  0  0  0  0  0  0  0
  149.5666  135.9740  159.4112 O   0  0  0  0  0  0  0  0  0  0  0  0
  149.4137  138.1150  158.8430 N   0  0  0  0  0  0  0  0  0  0  0  0
  150.4940  138.1208  157.8621 C   0  0  2  0  0  0  0  0  0  0  0  0
  151.2791  139.4440  157.9203 C   0  0  0  0  0  0  0  0  0  0  0  0
  152.1500  139.5559  156.6632 C   0  0  0  0  0  0  0  0  0  0  0  0
  151.2368  138.6828  155.3348 S   0  0  0  0  0  0  0  0  0  0  0  0
  150.5973  139.6669  154.4481 O   0  0  0  0  0  0  0  0  0  0  0  0
  152.0931  137.6184  154.7896 O   0  0  0  0  0  0  0  0  0  0  0  0
  149.9658  137.9467  156.4292 C   0  0  0  0  0  0  0  0  0  0  0  0
  147.3945  136.4096  162.5414 N   0  0  0  0  0  0  0  0  0  0  0  0
  146.8607  135.2014  163.0052 O   0  0  0  0  0  0  0  0  0  0  0  0
  145.0563  132.9734  161.8845 H   0  0  0  0  0  0  0  0  0  0  0  0
  146.1018  132.8171  163.2974 H   0  0  0  0  0  0  0  0  0  0  0  0
  146.6585  132.2519  161.7217 H   0  0  0  0  0  0  0  0  0  0  0  0
  147.0154  134.5991  159.7813 H   0  0  0  0  0  0  0  0  0  0  0  0
  148.9307  138.9892  158.9903 H   0  0  0  0  0  0  0  0  0  0  0  0
  151.1906  137.3094  158.0812 H   0  0  0  0  0  0  0  0  0  0  0  0
  150.5747  140.2774  157.9306 H   0  0  0  0  0  0  0  0  0  0  0  0
  151.8761  139.5219  158.8295 H   0  0  0  0  0  0  0  0  0  0  0  0
  152.3465  140.5876  156.3718 H   0  0  0  0  0  0  0  0  0  0  0  0
  153.1025  139.0455  156.8073 H   0  0  0  0  0  0  0  0  0  0  0  0
  149.7956  136.9034  156.1627 H   0  0  0  0  0  0  0  0  0  0  0  0
  149.0368  138.4986  156.2817 H   0  0  0  0  0  0  0  0  0  0  0  0
  1  2  1  0  0  0  0
  1 18  1  0  0  0  0
  1 19  1  0  0  0  0
  1 20  1  0  0  0  0
  2 17  1  0  0  0  0
  2  3  2  0  0  0  0
  3  4  1  0  0  0  0
  3 21  1  0  0  0  0
  4  5  1  0  0  0  0
  4 16  2  0  0  0  0
  5  6  1  0  0  0  0
  6  7  2  0  0  0  0
  6  8  1  0  0  0  0
  8  9  1  0  0  0  0
  8 22  1  0  0  0  0
  9 15  1  0  0  0  0
  9 10  1  0  0  0  0
  9 23  1  0  0  0  0
 10 11  1  0  0  0  0
 10 24  1  0  0  0  0
 10 25  1  0  0  0  0
 11 12  1  0  0  0  0
 11 26  1  0  0  0  0
 11 27  1  0  0  0  0
 12 13  2  0  0  0  0
 12 14  2  0  0  0  0
 12 15  1  0  0  0  0
 15 28  1  0  0  0  0
 15 29  1  0  0  0  0
 16 17  1  0  0  0  0
M  CHG  1   5  -1
M  END
> <s_m_source_file>
AV-unprocessed.smi

> <i_m_source_file_index>
2059

> <i_lp_mmshare_version>
43012

> <i_f3d_flags>
0

> <s_epik_input>
W0NIM11jMVtjSF1jKG5vMSlbTkhdQyg9TylbTkhdW0NAQEhdKFtDSDJdMilbQ0gyXVtDSDJdUzIoPU8pPU8=

> <s_epik_cmdline>
J2VwaWtfcHl0aG9uJywgJy1waCcsICc3LjAnLCAnLXRuJywgJzgnLCAnLW1hJywgJzIwMCcsICctbWV0YWxfYmluZGluZycsICctaW1hZScsICc8aW5maWxlLm1hZT4nLCAnLW9tYWUnLCAnPG91dGZpbGUubWFlPic=

> <r_lp_tautomer_probability>
1

> <r_epik_Ionization_Penalty>
6.15571

> <r_epik_Ionization_Penalty_Charging>
6.1556

> <r_epik_Ionization_Penalty_Neutral>
0.000110918

> <r_epik_State_Penalty>
6.15558

> <r_epik_Charging_Adjusted_Penalty>
12.3112

> <i_epik_Tot_Q>
-1

> <i_epik_Tot_abs_Q>
1

> <r_epik_Metal_State_Penalty>
2.1059

> <b_epik_Metal_Only>
1

> <s_lp_Force_Field>
OPLS_2005

> <r_lp_Energy>
-1.67492

> <b_lp_Chiralities_Consistent>
1

> <s_lp_Variant>
AV-unprocessed.smi:2059-3

> <Gold.Version>
5.8.1

> <Gold.Id.Protein>
6NUR|6NUR_protein|mol2

> <Gold.PLP.Fitness>
40.8078

> <Gold.PLP.PLP>
-24.9566

> <Gold.PLP.part.hbond>
-5.0000

> <Gold.PLP.part.metal>
0.0000

> <Gold.PLP.part.buried>
-6.3989

> <Gold.PLP.part.nonpolar>
-15.1466

> <Gold.PLP.part.repulsive>
0.4763

> <Gold.PLP.ligand.clash>
0.0000

> <Gold.PLP.ligand.torsion>
0.8041

> <Gold.PLP.Chemscore.Hbond>
5.8185

> <Gold.PLP.Chemscore.CHOScore>
0.0000

> <Gold.PLP.Chemscore.Metal>
0.0000

> <Gold.Chemscore.Hbonds>
donor molecule, donor type, donor heavy atom, donor atom, acceptor molecule, acceptor atom, score
      P1  H  6896  6907       L1     7  1.00
      P1  H  6931  6943       L1     5  1.12
      P1  H  6934  6947       L1     5  1.50
      P1  H  7989  7998       L1    13  1.00
      P1  H 10752 10765       L1    14  0.51

> <Gold.PLP.Chemscore.Internal.Correction>
0.0037

> <Gold.Rescore>
     Score         DG    S(hbond)    S(metal)    S(lipo)     H(rot)  DE(clash)    DE(int)     intcor
     17.24     -19.12       3.57        0.00      36.56       1.00       0.01       1.87       ----

> <Gold.Chemscore.Fitness>
17.2418

> <Gold.Chemscore.DG>
-19.1193

> <Gold.Chemscore.ZeroCoef>
-5.4800

> <Gold.Chemscore.Hbond>
3.5695

> <Gold.Chemscore.Metal>
0.0000

> <Gold.Chemscore.Lipo>
36.5580

> <Gold.Chemscore.Internal_Hbond>
0.0000

> <Gold.Chemscore.DEClash>
0.0060

> <Gold.Chemscore.DEInternal>
1.8715

> <Gold.Chemscore.Rot>
1.0000

> <Gold.Chemscore.Internal.Correction>
   9.000000E+99

> <Gold.Chemscore.Hbonds>
donor molecule, donor type, donor heavy atom, donor atom, acceptor molecule, acceptor atom, score
      P1  H  6896  6907       L1     7  1.00
      P1  H  6931  6943       L1     5  0.02
      P1  H  6934  6947       L1     5  0.60
      P1  H  7989  7998       L1    13  0.98
      P1  H 10752 10765       L1    14  0.50

> <Gold.Chemscore.Hbond.Weighted>
-11.9220

> <Gold.Chemscore.Metal.Weighted>
-0.0000

> <Gold.Chemscore.Lipo.Weighted>
-4.2773

> <Gold.Chemscore.Internal_Hbond.Weighted>
0.0000

> <Gold.Chemscore.DEClash.Weighted>
0.0060

> <Gold.Chemscore.DEInternal.Weighted>
1.8715

> <Gold.Chemscore.Rot.Weighted>
2.5600

> <Gold.Chemscore.Internal.Correction.Weighted>
   9.000000E+99

> <Gold.Protein.RotatedTorsions>
[ 6907 6896 6895 6894 ] final  -51.74 input  -60.11 | X-H torsion
[ 7974 7965 7964 7962 ] final  177.36 input  175.53 | X-H torsion
[ 8008 7997 7996 7995 ] final  -87.30 input   59.86 | X-H torsion
[ 10167 10162 10161 10158 ] final   45.25 input  -65.29 | X-H torsion
[ 10718 10713 10712 10709 ] final  176.75 input   66.30 | X-H torsion
[ 10763 10752 10751 10750 ] final  165.38 input  -60.55 | X-H torsion
[ 11005 11000 10999 10996 ] final   12.41 input  -57.11 | X-H torsion

> <Gold.Protein.ActiveResidues>
 VAL166  LYS551  ARG553  GLY616  TRP617  ASP618  TYR619  PRO620  LYS621  CYS622 
 ASP623  PHE694  ASN695  SER759  ASP760  ASP761  ALA762  ILE779  LEU786  VAL792 
 PHE793  MET794  SER795  GLU796  ALA797  LYS798  CYS799  TRP800  GLU811  SER814 

> <Gold.Protein.RotatedAtoms>
  150.8583  134.7928  159.7062 H   0  0  0  0  0  0  0  0  0  0  0  0  # atno 6907 bound_to 6896
  152.4628  134.5142  159.9773 H   0  0  0  0  0  0  0  0  0  0  0  0  # atno 6908 bound_to 6896
  151.5250  133.3421  159.2943 H   0  0  0  0  0  0  0  0  0  0  0  0  # atno 6909 bound_to 6896
  144.7170  140.0235  143.6440 H   0  0  0  0  0  0  0  0  0  0  0  0  # atno 7974 bound_to 7965
  154.6617  140.0567  157.0069 H   0  0  0  0  0  0  0  0  0  0  0  0  # atno 8008 bound_to 7997
  155.1219  140.3248  155.4476 H   0  0  0  0  0  0  0  0  0  0  0  0  # atno 8009 bound_to 7997
  156.2621  140.1996  156.6341 H   0  0  0  0  0  0  0  0  0  0  0  0  # atno 8010 bound_to 7997
  140.3260  144.2647  150.6175 H   0  0  0  0  0  0  0  0  0  0  0  0  # atno 10167 bound_to 10162
  156.9155  130.9923  151.3013 H   0  0  0  0  0  0  0  0  0  0  0  0  # atno 10718 bound_to 10713
  154.3231  135.2755  155.2509 H   0  0  0  0  0  0  0  0  0  0  0  0  # atno 10763 bound_to 10752
  154.4854  135.5847  153.6423 H   0  0  0  0  0  0  0  0  0  0  0  0  # atno 10764 bound_to 10752
  152.9874  135.6121  154.3418 H   0  0  0  0  0  0  0  0  0  0  0  0  # atno 10765 bound_to 10752
  140.4922  134.0828  155.7774 H   0  0  0  0  0  0  0  0  0  0  0  0  # atno 11005 bound_to 11000
  146.0161  139.3211  143.0841 LP  0  0  0  0  0  0  0  0  0  0  0  0  # atno 17320 bound_to 7965
  145.8624  140.9467  143.0693 LP  0  0  0  0  0  0  0  0  0  0  0  0  # atno 17321 bound_to 7965
  140.5440  143.2218  151.8038 LP  0  0  0  0  0  0  0  0  0  0  0  0  # atno 17342 bound_to 10162
  139.4865  144.4563  151.9594 LP  0  0  0  0  0  0  0  0  0  0  0  0  # atno 17343 bound_to 10162
  157.5941  130.8465  149.8702 LP  0  0  0  0  0  0  0  0  0  0  0  0  # atno 17370 bound_to 10713
  156.0516  130.3716  150.1189 LP  0  0  0  0  0  0  0  0  0  0  0  0  # atno 17371 bound_to 10713
  141.1478  133.9024  157.2173 LP  0  0  0  0  0  0  0  0  0  0  0  0  # atno 17394 bound_to 11000
  139.9762  135.0113  156.9637 LP  0  0  0  0  0  0  0  0  0  0  0  0  # atno 17395 bound_to 11000

$$$$
