#       Name:                AV-unprocessed.smi:2874
#       Creating user name   scv26
#       Creation time:       Fri Mar 27 15:50:16 2020


#       File generated by GOLD software.
#

@<TRIPOS>MOLECULE
AV-unprocessed.smi:2874
    44    46     1
SMALL
NO_CHARGES


@<TRIPOS>ATOM
      1 ****        -2.0567   3.7162   2.5668 C.3            1 S1                 0.0000
      2 ****        -1.6425   2.3670   2.6859 O.3            1 S1                 0.0000
      3 ****        -2.2540   1.5231   1.7234 C.3            1 S1                 0.0000
      4 ****        -1.7443   0.0858   1.8987 C.3            1 S1                 0.0000
      5 ****        -0.3023  -0.0088   1.7220 N.pl3          1 S1                 0.0000
      6 ****         0.3853  -0.1885   0.5668 C.2            1 S1                 0.0000
      7 ****        -0.4444  -0.3334  -0.9878 S.3            1 S1                 0.0000
      8 ****         0.8377  -1.2034  -1.9388 C.3            1 S1                 0.0000
      9 ****         0.2806  -1.6268  -3.2833 C.ar           1 S1                 0.0000
     10 ****        -0.4881  -2.7212  -3.2966 N.ar           1 S1                 0.0000
     11 ****        -0.9873  -3.1015  -4.4924 C.ar           1 S1                 0.0000
     12 ****        -0.7109  -2.3844  -5.6740 C.ar           1 S1                 0.0000
     13 ****         0.1142  -1.2500  -5.5360 C.ar           1 S1                 0.0000
     14 ****         0.4524  -0.4758  -6.6427 N.pl3          1 S1                 0.0000
     15 ****         0.6083  -0.8720  -4.3378 N.ar           1 S1                 0.0000
     16 ****         1.7131  -0.2345   0.6926 N.2            1 S1                 0.0000
     17 ****         1.9017  -0.0698   2.0502 C.ar           1 S1                 0.0000
     18 ****         3.0899  -0.0262   2.8135 C.ar           1 S1                 0.0000
     19 ****         3.0341   0.1568   4.2109 C.ar           1 S1                 0.0000
     20 ****         4.4941   0.2079   5.1285 Cl             1 S1                 0.0000
     21 ****         1.7915   0.2991   4.8624 C.ar           1 S1                 0.0000
     22 ****         0.5958   0.2583   4.1198 C.ar           1 S1                 0.0000
     23 ****         0.6578   0.0745   2.7255 C.ar           1 S1                 0.0000
     24 ****        -1.5703   4.3172   3.3350 H              1 S1                 0.0000
     25 ****        -3.1353   3.8114   2.6976 H              1 S1                 0.0000
     26 ****        -1.7834   4.1269   1.5941 H              1 S1                 0.0000
     27 ****        -3.3379   1.5466   1.8437 H              1 S1                 0.0000
     28 ****        -2.0300   1.8798   0.7168 H              1 S1                 0.0000
     29 ****        -1.9986  -0.2809   2.8936 H              1 S1                 0.0000
     30 ****        -2.2392  -0.5833   1.1947 H              1 S1                 0.0000
     31 ****         1.7047  -0.5548  -2.0728 H              1 S1                 0.0000
     32 ****         1.1689  -2.0855  -1.3892 H              1 S1                 0.0000
     33 ****        -1.6088  -3.9843  -4.5072 H              1 S1                 0.0000
     34 ****        -1.1100  -2.6926  -6.6290 H              1 S1                 0.0000
     35 ****         0.1192  -0.7027  -7.5683 H              1 S1                 0.0000
     36 ****         1.0525   0.3317  -6.5550 H              1 S1                 0.0000
     37 ****         4.0457  -0.1326   2.3222 H              1 S1                 0.0000
     38 ****         1.7551   0.4407   5.9326 H              1 S1                 0.0000
     39 ****        -0.3572   0.3696   4.6154 H              1 S1                 0.0000
     40 ****        -1.8820   2.0376   3.5992 LP             1 S1                 0.0000
     41 ****        -0.6507   2.3244   2.5655 LP             1 S1                 0.0000
     42 ****        -0.6840  -3.2337  -2.4606 LP             1 S1                 0.0000
     43 ****         1.1919  -0.0655  -4.2432 LP             1 S1                 0.0000
     44 ****         2.4023  -0.3580  -0.0214 LP             1 S1                 0.0000
@<TRIPOS>BOND
    1    1    2 1     
    2    1   24 1     
    3    1   25 1     
    4    1   26 1     
    5    2    3 1     
    6    3    4 1     
    7    3   27 1     
    8    3   28 1     
    9    4    5 1     
   10    4   29 1     
   11    4   30 1     
   12    5   23 1     
   13    5    6 1     
   14    6    7 1     
   15    6   16 2     
   16    7    8 1     
   17    8    9 1     
   18    8   31 1     
   19    8   32 1     
   20    9   15 ar    
   21    9   10 ar    
   22   10   11 ar    
   23   11   12 ar    
   24   11   33 1     
   25   12   13 ar    
   26   12   34 1     
   27   13   14 1     
   28   13   15 ar    
   29   14   35 1     
   30   14   36 1     
   31   16   17 1     
   32   17   23 ar    
   33   17   18 ar    
   34   18   19 ar    
   35   18   37 1     
   36   19   20 1     
   37   19   21 ar    
   38   21   22 ar    
   39   21   38 1     
   40   22   23 ar    
   41   22   39 1     
   42    2   40 1     
   43    2   41 1     
   44   10   42 1     
   45   15   43 1     
   46   16   44 1     
@<TRIPOS>SUBSTRUCTURE
      1 S1             1
@<TRIPOS>SET
LONE_PAIRS      STATIC     ATOMS    <user>   **** ""
5 40 41 42 43 44
DONOR_HYDROGENS      STATIC     ATOMS    <user>   **** ""
2 35 36
ATOM$BLUE        STATIC     ATOMS    COLORGROUP SYSTEM
5 40 41 42 43 44
ATOM$RED        STATIC     ATOMS    COLORGROUP SYSTEM
2 35 36
