AV-unprocessed.smi:1518|AV-procd|sdf|6127|dock8
  -GOLD-   22720 6273D 1   1.00000     0.00000
 Structure written by MMmdl.
 46 48  0  0  0  0  0  0  0  0  2 V2000
  153.9128  141.1864  162.4113 C   0  0  0  0  0  0  0  0  0  0  0  0
  153.1986  142.5247  162.5943 C   0  0  0  0  0  0  0  0  0  0  0  0
  153.1311  143.0063  163.7246 O   0  0  0  0  0  0  0  0  0  0  0  0
  152.6183  143.1786  161.3856 C   0  0  0  0  0  0  0  0  0  0  0  0
  152.2816  144.5501  161.4386 C   0  0  0  0  0  0  0  0  0  0  0  0
  151.7341  145.1940  160.3144 C   0  0  0  0  0  0  0  0  0  0  0  0
  151.5179  144.4737  159.1263 C   0  0  0  0  0  0  0  0  0  0  0  0
  151.8449  143.1060  159.0454 C   0  0  0  0  0  0  0  0  0  0  0  0
  151.6016  142.4806  157.8414 O   0  0  0  0  0  0  0  0  0  0  0  0
  152.1762  141.1998  157.6128 C   0  0  0  0  0  0  0  0  0  0  0  0
  151.6069  140.5921  156.3204 C   0  0  1  0  0  0  0  0  0  0  0  0
  152.4729  139.5741  155.8598 O   0  0  0  0  0  0  0  0  0  0  0  0
  150.1569  140.0866  156.4641 C   0  0  0  0  0  0  0  0  0  0  0  0
  149.5939  139.6033  155.1928 N   0  0  0  0  0  0  0  0  0  0  0  0
  149.7632  138.4097  154.5531 C   0  0  0  0  0  0  0  0  0  0  0  0
  150.5905  137.2528  155.0085 C   0  0  0  0  0  0  0  0  0  0  0  0
  151.3867  136.7215  153.9728 O   0  0  0  0  0  0  0  0  0  0  0  0
  149.0220  138.4553  153.4105 N   0  3  0  0  0  0  0  0  0  0  0  0
  148.3732  139.6868  153.3161 C   0  0  0  0  0  0  0  0  0  0  0  0
  147.5178  140.1924  152.3420 C   0  0  0  0  0  0  0  0  0  0  0  0
  147.0192  141.4949  152.5516 C   0  0  0  0  0  0  0  0  0  0  0  0
  147.3734  142.2409  153.6944 C   0  0  0  0  0  0  0  0  0  0  0  0
  148.2423  141.7177  154.6744 C   0  0  0  0  0  0  0  0  0  0  0  0
  148.7334  140.4298  154.4591 C   0  0  0  0  0  0  0  0  0  0  0  0
  152.3960  142.4634  160.1836 C   0  0  0  0  0  0  0  0  0  0  0  0
  154.7675  141.2974  161.7440 H   0  0  0  0  0  0  0  0  0  0  0  0
  153.2334  140.4440  161.9925 H   0  0  0  0  0  0  0  0  0  0  0  0
  154.2756  140.8136  163.3694 H   0  0  0  0  0  0  0  0  0  0  0  0
  152.4390  145.1229  162.3415 H   0  0  0  0  0  0  0  0  0  0  0  0
  151.4796  146.2424  160.3637 H   0  0  0  0  0  0  0  0  0  0  0  0
  151.0969  144.9759  158.2675 H   0  0  0  0  0  0  0  0  0  0  0  0
  153.2558  141.3098  157.4979 H   0  0  0  0  0  0  0  0  0  0  0  0
  151.9981  140.5328  158.4583 H   0  0  0  0  0  0  0  0  0  0  0  0
  151.6270  141.3698  155.5565 H   0  0  0  0  0  0  0  0  0  0  0  0
  152.0360  138.7416  155.9577 H   0  0  0  0  0  0  0  0  0  0  0  0
  150.0809  139.2971  157.2115 H   0  0  0  0  0  0  0  0  0  0  0  0
  149.5166  140.8945  156.8184 H   0  0  0  0  0  0  0  0  0  0  0  0
  151.2388  137.5709  155.8254 H   0  0  0  0  0  0  0  0  0  0  0  0
  149.9436  136.4690  155.4023 H   0  0  0  0  0  0  0  0  0  0  0  0
  151.0809  137.0696  153.1490 H   0  0  0  0  0  0  0  0  0  0  0  0
  147.2431  139.6217  151.4669 H   0  0  0  0  0  0  0  0  0  0  0  0
  146.3503  141.9293  151.8229 H   0  0  0  0  0  0  0  0  0  0  0  0
  146.9695  143.2346  153.8237 H   0  0  0  0  0  0  0  0  0  0  0  0
  148.5006  142.2965  155.5488 H   0  0  0  0  0  0  0  0  0  0  0  0
  152.6509  141.4167  160.1370 H   0  0  0  0  0  0  0  0  0  0  0  0
  148.9624  137.6936  152.7471 H   0  0  0  0  0  0  0  0  0  0  0  0
  1  2  1  0  0  0  0
  1 26  1  0  0  0  0
  1 27  1  0  0  0  0
  1 28  1  0  0  0  0
  2  3  2  0  0  0  0
  2  4  1  0  0  0  0
  4 25  1  0  0  0  0
  4  5  2  0  0  0  0
  5  6  1  0  0  0  0
  5 29  1  0  0  0  0
  6  7  2  0  0  0  0
  6 30  1  0  0  0  0
  7  8  1  0  0  0  0
  7 31  1  0  0  0  0
  8  9  1  0  0  0  0
  8 25  2  0  0  0  0
  9 10  1  0  0  0  0
 10 11  1  0  0  0  0
 10 32  1  0  0  0  0
 10 33  1  0  0  0  0
 11 12  1  0  0  0  0
 11 13  1  0  0  0  0
 11 34  1  0  0  0  0
 12 35  1  0  0  0  0
 13 14  1  0  0  0  0
 13 36  1  0  0  0  0
 13 37  1  0  0  0  0
 14 24  1  0  0  0  0
 14 15  1  0  0  0  0
 15 16  1  0  0  0  0
 15 18  2  0  0  0  0
 16 17  1  0  0  0  0
 16 38  1  0  0  0  0
 16 39  1  0  0  0  0
 17 40  1  0  0  0  0
 18 19  1  0  0  0  0
 18 46  1  0  0  0  0
 19 24  2  0  0  0  0
 19 20  1  0  0  0  0
 20 21  2  0  0  0  0
 20 41  1  0  0  0  0
 21 22  1  0  0  0  0
 21 42  1  0  0  0  0
 22 23  2  0  0  0  0
 22 43  1  0  0  0  0
 23 24  1  0  0  0  0
 23 44  1  0  0  0  0
 25 45  1  0  0  0  0
M  CHG  1  18   1
M  END
> <s_m_source_file>
AV-unprocessed.smi

> <i_m_source_file_index>
1518

> <i_lp_mmshare_version>
43012

> <i_f3d_flags>
0

> <s_epik_input>
W0NIM11DKD1PKWMxW2NIXVtjSF1bY0hdYyhbY0hdMSlPW0NIMl1bQ0BIXShbT0hdKVtDSDJdbihjKG4yKVtDSDJdW09IXSljKGMyMylbY0hdW2NIXVtjSF1bY0hdMw==

> <s_epik_cmdline>
J2VwaWtfcHl0aG9uJywgJy1waCcsICc3LjAnLCAnLXRuJywgJzgnLCAnLW1hJywgJzIwMCcsICctbWV0YWxfYmluZGluZycsICctaW1hZScsICc8aW5maWxlLm1hZT4nLCAnLW9tYWUnLCAnPG91dGZpbGUubWFlPic=

> <r_lp_tautomer_probability>
0.99995

> <r_epik_Ionization_Penalty>
1.40416

> <r_epik_Ionization_Penalty_Charging>
1.4033

> <r_epik_Ionization_Penalty_Neutral>
0.000858184

> <r_epik_State_Penalty>
1.48564

> <r_epik_Charging_Adjusted_Penalty>
2.88894

> <i_epik_Tot_Q>
1

> <i_epik_Tot_abs_Q>
1

> <r_epik_Metal_State_Penalty>
5.52809

> <b_epik_Metal_Only>
0

> <s_lp_Force_Field>
OPLS_2005

> <r_lp_Energy>
25.8835

> <b_lp_Chiralities_Consistent>
1

> <s_lp_Variant>
AV-unprocessed.smi:1518-4

> <Gold.Version>
5.8.1

> <Gold.Id.Protein>
6NUR|6NUR_protein|mol2

> <Gold.PLP.Fitness>
62.9171

> <Gold.PLP.PLP>
-50.9918

> <Gold.PLP.part.hbond>
-4.9773

> <Gold.PLP.part.metal>
0.0000

> <Gold.PLP.part.buried>
-1.7562

> <Gold.PLP.part.nonpolar>
-44.2919

> <Gold.PLP.part.repulsive>
0.2100

> <Gold.PLP.ligand.clash>
0.0000

> <Gold.PLP.ligand.torsion>
0.8967

> <Gold.PLP.Chemscore.Hbond>
4.5440

> <Gold.PLP.Chemscore.CHOScore>
0.0000

> <Gold.PLP.Chemscore.Metal>
0.0000

> <Gold.Chemscore.Hbonds>
donor molecule, donor type, donor heavy atom, donor atom, acceptor molecule, acceptor atom, score
      L1  H    17    40       P1  7949  0.42
      L1  H    18    46       P1  7948  2.00
      P1  H  7997  8009       L1    12  1.00
      P1  H 10752 10764       L1    17  1.00

> <Gold.PLP.Chemscore.Internal.Correction>
0.0865

> <Gold.Rescore>
     Score         DG    S(hbond)    S(metal)    S(lipo)     H(rot)  DE(clash)    DE(int)     intcor
     20.37     -23.23       3.02        0.00     138.64       3.34       1.81       1.05       ----

> <Gold.Chemscore.Fitness>
20.3723

> <Gold.Chemscore.DG>
-23.2302

> <Gold.Chemscore.ZeroCoef>
-5.4800

> <Gold.Chemscore.Hbond>
3.0170

> <Gold.Chemscore.Metal>
0.0000

> <Gold.Chemscore.Lipo>
138.6390

> <Gold.Chemscore.Internal_Hbond>
0.0000

> <Gold.Chemscore.DEClash>
1.8098

> <Gold.Chemscore.DEInternal>
1.0482

> <Gold.Chemscore.Rot>
3.3387

> <Gold.Chemscore.Internal.Correction>
   9.000000E+99

> <Gold.Chemscore.Hbonds>
donor molecule, donor type, donor heavy atom, donor atom, acceptor molecule, acceptor atom, score
      L1  H    17    40       P1  7949  0.16
      L1  H    18    46       P1  7948  1.00
      P1  H  7997  8009       L1    12  0.64
      P1  H 10752 10764       L1    17  0.99

> <Gold.Chemscore.Hbond.Weighted>
-10.0766

> <Gold.Chemscore.Metal.Weighted>
-0.0000

> <Gold.Chemscore.Lipo.Weighted>
-16.2208

> <Gold.Chemscore.Internal_Hbond.Weighted>
0.0000

> <Gold.Chemscore.DEClash.Weighted>
1.8098

> <Gold.Chemscore.DEInternal.Weighted>
1.0482

> <Gold.Chemscore.Rot.Weighted>
8.5471

> <Gold.Chemscore.Internal.Correction.Weighted>
   9.000000E+99

> <Gold.Protein.RotatedTorsions>
[ 6907 6896 6895 6894 ] final   75.54 input  -60.11 | X-H torsion
[ 7974 7965 7964 7962 ] final -174.99 input  175.53 | X-H torsion
[ 8008 7997 7996 7995 ] final -153.65 input   59.86 | X-H torsion
[ 10167 10162 10161 10158 ] final  151.96 input  -65.29 | X-H torsion
[ 10718 10713 10712 10709 ] final  161.08 input   66.30 | X-H torsion
[ 10763 10752 10751 10750 ] final  -75.92 input  -60.55 | X-H torsion
[ 11005 11000 10999 10996 ] final  169.02 input  -57.11 | X-H torsion

> <Gold.Protein.ActiveResidues>
 VAL166  LYS551  ARG553  GLY616  TRP617  ASP618  TYR619  PRO620  LYS621  CYS622 
 ASP623  PHE694  ASN695  SER759  ASP760  ASP761  ALA762  ILE779  LEU786  VAL792 
 PHE793  MET794  SER795  GLU796  ALA797  LYS798  CYS799  TRP800  GLU811  SER814 

> <Gold.Protein.RotatedAtoms>
  152.5031  134.4105  159.9446 H   0  0  0  0  0  0  0  0  0  0  0  0  # atno 6907 bound_to 6896
  151.4073  133.3732  159.2747 H   0  0  0  0  0  0  0  0  0  0  0  0  # atno 6908 bound_to 6896
  150.9317  134.8754  159.7615 H   0  0  0  0  0  0  0  0  0  0  0  0  # atno 6909 bound_to 6896
  144.7129  140.1388  143.6393 H   0  0  0  0  0  0  0  0  0  0  0  0  # atno 7974 bound_to 7965
  155.6742  140.0737  157.2509 H   0  0  0  0  0  0  0  0  0  0  0  0  # atno 8008 bound_to 7997
  154.4117  140.1693  156.1963 H   0  0  0  0  0  0  0  0  0  0  0  0  # atno 8009 bound_to 7997
  155.9590  140.3371  155.6477 H   0  0  0  0  0  0  0  0  0  0  0  0  # atno 8010 bound_to 7997
  139.4836  144.5398  151.7584 H   0  0  0  0  0  0  0  0  0  0  0  0  # atno 10167 bound_to 10162
  157.1415  131.0542  151.2324 H   0  0  0  0  0  0  0  0  0  0  0  0  # atno 10718 bound_to 10713
  154.4929  135.5815  153.6473 H   0  0  0  0  0  0  0  0  0  0  0  0  # atno 10763 bound_to 10752
  152.9865  135.6117  154.3101 H   0  0  0  0  0  0  0  0  0  0  0  0  # atno 10764 bound_to 10752
  154.3003  135.2847  155.2593 H   0  0  0  0  0  0  0  0  0  0  0  0  # atno 10765 bound_to 10752
  140.2933  134.7655  157.3857 H   0  0  0  0  0  0  0  0  0  0  0  0  # atno 11005 bound_to 11000
  145.9220  139.2552  143.1375 LP  0  0  0  0  0  0  0  0  0  0  0  0  # atno 17320 bound_to 7965
  145.9610  140.8835  143.0210 LP  0  0  0  0  0  0  0  0  0  0  0  0  # atno 17321 bound_to 7965
  140.4935  144.1275  150.5955 LP  0  0  0  0  0  0  0  0  0  0  0  0  # atno 17342 bound_to 10162
  140.4144  143.2641  151.9793 LP  0  0  0  0  0  0  0  0  0  0  0  0  # atno 17343 bound_to 10162
  157.4302  130.7486  149.6984 LP  0  0  0  0  0  0  0  0  0  0  0  0  # atno 17370 bound_to 10713
  155.9787  130.4048  150.3629 LP  0  0  0  0  0  0  0  0  0  0  0  0  # atno 17371 bound_to 10713
  140.1175  134.5263  155.8212 LP  0  0  0  0  0  0  0  0  0  0  0  0  # atno 17394 bound_to 11000
  141.2142  133.6745  156.6804 LP  0  0  0  0  0  0  0  0  0  0  0  0  # atno 17395 bound_to 11000

$$$$
