AV-unprocessed.smi:2055|AV-procd|sdf|8334|dock4
  -GOLD-   2272011 03D 1   1.00000     0.00000
 Structure written by MMmdl.
 43 44  0  0  0  0  0  0  0  0  1 V2000
  145.9333  134.5204  153.5194 C   0  0  0  0  0  0  0  0  0  0  0  0
  145.5970  136.0168  153.6354 C   0  0  2  0  0  0  0  0  0  0  0  0
  144.5512  136.4349  152.5858 C   0  0  0  0  0  0  0  0  0  0  0  0
  144.2418  137.8059  152.7214 O   0  0  0  0  0  0  0  0  0  0  0  0
  146.8156  136.7985  153.4432 N   0  0  0  0  0  0  0  0  0  0  0  0
  147.0127  138.0456  153.8920 C   0  0  0  0  0  0  0  0  0  0  0  0
  146.1744  138.6985  154.5135 O   0  0  0  0  0  0  0  0  0  0  0  0
  148.2453  138.4863  153.6050 N   0  0  0  0  0  0  0  0  0  0  0  0
  148.7867  139.7786  154.0157 C   0  0  0  0  0  0  0  0  0  0  0  0
  150.0824  139.7179  154.8182 C   0  0  0  0  0  0  0  0  0  0  0  0
  151.0623  138.7686  154.4698 C   0  0  0  0  0  0  0  0  0  0  0  0
  152.2504  138.7209  155.2212 C   0  0  0  0  0  0  0  0  0  0  0  0
  152.5012  139.5424  156.2612 N   0  0  0  0  0  0  0  0  0  0  0  0
  151.5706  140.4621  156.6119 C   0  0  0  0  0  0  0  0  0  0  0  0
  151.8975  141.3089  157.6941 N   0  0  0  0  0  0  0  0  0  0  0  0
  151.1548  142.5549  157.8623 C   0  0  0  0  0  0  0  0  0  0  0  0
  151.8778  143.4818  158.8537 C   0  0  0  0  0  0  0  0  0  0  0  0
  152.0964  142.7947  160.0810 O   0  0  0  0  0  0  0  0  0  0  0  0
  152.9316  141.6551  159.9051 C   0  0  0  0  0  0  0  0  0  0  0  0
  152.2571  140.6545  158.9511 C   0  0  0  0  0  0  0  0  0  0  0  0
  150.3405  140.5727  155.9149 C   0  0  0  0  0  0  0  0  0  0  0  0
  145.0448  133.9057  153.6654 H   0  0  0  0  0  0  0  0  0  0  0  0
  146.6642  134.2188  154.2707 H   0  0  0  0  0  0  0  0  0  0  0  0
  146.3464  134.2808  152.5389 H   0  0  0  0  0  0  0  0  0  0  0  0
  145.1898  136.1933  154.6332 H   0  0  0  0  0  0  0  0  0  0  0  0
  144.8879  136.2201  151.5707 H   0  0  0  0  0  0  0  0  0  0  0  0
  143.6232  135.8820  152.7364 H   0  0  0  0  0  0  0  0  0  0  0  0
  143.9347  138.1293  151.8880 H   0  0  0  0  0  0  0  0  0  0  0  0
  147.5670  136.3501  152.9398 H   0  0  0  0  0  0  0  0  0  0  0  0
  148.8636  137.8759  153.0911 H   0  0  0  0  0  0  0  0  0  0  0  0
  148.9718  140.3660  153.1162 H   0  0  0  0  0  0  0  0  0  0  0  0
  148.0346  140.3236  154.5891 H   0  0  0  0  0  0  0  0  0  0  0  0
  150.9094  138.0902  153.6432 H   0  0  0  0  0  0  0  0  0  0  0  0
  153.0217  138.0049  154.9794 H   0  0  0  0  0  0  0  0  0  0  0  0
  151.0548  143.0690  156.9054 H   0  0  0  0  0  0  0  0  0  0  0  0
  150.1506  142.3301  158.2241 H   0  0  0  0  0  0  0  0  0  0  0  0
  152.8283  143.8260  158.4424 H   0  0  0  0  0  0  0  0  0  0  0  0
  151.2745  144.3692  159.0450 H   0  0  0  0  0  0  0  0  0  0  0  0
  153.9064  141.9606  159.5212 H   0  0  0  0  0  0  0  0  0  0  0  0
  153.1045  141.1890  160.8753 H   0  0  0  0  0  0  0  0  0  0  0  0
  151.3518  140.2537  159.4087 H   0  0  0  0  0  0  0  0  0  0  0  0
  152.9311  139.8136  158.7885 H   0  0  0  0  0  0  0  0  0  0  0  0
  149.5990  141.2969  156.2134 H   0  0  0  0  0  0  0  0  0  0  0  0
  1  2  1  0  0  0  0
  1 22  1  0  0  0  0
  1 23  1  0  0  0  0
  1 24  1  0  0  0  0
  2  3  1  0  0  0  0
  2  5  1  0  0  0  0
  2 25  1  0  0  0  0
  3  4  1  0  0  0  0
  3 26  1  0  0  0  0
  3 27  1  0  0  0  0
  4 28  1  0  0  0  0
  5  6  1  0  0  0  0
  5 29  1  0  0  0  0
  6  7  2  0  0  0  0
  6  8  1  0  0  0  0
  8  9  1  0  0  0  0
  8 30  1  0  0  0  0
  9 10  1  0  0  0  0
  9 31  1  0  0  0  0
  9 32  1  0  0  0  0
 10 21  1  0  0  0  0
 10 11  2  0  0  0  0
 11 12  1  0  0  0  0
 11 33  1  0  0  0  0
 12 13  2  0  0  0  0
 12 34  1  0  0  0  0
 13 14  1  0  0  0  0
 14 15  1  0  0  0  0
 14 21  2  0  0  0  0
 15 20  1  0  0  0  0
 15 16  1  0  0  0  0
 16 17  1  0  0  0  0
 16 35  1  0  0  0  0
 16 36  1  0  0  0  0
 17 18  1  0  0  0  0
 17 37  1  0  0  0  0
 17 38  1  0  0  0  0
 18 19  1  0  0  0  0
 19 20  1  0  0  0  0
 19 39  1  0  0  0  0
 19 40  1  0  0  0  0
 20 41  1  0  0  0  0
 20 42  1  0  0  0  0
 21 43  1  0  0  0  0
M  END
> <s_m_source_file>
AV-unprocessed.smi

> <i_m_source_file_index>
2055

> <i_lp_mmshare_version>
43012

> <i_f3d_flags>
0

> <s_epik_input>
W09IXVtDSDJdW0NAQEhdKFtDSDNdKVtOSF1DKD1PKVtOSF1bQ0gyXWMxW2NIXVtjSF1uYyhbY0hdMSlOMltDSDJdW0NIMl1PW0NIMl1bQ0gyXTI=

> <s_epik_cmdline>
J2VwaWtfcHl0aG9uJywgJy1waCcsICc3LjAnLCAnLXRuJywgJzgnLCAnLW1hJywgJzIwMCcsICctbWV0YWxfYmluZGluZycsICctaW1hZScsICc8aW5maWxlLm1hZT4nLCAnLW9tYWUnLCAnPG91dGZpbGUubWFlPic=

> <r_lp_tautomer_probability>
1

> <r_epik_Ionization_Penalty>
0.0122173

> <r_epik_Ionization_Penalty_Charging>
0

> <r_epik_Ionization_Penalty_Neutral>
0.0122173

> <r_epik_State_Penalty>
0.00940497

> <r_epik_Charging_Adjusted_Penalty>
0.00940497

> <i_epik_Tot_Q>
0

> <i_epik_Tot_abs_Q>
0

> <r_epik_Metal_State_Penalty>
0.00921475

> <b_epik_Metal_Only>
0

> <s_lp_Force_Field>
OPLS_2005

> <r_lp_Energy>
13.2065

> <b_lp_Chiralities_Consistent>
1

> <s_lp_Variant>
AV-unprocessed.smi:2055-1

> <Gold.Version>
5.8.1

> <Gold.Id.Protein>
6NUR|6NUR_protein|mol2

> <Gold.PLP.Fitness>
47.0507

> <Gold.PLP.PLP>
-36.8332

> <Gold.PLP.part.hbond>
-6.0000

> <Gold.PLP.part.metal>
0.0000

> <Gold.PLP.part.buried>
-2.2763

> <Gold.PLP.part.nonpolar>
-28.7408

> <Gold.PLP.part.repulsive>
0.1713

> <Gold.PLP.ligand.clash>
0.0000

> <Gold.PLP.ligand.torsion>
0.8937

> <Gold.PLP.Chemscore.Hbond>
3.8320

> <Gold.PLP.Chemscore.CHOScore>
0.0000

> <Gold.PLP.Chemscore.Metal>
0.0000

> <Gold.Chemscore.Hbonds>
donor molecule, donor type, donor heavy atom, donor atom, acceptor molecule, acceptor atom, score
      L1  H     4    28       P1 10171  0.78
      L1  H     5    29       P1  7948  1.00
      L1  H     8    30       P1  7948  0.90
      P1  H  7997  8010       L1    13  1.00

> <Gold.PLP.Chemscore.Internal.Correction>
0.5089

> <Gold.Rescore>
     Score         DG    S(hbond)    S(metal)    S(lipo)     H(rot)  DE(clash)    DE(int)     intcor
     18.63     -20.43       3.66        0.00      82.37       2.70       0.97       0.82       ----

> <Gold.Chemscore.Fitness>
18.6302

> <Gold.Chemscore.DG>
-20.4293

> <Gold.Chemscore.ZeroCoef>
-5.4800

> <Gold.Chemscore.Hbond>
3.6624

> <Gold.Chemscore.Metal>
0.0000

> <Gold.Chemscore.Lipo>
82.3652

> <Gold.Chemscore.Internal_Hbond>
0.0000

> <Gold.Chemscore.DEClash>
0.9749

> <Gold.Chemscore.DEInternal>
0.8241

> <Gold.Chemscore.Rot>
2.7031

> <Gold.Chemscore.Internal.Correction>
   9.000000E+99

> <Gold.Chemscore.Hbonds>
donor molecule, donor type, donor heavy atom, donor atom, acceptor molecule, acceptor atom, score
      L1  H     4    28       P1 10171  0.78
      L1  H     5    29       P1  7948  0.99
      L1  H     8    30       P1  7948  0.83
      P1  H  7997  8010       L1    13  0.72

> <Gold.Chemscore.Hbond.Weighted>
-12.2325

> <Gold.Chemscore.Metal.Weighted>
-0.0000

> <Gold.Chemscore.Lipo.Weighted>
-9.6367

> <Gold.Chemscore.Internal_Hbond.Weighted>
0.0000

> <Gold.Chemscore.DEClash.Weighted>
0.9749

> <Gold.Chemscore.DEInternal.Weighted>
0.8241

> <Gold.Chemscore.Rot.Weighted>
6.9199

> <Gold.Chemscore.Internal.Correction.Weighted>
   9.000000E+99

> <Gold.Protein.RotatedTorsions>
[ 6907 6896 6895 6894 ] final   97.58 input  -60.11 | X-H torsion
[ 7974 7965 7964 7962 ] final   86.91 input  175.53 | X-H torsion
[ 8008 7997 7996 7995 ] final   82.51 input   59.86 | X-H torsion
[ 10167 10162 10161 10158 ] final  -32.98 input  -65.29 | X-H torsion
[ 10718 10713 10712 10709 ] final  132.98 input   66.30 | X-H torsion
[ 10763 10752 10751 10750 ] final  -11.74 input  -60.55 | X-H torsion
[ 11005 11000 10999 10996 ] final   94.88 input  -57.11 | X-H torsion

> <Gold.Protein.ActiveResidues>
 VAL166  LYS551  ARG553  GLY616  TRP617  ASP618  TYR619  PRO620  LYS621  CYS622 
 ASP623  PHE694  ASN695  SER759  ASP760  ASP761  ALA762  ILE779  LEU786  VAL792 
 PHE793  MET794  SER795  GLU796  ALA797  LYS798  CYS799  TRP800  GLU811  SER814 

> <Gold.Protein.RotatedAtoms>
  152.5421  134.0711  159.8193 H   0  0  0  0  0  0  0  0  0  0  0  0  # atno 6907 bound_to 6896
  151.0825  133.5371  159.2627 H   0  0  0  0  0  0  0  0  0  0  0  0  # atno 6908 bound_to 6896
  151.2193  135.0521  159.8997 H   0  0  0  0  0  0  0  0  0  0  0  0  # atno 6909 bound_to 6896
  145.5660  139.2308  143.2433 H   0  0  0  0  0  0  0  0  0  0  0  0  # atno 7974 bound_to 7965
  155.9116  140.3427  155.6103 H   0  0  0  0  0  0  0  0  0  0  0  0  # atno 8008 bound_to 7997
  155.7381  140.0804  157.2277 H   0  0  0  0  0  0  0  0  0  0  0  0  # atno 8009 bound_to 7997
  154.4056  140.1576  156.2572 H   0  0  0  0  0  0  0  0  0  0  0  0  # atno 8010 bound_to 7997
  140.7212  143.3654  151.1880 H   0  0  0  0  0  0  0  0  0  0  0  0  # atno 10167 bound_to 10162
  157.4818  131.1086  150.9671 H   0  0  0  0  0  0  0  0  0  0  0  0  # atno 10718 bound_to 10713
  153.4881  135.7017  153.5899 H   0  0  0  0  0  0  0  0  0  0  0  0  # atno 10763 bound_to 10752
  153.4083  135.3855  155.2034 H   0  0  0  0  0  0  0  0  0  0  0  0  # atno 10764 bound_to 10752
  154.8718  135.3898  154.4339 H   0  0  0  0  0  0  0  0  0  0  0  0  # atno 10765 bound_to 10752
  139.8794  134.8869  156.3928 H   0  0  0  0  0  0  0  0  0  0  0  0  # atno 11005 bound_to 11000
  146.1818  140.6485  142.9186 LP  0  0  0  0  0  0  0  0  0  0  0  0  # atno 17320 bound_to 7965
  144.7460  140.5069  143.6835 LP  0  0  0  0  0  0  0  0  0  0  0  0  # atno 17321 bound_to 7965
  139.7215  143.9216  152.2987 LP  0  0  0  0  0  0  0  0  0  0  0  0  # atno 17342 bound_to 10162
  139.8974  144.6931  150.8702 LP  0  0  0  0  0  0  0  0  0  0  0  0  # atno 17343 bound_to 10162
  157.0402  130.5746  149.5355 LP  0  0  0  0  0  0  0  0  0  0  0  0  # atno 17370 bound_to 10713
  156.0126  130.5218  150.8035 LP  0  0  0  0  0  0  0  0  0  0  0  0  # atno 17371 bound_to 10713
  140.9321  133.7572  156.0037 LP  0  0  0  0  0  0  0  0  0  0  0  0  # atno 17394 bound_to 11000
  140.8319  134.3169  157.5346 LP  0  0  0  0  0  0  0  0  0  0  0  0  # atno 17395 bound_to 11000

$$$$
