#       Name:                AV-unprocessed.smi:2563
#       Creating user name   scv26
#       Creation time:       Fri Mar 27 14:09:51 2020


#       File generated by GOLD software.
#

@<TRIPOS>MOLECULE
AV-unprocessed.smi:2563
    39    40     1
SMALL
NO_CHARGES


@<TRIPOS>ATOM
      1 ****        -3.0912   2.0951   0.2245 C.3            1 S1                 0.0000
      2 ****        -2.8474   0.5783   0.2553 C.3            1 S1                 0.0000
      3 ****        -1.4267   0.2322   0.2837 N.pl3          1 S1                 0.0000
      4 ****        -0.6587   0.4406  -0.9477 C.3            1 S1                 0.0000
      5 ****         0.3900  -0.6607  -1.2093 C.3            1 S1                 0.0000
      6 ****         0.8833  -0.6274  -2.6710 C.3            1 S1                 0.0000
      7 ****         1.9346  -1.6420  -2.8856 N.4            1 S1                 1.0000
      8 ****         3.0449  -1.4851  -1.9271 C.3            1 S1                 0.0000
      9 ****         2.5005  -1.4817  -0.4899 C.3            1 S1                 0.0000
     10 ****         1.5184  -0.4592  -0.3612 O.3            1 S1                 0.0000
     11 ****        -0.7978   0.4600   1.5270 C.ar           1 S1                 0.0000
     12 ****        -1.2725  -0.1348   2.7182 C.ar           1 S1                 0.0000
     13 ****        -0.6072   0.1450   3.9237 C.ar           1 S1                 0.0000
     14 ****         0.4990   1.0102   3.8701 C.ar           1 S1                 0.0000
     15 ****         0.9398   1.5762   2.7253 N.ar           1 S1                 0.0000
     16 ****         0.2787   1.2900   1.5907 N.pl3          1 S1                 1.0000
     17 ****        -4.1588   2.3113   0.1833 H              1 S1                 0.0000
     18 ****        -2.6279   2.5573  -0.6477 H              1 S1                 0.0000
     19 ****        -2.6925   2.5824   1.1149 H              1 S1                 0.0000
     20 ****        -3.3682   0.1392   1.1057 H              1 S1                 0.0000
     21 ****        -3.2970   0.1238  -0.6279 H              1 S1                 0.0000
     22 ****        -1.3646   0.4434  -1.7792 H              1 S1                 0.0000
     23 ****        -0.1945   1.4274  -0.9562 H              1 S1                 0.0000
     24 ****        -0.0567  -1.6352  -1.0030 H              1 S1                 0.0000
     25 ****         0.0604  -0.8200  -3.3600 H              1 S1                 0.0000
     26 ****         1.2837   0.3576  -2.9157 H              1 S1                 0.0000
     27 ****         1.5302  -2.5598  -2.7651 H              1 S1                 0.0000
     28 ****         3.7632  -2.2934  -2.0664 H              1 S1                 0.0000
     29 ****         3.5675  -0.5502  -2.1341 H              1 S1                 0.0000
     30 ****         2.0715  -2.4507  -0.2296 H              1 S1                 0.0000
     31 ****         3.3070  -1.2891   0.2178 H              1 S1                 0.0000
     32 ****        -2.1224  -0.8014   2.7137 H              1 S1                 0.0000
     33 ****        -0.9315  -0.2898   4.8576 H              1 S1                 0.0000
     34 ****         1.0461   1.2559   4.7686 H              1 S1                 0.0000
     35 ****         2.2915  -1.5630  -3.8276 H              1 S1                 0.0000
     36 ****         0.6045   1.7183   0.7242 H              1 S1                 0.0000
     37 ****         1.2039  -0.4371   0.5878 LP             1 S1                 0.0000
     38 ****         1.9391   0.4178  -0.5935 LP             1 S1                 0.0000
     39 ****         1.7313   2.1874   2.7222 LP             1 S1                 0.0000
@<TRIPOS>BOND
    1    1    2 1     
    2    1   17 1     
    3    1   18 1     
    4    1   19 1     
    5    2    3 1     
    6    2   20 1     
    7    2   21 1     
    8    3    4 1     
    9    3   11 1     
   10    4    5 1     
   11    4   22 1     
   12    4   23 1     
   13    5   10 1     
   14    5    6 1     
   15    5   24 1     
   16    6    7 1     
   17    6   25 1     
   18    6   26 1     
   19    7    8 1     
   20    7   27 1     
   21    7   35 1     
   22    8    9 1     
   23    8   28 1     
   24    8   29 1     
   25    9   10 1     
   26    9   30 1     
   27    9   31 1     
   28   11   16 ar    
   29   11   12 ar    
   30   12   13 ar    
   31   12   32 1     
   32   13   14 ar    
   33   13   33 1     
   34   14   15 ar    
   35   14   34 1     
   36   15   16 ar    
   37   16   36 1     
   38   10   37 1     
   39   10   38 1     
   40   15   39 1     
@<TRIPOS>SUBSTRUCTURE
      1 S1             1
@<TRIPOS>SET
LONE_PAIRS      STATIC     ATOMS    <user>   **** ""
3 37 38 39
DONOR_HYDROGENS      STATIC     ATOMS    <user>   **** ""
3 27 35 36
ATOM$BLUE        STATIC     ATOMS    COLORGROUP SYSTEM
3 37 38 39
ATOM$RED        STATIC     ATOMS    COLORGROUP SYSTEM
3 27 35 36
