AV-unprocessed.smi:2439|AV-procd|sdf|9604|dock3
  -GOLD-   2272013233D 1   1.00000     0.00000
 Structure written by MMmdl.
 41 43  0  0  0  0  0  0  0  0  2 V2000
  154.0843  139.6841  159.0265 N   0  0  0  0  0  0  0  0  0  0  0  0
  153.6370  140.6008  159.5724 C   0  0  0  0  0  0  0  0  0  0  0  0
  153.0730  141.7569  160.2587 C   0  0  0  0  0  0  0  0  0  0  0  0
  153.5657  142.1023  161.5347 C   0  0  0  0  0  0  0  0  0  0  0  0
  153.0263  143.2193  162.1984 C   0  0  0  0  0  0  0  0  0  0  0  0
  152.0097  143.9493  161.5566 C   0  0  0  0  0  0  0  0  0  0  0  0
  151.5291  143.6303  160.3364 N   0  0  0  0  0  0  0  0  0  0  0  0
  152.0447  142.5558  159.6902 C   0  0  0  0  0  0  0  0  0  0  0  0
  151.5242  142.2507  158.4201 N   0  0  0  0  0  0  0  0  0  0  0  0
  150.1702  142.6369  158.0493 C   0  0  0  0  0  0  0  0  0  0  0  0
  149.2298  141.4172  157.9890 C   0  0  1  0  0  0  0  0  0  0  0  0
  147.7760  141.7947  157.6477 C   0  0  0  0  0  0  0  0  0  0  0  0
  147.6448  142.2093  156.2309 N   0  3  2  0  0  0  0  0  0  0  0  0
  146.2573  142.6175  155.8931 C   0  0  0  0  0  0  0  0  0  0  0  0
  146.1638  143.1254  154.4459 C   0  0  0  0  0  0  0  0  0  0  0  0
  146.6781  142.0662  153.4632 C   0  0  0  0  0  0  0  0  0  0  0  0
  148.1026  141.6447  153.8464 C   0  0  0  0  0  0  0  0  0  0  0  0
  148.1740  141.1662  155.3109 C   0  0  1  0  0  0  0  0  0  0  0  0
  149.6185  140.8002  155.7022 C   0  0  0  0  0  0  0  0  0  0  0  0
  149.6835  140.4202  157.0728 O   0  0  0  0  0  0  0  0  0  0  0  0
  154.3483  141.5228  162.0035 H   0  0  0  0  0  0  0  0  0  0  0  0
  153.3837  143.5090  163.1757 H   0  0  0  0  0  0  0  0  0  0  0  0
  151.5712  144.8130  162.0342 H   0  0  0  0  0  0  0  0  0  0  0  0
  152.1328  141.8678  157.7103 H   0  0  0  0  0  0  0  0  0  0  0  0
  149.8009  143.3411  158.7957 H   0  0  0  0  0  0  0  0  0  0  0  0
  150.1810  143.1702  157.0990 H   0  0  0  0  0  0  0  0  0  0  0  0
  149.2269  140.9558  158.9774 H   0  0  0  0  0  0  0  0  0  0  0  0
  147.1249  140.9380  157.8297 H   0  0  0  0  0  0  0  0  0  0  0  0
  147.4329  142.5960  158.3033 H   0  0  0  0  0  0  0  0  0  0  0  0
  145.5823  141.7722  156.0364 H   0  0  0  0  0  0  0  0  0  0  0  0
  145.9314  143.4027  156.5763 H   0  0  0  0  0  0  0  0  0  0  0  0
  145.1318  143.3848  154.2075 H   0  0  0  0  0  0  0  0  0  0  0  0
  146.7465  144.0413  154.3386 H   0  0  0  0  0  0  0  0  0  0  0  0
  146.0188  141.1973  153.4773 H   0  0  0  0  0  0  0  0  0  0  0  0
  146.6611  142.4564  152.4452 H   0  0  0  0  0  0  0  0  0  0  0  0
  148.4440  140.8542  153.1770 H   0  0  0  0  0  0  0  0  0  0  0  0
  148.7801  142.4873  153.6988 H   0  0  0  0  0  0  0  0  0  0  0  0
  147.5525  140.2753  155.4184 H   0  0  0  0  0  0  0  0  0  0  0  0
  149.9651  139.9606  155.0993 H   0  0  0  0  0  0  0  0  0  0  0  0
  150.3042  141.6234  155.5000 H   0  0  0  0  0  0  0  0  0  0  0  0
  148.2264  143.0265  156.1103 H   0  0  0  0  0  0  0  0  0  0  0  0
  1  2  3  0  0  0  0
  2  3  1  0  0  0  0
  3  8  1  0  0  0  0
  3  4  2  0  0  0  0
  4  5  1  0  0  0  0
  4 21  1  0  0  0  0
  5  6  2  0  0  0  0
  5 22  1  0  0  0  0
  6  7  1  0  0  0  0
  6 23  1  0  0  0  0
  7  8  2  0  0  0  0
  8  9  1  0  0  0  0
  9 10  1  0  0  0  0
  9 24  1  0  0  0  0
 10 11  1  0  0  0  0
 10 25  1  0  0  0  0
 10 26  1  0  0  0  0
 11 20  1  0  0  0  0
 11 12  1  0  0  0  0
 11 27  1  0  0  0  0
 12 13  1  0  0  0  0
 12 28  1  0  0  0  0
 12 29  1  0  0  0  0
 13 18  1  0  0  0  0
 13 14  1  0  0  0  0
 13 41  1  0  0  0  0
 14 15  1  0  0  0  0
 14 30  1  0  0  0  0
 14 31  1  0  0  0  0
 15 16  1  0  0  0  0
 15 32  1  0  0  0  0
 15 33  1  0  0  0  0
 16 17  1  0  0  0  0
 16 34  1  0  0  0  0
 16 35  1  0  0  0  0
 17 18  1  0  0  0  0
 17 36  1  0  0  0  0
 17 37  1  0  0  0  0
 18 19  1  0  0  0  0
 18 38  1  0  0  0  0
 19 20  1  0  0  0  0
 19 39  1  0  0  0  0
 19 40  1  0  0  0  0
M  CHG  1  13   1
M  END
> <s_m_source_file>
AV-unprocessed.smi

> <i_m_source_file_index>
2439

> <i_lp_mmshare_version>
43012

> <i_f3d_flags>
0

> <s_epik_input>
TiNDYzFbY0hdW2NIXVtjSF1uYzFbTkhdW0NIMl1bQ0BIXShbQ0gyXTIpT1tDSDJdW0NAQEhdKE4yMylbQ0gyXVtDSDJdW0NIMl1bQ0gyXTM=

> <s_epik_cmdline>
J2VwaWtfcHl0aG9uJywgJy1waCcsICc3LjAnLCAnLXRuJywgJzgnLCAnLW1hJywgJzIwMCcsICctbWV0YWxfYmluZGluZycsICctaW1hZScsICc8aW5maWxlLm1hZT4nLCAnLW9tYWUnLCAnPG91dGZpbGUubWFlPic=

> <r_epik_Ionization_Penalty>
0.0803594

> <r_epik_Ionization_Penalty_Charging>
0.0803403

> <r_epik_Ionization_Penalty_Neutral>
1.90988e-05

> <r_epik_State_Penalty>
0.0711481

> <r_epik_Charging_Adjusted_Penalty>
0.151488

> <i_epik_Tot_Q>
1

> <i_epik_Tot_abs_Q>
1

> <r_epik_Metal_State_Penalty>
0.0711482

> <b_epik_Metal_Only>
0

> <s_lp_Force_Field>
OPLS_2005

> <r_lp_Energy>
31.556

> <b_lp_Chiralities_Consistent>
1

> <s_lp_Variant>
AV-unprocessed.smi:2439-2

> <Gold.Version>
5.8.1

> <Gold.Id.Protein>
6NUR|6NUR_protein|mol2

> <Gold.PLP.Fitness>
49.5047

> <Gold.PLP.PLP>
-40.9293

> <Gold.PLP.part.hbond>
-2.0000

> <Gold.PLP.part.metal>
0.0000

> <Gold.PLP.part.buried>
-6.2854

> <Gold.PLP.part.nonpolar>
-31.7599

> <Gold.PLP.part.repulsive>
0.1680

> <Gold.PLP.ligand.clash>
0.0000

> <Gold.PLP.ligand.torsion>
0.2157

> <Gold.PLP.Chemscore.Hbond>
3.0000

> <Gold.PLP.Chemscore.CHOScore>
0.0000

> <Gold.PLP.Chemscore.Metal>
0.0000

> <Gold.Chemscore.Hbonds>
donor molecule, donor type, donor heavy atom, donor atom, acceptor molecule, acceptor atom, score
      L1  H    13    41       P1  8028  2.00
      P1  H  7997  8009       L1     1  1.00

> <Gold.PLP.Chemscore.Internal.Correction>
0.0068

> <Gold.Rescore>
     Score         DG    S(hbond)    S(metal)    S(lipo)     H(rot)  DE(clash)    DE(int)     intcor
     17.70     -18.45       1.65        0.00      91.43       1.27       0.57       0.18       ----

> <Gold.Chemscore.Fitness>
17.6975

> <Gold.Chemscore.DG>
-18.4500

> <Gold.Chemscore.ZeroCoef>
-5.4800

> <Gold.Chemscore.Hbond>
1.6506

> <Gold.Chemscore.Metal>
0.0000

> <Gold.Chemscore.Lipo>
91.4326

> <Gold.Chemscore.Internal_Hbond>
0.0000

> <Gold.Chemscore.DEClash>
0.5700

> <Gold.Chemscore.DEInternal>
0.1825

> <Gold.Chemscore.Rot>
1.2659

> <Gold.Chemscore.Internal.Correction>
   9.000000E+99

> <Gold.Chemscore.Hbonds>
donor molecule, donor type, donor heavy atom, donor atom, acceptor molecule, acceptor atom, score
      L1  H    13    41       P1  8028  0.78
      P1  H  7997  8009       L1     1  0.92

> <Gold.Chemscore.Hbond.Weighted>
-5.5132

> <Gold.Chemscore.Metal.Weighted>
-0.0000

> <Gold.Chemscore.Lipo.Weighted>
-10.6976

> <Gold.Chemscore.Internal_Hbond.Weighted>
0.0000

> <Gold.Chemscore.DEClash.Weighted>
0.5700

> <Gold.Chemscore.DEInternal.Weighted>
0.1825

> <Gold.Chemscore.Rot.Weighted>
3.2408

> <Gold.Chemscore.Internal.Correction.Weighted>
   9.000000E+99

> <Gold.Protein.RotatedTorsions>
[ 6907 6896 6895 6894 ] final -142.48 input  -60.11 | X-H torsion
[ 7974 7965 7964 7962 ] final  147.13 input  175.53 | X-H torsion
[ 8008 7997 7996 7995 ] final  128.05 input   59.86 | X-H torsion
[ 10167 10162 10161 10158 ] final   95.95 input  -65.29 | X-H torsion
[ 10718 10713 10712 10709 ] final  -41.05 input   66.30 | X-H torsion
[ 10763 10752 10751 10750 ] final   24.44 input  -60.55 | X-H torsion
[ 11005 11000 10999 10996 ] final  -46.77 input  -57.11 | X-H torsion

> <Gold.Protein.ActiveResidues>
 VAL166  LYS551  ARG553  GLY616  TRP617  ASP618  TYR619  PRO620  LYS621  CYS622 
 ASP623  PHE694  ASN695  SER759  ASP760  ASP761  ALA762  ILE779  LEU786  VAL792 
 PHE793  MET794  SER795  GLU796  ALA797  LYS798  CYS799  TRP800  GLU811  SER814 

> <Gold.Protein.RotatedAtoms>
  151.0877  133.5340  159.2616 H   0  0  0  0  0  0  0  0  0  0  0  0  # atno 6907 bound_to 6896
  151.2219  135.0521  159.8963 H   0  0  0  0  0  0  0  0  0  0  0  0  # atno 6908 bound_to 6896
  152.5431  134.0678  159.8234 H   0  0  0  0  0  0  0  0  0  0  0  0  # atno 6909 bound_to 6896
  144.8616  139.5990  143.5928 H   0  0  0  0  0  0  0  0  0  0  0  0  # atno 7974 bound_to 7965
  156.2906  140.2654  156.2373 H   0  0  0  0  0  0  0  0  0  0  0  0  # atno 8008 bound_to 7997
  155.0013  140.0388  157.2379 H   0  0  0  0  0  0  0  0  0  0  0  0  # atno 8009 bound_to 7997
  154.7599  140.2759  155.6227 H   0  0  0  0  0  0  0  0  0  0  0  0  # atno 8010 bound_to 7997
  139.7940  144.6840  150.9853 H   0  0  0  0  0  0  0  0  0  0  0  0  # atno 10167 bound_to 10162
  156.2747  130.4210  149.8401 H   0  0  0  0  0  0  0  0  0  0  0  0  # atno 10718 bound_to 10713
  153.0764  135.6605  154.0137 H   0  0  0  0  0  0  0  0  0  0  0  0  # atno 10763 bound_to 10752
  153.9770  135.2959  155.3424 H   0  0  0  0  0  0  0  0  0  0  0  0  # atno 10764 bound_to 10752
  154.7153  135.5188  153.8799 H   0  0  0  0  0  0  0  0  0  0  0  0  # atno 10765 bound_to 10752
  141.0600  133.6712  156.3203 H   0  0  0  0  0  0  0  0  0  0  0  0  # atno 11005 bound_to 11000
  146.2865  139.7017  142.9192 LP  0  0  0  0  0  0  0  0  0  0  0  0  # atno 17320 bound_to 7965
  145.4301  141.0414  143.2915 LP  0  0  0  0  0  0  0  0  0  0  0  0  # atno 17321 bound_to 7965
  140.7820  143.4350  151.0636 LP  0  0  0  0  0  0  0  0  0  0  0  0  # atno 17342 bound_to 10162
  139.8026  143.8063  152.3164 LP  0  0  0  0  0  0  0  0  0  0  0  0  # atno 17343 bound_to 10162
  156.5870  130.8490  151.3398 LP  0  0  0  0  0  0  0  0  0  0  0  0  # atno 17370 bound_to 10713
  157.7295  130.9672  150.1791 LP  0  0  0  0  0  0  0  0  0  0  0  0  # atno 17371 bound_to 10713
  140.5888  134.5671  157.5495 LP  0  0  0  0  0  0  0  0  0  0  0  0  # atno 17394 bound_to 11000
  139.9424  134.7763  156.0646 LP  0  0  0  0  0  0  0  0  0  0  0  0  # atno 17395 bound_to 11000

$$$$
