AV-unprocessed.smi:113|AV-procd|sdf|1093|dock6
  -GOLD-   2262018193D 1   1.00000     0.00000
 Structure written by MMmdl.
 52 55  0  0  0  0  0  0  0  0  1 V2000
  154.0180  136.7636  161.5409 C   0  0  0  0  0  0  0  0  0  0  0  0
  153.3761  137.8109  160.6549 C   0  0  0  0  0  0  0  0  0  0  0  0
  152.5591  137.4324  159.5752 C   0  0  0  0  0  0  0  0  0  0  0  0
  151.9732  138.4375  158.7722 C   0  0  0  0  0  0  0  0  0  0  0  0
  151.0768  138.0782  157.5815 C   0  0  0  0  0  0  0  0  0  0  0  0
  150.1714  136.9508  157.7562 N   0  0  0  0  0  0  0  0  0  0  0  0
  150.3847  135.8024  156.9555 C   0  0  0  0  0  0  0  0  0  0  0  0
  151.2939  135.7544  156.1240 O   0  0  0  0  0  0  0  0  0  0  0  0
  149.4664  134.6897  157.2076 C   0  0  0  0  0  0  0  0  0  0  0  0
  149.6378  133.4193  156.3897 C   0  0  0  0  0  0  0  0  0  0  0  0
  148.5042  134.8126  158.1533 C   0  0  0  0  0  0  0  0  0  0  0  0
  148.3105  135.9494  158.9187 N   0  0  0  0  0  0  0  0  0  0  0  0
  147.2361  135.9481  159.9874 C   0  0  2  0  0  0  0  0  0  0  0  0
  147.7865  136.0289  161.4156 C   0  0  0  0  0  0  0  0  0  0  0  0
  146.7770  135.1811  162.1612 C   0  0  2  0  0  0  0  0  0  0  0  0
  147.3380  134.6491  163.3435 O   0  0  0  0  0  0  0  0  0  0  0  0
  146.4330  134.0945  161.1371 C   0  0  1  0  0  0  0  0  0  0  0  0
  145.0372  133.4854  161.3404 C   0  0  0  0  0  0  0  0  0  0  0  0
  144.9261  132.9491  162.6415 O   0  0  0  0  0  0  0  0  0  0  0  0
  146.4870  134.7729  159.8811 O   0  0  0  0  0  0  0  0  0  0  0  0
  149.1755  137.0546  158.7535 C   0  0  0  0  0  0  0  0  0  0  0  0
  149.0756  138.0582  159.4618 O   0  0  0  0  0  0  0  0  0  0  0  0
  152.2407  139.7933  159.1037 C   0  0  0  0  0  0  0  0  0  0  0  0
  151.6900  140.8606  158.3539 C   0  0  0  0  0  0  0  0  0  0  0  0
  151.9705  142.1954  158.6957 C   0  0  0  0  0  0  0  0  0  0  0  0
  152.8030  142.4777  159.7911 C   0  0  0  0  0  0  0  0  0  0  0  0
  153.3517  141.4235  160.5429 C   0  0  0  0  0  0  0  0  0  0  0  0
  153.0839  140.0762  160.2186 C   0  0  0  0  0  0  0  0  0  0  0  0
  153.6313  139.0956  160.9697 N   0  0  0  0  0  0  0  0  0  0  0  0
  154.2044  135.8459  160.9821 H   0  0  0  0  0  0  0  0  0  0  0  0
  153.3619  136.5277  162.3789 H   0  0  0  0  0  0  0  0  0  0  0  0
  154.9711  137.1150  161.9384 H   0  0  0  0  0  0  0  0  0  0  0  0
  152.3938  136.3838  159.3800 H   0  0  0  0  0  0  0  0  0  0  0  0
  150.4727  138.9395  157.2921 H   0  0  0  0  0  0  0  0  0  0  0  0
  151.6862  137.8702  156.7011 H   0  0  0  0  0  0  0  0  0  0  0  0
  148.9022  132.6606  156.6584 H   0  0  0  0  0  0  0  0  0  0  0  0
  150.6290  132.9933  156.5501 H   0  0  0  0  0  0  0  0  0  0  0  0
  149.5237  133.6319  155.3260 H   0  0  0  0  0  0  0  0  0  0  0  0
  147.8485  133.9690  158.3151 H   0  0  0  0  0  0  0  0  0  0  0  0
  146.5752  136.7858  159.7624 H   0  0  0  0  0  0  0  0  0  0  0  0
  148.7863  135.6006  161.4798 H   0  0  0  0  0  0  0  0  0  0  0  0
  147.8288  137.0623  161.7607 H   0  0  0  0  0  0  0  0  0  0  0  0
  145.8953  135.7784  162.3990 H   0  0  0  0  0  0  0  0  0  0  0  0
  147.1780  133.7175  163.3589 H   0  0  0  0  0  0  0  0  0  0  0  0
  147.2022  133.3206  161.1571 H   0  0  0  0  0  0  0  0  0  0  0  0
  144.2735  134.2572  161.2404 H   0  0  0  0  0  0  0  0  0  0  0  0
  144.8245  132.7205  160.5932 H   0  0  0  0  0  0  0  0  0  0  0  0
  144.1416  132.4239  162.6842 H   0  0  0  0  0  0  0  0  0  0  0  0
  151.0453  140.6785  157.5080 H   0  0  0  0  0  0  0  0  0  0  0  0
  151.5459  143.0024  158.1168 H   0  0  0  0  0  0  0  0  0  0  0  0
  153.0207  143.5020  160.0558 H   0  0  0  0  0  0  0  0  0  0  0  0
  153.9896  141.6534  161.3838 H   0  0  0  0  0  0  0  0  0  0  0  0
  1  2  1  0  0  0  0
  1 30  1  0  0  0  0
  1 31  1  0  0  0  0
  1 32  1  0  0  0  0
  2 29  1  0  0  0  0
  2  3  2  0  0  0  0
  3  4  1  0  0  0  0
  3 33  1  0  0  0  0
  4  5  1  0  0  0  0
  4 23  2  0  0  0  0
  5  6  1  0  0  0  0
  5 34  1  0  0  0  0
  5 35  1  0  0  0  0
  6 21  1  0  0  0  0
  6  7  1  0  0  0  0
  7  8  2  0  0  0  0
  7  9  1  0  0  0  0
  9 10  1  0  0  0  0
  9 11  2  0  0  0  0
 10 36  1  0  0  0  0
 10 37  1  0  0  0  0
 10 38  1  0  0  0  0
 11 12  1  0  0  0  0
 11 39  1  0  0  0  0
 12 13  1  0  0  0  0
 12 21  1  0  0  0  0
 13 20  1  0  0  0  0
 13 14  1  0  0  0  0
 13 40  1  0  0  0  0
 14 15  1  0  0  0  0
 14 41  1  0  0  0  0
 14 42  1  0  0  0  0
 15 16  1  0  0  0  0
 15 17  1  0  0  0  0
 15 43  1  0  0  0  0
 16 44  1  0  0  0  0
 17 18  1  0  0  0  0
 17 20  1  0  0  0  0
 17 45  1  0  0  0  0
 18 19  1  0  0  0  0
 18 46  1  0  0  0  0
 18 47  1  0  0  0  0
 19 48  1  0  0  0  0
 21 22  2  0  0  0  0
 23 28  1  0  0  0  0
 23 24  1  0  0  0  0
 24 25  2  0  0  0  0
 24 49  1  0  0  0  0
 25 26  1  0  0  0  0
 25 50  1  0  0  0  0
 26 27  2  0  0  0  0
 26 51  1  0  0  0  0
 27 28  1  0  0  0  0
 27 52  1  0  0  0  0
 28 29  2  0  0  0  0
M  END
> <s_m_source_file>
AV-unprocessed.smi

> <i_m_source_file_index>
113

> <i_lp_mmshare_version>
43012

> <i_f3d_flags>
0

> <s_epik_input>
W2NIXTFbY0hdW2NIXVtjSF1jKGMxMiluYyhbQ0gzXSlbY0hdYzJbQ0gyXW4zYyg9TyljKFtDSDNdKVtjSF1uKGMzPU8pW0NAQEhdNFtDSDJdW0NAQEhdKFtPSF0pW0NASF0oTzQpW0NIMl1bT0hd

> <s_epik_cmdline>
J2VwaWtfcHl0aG9uJywgJy1waCcsICc3LjAnLCAnLXRuJywgJzgnLCAnLW1hJywgJzIwMCcsICctbWV0YWxfYmluZGluZycsICctaW1hZScsICc8aW5maWxlLm1hZT4nLCAnLW9tYWUnLCAnPG91dGZpbGUubWFlPic=

> <r_lp_tautomer_probability>
1

> <r_epik_Ionization_Penalty>
0.214728

> <r_epik_Ionization_Penalty_Charging>
3.04883e-08

> <r_epik_Ionization_Penalty_Neutral>
0.214728

> <r_epik_State_Penalty>
0.204913

> <r_epik_Charging_Adjusted_Penalty>
0.204913

> <i_epik_Tot_Q>
0

> <i_epik_Tot_abs_Q>
0

> <r_epik_Metal_State_Penalty>
0.000244761

> <b_epik_Metal_Only>
0

> <s_epik_Chemistry_Notes>
This compound contains an acetal/aminal-like group ( X-CH(R)-Y where X, Y are N, S, or O) that may be acid/base labile, releasing an aldehyde.

> <s_lp_Force_Field>
OPLS_2005

> <r_lp_Energy>
34.9534

> <b_lp_Chiralities_Consistent>
1

> <s_lp_Variant>
AV-unprocessed.smi:113-3

> <Gold.Version>
5.8.1

> <Gold.Id.Protein>
6NUR|6NUR_protein|mol2

> <Gold.PLP.Fitness>
46.2813

> <Gold.PLP.PLP>
-44.0355

> <Gold.PLP.part.hbond>
-4.6072

> <Gold.PLP.part.metal>
0.0000

> <Gold.PLP.part.buried>
-5.8394

> <Gold.PLP.part.nonpolar>
-34.6732

> <Gold.PLP.part.repulsive>
0.0121

> <Gold.PLP.ligand.clash>
0.0000

> <Gold.PLP.ligand.torsion>
0.3922

> <Gold.PLP.Chemscore.Hbond>
1.0000

> <Gold.PLP.Chemscore.CHOScore>
0.0000

> <Gold.PLP.Chemscore.Metal>
0.0000

> <Gold.Chemscore.Hbonds>
donor molecule, donor type, donor heavy atom, donor atom, acceptor molecule, acceptor atom, score
      P1  H 10752 10763       L1     8  0.70

> <Gold.PLP.Chemscore.Internal.Correction>
0.0302

> <Gold.Rescore>
     Score         DG    S(hbond)    S(metal)    S(lipo)     H(rot)  DE(clash)    DE(int)     intcor
     14.00     -14.48       1.00        0.00     112.86       2.95       0.00       0.48       ----

> <Gold.Chemscore.Fitness>
13.9972

> <Gold.Chemscore.DG>
-14.4805

> <Gold.Chemscore.ZeroCoef>
-5.4800

> <Gold.Chemscore.Hbond>
1.0000

> <Gold.Chemscore.Metal>
0.0000

> <Gold.Chemscore.Lipo>
112.8585

> <Gold.Chemscore.Internal_Hbond>
0.0000

> <Gold.Chemscore.DEClash>
0.0000

> <Gold.Chemscore.DEInternal>
0.4832

> <Gold.Chemscore.Rot>
2.9469

> <Gold.Chemscore.Internal.Correction>
   9.000000E+99

> <Gold.Chemscore.Hbonds>
donor molecule, donor type, donor heavy atom, donor atom, acceptor molecule, acceptor atom, score
      P1  H  6931  6943       L1    22  0.01
      P1  H 10752 10763       L1     8  0.71

> <Gold.Chemscore.Hbond.Weighted>
-3.3399

> <Gold.Chemscore.Metal.Weighted>
-0.0000

> <Gold.Chemscore.Lipo.Weighted>
-13.2044

> <Gold.Chemscore.Internal_Hbond.Weighted>
0.0000

> <Gold.Chemscore.DEClash.Weighted>
0.0000

> <Gold.Chemscore.DEInternal.Weighted>
0.4832

> <Gold.Chemscore.Rot.Weighted>
7.5439

> <Gold.Chemscore.Internal.Correction.Weighted>
   9.000000E+99

> <Gold.Protein.RotatedTorsions>
[ 6907 6896 6895 6894 ] final  128.99 input  -60.11 | X-H torsion
[ 7974 7965 7964 7962 ] final   15.91 input  175.53 | X-H torsion
[ 8008 7997 7996 7995 ] final -138.35 input   59.86 | X-H torsion
[ 10167 10162 10161 10158 ] final   21.65 input  -65.29 | X-H torsion
[ 10718 10713 10712 10709 ] final  -66.56 input   66.30 | X-H torsion
[ 10763 10752 10751 10750 ] final   89.98 input  -60.55 | X-H torsion
[ 11005 11000 10999 10996 ] final   92.07 input  -57.11 | X-H torsion

> <Gold.Protein.ActiveResidues>
 VAL166  LYS551  ARG553  GLY616  TRP617  ASP618  TYR619  PRO620  LYS621  CYS622 
 ASP623  PHE694  ASN695  SER759  ASP760  ASP761  ALA762  ILE779  LEU786  VAL792 
 PHE793  MET794  SER795  GLU796  ALA797  LYS798  CYS799  TRP800  GLU811  SER814 

> <Gold.Protein.RotatedAtoms>
  152.3667  133.6365  159.6055 H   0  0  0  0  0  0  0  0  0  0  0  0  # atno 6907 bound_to 6896
  150.7639  133.9337  159.3443 H   0  0  0  0  0  0  0  0  0  0  0  0  # atno 6908 bound_to 6896
  151.7167  135.0903  160.0328 H   0  0  0  0  0  0  0  0  0  0  0  0  # atno 6909 bound_to 6896
  146.2265  139.8825  142.8568 H   0  0  0  0  0  0  0  0  0  0  0  0  # atno 7974 bound_to 7965
  155.4269  140.0522  157.3021 H   0  0  0  0  0  0  0  0  0  0  0  0  # atno 8008 bound_to 7997
  154.4877  140.2107  155.9576 H   0  0  0  0  0  0  0  0  0  0  0  0  # atno 8009 bound_to 7997
  156.1298  140.3174  155.8337 H   0  0  0  0  0  0  0  0  0  0  0  0  # atno 8010 bound_to 7997
  140.5410  143.9677  150.6519 H   0  0  0  0  0  0  0  0  0  0  0  0  # atno 10167 bound_to 10162
  156.0605  130.4264  150.1727 H   0  0  0  0  0  0  0  0  0  0  0  0  # atno 10718 bound_to 10713
  153.1928  135.4450  155.0170 H   0  0  0  0  0  0  0  0  0  0  0  0  # atno 10763 bound_to 10752
  154.8100  135.3290  154.7332 H   0  0  0  0  0  0  0  0  0  0  0  0  # atno 10764 bound_to 10752
  153.7784  135.6979  153.4948 H   0  0  0  0  0  0  0  0  0  0  0  0  # atno 10765 bound_to 10752
  139.8829  134.8711  156.3519 H   0  0  0  0  0  0  0  0  0  0  0  0  # atno 11005 bound_to 11000
  145.2499  141.0040  143.3887 LP  0  0  0  0  0  0  0  0  0  0  0  0  # atno 17320 bound_to 7965
  144.9383  139.4218  143.6461 LP  0  0  0  0  0  0  0  0  0  0  0  0  # atno 17321 bound_to 7965
  140.3078  143.3218  152.0909 LP  0  0  0  0  0  0  0  0  0  0  0  0  # atno 17342 bound_to 10162
  139.4989  144.6656  151.6364 LP  0  0  0  0  0  0  0  0  0  0  0  0  # atno 17343 bound_to 10162
  156.9796  130.9860  151.3440 LP  0  0  0  0  0  0  0  0  0  0  0  0  # atno 17370 bound_to 10713
  157.5611  130.8246  149.8267 LP  0  0  0  0  0  0  0  0  0  0  0  0  # atno 17371 bound_to 10713
  140.9588  133.7402  156.0373 LP  0  0  0  0  0  0  0  0  0  0  0  0  # atno 17394 bound_to 11000
  140.8015  134.3503  157.5438 LP  0  0  0  0  0  0  0  0  0  0  0  0  # atno 17395 bound_to 11000

$$$$
