#       Name:                AV-unprocessed.smi:3303
#       Creating user name   scv26
#       Creation time:       Fri Mar 27 19:01:12 2020


#       File generated by GOLD software.
#

@<TRIPOS>MOLECULE
AV-unprocessed.smi:3303
    46    47     1
SMALL
NO_CHARGES


@<TRIPOS>ATOM
      1 ****        -1.4392  -0.2163  -2.5170 C.3            1 S1                 0.0000
      2 ****        -1.8914  -0.8764  -1.2042 C.3            1 S1                 0.0000
      3 ****        -1.5117  -2.3682  -1.1423 C.3            1 S1                 0.0000
      4 ****        -2.0664  -3.0057   0.0554 N.3            1 S1                 0.0000
      5 ****        -1.7362  -4.4267  -0.0196 C.3            1 S1                 0.0000
      6 ****        -1.5361  -2.3806   1.2803 C.3            1 S1                 0.0000
      7 ****        -2.0923  -3.0472   2.5548 C.3            1 S1                 0.0000
      8 ****        -1.8911  -0.8751   1.2948 C.3            1 S1                 0.0000
      9 ****        -1.3867  -0.1346   0.0480 C.3            1 S1                 0.0000
     10 ****         0.0916  -0.0312   0.0717 N.4            1 S1                 1.0000
     11 ****         0.6194   1.3476   0.0597 C.3            1 S1                 0.0000
     12 ****         2.1537   1.3488   0.0383 C.3            1 S1                 0.0000
     13 ****         2.7260   2.7534   0.0314 C.ar           1 S1                 0.0000
     14 ****         3.1661   3.3475  -1.1706 C.ar           1 S1                 0.0000
     15 ****         3.6842   4.6564  -1.1210 C.ar           1 S1                 0.0000
     16 ****         3.7410   5.3167   0.1215 C.ar           1 S1                 0.0000
     17 ****         3.2738   4.6369   1.2641 C.ar           1 S1                 0.0000
     18 ****         2.7734   3.3825   1.2271 N.ar           1 S1                 0.0000
     19 ****        -0.3571  -0.2615  -2.6416 H              1 S1                 0.0000
     20 ****        -1.7364   0.8322  -2.5515 H              1 S1                 0.0000
     21 ****        -1.8887  -0.7127  -3.3774 H              1 S1                 0.0000
     22 ****        -2.9818  -0.8223  -1.1940 H              1 S1                 0.0000
     23 ****        -1.9062  -2.8692  -2.0277 H              1 S1                 0.0000
     24 ****        -0.4276  -2.4902  -1.1675 H              1 S1                 0.0000
     25 ****        -2.2314  -4.9942   0.7674 H              1 S1                 0.0000
     26 ****        -0.6603  -4.5895   0.0608 H              1 S1                 0.0000
     27 ****        -2.0734  -4.8513  -0.9659 H              1 S1                 0.0000
     28 ****        -0.4501  -2.4868   1.2852 H              1 S1                 0.0000
     29 ****        -1.7971  -2.4901   3.4444 H              1 S1                 0.0000
     30 ****        -1.7158  -4.0611   2.6884 H              1 S1                 0.0000
     31 ****        -3.1821  -3.0887   2.5407 H              1 S1                 0.0000
     32 ****        -2.9748  -0.7631   1.3599 H              1 S1                 0.0000
     33 ****        -1.4875  -0.4011   2.1907 H              1 S1                 0.0000
     34 ****        -1.8145   0.8695   0.0537 H              1 S1                 0.0000
     35 ****         0.4289  -0.4948   0.9032 H              1 S1                 0.0000
     36 ****         0.2368   1.8721  -0.8171 H              1 S1                 0.0000
     37 ****         0.2540   1.8768   0.9410 H              1 S1                 0.0000
     38 ****         2.5410   0.8149   0.9075 H              1 S1                 0.0000
     39 ****         2.5151   0.8101  -0.8388 H              1 S1                 0.0000
     40 ****         3.1096   2.8163  -2.1095 H              1 S1                 0.0000
     41 ****         4.0324   5.1446  -2.0193 H              1 S1                 0.0000
     42 ****         4.1336   6.3200   0.1977 H              1 S1                 0.0000
     43 ****         3.3022   5.1130   2.2329 H              1 S1                 0.0000
     44 ****         0.4533  -0.5189  -0.7352 H              1 S1                 0.0000
     45 ****        -3.0588  -2.8887   0.0938 LP             1 S1                 0.0000
     46 ****         2.4479   2.9329   2.0590 LP             1 S1                 0.0000
@<TRIPOS>BOND
    1    1    2 1     
    2    1   19 1     
    3    1   20 1     
    4    1   21 1     
    5    2    9 1     
    6    2    3 1     
    7    2   22 1     
    8    3    4 1     
    9    3   23 1     
   10    3   24 1     
   11    4    5 1     
   12    4    6 1     
   13    5   25 1     
   14    5   26 1     
   15    5   27 1     
   16    6    7 1     
   17    6    8 1     
   18    6   28 1     
   19    7   29 1     
   20    7   30 1     
   21    7   31 1     
   22    8    9 1     
   23    8   32 1     
   24    8   33 1     
   25    9   10 1     
   26    9   34 1     
   27   10   11 1     
   28   10   35 1     
   29   10   44 1     
   30   11   12 1     
   31   11   36 1     
   32   11   37 1     
   33   12   13 1     
   34   12   38 1     
   35   12   39 1     
   36   13   18 ar    
   37   13   14 ar    
   38   14   15 ar    
   39   14   40 1     
   40   15   16 ar    
   41   15   41 1     
   42   16   17 ar    
   43   16   42 1     
   44   17   18 ar    
   45   17   43 1     
   46    4   45 1     
   47   18   46 1     
@<TRIPOS>SUBSTRUCTURE
      1 S1             1
@<TRIPOS>SET
LONE_PAIRS      STATIC     ATOMS    <user>   **** ""
2 45 46
DONOR_HYDROGENS      STATIC     ATOMS    <user>   **** ""
2 35 44
ATOM$BLUE        STATIC     ATOMS    COLORGROUP SYSTEM
2 45 46
ATOM$RED        STATIC     ATOMS    COLORGROUP SYSTEM
2 35 44
