AV-unprocessed.smi:837|AV-procd|sdf|3907|dock1
  -GOLD-   22720 1363D 1   1.00000     0.00000
 Structure written by MMmdl.
 49 51  0  0  0  0  0  0  0  0  3 V2000
  153.0770  138.1490  159.0065 C   0  0  0  0  0  0  0  0  0  0  0  0
  152.5278  139.5710  159.2495 C   0  0  1  0  0  0  0  0  0  0  0  0
  153.6530  140.5183  159.7187 C   0  0  0  0  0  0  0  0  0  0  0  0
  153.1135  141.9101  160.0787 C   0  0  0  0  0  0  0  0  0  0  0  0
  152.3562  142.5317  158.8983 C   0  0  0  0  0  0  0  0  0  0  0  0
  151.2228  141.6098  158.4162 C   0  0  0  0  0  0  0  0  0  0  0  0
  151.7207  140.1849  158.0587 C   0  0  1  0  0  0  0  0  0  0  0  0
  152.5005  140.2200  156.8300 N   0  5  0  0  0  0  0  0  0  0  0  0
  151.8498  139.5126  155.8784 C   0  0  0  0  0  0  0  0  0  0  0  0
  152.2134  139.3376  154.7154 O   0  0  0  0  0  0  0  0  0  0  0  0
  150.7115  138.9803  156.3626 N   0  0  0  0  0  0  0  0  0  0  0  0
  149.8142  138.1013  155.6041 C   0  0  0  0  0  0  0  0  0  0  0  0
  150.4520  136.7278  155.3716 C   0  0  0  0  0  0  0  0  0  0  0  0
  151.6157  136.5162  155.7125 O   0  0  0  0  0  0  0  0  0  0  0  0
  149.6734  135.8081  154.7830 N   0  0  0  0  0  0  0  0  0  0  0  0
  150.0847  134.4604  154.4015 C   0  0  0  0  0  0  0  0  0  0  0  0
  149.0277  133.3772  154.7132 C   0  0  0  0  0  0  0  0  0  0  0  0
  149.5621  131.9524  154.7032 C   0  0  0  0  0  0  0  0  0  0  0  0
  149.0438  130.9996  153.7974 C   0  0  0  0  0  0  0  0  0  0  0  0
  149.5452  129.6817  153.8141 C   0  0  0  0  0  0  0  0  0  0  0  0
  150.5499  129.3420  154.7417 C   0  0  0  0  0  0  0  0  0  0  0  0
  151.0232  130.2787  155.5924 N   0  3  0  0  0  0  0  0  0  0  0  0
  150.5747  131.5533  155.6028 C   0  0  0  0  0  0  0  0  0  0  0  0
  150.5428  139.3130  157.6466 C   0  0  0  0  0  0  0  0  0  0  0  0
  149.6220  138.9800  158.3938 O   0  0  0  0  0  0  0  0  0  0  0  0
  153.8196  138.1432  158.2105 H   0  0  0  0  0  0  0  0  0  0  0  0
  152.2909  137.4439  158.7369 H   0  0  0  0  0  0  0  0  0  0  0  0
  153.5599  137.7619  159.9037 H   0  0  0  0  0  0  0  0  0  0  0  0
  151.8341  139.4836  160.0876 H   0  0  0  0  0  0  0  0  0  0  0  0
  154.1584  140.0941  160.5868 H   0  0  0  0  0  0  0  0  0  0  0  0
  154.4106  140.6103  158.9394 H   0  0  0  0  0  0  0  0  0  0  0  0
  152.4491  141.8338  160.9403 H   0  0  0  0  0  0  0  0  0  0  0  0
  153.9354  142.5613  160.3771 H   0  0  0  0  0  0  0  0  0  0  0  0
  151.9474  143.4997  159.1887 H   0  0  0  0  0  0  0  0  0  0  0  0
  153.0500  142.7252  158.0794 H   0  0  0  0  0  0  0  0  0  0  0  0
  150.4721  141.5460  159.2058 H   0  0  0  0  0  0  0  0  0  0  0  0
  150.7192  142.0682  157.5631 H   0  0  0  0  0  0  0  0  0  0  0  0
  148.8710  137.9620  156.1346 H   0  0  0  0  0  0  0  0  0  0  0  0
  149.5530  138.5684  154.6527 H   0  0  0  0  0  0  0  0  0  0  0  0
  148.7292  136.0785  154.5478 H   0  0  0  0  0  0  0  0  0  0  0  0
  150.3608  134.4340  153.3466 H   0  0  0  0  0  0  0  0  0  0  0  0
  150.9941  134.2422  154.9616 H   0  0  0  0  0  0  0  0  0  0  0  0
  148.5864  133.5796  155.6899 H   0  0  0  0  0  0  0  0  0  0  0  0
  148.2079  133.4483  153.9979 H   0  0  0  0  0  0  0  0  0  0  0  0
  148.2628  131.2705  153.1019 H   0  0  0  0  0  0  0  0  0  0  0  0
  149.1521  128.9371  153.1374 H   0  0  0  0  0  0  0  0  0  0  0  0
  150.9802  128.3553  154.8328 H   0  0  0  0  0  0  0  0  0  0  0  0
  151.0287  132.2065  156.3331 H   0  0  0  0  0  0  0  0  0  0  0  0
  151.7471  130.0101  156.2589 H   0  0  0  0  0  0  0  0  0  0  0  0
  1  2  1  0  0  0  0
  1 26  1  0  0  0  0
  1 27  1  0  0  0  0
  1 28  1  0  0  0  0
  2  7  1  0  0  0  0
  2  3  1  0  0  0  0
  2 29  1  0  0  0  0
  3  4  1  0  0  0  0
  3 30  1  0  0  0  0
  3 31  1  0  0  0  0
  4  5  1  0  0  0  0
  4 32  1  0  0  0  0
  4 33  1  0  0  0  0
  5  6  1  0  0  0  0
  5 34  1  0  0  0  0
  5 35  1  0  0  0  0
  6  7  1  0  0  0  0
  6 36  1  0  0  0  0
  6 37  1  0  0  0  0
  7 24  1  0  0  0  0
  7  8  1  0  0  0  0
  8  9  1  0  0  0  0
  9 10  2  0  0  0  0
  9 11  1  0  0  0  0
 11 12  1  0  0  0  0
 11 24  1  0  0  0  0
 12 13  1  0  0  0  0
 12 38  1  0  0  0  0
 12 39  1  0  0  0  0
 13 14  2  0  0  0  0
 13 15  1  0  0  0  0
 15 16  1  0  0  0  0
 15 40  1  0  0  0  0
 16 17  1  0  0  0  0
 16 41  1  0  0  0  0
 16 42  1  0  0  0  0
 17 18  1  0  0  0  0
 17 43  1  0  0  0  0
 17 44  1  0  0  0  0
 18 23  1  0  0  0  0
 18 19  2  0  0  0  0
 19 20  1  0  0  0  0
 19 45  1  0  0  0  0
 20 21  2  0  0  0  0
 20 46  1  0  0  0  0
 21 22  1  0  0  0  0
 21 47  1  0  0  0  0
 22 23  2  0  0  0  0
 22 49  1  0  0  0  0
 23 48  1  0  0  0  0
 24 25  2  0  0  0  0
M  CHG  1   8  -1
M  CHG  1  22   1
M  END
> <s_m_source_file>
AV-unprocessed.smi

> <i_m_source_file_index>
837

> <i_lp_mmshare_version>
43012

> <i_f3d_flags>
0

> <s_epik_input>
W0NIMl0xW0NIMl1bQ0gyXVtDSDJdW0NAQEhdKFtDSDNdKVtDQEBdMTJbTkhdQyg9TylOKEMyPU8pW0NIMl1DKD1PKVtOSF1bQ0gyXVtDSDJdYzNbY0hdW2NIXVtjSF1uW2NIXTM=

> <s_epik_cmdline>
J2VwaWtfcHl0aG9uJywgJy1waCcsICc3LjAnLCAnLXRuJywgJzgnLCAnLW1hJywgJzIwMCcsICctbWV0YWxfYmluZGluZycsICctaW1hZScsICc8aW5maWxlLm1hZT4nLCAnLW9tYWUnLCAnPG91dGZpbGUubWFlPic=

> <r_lp_tautomer_probability>
1

> <r_epik_Ionization_Penalty>
8.27169

> <r_epik_Ionization_Penalty_Charging>
8.27169

> <r_epik_Ionization_Penalty_Neutral>
1.56557e-07

> <r_epik_State_Penalty>
8.42098

> <r_epik_Charging_Adjusted_Penalty>
16.6927

> <i_epik_Tot_Q>
0

> <i_epik_Tot_abs_Q>
2

> <r_epik_Metal_State_Penalty>
4.38565

> <b_epik_Metal_Only>
1

> <s_lp_Force_Field>
OPLS_2005

> <r_lp_Energy>
17.1627

> <b_lp_Chiralities_Consistent>
1

> <s_lp_Variant>
AV-unprocessed.smi:837-16

> <Gold.Version>
5.8.1

> <Gold.Id.Protein>
6NUR|6NUR_protein|mol2

> <Gold.PLP.Fitness>
52.1021

> <Gold.PLP.PLP>
-41.2703

> <Gold.PLP.part.hbond>
-4.0000

> <Gold.PLP.part.metal>
0.0000

> <Gold.PLP.part.buried>
-4.0899

> <Gold.PLP.part.nonpolar>
-31.5050

> <Gold.PLP.part.repulsive>
0.1441

> <Gold.PLP.ligand.clash>
0.0000

> <Gold.PLP.ligand.torsion>
0.3524

> <Gold.PLP.Chemscore.Hbond>
3.8160

> <Gold.PLP.Chemscore.CHOScore>
0.0000

> <Gold.PLP.Chemscore.Metal>
0.0000

> <Gold.Chemscore.Hbonds>
donor molecule, donor type, donor heavy atom, donor atom, acceptor molecule, acceptor atom, score
      P1  H  7989  7998       L1    10  0.80
      P1  H  7997  8010       L1     8  2.00
      P1  H 10752 10764       L1    14  1.00

> <Gold.PLP.Chemscore.Internal.Correction>
0.0885

> <Gold.Rescore>
     Score         DG    S(hbond)    S(metal)    S(lipo)     H(rot)  DE(clash)    DE(int)     intcor
     19.43     -20.50       2.87        0.00      88.55       1.92       0.00       1.07       ----

> <Gold.Chemscore.Fitness>
19.4342

> <Gold.Chemscore.DG>
-20.5027

> <Gold.Chemscore.ZeroCoef>
-5.4800

> <Gold.Chemscore.Hbond>
2.8658

> <Gold.Chemscore.Metal>
0.0000

> <Gold.Chemscore.Lipo>
88.5455

> <Gold.Chemscore.Internal_Hbond>
0.0000

> <Gold.Chemscore.DEClash>
0.0004

> <Gold.Chemscore.DEInternal>
1.0680

> <Gold.Chemscore.Rot>
1.9175

> <Gold.Chemscore.Internal.Correction>
   9.000000E+99

> <Gold.Chemscore.Hbonds>
donor molecule, donor type, donor heavy atom, donor atom, acceptor molecule, acceptor atom, score
      P1  H  7989  7998       L1    10  0.64
      P1  H  7997  8010       L1     8  0.78
      P1  H 10752 10764       L1    14  0.99

> <Gold.Chemscore.Hbond.Weighted>
-9.5716

> <Gold.Chemscore.Metal.Weighted>
-0.0000

> <Gold.Chemscore.Lipo.Weighted>
-10.3598

> <Gold.Chemscore.Internal_Hbond.Weighted>
0.0000

> <Gold.Chemscore.DEClash.Weighted>
0.0004

> <Gold.Chemscore.DEInternal.Weighted>
1.0680

> <Gold.Chemscore.Rot.Weighted>
4.9087

> <Gold.Chemscore.Internal.Correction.Weighted>
   9.000000E+99

> <Gold.Protein.RotatedTorsions>
[ 6907 6896 6895 6894 ] final -111.27 input  -60.11 | X-H torsion
[ 7974 7965 7964 7962 ] final  106.30 input  175.53 | X-H torsion
[ 8008 7997 7996 7995 ] final   59.76 input   59.86 | X-H torsion
[ 10167 10162 10161 10158 ] final  -54.94 input  -65.29 | X-H torsion
[ 10718 10713 10712 10709 ] final -152.57 input   66.30 | X-H torsion
[ 10763 10752 10751 10750 ] final  -52.56 input  -60.55 | X-H torsion
[ 11005 11000 10999 10996 ] final  141.87 input  -57.11 | X-H torsion

> <Gold.Protein.ActiveResidues>
 VAL166  LYS551  ARG553  GLY616  TRP617  ASP618  TYR619  PRO620  LYS621  CYS622 
 ASP623  PHE694  ASN695  SER759  ASP760  ASP761  ALA762  ILE779  LEU786  VAL792 
 PHE793  MET794  SER795  GLU796  ALA797  LYS798  CYS799  TRP800  GLU811  SER814 

> <Gold.Protein.RotatedAtoms>
  150.7679  133.9259  159.3412 H   0  0  0  0  0  0  0  0  0  0  0  0  # atno 6907 bound_to 6896
  151.7153  135.0903  160.0284 H   0  0  0  0  0  0  0  0  0  0  0  0  # atno 6908 bound_to 6896
  152.3684  133.6349  159.6104 H   0  0  0  0  0  0  0  0  0  0  0  0  # atno 6909 bound_to 6896
  145.3084  139.2548  143.3776 H   0  0  0  0  0  0  0  0  0  0  0  0  # atno 7974 bound_to 7965
  155.5714  140.3490  155.4516 H   0  0  0  0  0  0  0  0  0  0  0  0  # atno 8008 bound_to 7997
  156.0442  140.1303  157.0148 H   0  0  0  0  0  0  0  0  0  0  0  0  # atno 8009 bound_to 7997
  154.4405  140.1018  156.6266 H   0  0  0  0  0  0  0  0  0  0  0  0  # atno 8010 bound_to 7997
  140.6403  143.2504  151.5008 H   0  0  0  0  0  0  0  0  0  0  0  0  # atno 10167 bound_to 10162
  156.4743  130.8273  151.2502 H   0  0  0  0  0  0  0  0  0  0  0  0  # atno 10718 bound_to 10713
  154.1447  135.6499  153.4950 H   0  0  0  0  0  0  0  0  0  0  0  0  # atno 10763 bound_to 10752
  153.0155  135.5324  154.6869 H   0  0  0  0  0  0  0  0  0  0  0  0  # atno 10764 bound_to 10752
  154.6140  135.2957  155.0372 H   0  0  0  0  0  0  0  0  0  0  0  0  # atno 10765 bound_to 10752
  140.0433  134.9293  157.0884 H   0  0  0  0  0  0  0  0  0  0  0  0  # atno 11005 bound_to 11000
  146.3127  140.3615  142.8665 LP  0  0  0  0  0  0  0  0  0  0  0  0  # atno 17320 bound_to 7965
  144.9036  140.7672  143.5852 LP  0  0  0  0  0  0  0  0  0  0  0  0  # atno 17321 bound_to 7965
  139.5612  144.2152  152.1694 LP  0  0  0  0  0  0  0  0  0  0  0  0  # atno 17342 bound_to 10162
  140.1420  144.5193  150.6738 LP  0  0  0  0  0  0  0  0  0  0  0  0  # atno 17343 bound_to 10162
  157.7489  131.0066  150.3157 LP  0  0  0  0  0  0  0  0  0  0  0  0  # atno 17370 bound_to 10713
  156.3586  130.3843  149.7270 LP  0  0  0  0  0  0  0  0  0  0  0  0  # atno 17371 bound_to 10713
  140.4033  134.2059  155.7163 LP  0  0  0  0  0  0  0  0  0  0  0  0  # atno 17394 bound_to 11000
  141.1894  133.8239  157.0957 LP  0  0  0  0  0  0  0  0  0  0  0  0  # atno 17395 bound_to 11000

$$$$
