AV-unprocessed.smi:2538|AV-procd|sdf|9983|dock7
  -GOLD-   2272014 33D 1   1.00000     0.00000
 Structure written by MMmdl.
 49 50  0  0  0  0  0  0  0  0  2 V2000
  151.8932  145.8994  160.1776 C   0  0  0  0  0  0  0  0  0  0  0  0
  151.7728  144.5207  159.5509 C   0  0  0  0  0  0  0  0  0  0  0  0
  151.2403  144.4175  158.2458 C   0  0  0  0  0  0  0  0  0  0  0  0
  151.1422  143.1434  157.6993 C   0  0  0  0  0  0  0  0  0  0  0  0
  150.6704  142.7125  156.4573 N   0  3  0  0  0  0  0  0  0  0  0  0
  150.7755  141.3569  156.3762 C   0  0  0  0  0  0  0  0  0  0  0  0
  151.3087  140.9171  157.5484 N   0  0  0  0  0  0  0  0  0  0  0  0
  151.6408  139.5552  157.9868 C   0  0  0  0  0  0  0  0  0  0  0  0
  150.4039  138.7650  158.4591 C   0  0  2  0  0  0  0  0  0  0  0  0
  150.8502  137.7017  159.2777 O   0  0  0  0  0  0  0  0  0  0  0  0
  149.6050  138.1821  157.2732 C   0  0  0  0  0  0  0  0  0  0  0  0
  150.4045  137.2848  156.4171 N   0  0  0  0  0  0  0  0  0  0  0  0
  150.7710  137.8104  155.0951 C   0  0  0  0  0  0  0  0  0  0  0  0
  150.3273  135.5628  156.6355 S   0  0  0  0  0  0  0  0  0  0  0  0
  151.6750  135.0381  156.3653 O   0  0  0  0  0  0  0  0  0  0  0  0
  149.6952  135.3099  157.9399 O   0  0  0  0  0  0  0  0  0  0  0  0
  149.1874  134.9960  155.2800 C   0  0  0  0  0  0  0  0  0  0  0  0
  147.9004  134.4015  155.8694 C   0  0  0  0  0  0  0  0  0  0  0  0
  149.8957  133.9960  154.3551 C   0  0  0  0  0  0  0  0  0  0  0  0
  151.5519  141.9957  158.4046 C   0  0  0  0  0  0  0  0  0  0  0  0
  152.0788  142.0785  159.6910 C   0  0  0  0  0  0  0  0  0  0  0  0
  152.1879  143.3658  160.2638 C   0  0  0  0  0  0  0  0  0  0  0  0
  152.7607  143.4881  161.6653 C   0  0  0  0  0  0  0  0  0  0  0  0
  151.4946  146.6727  159.5201 H   0  0  0  0  0  0  0  0  0  0  0  0
  152.9380  146.1381  160.3779 H   0  0  0  0  0  0  0  0  0  0  0  0
  151.3408  145.9451  161.1164 H   0  0  0  0  0  0  0  0  0  0  0  0
  150.9237  145.2923  157.6965 H   0  0  0  0  0  0  0  0  0  0  0  0
  150.4932  140.7433  155.5329 H   0  0  0  0  0  0  0  0  0  0  0  0
  152.1390  139.0451  157.1611 H   0  0  0  0  0  0  0  0  0  0  0  0
  152.3748  139.6354  158.7901 H   0  0  0  0  0  0  0  0  0  0  0  0
  149.7822  139.4278  159.0591 H   0  0  0  0  0  0  0  0  0  0  0  0
  150.6915  137.9303  160.1809 H   0  0  0  0  0  0  0  0  0  0  0  0
  148.7662  137.5984  157.6543 H   0  0  0  0  0  0  0  0  0  0  0  0
  149.1469  138.9695  156.6739 H   0  0  0  0  0  0  0  0  0  0  0  0
  149.9664  137.6424  154.3794 H   0  0  0  0  0  0  0  0  0  0  0  0
  151.6659  137.3103  154.7250 H   0  0  0  0  0  0  0  0  0  0  0  0
  150.9795  138.8794  155.1440 H   0  0  0  0  0  0  0  0  0  0  0  0
  148.9145  135.8682  154.6912 H   0  0  0  0  0  0  0  0  0  0  0  0
  147.2240  134.0719  155.0806 H   0  0  0  0  0  0  0  0  0  0  0  0
  147.3648  135.1336  156.4738 H   0  0  0  0  0  0  0  0  0  0  0  0
  148.1187  133.5412  156.5026 H   0  0  0  0  0  0  0  0  0  0  0  0
  149.2477  133.6992  153.5303 H   0  0  0  0  0  0  0  0  0  0  0  0
  150.1839  133.0922  154.8927 H   0  0  0  0  0  0  0  0  0  0  0  0
  150.7973  134.4320  153.9238 H   0  0  0  0  0  0  0  0  0  0  0  0
  152.3939  141.1985  160.2324 H   0  0  0  0  0  0  0  0  0  0  0  0
  153.0682  142.5179  162.0567 H   0  0  0  0  0  0  0  0  0  0  0  0
  152.0176  143.9024  162.3469 H   0  0  0  0  0  0  0  0  0  0  0  0
  153.6351  144.1394  161.6678 H   0  0  0  0  0  0  0  0  0  0  0  0
  150.3050  143.2982  155.7172 H   0  0  0  0  0  0  0  0  0  0  0  0
  1  2  1  0  0  0  0
  1 24  1  0  0  0  0
  1 25  1  0  0  0  0
  1 26  1  0  0  0  0
  2 22  1  0  0  0  0
  2  3  2  0  0  0  0
  3  4  1  0  0  0  0
  3 27  1  0  0  0  0
  4 20  2  0  0  0  0
  4  5  1  0  0  0  0
  5  6  2  0  0  0  0
  5 49  1  0  0  0  0
  6  7  1  0  0  0  0
  6 28  1  0  0  0  0
  7  8  1  0  0  0  0
  7 20  1  0  0  0  0
  8  9  1  0  0  0  0
  8 29  1  0  0  0  0
  8 30  1  0  0  0  0
  9 10  1  0  0  0  0
  9 11  1  0  0  0  0
  9 31  1  0  0  0  0
 10 32  1  0  0  0  0
 11 12  1  0  0  0  0
 11 33  1  0  0  0  0
 11 34  1  0  0  0  0
 12 13  1  0  0  0  0
 12 14  1  0  0  0  0
 13 35  1  0  0  0  0
 13 36  1  0  0  0  0
 13 37  1  0  0  0  0
 14 15  2  0  0  0  0
 14 16  2  0  0  0  0
 14 17  1  0  0  0  0
 17 18  1  0  0  0  0
 17 19  1  0  0  0  0
 17 38  1  0  0  0  0
 18 39  1  0  0  0  0
 18 40  1  0  0  0  0
 18 41  1  0  0  0  0
 19 42  1  0  0  0  0
 19 43  1  0  0  0  0
 19 44  1  0  0  0  0
 20 21  1  0  0  0  0
 21 22  2  0  0  0  0
 21 45  1  0  0  0  0
 22 23  1  0  0  0  0
 23 46  1  0  0  0  0
 23 47  1  0  0  0  0
 23 48  1  0  0  0  0
M  CHG  1   5   1
M  END
> <s_m_source_file>
AV-unprocessed.smi

> <i_m_source_file_index>
2538

> <i_lp_mmshare_version>
43012

> <i_f3d_flags>
0

> <s_epik_input>
W0NIM11jKFtjSF0xKWMoW0NIM10pW2NIXWMoYzEyKW4oW2NIXW4yKVtDSDJdW0NASF0oW09IXSlbQ0gyXU4oW0NIM10pUyg9TykoPU8pW0NIXShbQ0gzXSlbQ0gzXQ==

> <s_epik_cmdline>
J2VwaWtfcHl0aG9uJywgJy1waCcsICc3LjAnLCAnLXRuJywgJzgnLCAnLW1hJywgJzIwMCcsICctbWV0YWxfYmluZGluZycsICctaW1hZScsICc8aW5maWxlLm1hZT4nLCAnLW9tYWUnLCAnPG91dGZpbGUubWFlPic=

> <r_epik_Ionization_Penalty>
1.07686

> <r_epik_Ionization_Penalty_Charging>
1.07685

> <r_epik_Ionization_Penalty_Neutral>
1.40866e-06

> <r_epik_State_Penalty>
1.13193

> <r_epik_Charging_Adjusted_Penalty>
2.20879

> <i_epik_Tot_Q>
1

> <i_epik_Tot_abs_Q>
1

> <r_epik_Metal_State_Penalty>
5.12988

> <b_epik_Metal_Only>
0

> <s_lp_Force_Field>
OPLS_2005

> <r_lp_Energy>
10.0565

> <b_lp_Chiralities_Consistent>
1

> <s_lp_Variant>
AV-unprocessed.smi:2538-3

> <Gold.Version>
5.8.1

> <Gold.Id.Protein>
6NUR|6NUR_protein|mol2

> <Gold.PLP.Fitness>
53.6745

> <Gold.PLP.PLP>
-44.6323

> <Gold.PLP.part.hbond>
-3.0000

> <Gold.PLP.part.metal>
0.0000

> <Gold.PLP.part.buried>
-7.0530

> <Gold.PLP.part.nonpolar>
-34.8408

> <Gold.PLP.part.repulsive>
0.0786

> <Gold.PLP.ligand.clash>
0.0000

> <Gold.PLP.ligand.torsion>
1.8526

> <Gold.PLP.Chemscore.Hbond>
3.3760

> <Gold.PLP.Chemscore.CHOScore>
0.0000

> <Gold.PLP.Chemscore.Metal>
0.0000

> <Gold.Chemscore.Hbonds>
donor molecule, donor type, donor heavy atom, donor atom, acceptor molecule, acceptor atom, score
      L1  H     5    49       P1  8028  1.34
      P1  H  6896  6907       L1    16  1.00
      P1  H 10752 10765       L1    15  1.00

> <Gold.PLP.Chemscore.Internal.Correction>
2.6195

> <Gold.Rescore>
     Score         DG    S(hbond)    S(metal)    S(lipo)     H(rot)  DE(clash)    DE(int)     intcor
     20.09     -22.19       2.88        0.00     112.23       2.36       0.19       1.91       ----

> <Gold.Chemscore.Fitness>
20.0927

> <Gold.Chemscore.DG>
-22.1922

> <Gold.Chemscore.ZeroCoef>
-5.4800

> <Gold.Chemscore.Hbond>
2.8806

> <Gold.Chemscore.Metal>
0.0000

> <Gold.Chemscore.Lipo>
112.2345

> <Gold.Chemscore.Internal_Hbond>
0.0000

> <Gold.Chemscore.DEClash>
0.1935

> <Gold.Chemscore.DEInternal>
1.9060

> <Gold.Chemscore.Rot>
2.3595

> <Gold.Chemscore.Internal.Correction>
   9.000000E+99

> <Gold.Chemscore.Hbonds>
donor molecule, donor type, donor heavy atom, donor atom, acceptor molecule, acceptor atom, score
      L1  H     5    49       P1  8028  0.65
      P1  H  6896  6907       L1    16  0.89
      P1  H 10752 10765       L1    15  0.89

> <Gold.Chemscore.Hbond.Weighted>
-9.6211

> <Gold.Chemscore.Metal.Weighted>
-0.0000

> <Gold.Chemscore.Lipo.Weighted>
-13.1314

> <Gold.Chemscore.Internal_Hbond.Weighted>
0.0000

> <Gold.Chemscore.DEClash.Weighted>
0.1935

> <Gold.Chemscore.DEInternal.Weighted>
1.9060

> <Gold.Chemscore.Rot.Weighted>
6.0403

> <Gold.Chemscore.Internal.Correction.Weighted>
   9.000000E+99

> <Gold.Protein.RotatedTorsions>
[ 6907 6896 6895 6894 ] final  -84.16 input  -60.11 | X-H torsion
[ 7974 7965 7964 7962 ] final -149.16 input  175.53 | X-H torsion
[ 8008 7997 7996 7995 ] final   83.64 input   59.86 | X-H torsion
[ 10167 10162 10161 10158 ] final  101.70 input  -65.29 | X-H torsion
[ 10718 10713 10712 10709 ] final -152.07 input   66.30 | X-H torsion
[ 10763 10752 10751 10750 ] final -140.23 input  -60.55 | X-H torsion
[ 11005 11000 10999 10996 ] final  -78.96 input  -57.11 | X-H torsion

> <Gold.Protein.ActiveResidues>
 VAL166  LYS551  ARG553  GLY616  TRP617  ASP618  TYR619  PRO620  LYS621  CYS622 
 ASP623  PHE694  ASN695  SER759  ASP760  ASP761  ALA762  ILE779  LEU786  VAL792 
 PHE793  MET794  SER795  GLU796  ALA797  LYS798  CYS799  TRP800  GLU811  SER814 

> <Gold.Protein.RotatedAtoms>
  150.6879  134.3401  159.4864 H   0  0  0  0  0  0  0  0  0  0  0  0  # atno 6907 bound_to 6896
  152.1255  134.9171  160.0570 H   0  0  0  0  0  0  0  0  0  0  0  0  # atno 6908 bound_to 6896
  152.0361  133.3923  159.4354 H   0  0  0  0  0  0  0  0  0  0  0  0  # atno 6909 bound_to 6896
  144.7985  140.5102  143.5724 H   0  0  0  0  0  0  0  0  0  0  0  0  # atno 7974 bound_to 7965
  155.9265  140.3418  155.6215 H   0  0  0  0  0  0  0  0  0  0  0  0  # atno 8008 bound_to 7997
  155.7209  140.0783  157.2349 H   0  0  0  0  0  0  0  0  0  0  0  0  # atno 8009 bound_to 7997
  154.4078  140.1605  156.2389 H   0  0  0  0  0  0  0  0  0  0  0  0  # atno 8010 bound_to 7997
  139.7415  144.7010  151.0569 H   0  0  0  0  0  0  0  0  0  0  0  0  # atno 10167 bound_to 10162
  156.4676  130.8243  151.2473 H   0  0  0  0  0  0  0  0  0  0  0  0  # atno 10718 bound_to 10713
  154.8585  135.3559  154.5674 H   0  0  0  0  0  0  0  0  0  0  0  0  # atno 10763 bound_to 10752
  153.6288  135.7003  153.5288 H   0  0  0  0  0  0  0  0  0  0  0  0  # atno 10764 bound_to 10752
  153.3067  135.4190  155.1260 H   0  0  0  0  0  0  0  0  0  0  0  0  # atno 10765 bound_to 10752
  141.1666  133.7085  156.8050 H   0  0  0  0  0  0  0  0  0  0  0  0  # atno 11005 bound_to 11000
  145.5613  139.1479  143.3339 LP  0  0  0  0  0  0  0  0  0  0  0  0  # atno 17320 bound_to 7965
  146.2260  140.5749  142.8996 LP  0  0  0  0  0  0  0  0  0  0  0  0  # atno 17321 bound_to 7965
  140.7786  143.4919  150.9882 LP  0  0  0  0  0  0  0  0  0  0  0  0  # atno 17342 bound_to 10162
  139.8607  143.7318  152.3173 LP  0  0  0  0  0  0  0  0  0  0  0  0  # atno 17343 bound_to 10162
  157.7493  131.0087  150.3238 LP  0  0  0  0  0  0  0  0  0  0  0  0  # atno 17370 bound_to 10713
  156.3652  130.3854  149.7219 LP  0  0  0  0  0  0  0  0  0  0  0  0  # atno 17371 bound_to 10713
  140.2228  134.8744  157.3395 LP  0  0  0  0  0  0  0  0  0  0  0  0  # atno 17394 bound_to 11000
  140.1970  134.4301  155.7684 LP  0  0  0  0  0  0  0  0  0  0  0  0  # atno 17395 bound_to 11000

$$$$
