#       Name:                AV-unprocessed.smi:2380
#       Creating user name   scv26
#       Creation time:       Fri Mar 27 13:08:43 2020


#       File generated by GOLD software.
#

@<TRIPOS>MOLECULE
AV-unprocessed.smi:2380
    45    46     1
SMALL
NO_CHARGES


@<TRIPOS>ATOM
      1 ****        -5.3968   3.6086   0.5640 C.3            1 S1                 0.0000
      2 ****        -4.7068   2.2623   0.4974 C.ar           1 S1                 0.0000
      3 ****        -5.4287   1.0705   0.6991 C.ar           1 S1                 0.0000
      4 ****        -4.7298  -0.1505   0.6262 C.ar           1 S1                 0.0000
      5 ****        -5.4428  -1.4701   0.8345 C.3            1 S1                 0.0000
      6 ****        -3.4054  -0.2274   0.3753 N.ar           1 S1                 0.0000
      7 ****        -2.6997   0.9142   0.1811 C.ar           1 S1                 0.0000
      8 ****        -1.3052   0.9419  -0.0871 N.am           1 S1                 0.0000
      9 ****        -0.4601  -0.0982  -0.1964 C.2            1 S1                 0.0000
     10 ****        -0.7695  -1.2848  -0.0837 O.2            1 S1                 0.0000
     11 ****         0.7910   0.3154  -0.4464 N.am           1 S1                 0.0000
     12 ****         1.9436  -0.5631  -0.6239 C.3            1 S1                 0.0000
     13 ****         2.4953  -1.0322   0.7362 C.3            1 S1                 0.0000
     14 ****         3.7677  -1.8773   0.5579 C.3            1 S1                 0.0000
     15 ****         4.8009  -1.1334  -0.2048 N.4            1 S1                 1.0000
     16 ****         6.0777  -1.8741  -0.2922 C.3            1 S1                 0.0000
     17 ****         4.3063  -0.7016  -1.5359 C.3            1 S1                 0.0000
     18 ****         3.0477   0.1721  -1.4013 C.3            1 S1                 0.0000
     19 ****        -3.3241   2.1805   0.2365 C.ar           1 S1                 0.0000
     20 ****        -6.4795   3.5005   0.4916 H              1 S1                 0.0000
     21 ****        -5.0649   4.2492  -0.2536 H              1 S1                 0.0000
     22 ****        -5.1631   4.1040   1.5064 H              1 S1                 0.0000
     23 ****        -6.4891   1.0917   0.9046 H              1 S1                 0.0000
     24 ****        -6.5239  -1.3337   0.8699 H              1 S1                 0.0000
     25 ****        -5.1245  -1.9266   1.7721 H              1 S1                 0.0000
     26 ****        -5.2148  -2.1600   0.0214 H              1 S1                 0.0000
     27 ****        -0.9061   1.8609  -0.2070 H              1 S1                 0.0000
     28 ****         0.9564   1.3083  -0.5244 H              1 S1                 0.0000
     29 ****         1.6387  -1.4355  -1.2056 H              1 S1                 0.0000
     30 ****         2.7184  -0.1684   1.3644 H              1 S1                 0.0000
     31 ****         1.7431  -1.6152   1.2692 H              1 S1                 0.0000
     32 ****         4.1623  -2.1506   1.5374 H              1 S1                 0.0000
     33 ****         3.5302  -2.8082   0.0402 H              1 S1                 0.0000
     34 ****         5.9528  -2.8057  -0.8458 H              1 S1                 0.0000
     35 ****         6.4524  -2.1148   0.7033 H              1 S1                 0.0000
     36 ****         6.8368  -1.2750  -0.7964 H              1 S1                 0.0000
     37 ****         5.0860  -0.1388  -2.0507 H              1 S1                 0.0000
     38 ****         4.0906  -1.5788  -2.1484 H              1 S1                 0.0000
     39 ****         2.6862   0.4516  -2.3917 H              1 S1                 0.0000
     40 ****         3.3055   1.1021  -0.8919 H              1 S1                 0.0000
     41 ****        -2.7506   3.0831   0.0813 H              1 S1                 0.0000
     42 ****         4.9938  -0.2910   0.3180 H              1 S1                 0.0000
     43 ****        -2.9497  -1.1166   0.3331 LP             1 S1                 0.0000
     44 ****        -1.7182  -1.5384   0.1049 LP             1 S1                 0.0000
     45 ****        -0.0720  -1.9948  -0.1808 LP             1 S1                 0.0000
@<TRIPOS>BOND
    1    1    2 1     
    2    1   20 1     
    3    1   21 1     
    4    1   22 1     
    5    2   19 ar    
    6    2    3 ar    
    7    3    4 ar    
    8    3   23 1     
    9    4    5 1     
   10    4    6 ar    
   11    5   24 1     
   12    5   25 1     
   13    5   26 1     
   14    6    7 ar    
   15    7    8 1     
   16    7   19 ar    
   17    8    9 am    
   18    8   27 1     
   19    9   10 2     
   20    9   11 am    
   21   11   12 1     
   22   11   28 1     
   23   12   18 1     
   24   12   13 1     
   25   12   29 1     
   26   13   14 1     
   27   13   30 1     
   28   13   31 1     
   29   14   15 1     
   30   14   32 1     
   31   14   33 1     
   32   15   16 1     
   33   15   17 1     
   34   15   42 1     
   35   16   34 1     
   36   16   35 1     
   37   16   36 1     
   38   17   18 1     
   39   17   37 1     
   40   17   38 1     
   41   18   39 1     
   42   18   40 1     
   43   19   41 1     
   44    6   43 1     
   45   10   44 1     
   46   10   45 1     
@<TRIPOS>SUBSTRUCTURE
      1 S1             1
@<TRIPOS>SET
LONE_PAIRS      STATIC     ATOMS    <user>   **** ""
3 43 44 45
DONOR_HYDROGENS      STATIC     ATOMS    <user>   **** ""
3 27 28 42
ATOM$BLUE        STATIC     ATOMS    COLORGROUP SYSTEM
3 43 44 45
ATOM$RED        STATIC     ATOMS    COLORGROUP SYSTEM
3 27 28 42
