AV-unprocessed.smi:72|AV-procd|sdf|724|dock6
  -GOLD-   2262017 53D 1   1.00000     0.00000
 Structure written by MMmdl.
 28 29  0  0  0  0  0  0  0  0  2 V2000
  152.7985  140.9751  159.0284 N   0  0  0  0  0  0  0  0  0  0  0  0
  152.0434  140.9885  158.0193 C   0  0  0  0  0  0  0  0  0  0  0  0
  150.8656  141.8275  158.0039 N   0  0  0  0  0  0  0  0  0  0  0  0
  150.1392  141.8311  156.9288 C   0  0  0  0  0  0  0  0  0  0  0  0
  150.4913  141.0367  155.7561 N   0  0  0  0  0  0  0  0  0  0  0  0
  149.6523  141.0296  154.4860 C   0  0  1  0  0  0  0  0  0  0  0  0
  149.3845  139.7125  154.0956 O   0  0  0  0  0  0  0  0  0  0  0  0
  148.0877  139.3290  154.5442 C   0  0  2  0  0  0  0  0  0  0  0  0
  147.5844  138.0843  153.7933 C   0  0  0  0  0  0  0  0  0  0  0  0
  147.5727  138.3340  152.4040 O   0  0  0  0  0  0  0  0  0  0  0  0
  147.2843  140.6135  154.3212 C   0  0  2  0  0  0  0  0  0  0  0  0
  146.8846  140.7209  152.9643 O   0  0  0  0  0  0  0  0  0  0  0  0
  148.2809  141.6986  154.7293 C   0  0  2  0  0  0  0  0  0  0  0  0
  148.1029  142.8990  154.0005 O   0  0  0  0  0  0  0  0  0  0  0  0
  151.6276  140.1853  155.8225 C   0  0  0  0  0  0  0  0  0  0  0  0
  151.8820  139.4799  154.8458 O   0  0  0  0  0  0  0  0  0  0  0  0
  152.3834  140.1834  156.9557 N   0  5  0  0  0  0  0  0  0  0  0  0
  150.2702  141.5162  153.7293 H   0  0  0  0  0  0  0  0  0  0  0  0
  148.1163  139.1303  155.6174 H   0  0  0  0  0  0  0  0  0  0  0  0
  146.3874  140.6419  154.9409 H   0  0  0  0  0  0  0  0  0  0  0  0
  148.1640  141.9071  155.7941 H   0  0  0  0  0  0  0  0  0  0  0  0
  152.4735  141.5932  159.7574 H   0  0  0  0  0  0  0  0  0  0  0  0
  149.2298  142.4258  156.8461 H   0  0  0  0  0  0  0  0  0  0  0  0
  148.2550  137.2427  153.9688 H   0  0  0  0  0  0  0  0  0  0  0  0
  146.5912  137.7872  154.1312 H   0  0  0  0  0  0  0  0  0  0  0  0
  148.4126  138.6921  152.1596 H   0  0  0  0  0  0  0  0  0  0  0  0
  147.6177  140.4720  152.4218 H   0  0  0  0  0  0  0  0  0  0  0  0
  148.4261  143.6142  154.5283 H   0  0  0  0  0  0  0  0  0  0  0  0
  1  2  2  0  0  0  0
  1 22  1  0  0  0  0
  2 17  1  0  0  0  0
  2  3  1  0  0  0  0
  3  4  2  0  0  0  0
  4  5  1  0  0  0  0
  4 23  1  0  0  0  0
  5  6  1  0  0  0  0
  5 15  1  0  0  0  0
  6 18  1  0  0  0  0
  6 13  1  0  0  0  0
  6  7  1  0  0  0  0
  7  8  1  0  0  0  0
  8 19  1  0  0  0  0
  8  9  1  0  0  0  0
  8 11  1  0  0  0  0
  9 10  1  0  0  0  0
  9 24  1  0  0  0  0
  9 25  1  0  0  0  0
 10 26  1  0  0  0  0
 11 20  1  0  0  0  0
 11 12  1  0  0  0  0
 11 13  1  0  0  0  0
 12 27  1  0  0  0  0
 13 21  1  0  0  0  0
 13 14  1  0  0  0  0
 14 28  1  0  0  0  0
 15 16  2  0  0  0  0
 15 17  1  0  0  0  0
M  CHG  1  17  -1
M  END
> <s_m_source_file>
AV-unprocessed.smi

> <i_m_source_file_index>
72

> <i_lp_mmshare_version>
43012

> <i_f3d_flags>
0

> <s_epik_input>
W05IMl1jMW5bY0hdbihjKD1PKW4xKVtDQEBIXTJPW0NASF0oW0NIMl1bT0hdKVtDQEBIXShbT0hdKVtDQEhdMltPSF0=

> <s_epik_cmdline>
J2VwaWtfcHl0aG9uJywgJy1waCcsICc3LjAnLCAnLXRuJywgJzgnLCAnLW1hJywgJzIwMCcsICctbWV0YWxfYmluZGluZycsICctaW1hZScsICc8aW5maWxlLm1hZT4nLCAnLW9tYWUnLCAnPG91dGZpbGUubWFlPic=

> <r_lp_tautomer_probability>
7.17554e-07

> <r_epik_Ionization_Penalty>
12.8705

> <r_epik_Ionization_Penalty_Charging>
5.64144

> <r_epik_Ionization_Penalty_Neutral>
7.22905

> <r_epik_State_Penalty>
3.30104

> <r_epik_Charging_Adjusted_Penalty>
8.94249

> <i_epik_Tot_Q>
-1

> <i_epik_Tot_abs_Q>
1

> <r_epik_Metal_State_Penalty>
0.529074

> <b_epik_Metal_Only>
1

> <s_epik_Chemistry_Notes>
This compound contains an acetal/aminal-like group ( X-CH(R)-Y where X, Y are N, S, or O) that may be acid/base labile, releasing an aldehyde.

> <s_lp_Force_Field>
OPLS_2005

> <r_lp_Energy>
35.695

> <b_lp_Chiralities_Consistent>
1

> <s_lp_Variant>
AV-unprocessed.smi:72-62

> <Gold.Version>
5.8.1

> <Gold.Id.Protein>
6NUR|6NUR_protein|mol2

> <Gold.PLP.Fitness>
41.8876

> <Gold.PLP.PLP>
-24.9083

> <Gold.PLP.part.hbond>
-7.3471

> <Gold.PLP.part.metal>
0.0000

> <Gold.PLP.part.buried>
1.0295

> <Gold.PLP.part.nonpolar>
-17.4183

> <Gold.PLP.part.repulsive>
1.2507

> <Gold.PLP.ligand.clash>
0.0000

> <Gold.PLP.ligand.torsion>
0.2820

> <Gold.PLP.Chemscore.Hbond>
5.0716

> <Gold.PLP.Chemscore.CHOScore>
0.7690

> <Gold.PLP.Chemscore.Metal>
0.0000

> <Gold.Chemscore.Hbonds>
donor molecule, donor type, donor heavy atom, donor atom, acceptor molecule, acceptor atom, score
      L1  H    10    26       P1  7957  0.99
      L1  H    12    27       P1  7957  0.15
      L1  H    14    28       P1  8028  1.00
      P1  H  7989  7998       L1    16  0.84
      P1  H  7997  8009       L1    17  2.00
      L1  C     4    23       P1  8028  0.80

> <Gold.PLP.Chemscore.Internal.Correction>
0.0217

> <Gold.Rescore>
     Score         DG    S(hbond)    S(metal)    S(lipo)     H(rot)  DE(clash)    DE(int)     intcor
      5.83      -8.57       3.34        0.00      19.56       4.04       1.29       1.45       ----

> <Gold.Chemscore.Fitness>
5.8260

> <Gold.Chemscore.DG>
-8.5712

> <Gold.Chemscore.ZeroCoef>
-5.4800

> <Gold.Chemscore.Hbond>
3.3370

> <Gold.Chemscore.Metal>
0.0000

> <Gold.Chemscore.Lipo>
19.5622

> <Gold.Chemscore.Internal_Hbond>
0.0000

> <Gold.Chemscore.DEClash>
1.2941

> <Gold.Chemscore.DEInternal>
1.4510

> <Gold.Chemscore.Rot>
4.0403

> <Gold.Chemscore.Internal.Correction>
   9.000000E+99

> <Gold.Chemscore.Hbonds>
donor molecule, donor type, donor heavy atom, donor atom, acceptor molecule, acceptor atom, score
      L1  H    10    26       P1  7957  0.81
      L1  H    12    27       P1  7957  0.16
      L1  H    14    28       P1  8028  0.98
      P1  H  7989  7998       L1    16  0.14
      P1  H  7997  8009       L1    17  0.60

> <Gold.Chemscore.Hbond.Weighted>
-11.1455

> <Gold.Chemscore.Metal.Weighted>
-0.0000

> <Gold.Chemscore.Lipo.Weighted>
-2.2888

> <Gold.Chemscore.Internal_Hbond.Weighted>
0.0000

> <Gold.Chemscore.DEClash.Weighted>
1.2941

> <Gold.Chemscore.DEInternal.Weighted>
1.4510

> <Gold.Chemscore.Rot.Weighted>
10.3431

> <Gold.Chemscore.Internal.Correction.Weighted>
   9.000000E+99

> <Gold.Protein.RotatedTorsions>
[ 6907 6896 6895 6894 ] final -127.43 input  -60.11 | X-H torsion
[ 7974 7965 7964 7962 ] final  -67.99 input  175.53 | X-H torsion
[ 8008 7997 7996 7995 ] final -168.73 input   59.86 | X-H torsion
[ 10167 10162 10161 10158 ] final  -43.53 input  -65.29 | X-H torsion
[ 10718 10713 10712 10709 ] final   22.35 input   66.30 | X-H torsion
[ 10763 10752 10751 10750 ] final   -5.54 input  -60.55 | X-H torsion
[ 11005 11000 10999 10996 ] final -116.55 input  -57.11 | X-H torsion

> <Gold.Protein.ActiveResidues>
 VAL166  LYS551  ARG553  GLY616  TRP617  ASP618  TYR619  PRO620  LYS621  CYS622 
 ASP623  PHE694  ASN695  SER759  ASP760  ASP761  ALA762  ILE779  LEU786  VAL792 
 PHE793  MET794  SER795  GLU796  ALA797  LYS798  CYS799  TRP800  GLU811  SER814 

> <Gold.Protein.RotatedAtoms>
  150.9073  133.7042  159.2863 H   0  0  0  0  0  0  0  0  0  0  0  0  # atno 6907 bound_to 6896
  151.4541  135.1031  159.9716 H   0  0  0  0  0  0  0  0  0  0  0  0  # atno 6908 bound_to 6896
  152.4910  133.8451  159.7228 H   0  0  0  0  0  0  0  0  0  0  0  0  # atno 6909 bound_to 6896
  145.7222  140.9033  143.0624 H   0  0  0  0  0  0  0  0  0  0  0  0  # atno 7974 bound_to 7965
  155.8953  140.1032  157.1389 H   0  0  0  0  0  0  0  0  0  0  0  0  # atno 8008 bound_to 7997
  154.4020  140.1303  156.4432 H   0  0  0  0  0  0  0  0  0  0  0  0  # atno 8009 bound_to 7997
  155.7485  140.3465  155.5141 H   0  0  0  0  0  0  0  0  0  0  0  0  # atno 8010 bound_to 7997
  140.6930  143.2978  151.3365 H   0  0  0  0  0  0  0  0  0  0  0  0  # atno 10167 bound_to 10162
  157.1511  130.6675  149.6012 H   0  0  0  0  0  0  0  0  0  0  0  0  # atno 10718 bound_to 10713
  153.3999  135.7004  153.6433 H   0  0  0  0  0  0  0  0  0  0  0  0  # atno 10763 bound_to 10752
  153.4971  135.3660  155.2522 H   0  0  0  0  0  0  0  0  0  0  0  0  # atno 10764 bound_to 10752
  154.8709  135.4103  154.3332 H   0  0  0  0  0  0  0  0  0  0  0  0  # atno 10765 bound_to 10752
  141.0414  133.9829  157.2988 H   0  0  0  0  0  0  0  0  0  0  0  0  # atno 11005 bound_to 11000
  144.6914  139.9218  143.7468 LP  0  0  0  0  0  0  0  0  0  0  0  0  # atno 17320 bound_to 7965
  146.0615  139.3608  143.0578 LP  0  0  0  0  0  0  0  0  0  0  0  0  # atno 17321 bound_to 7965
  139.6354  144.0641  152.2511 LP  0  0  0  0  0  0  0  0  0  0  0  0  # atno 17342 bound_to 10162
  140.0129  144.6210  150.7632 LP  0  0  0  0  0  0  0  0  0  0  0  0  # atno 17343 bound_to 10162
  155.9770  130.4744  150.6567 LP  0  0  0  0  0  0  0  0  0  0  0  0  # atno 17370 bound_to 10713
  157.4219  131.0838  151.1122 LP  0  0  0  0  0  0  0  0  0  0  0  0  # atno 17371 bound_to 10713
  139.9279  135.0201  156.8298 LP  0  0  0  0  0  0  0  0  0  0  0  0  # atno 17394 bound_to 11000
  140.6227  133.9979  155.7625 LP  0  0  0  0  0  0  0  0  0  0  0  0  # atno 17395 bound_to 11000

$$$$
