AV-unprocessed.smi:3330|AV-procd|sdf|12802|dock1
  -GOLD-   2272019163D 1   1.00000     0.00000
 Structure written by MMmdl.
 39 40  0  0  0  0  0  0  0  0  2 V2000
  154.3961  140.5227  159.8866 C   0  0  0  0  0  0  0  0  0  0  0  0
  153.3051  141.5495  159.5139 C   0  0  1  0  0  0  0  0  0  0  0  0
  151.9847  140.8849  159.4176 N   0  3  0  0  0  0  0  0  0  0  0  0
  151.8345  139.9193  158.3096 C   0  0  0  0  0  0  0  0  0  0  0  0
  151.5118  140.6476  156.9959 C   0  0  0  0  0  0  0  0  0  0  0  0
  151.1837  139.7019  155.9259 N   0  0  0  0  0  0  0  0  0  0  0  0
  152.0745  138.8953  155.3348 C   0  0  0  0  0  0  0  0  0  0  0  0
  153.2783  138.8087  155.5744 O   0  0  0  0  0  0  0  0  0  0  0  0
  151.3584  138.0812  154.2795 C   0  0  0  0  0  0  0  0  0  0  0  0
  150.0233  138.6173  154.4364 N   0  0  0  0  0  0  0  0  0  0  0  0
  149.9573  139.5526  155.3929 C   0  0  0  0  0  0  0  0  0  0  0  0
  148.9423  140.1680  155.7154 O   0  0  0  0  0  0  0  0  0  0  0  0
  153.2207  142.7297  160.5191 C   0  0  2  0  0  0  0  0  0  0  0  0
  152.9572  142.2593  161.9632 C   0  0  0  0  0  0  0  0  0  0  0  0
  152.2260  143.7209  160.1277 N   0  0  0  0  0  0  0  0  0  0  0  0
  152.1849  144.4815  158.9770 C   0  0  0  0  0  0  0  0  0  0  0  0
  151.0708  145.2675  159.0458 C   0  0  0  0  0  0  0  0  0  0  0  0
  150.4851  144.9155  160.2935 C   0  0  0  0  0  0  0  0  0  0  0  0
  151.1769  143.9898  160.9380 N   0  0  0  0  0  0  0  0  0  0  0  0
  155.3884  140.9737  159.9042 H   0  0  0  0  0  0  0  0  0  0  0  0
  154.4460  139.7036  159.1699 H   0  0  0  0  0  0  0  0  0  0  0  0
  154.2123  140.0909  160.8709 H   0  0  0  0  0  0  0  0  0  0  0  0
  153.5479  141.9627  158.5333 H   0  0  0  0  0  0  0  0  0  0  0  0
  151.7853  140.4231  160.2934 H   0  0  0  0  0  0  0  0  0  0  0  0
  152.7580  139.3489  158.2014 H   0  0  0  0  0  0  0  0  0  0  0  0
  151.0406  139.2095  158.5415 H   0  0  0  0  0  0  0  0  0  0  0  0
  150.6797  141.3377  157.1473 H   0  0  0  0  0  0  0  0  0  0  0  0
  152.3581  141.2683  156.6955 H   0  0  0  0  0  0  0  0  0  0  0  0
  151.7556  138.2730  153.2824 H   0  0  0  0  0  0  0  0  0  0  0  0
  151.3921  137.0141  154.5016 H   0  0  0  0  0  0  0  0  0  0  0  0
  149.2392  138.3125  153.8775 H   0  0  0  0  0  0  0  0  0  0  0  0
  154.1844  143.2417  160.5134 H   0  0  0  0  0  0  0  0  0  0  0  0
  153.7558  141.6140  162.3288 H   0  0  0  0  0  0  0  0  0  0  0  0
  152.0223  141.7033  162.0398 H   0  0  0  0  0  0  0  0  0  0  0  0
  152.8931  143.1089  162.6439 H   0  0  0  0  0  0  0  0  0  0  0  0
  152.9429  144.4009  158.2117 H   0  0  0  0  0  0  0  0  0  0  0  0
  150.7270  145.9859  158.3164 H   0  0  0  0  0  0  0  0  0  0  0  0
  149.5839  145.3019  160.7464 H   0  0  0  0  0  0  0  0  0  0  0  0
  151.2940  141.6080  159.2744 H   0  0  0  0  0  0  0  0  0  0  0  0
  1  2  1  0  0  0  0
  1 20  1  0  0  0  0
  1 21  1  0  0  0  0
  1 22  1  0  0  0  0
  2  3  1  0  0  0  0
  2 13  1  0  0  0  0
  2 23  1  0  0  0  0
  3  4  1  0  0  0  0
  3 24  1  0  0  0  0
  3 39  1  0  0  0  0
  4  5  1  0  0  0  0
  4 25  1  0  0  0  0
  4 26  1  0  0  0  0
  5  6  1  0  0  0  0
  5 27  1  0  0  0  0
  5 28  1  0  0  0  0
  6 11  1  0  0  0  0
  6  7  1  0  0  0  0
  7  8  2  0  0  0  0
  7  9  1  0  0  0  0
  9 10  1  0  0  0  0
  9 29  1  0  0  0  0
  9 30  1  0  0  0  0
 10 11  1  0  0  0  0
 10 31  1  0  0  0  0
 11 12  2  0  0  0  0
 13 14  1  0  0  0  0
 13 15  1  0  0  0  0
 13 32  1  0  0  0  0
 14 33  1  0  0  0  0
 14 34  1  0  0  0  0
 14 35  1  0  0  0  0
 15 19  1  0  0  0  0
 15 16  1  0  0  0  0
 16 17  2  0  0  0  0
 16 36  1  0  0  0  0
 17 18  1  0  0  0  0
 17 37  1  0  0  0  0
 18 19  2  0  0  0  0
 18 38  1  0  0  0  0
M  CHG  1   3   1
M  END
> <s_m_source_file>
AV-unprocessed.smi

> <i_m_source_file_index>
3330

> <i_lp_mmshare_version>
43012

> <i_f3d_flags>
0

> <s_epik_input>
bjFbY0hdW2NIXVtjSF1uMVtDQEBIXShbQ0gzXSlbQ0BIXShbQ0gzXSlbTkhdW0NIMl1bQ0gyXU4yQyg9TylbQ0gyXVtOSF1DMj1P

> <s_epik_cmdline>
J2VwaWtfcHl0aG9uJywgJy1waCcsICc3LjAnLCAnLXRuJywgJzgnLCAnLW1hJywgJzIwMCcsICctbWV0YWxfYmluZGluZycsICctaW1hZScsICc8aW5maWxlLm1hZT4nLCAnLW9tYWUnLCAnPG91dGZpbGUubWFlPic=

> <r_lp_tautomer_probability>
1

> <r_epik_Ionization_Penalty>
0.0124905

> <r_epik_Ionization_Penalty_Charging>
0.0123685

> <r_epik_Ionization_Penalty_Neutral>
0.000122059

> <r_epik_State_Penalty>
0.00957041

> <r_epik_Charging_Adjusted_Penalty>
0.0219389

> <i_epik_Tot_Q>
1

> <i_epik_Tot_abs_Q>
1

> <r_epik_Metal_State_Penalty>
0.0858301

> <b_epik_Metal_Only>
0

> <s_lp_Force_Field>
OPLS_2005

> <r_lp_Energy>
24.6959

> <b_lp_Chiralities_Consistent>
1

> <s_lp_Variant>
AV-unprocessed.smi:3330-2

> <Gold.Version>
5.8.1

> <Gold.Id.Protein>
6NUR|6NUR_protein|mol2

> <Gold.PLP.Fitness>
49.4747

> <Gold.PLP.PLP>
-47.0968

> <Gold.PLP.part.hbond>
-1.1624

> <Gold.PLP.part.metal>
0.0000

> <Gold.PLP.part.buried>
-7.5495

> <Gold.PLP.part.nonpolar>
-38.9909

> <Gold.PLP.part.repulsive>
0.4234

> <Gold.PLP.ligand.clash>
0.0000

> <Gold.PLP.ligand.torsion>
0.3261

> <Gold.PLP.Chemscore.Hbond>
0.9280

> <Gold.PLP.Chemscore.CHOScore>
0.0000

> <Gold.PLP.Chemscore.Metal>
0.0000

> <Gold.Chemscore.Hbonds>
donor molecule, donor type, donor heavy atom, donor atom, acceptor molecule, acceptor atom, score
      P1  H  7997  8010       L1     8  1.00

> <Gold.PLP.Chemscore.Internal.Correction>
0.2460

> <Gold.Rescore>
     Score         DG    S(hbond)    S(metal)    S(lipo)     H(rot)  DE(clash)    DE(int)     intcor
     12.88     -13.41       0.98        0.00      98.17       2.67       0.01       0.52       ----

> <Gold.Chemscore.Fitness>
12.8800

> <Gold.Chemscore.DG>
-13.4136

> <Gold.Chemscore.ZeroCoef>
-5.4800

> <Gold.Chemscore.Hbond>
0.9804

> <Gold.Chemscore.Metal>
0.0000

> <Gold.Chemscore.Lipo>
98.1664

> <Gold.Chemscore.Internal_Hbond>
0.0000

> <Gold.Chemscore.DEClash>
0.0089

> <Gold.Chemscore.DEInternal>
0.5247

> <Gold.Chemscore.Rot>
2.6666

> <Gold.Chemscore.Internal.Correction>
   9.000000E+99

> <Gold.Chemscore.Hbonds>
donor molecule, donor type, donor heavy atom, donor atom, acceptor molecule, acceptor atom, score
      P1  H  7997  8010       L1     8  0.95

> <Gold.Chemscore.Hbond.Weighted>
-3.2746

> <Gold.Chemscore.Metal.Weighted>
-0.0000

> <Gold.Chemscore.Lipo.Weighted>
-11.4855

> <Gold.Chemscore.Internal_Hbond.Weighted>
0.0000

> <Gold.Chemscore.DEClash.Weighted>
0.0089

> <Gold.Chemscore.DEInternal.Weighted>
0.5247

> <Gold.Chemscore.Rot.Weighted>
6.8265

> <Gold.Chemscore.Internal.Correction.Weighted>
   9.000000E+99

> <Gold.Protein.RotatedTorsions>
[ 6907 6896 6895 6894 ] final  -81.91 input  -60.11 | X-H torsion
[ 7974 7965 7964 7962 ] final  -39.35 input  175.53 | X-H torsion
[ 8008 7997 7996 7995 ] final   96.70 input   59.86 | X-H torsion
[ 10167 10162 10161 10158 ] final -114.80 input  -65.29 | X-H torsion
[ 10718 10713 10712 10709 ] final  -70.35 input   66.30 | X-H torsion
[ 10763 10752 10751 10750 ] final -151.42 input  -60.55 | X-H torsion
[ 11005 11000 10999 10996 ] final  169.34 input  -57.11 | X-H torsion

> <Gold.Protein.ActiveResidues>
 VAL166  LYS551  ARG553  GLY616  TRP617  ASP618  TYR619  PRO620  LYS621  CYS622 
 ASP623  PHE694  ASN695  SER759  ASP760  ASP761  ALA762  ILE779  LEU786  VAL792 
 PHE793  MET794  SER795  GLU796  ALA797  LYS798  CYS799  TRP800  GLU811  SER814 

> <Gold.Protein.RotatedAtoms>
  150.6905  134.3745  159.5006 H   0  0  0  0  0  0  0  0  0  0  0  0  # atno 6907 bound_to 6896
  152.1556  134.8951  160.0554 H   0  0  0  0  0  0  0  0  0  0  0  0  # atno 6908 bound_to 6896
  152.0032  133.3798  159.4227 H   0  0  0  0  0  0  0  0  0  0  0  0  # atno 6909 bound_to 6896
  146.0405  140.6615  142.9089 H   0  0  0  0  0  0  0  0  0  0  0  0  # atno 7974 bound_to 7965
  156.0824  140.3269  155.7710 H   0  0  0  0  0  0  0  0  0  0  0  0  # atno 8008 bound_to 7997
  155.5131  140.0579  157.2937 H   0  0  0  0  0  0  0  0  0  0  0  0  # atno 8009 bound_to 7997
  154.4589  140.1957  156.0316 H   0  0  0  0  0  0  0  0  0  0  0  0  # atno 8010 bound_to 7997
  140.0970  143.4647  152.1835 H   0  0  0  0  0  0  0  0  0  0  0  0  # atno 10167 bound_to 10162
  156.0412  130.4330  150.2283 H   0  0  0  0  0  0  0  0  0  0  0  0  # atno 10718 bound_to 10713
  154.8059  135.3260  154.7432 H   0  0  0  0  0  0  0  0  0  0  0  0  # atno 10763 bound_to 10752
  153.8091  135.6897  153.4848 H   0  0  0  0  0  0  0  0  0  0  0  0  # atno 10764 bound_to 10752
  153.1804  135.4589  154.9965 H   0  0  0  0  0  0  0  0  0  0  0  0  # atno 10765 bound_to 10752
  140.2967  134.7628  157.3883 H   0  0  0  0  0  0  0  0  0  0  0  0  # atno 11005 bound_to 11000
  144.7072  140.3898  143.7109 LP  0  0  0  0  0  0  0  0  0  0  0  0  # atno 17320 bound_to 7965
  145.6893  139.1635  143.2656 LP  0  0  0  0  0  0  0  0  0  0  0  0  # atno 17321 bound_to 7965
  139.5692  144.7453  151.3937 LP  0  0  0  0  0  0  0  0  0  0  0  0  # atno 17342 bound_to 10162
  140.6998  143.7659  150.7385 LP  0  0  0  0  0  0  0  0  0  0  0  0  # atno 17343 bound_to 10162
  157.0377  131.0026  151.3293 LP  0  0  0  0  0  0  0  0  0  0  0  0  # atno 17370 bound_to 10713
  157.5232  130.8011  149.7832 LP  0  0  0  0  0  0  0  0  0  0  0  0  # atno 17371 bound_to 10713
  140.1146  134.5300  155.8236 LP  0  0  0  0  0  0  0  0  0  0  0  0  # atno 17394 bound_to 11000
  141.2136  133.6736  156.6752 LP  0  0  0  0  0  0  0  0  0  0  0  0  # atno 17395 bound_to 11000

$$$$
