#       Name:                AV-unprocessed.smi:49
#       Creating user name   scv26
#       Creation time:       Thu Mar 26 16:34:44 2020


#       File generated by GOLD software.
#

@<TRIPOS>MOLECULE
AV-unprocessed.smi:49
    32    33     1
SMALL
NO_CHARGES


@<TRIPOS>ATOM
      1 ****        -4.1866   1.0992  -1.4625 C.3            1 S1                 0.0000
      2 ****        -3.4587  -0.2490  -1.4210 C.3            1 S1                 0.0000
      3 ****        -1.9981  -0.1047  -1.1439 C.2            1 S1                 0.0000
      4 ****        -1.4932  -0.2308   0.0918 N.pl3          1 S1                 0.0000
      5 ****        -0.1824  -0.0141  -0.0924 C.2            1 S1                 0.0000
      6 ****         0.7875  -0.0712   1.0532 C.3            1 S1                 0.0000
      7 ****         1.6853  -1.3180   1.0505 C.3            1 S1                 0.0000
      8 ****         2.9705  -0.8476   0.3710 C.3            1 S1                 0.0000
      9 ****         4.0948  -1.6035   0.7694 O.3            1 S1                 0.0000
     10 ****         3.0670   0.6167   0.7983 C.3            1 S1                 0.0000
     11 ****         1.6736   1.0958   0.8412 N.4            1 S1                 1.0000
     12 ****         0.1272   0.2340  -1.3719 N.2            1 S1                 0.0000
     13 ****        -1.0708   0.1816  -2.0620 N.2            1 S1                 0.0000
     14 ****         0.2510   0.0268   1.9979 H              1 S1                 0.0000
     15 ****         2.8586  -0.9101  -0.7126 H              1 S1                 0.0000
     16 ****        -1.9838  -0.4409   0.9493 H              1 S1                 0.0000
     17 ****        -5.2486   0.9613  -1.6663 H              1 S1                 0.0000
     18 ****        -3.7789   1.7428  -2.2427 H              1 S1                 0.0000
     19 ****        -4.0950   1.6252  -0.5119 H              1 S1                 0.0000
     20 ****        -3.9049  -0.8888  -0.6586 H              1 S1                 0.0000
     21 ****        -3.5841  -0.7668  -2.3727 H              1 S1                 0.0000
     22 ****         1.9042  -1.5940   2.0833 H              1 S1                 0.0000
     23 ****         1.2293  -2.1844   0.5694 H              1 S1                 0.0000
     24 ****         4.1777  -1.5588   1.7099 H              1 S1                 0.0000
     25 ****         3.4852   0.6960   1.8029 H              1 S1                 0.0000
     26 ****         3.6810   1.2165   0.1260 H              1 S1                 0.0000
     27 ****         1.4441   1.4952  -0.0585 H              1 S1                 0.0000
     28 ****         1.5493   1.7903   1.5636 H              1 S1                 0.0000
     29 ****         4.9183  -1.2303   0.3420 LP             1 S1                 0.0000
     30 ****         3.9755  -2.5556   0.4881 LP             1 S1                 0.0000
     31 ****         1.0346   0.4186  -1.7494 LP             1 S1                 0.0000
     32 ****        -1.2127   0.3273  -3.0411 LP             1 S1                 0.0000
@<TRIPOS>BOND
    1    1    2 1     
    2    1   17 1     
    3    1   18 1     
    4    1   19 1     
    5    2   20 1     
    6    2   21 1     
    7    2    3 1     
    8    3    4 1     
    9    3   13 2     
   10    4   16 1     
   11    4    5 1     
   12    5   12 2     
   13    5    6 1     
   14    6   14 1     
   15    6   11 1     
   16    6    7 1     
   17    7    8 1     
   18    7   22 1     
   19    7   23 1     
   20    8   15 1     
   21    8    9 1     
   22    8   10 1     
   23    9   24 1     
   24   10   11 1     
   25   10   25 1     
   26   10   26 1     
   27   11   27 1     
   28   11   28 1     
   29   12   13 1     
   30    9   29 1     
   31    9   30 1     
   32   12   31 1     
   33   13   32 1     
@<TRIPOS>SUBSTRUCTURE
      1 S1             1
@<TRIPOS>SET
LONE_PAIRS      STATIC     ATOMS    <user>   **** ""
4 29 30 31 32
DONOR_HYDROGENS      STATIC     ATOMS    <user>   **** ""
4 16 24 27 28
ATOM$BLUE        STATIC     ATOMS    COLORGROUP SYSTEM
4 29 30 31 32
ATOM$RED        STATIC     ATOMS    COLORGROUP SYSTEM
4 16 24 27 28
