AV-unprocessed.smi:287|AV-procd|sdf|2191|dock9
  -GOLD-   2262021583D 1   1.00000     0.00000
 Structure written by MMmdl.
 55 58  0  0  0  0  0  0  0  0  1 V2000
  148.1671  125.3942  151.0988 C   0  0  0  0  0  0  0  0  0  0  0  0
  147.5756  126.5184  151.8782 C   0  0  0  0  0  0  0  0  0  0  0  0
  147.5061  127.8675  151.6858 C   0  0  0  0  0  0  0  0  0  0  0  0
  146.8087  128.4220  152.8007 C   0  0  0  0  0  0  0  0  0  0  0  0
  146.4805  129.8929  153.0190 C   0  0  1  0  0  0  0  0  0  0  0  0
  145.7102  130.4363  151.8047 C   0  0  0  0  0  0  0  0  0  0  0  0
  145.6310  130.1038  154.1305 O   0  0  0  0  0  0  0  0  0  0  0  0
  147.7372  130.7548  153.2790 C   0  0  0  0  0  0  0  0  0  0  0  0
  148.4984  130.3131  154.4433 N   0  0  0  0  0  0  0  0  0  0  0  0
  148.9668  131.2160  155.3296 C   0  0  0  0  0  0  0  0  0  0  0  0
  149.2969  130.8486  156.5954 N   0  0  0  0  0  0  0  0  0  0  0  0
  149.7612  131.7607  157.4545 C   0  0  0  0  0  0  0  0  0  0  0  0
  149.9674  133.0641  157.2561 N   0  0  0  0  0  0  0  0  0  0  0  0
  149.6365  133.4384  155.9856 C   0  0  0  0  0  0  0  0  0  0  0  0
  149.1332  132.5782  154.9706 C   0  0  0  0  0  0  0  0  0  0  0  0
  148.9128  133.3016  153.8057 N   0  0  0  0  0  0  0  0  0  0  0  0
  149.2704  134.5183  154.1176 C   0  0  0  0  0  0  0  0  0  0  0  0
  149.7211  134.6898  155.4075 N   0  0  0  0  0  0  0  0  0  0  0  0
  150.2024  135.9569  156.0413 C   0  0  1  0  0  0  0  0  0  0  0  0
  150.9814  135.6523  157.1510 O   0  0  0  0  0  0  0  0  0  0  0  0
  151.9157  136.7041  157.3707 C   0  0  1  0  0  0  0  0  0  0  0  0
  153.2656  136.0997  157.8003 C   0  0  0  0  0  0  0  0  0  0  0  0
  153.1772  135.4328  159.0426 O   0  0  0  0  0  0  0  0  0  0  0  0
  151.9397  137.5743  156.0955 C   0  0  2  0  0  0  0  0  0  0  0  0
  151.3566  138.8331  156.3763 O   0  0  0  0  0  0  0  0  0  0  0  0
  151.0684  136.8108  155.1048 C   0  0  1  0  0  0  0  0  0  0  0  0
  151.8592  136.0466  154.2132 O   0  0  0  0  0  0  0  0  0  0  0  0
  146.4912  127.3408  153.5870 C   0  0  0  0  0  0  0  0  0  0  0  0
  145.7562  127.1794  154.8764 C   0  0  0  0  0  0  0  0  0  0  0  0
  146.9576  126.1844  153.0384 O   0  0  0  0  0  0  0  0  0  0  0  0
  149.2995  136.4758  156.3668 H   0  0  0  0  0  0  0  0  0  0  0  0
  151.5296  137.2837  158.2110 H   0  0  0  0  0  0  0  0  0  0  0  0
  152.9464  137.7504  155.7138 H   0  0  0  0  0  0  0  0  0  0  0  0
  150.4282  137.4625  154.5084 H   0  0  0  0  0  0  0  0  0  0  0  0
  148.6701  125.7624  150.2045 H   0  0  0  0  0  0  0  0  0  0  0  0
  147.3944  124.6914  150.7868 H   0  0  0  0  0  0  0  0  0  0  0  0
  148.8983  124.8511  151.6980 H   0  0  0  0  0  0  0  0  0  0  0  0
  147.9150  128.4004  150.8401 H   0  0  0  0  0  0  0  0  0  0  0  0
  146.3015  130.3504  150.8923 H   0  0  0  0  0  0  0  0  0  0  0  0
  145.4543  131.4891  151.9309 H   0  0  0  0  0  0  0  0  0  0  0  0
  144.7815  129.8866  151.6457 H   0  0  0  0  0  0  0  0  0  0  0  0
  144.7368  130.1155  153.8255 H   0  0  0  0  0  0  0  0  0  0  0  0
  148.3981  130.6802  152.4141 H   0  0  0  0  0  0  0  0  0  0  0  0
  147.4708  131.8084  153.3780 H   0  0  0  0  0  0  0  0  0  0  0  0
  148.6363  129.3164  154.5327 H   0  0  0  0  0  0  0  0  0  0  0  0
  150.0039  131.3942  158.4408 H   0  0  0  0  0  0  0  0  0  0  0  0
  149.2191  135.3305  153.4071 H   0  0  0  0  0  0  0  0  0  0  0  0
  153.5960  135.3741  157.0568 H   0  0  0  0  0  0  0  0  0  0  0  0
  154.0325  136.8727  157.8548 H   0  0  0  0  0  0  0  0  0  0  0  0
  154.0513  135.2357  159.3422 H   0  0  0  0  0  0  0  0  0  0  0  0
  151.7088  139.4697  155.7734 H   0  0  0  0  0  0  0  0  0  0  0  0
  151.8038  136.4367  153.3543 H   0  0  0  0  0  0  0  0  0  0  0  0
  144.7851  127.6723  154.8311 H   0  0  0  0  0  0  0  0  0  0  0  0
  146.3213  127.6177  155.6991 H   0  0  0  0  0  0  0  0  0  0  0  0
  145.5876  126.1270  155.1065 H   0  0  0  0  0  0  0  0  0  0  0  0
  1  2  1  0  0  0  0
  1 35  1  0  0  0  0
  1 36  1  0  0  0  0
  1 37  1  0  0  0  0
  2 30  1  0  0  0  0
  2  3  2  0  0  0  0
  3  4  1  0  0  0  0
  3 38  1  0  0  0  0
  4  5  1  0  0  0  0
  4 28  2  0  0  0  0
  5  6  1  0  0  0  0
  5  7  1  0  0  0  0
  5  8  1  0  0  0  0
  6 39  1  0  0  0  0
  6 40  1  0  0  0  0
  6 41  1  0  0  0  0
  7 42  1  0  0  0  0
  8  9  1  0  0  0  0
  8 43  1  0  0  0  0
  8 44  1  0  0  0  0
  9 10  1  0  0  0  0
  9 45  1  0  0  0  0
 10 15  1  0  0  0  0
 10 11  2  0  0  0  0
 11 12  1  0  0  0  0
 12 13  2  0  0  0  0
 12 46  1  0  0  0  0
 13 14  1  0  0  0  0
 14 18  1  0  0  0  0
 14 15  2  0  0  0  0
 15 16  1  0  0  0  0
 16 17  2  0  0  0  0
 17 18  1  0  0  0  0
 17 47  1  0  0  0  0
 18 19  1  0  0  0  0
 19 31  1  0  0  0  0
 19 26  1  0  0  0  0
 19 20  1  0  0  0  0
 20 21  1  0  0  0  0
 21 32  1  0  0  0  0
 21 22  1  0  0  0  0
 21 24  1  0  0  0  0
 22 23  1  0  0  0  0
 22 48  1  0  0  0  0
 22 49  1  0  0  0  0
 23 50  1  0  0  0  0
 24 33  1  0  0  0  0
 24 25  1  0  0  0  0
 24 26  1  0  0  0  0
 25 51  1  0  0  0  0
 26 34  1  0  0  0  0
 26 27  1  0  0  0  0
 27 52  1  0  0  0  0
 28 29  1  0  0  0  0
 28 30  1  0  0  0  0
 29 53  1  0  0  0  0
 29 54  1  0  0  0  0
 29 55  1  0  0  0  0
M  END
> <s_m_source_file>
AV-unprocessed.smi

> <i_m_source_file_index>
287

> <i_lp_mmshare_version>
43012

> <i_f3d_flags>
0

> <s_epik_input>
W0NIM11jMVtjSF1jKGMobzEpW0NIM10pW0NAQF0oW0NIM10pKFtPSF0pW0NIMl1bTkhdYyhuW2NIXW4yKWMoYzIzKW5bY0hdbjNbQ0BASF00T1tDQEhdKFtDSDJdW09IXSlbQ0BASF0oW09IXSlbQ0BIXTRbT0hd

> <s_epik_cmdline>
J2VwaWtfcHl0aG9uJywgJy1waCcsICc3LjAnLCAnLXRuJywgJzgnLCAnLW1hJywgJzIwMCcsICctbWV0YWxfYmluZGluZycsICctaW1hZScsICc8aW5maWxlLm1hZT4nLCAnLW9tYWUnLCAnPG91dGZpbGUubWFlPic=

> <r_lp_tautomer_probability>
1

> <r_epik_Ionization_Penalty>
0.000992612

> <r_epik_Ionization_Penalty_Charging>
0

> <r_epik_Ionization_Penalty_Neutral>
0.000992612

> <r_epik_State_Penalty>
-0

> <r_epik_Charging_Adjusted_Penalty>
0

> <i_epik_Tot_Q>
0

> <i_epik_Tot_abs_Q>
0

> <r_epik_Metal_State_Penalty>
-0

> <b_epik_Metal_Only>
0

> <s_epik_Chemistry_Notes>
This compound contains an acetal/aminal-like group ( X-CH(R)-Y where X, Y are N, S, or O) that may be acid/base labile, releasing an aldehyde.

> <s_lp_Force_Field>
OPLS_2005

> <r_lp_Energy>
44.0492

> <b_lp_Chiralities_Consistent>
1

> <s_lp_Variant>
AV-unprocessed.smi:287-15

> <Gold.Version>
5.8.1

> <Gold.Id.Protein>
6NUR|6NUR_protein|mol2

> <Gold.PLP.Fitness>
54.0052

> <Gold.PLP.PLP>
-41.7980

> <Gold.PLP.part.hbond>
-6.6692

> <Gold.PLP.part.metal>
0.0000

> <Gold.PLP.part.buried>
-6.1937

> <Gold.PLP.part.nonpolar>
-31.0725

> <Gold.PLP.part.repulsive>
0.1502

> <Gold.PLP.ligand.clash>
0.0000

> <Gold.PLP.ligand.torsion>
0.8897

> <Gold.PLP.Chemscore.Hbond>
3.6355

> <Gold.PLP.Chemscore.CHOScore>
1.0000

> <Gold.PLP.Chemscore.Metal>
0.0000

> <Gold.Chemscore.Hbonds>
donor molecule, donor type, donor heavy atom, donor atom, acceptor molecule, acceptor atom, score
      L1  H     7    42       P1 10956  0.29
      L1  H    27    52       P1  7949  0.80
      P1  H  6896  6907       L1    13  0.16
      P1  H  6896  6909       L1    23  0.29
      P1  H 10752 10765       L1    27  0.06
      L1  C    17    47       P1  7948  0.35

> <Gold.PLP.Chemscore.Internal.Correction>
0.0802

> <Gold.Rescore>
     Score         DG    S(hbond)    S(metal)    S(lipo)     H(rot)  DE(clash)    DE(int)     intcor
      5.68     -11.71       3.12        0.00      79.50       5.27       0.07       5.97       ----

> <Gold.Chemscore.Fitness>
5.6792

> <Gold.Chemscore.DG>
-11.7097

> <Gold.Chemscore.ZeroCoef>
-5.4800

> <Gold.Chemscore.Hbond>
3.1173

> <Gold.Chemscore.Metal>
0.0000

> <Gold.Chemscore.Lipo>
79.5040

> <Gold.Chemscore.Internal_Hbond>
0.0000

> <Gold.Chemscore.DEClash>
0.0655

> <Gold.Chemscore.DEInternal>
5.9651

> <Gold.Chemscore.Rot>
5.2672

> <Gold.Chemscore.Internal.Correction>
   9.000000E+99

> <Gold.Chemscore.Hbonds>
donor molecule, donor type, donor heavy atom, donor atom, acceptor molecule, acceptor atom, score
      L1  H     7    42       P1 10956  0.02
      L1  H    27    52       P1  7949  0.75
      P1  H  6896  6907       L1    13  0.02
      P1  H  6896  6909       L1    23  0.02
      P1  H 10752 10765       L1    27  0.09

> <Gold.Chemscore.Hbond.Weighted>
-10.4117

> <Gold.Chemscore.Metal.Weighted>
-0.0000

> <Gold.Chemscore.Lipo.Weighted>
-9.3020

> <Gold.Chemscore.Internal_Hbond.Weighted>
0.0000

> <Gold.Chemscore.DEClash.Weighted>
0.0655

> <Gold.Chemscore.DEInternal.Weighted>
5.9651

> <Gold.Chemscore.Rot.Weighted>
13.4839

> <Gold.Chemscore.Internal.Correction.Weighted>
   9.000000E+99

> <Gold.Protein.RotatedTorsions>
[ 6907 6896 6895 6894 ] final -154.55 input  -60.11 | X-H torsion
[ 7974 7965 7964 7962 ] final   53.08 input  175.53 | X-H torsion
[ 8008 7997 7996 7995 ] final   69.44 input   59.86 | X-H torsion
[ 10167 10162 10161 10158 ] final  -73.02 input  -65.29 | X-H torsion
[ 10718 10713 10712 10709 ] final   99.54 input   66.30 | X-H torsion
[ 10763 10752 10751 10750 ] final  169.76 input  -60.55 | X-H torsion
[ 11005 11000 10999 10996 ] final   17.28 input  -57.11 | X-H torsion

> <Gold.Protein.ActiveResidues>
 VAL166  LYS551  ARG553  GLY616  TRP617  ASP618  TYR619  PRO620  LYS621  CYS622 
 ASP623  PHE694  ASN695  SER759  ASP760  ASP761  ALA762  ILE779  LEU786  VAL792 
 PHE793  MET794  SER795  GLU796  ALA797  LYS798  CYS799  TRP800  GLU811  SER814 

> <Gold.Protein.RotatedAtoms>
  151.2591  133.4311  159.2614 H   0  0  0  0  0  0  0  0  0  0  0  0  # atno 6907 bound_to 6896
  151.0547  134.9697  159.8240 H   0  0  0  0  0  0  0  0  0  0  0  0  # atno 6908 bound_to 6896
  152.5388  134.2544  159.8964 H   0  0  0  0  0  0  0  0  0  0  0  0  # atno 6909 bound_to 6896
  145.9748  139.4184  143.0168 H   0  0  0  0  0  0  0  0  0  0  0  0  # atno 7974 bound_to 7965
  155.7236  140.3493  155.5027 H   0  0  0  0  0  0  0  0  0  0  0  0  # atno 8008 bound_to 7997
  155.9247  140.1073  157.1201 H   0  0  0  0  0  0  0  0  0  0  0  0  # atno 8009 bound_to 7997
  154.4075  140.1242  156.4712 H   0  0  0  0  0  0  0  0  0  0  0  0  # atno 8010 bound_to 7997
  140.5145  143.2340  151.7537 H   0  0  0  0  0  0  0  0  0  0  0  0  # atno 10167 bound_to 10162
  157.6874  131.0672  150.4964 H   0  0  0  0  0  0  0  0  0  0  0  0  # atno 10718 bound_to 10713
  154.3878  135.2754  155.2173 H   0  0  0  0  0  0  0  0  0  0  0  0  # atno 10763 bound_to 10752
  154.4252  135.5990  153.6038 H   0  0  0  0  0  0  0  0  0  0  0  0  # atno 10764 bound_to 10752
  152.9833  135.5982  154.4129 H   0  0  0  0  0  0  0  0  0  0  0  0  # atno 10765 bound_to 10752
  140.4377  134.1354  155.7687 H   0  0  0  0  0  0  0  0  0  0  0  0  # atno 11005 bound_to 11000
  145.7854  140.9838  143.1077 LP  0  0  0  0  0  0  0  0  0  0  0  0  # atno 17320 bound_to 7965
  144.6846  139.9616  143.7480 LP  0  0  0  0  0  0  0  0  0  0  0  0  # atno 17321 bound_to 7965
  139.4905  144.4344  151.9836 LP  0  0  0  0  0  0  0  0  0  0  0  0  # atno 17342 bound_to 10162
  140.3437  144.3172  150.5962 LP  0  0  0  0  0  0  0  0  0  0  0  0  # atno 17343 bound_to 10162
  156.5288  130.4179  149.6212 LP  0  0  0  0  0  0  0  0  0  0  0  0  # atno 17370 bound_to 10713
  156.3088  130.7217  151.2105 LP  0  0  0  0  0  0  0  0  0  0  0  0  # atno 17371 bound_to 10713
  141.1719  133.8592  157.1544 LP  0  0  0  0  0  0  0  0  0  0  0  0  # atno 17394 bound_to 11000
  140.0091  134.9996  157.0356 LP  0  0  0  0  0  0  0  0  0  0  0  0  # atno 17395 bound_to 11000

$$$$
