#       Name:                AV-unprocessed.smi:1906
#       Creating user name   scv26
#       Creation time:       Fri Mar 27 09:47:10 2020


#       File generated by GOLD software.
#

@<TRIPOS>MOLECULE
AV-unprocessed.smi:1906
    38    40     1
SMALL
NO_CHARGES


@<TRIPOS>ATOM
      1 ****        -1.4773   1.2633  -2.9370 C.3            1 S1                 0.0000
      2 ****        -1.4641   1.6641  -1.5000 C.2            1 S1                 0.0000
      3 ****        -1.8736   2.8636  -0.9985 N.pl3          1 S1                 1.0000
      4 ****        -1.7157   2.8748   0.3883 C.ar           1 S1                 0.0000
      5 ****        -1.9917   3.8610   1.3305 C.ar           1 S1                 0.0000
      6 ****        -1.7119   3.5461   2.6767 C.ar           1 S1                 0.0000
      7 ****        -1.1784   2.2928   3.0423 C.ar           1 S1                 0.0000
      8 ****        -0.9019   1.3012   2.0781 C.ar           1 S1                 0.0000
      9 ****        -1.1829   1.6208   0.7502 C.ar           1 S1                 0.0000
     10 ****        -1.0447   0.9082  -0.4453 N.pl3          1 S1                 0.0000
     11 ****        -0.5075  -0.4600  -0.4055 C.3            1 S1                 0.0000
     12 ****         1.0311  -0.5004  -0.3139 C.3            1 S1                 0.0000
     13 ****         1.5938   0.1682  -1.4260 O.3            1 S1                 0.0000
     14 ****         1.5362  -1.9283  -0.1851 C.ar           1 S1                 0.0000
     15 ****         1.5454  -2.7914  -1.3030 C.ar           1 S1                 0.0000
     16 ****         2.0019  -4.1174  -1.1719 C.ar           1 S1                 0.0000
     17 ****         2.4501  -4.5883   0.0772 C.ar           1 S1                 0.0000
     18 ****         2.4410  -3.7326   1.1954 C.ar           1 S1                 0.0000
     19 ****         2.8694  -4.1847   2.3976 F              1 S1                 0.0000
     20 ****         1.9847  -2.4066   1.0648 C.ar           1 S1                 0.0000
     21 ****        -1.8478   2.0786  -3.5589 H              1 S1                 0.0000
     22 ****        -2.1231   0.3969  -3.0803 H              1 S1                 0.0000
     23 ****        -0.4705   1.0064  -3.2666 H              1 S1                 0.0000
     24 ****        -2.4004   4.8216   1.0527 H              1 S1                 0.0000
     25 ****        -1.9104   4.2804   3.4440 H              1 S1                 0.0000
     26 ****        -0.9773   2.0872   4.0838 H              1 S1                 0.0000
     27 ****        -0.4926   0.3445   2.3675 H              1 S1                 0.0000
     28 ****        -0.9601  -0.9794   0.4402 H              1 S1                 0.0000
     29 ****        -0.8506  -0.9791  -1.3015 H              1 S1                 0.0000
     30 ****         1.3483   0.0525   0.5711 H              1 S1                 0.0000
     31 ****         2.5321   0.1969  -1.3148 H              1 S1                 0.0000
     32 ****         1.1986  -2.4400  -2.2639 H              1 S1                 0.0000
     33 ****         2.0063  -4.7740  -2.0295 H              1 S1                 0.0000
     34 ****         2.7987  -5.6055   0.1781 H              1 S1                 0.0000
     35 ****         1.9789  -1.7597   1.9300 H              1 S1                 0.0000
     36 ****        -2.2351   3.6188  -1.5666 H              1 S1                 0.0000
     37 ****         1.2317   1.0988  -1.4789 LP             1 S1                 0.0000
     38 ****         1.3685  -0.3255  -2.2660 LP             1 S1                 0.0000
@<TRIPOS>BOND
    1    1    2 1     
    2    1   21 1     
    3    1   22 1     
    4    1   23 1     
    5    2   10 1     
    6    2    3 2     
    7    3    4 1     
    8    3   36 1     
    9    4    9 ar    
   10    4    5 ar    
   11    5    6 ar    
   12    5   24 1     
   13    6    7 ar    
   14    6   25 1     
   15    7    8 ar    
   16    7   26 1     
   17    8    9 ar    
   18    8   27 1     
   19    9   10 1     
   20   10   11 1     
   21   11   12 1     
   22   11   28 1     
   23   11   29 1     
   24   12   13 1     
   25   12   14 1     
   26   12   30 1     
   27   13   31 1     
   28   14   20 ar    
   29   14   15 ar    
   30   15   16 ar    
   31   15   32 1     
   32   16   17 ar    
   33   16   33 1     
   34   17   18 ar    
   35   17   34 1     
   36   18   19 1     
   37   18   20 ar    
   38   20   35 1     
   39   13   37 1     
   40   13   38 1     
@<TRIPOS>SUBSTRUCTURE
      1 S1             1
@<TRIPOS>SET
LONE_PAIRS      STATIC     ATOMS    <user>   **** ""
2 37 38
DONOR_HYDROGENS      STATIC     ATOMS    <user>   **** ""
2 36 31
ATOM$BLUE        STATIC     ATOMS    COLORGROUP SYSTEM
2 37 38
ATOM$RED        STATIC     ATOMS    COLORGROUP SYSTEM
2 36 31
