AV-unprocessed.smi:2251|AV-procd|sdf|9102|dock7
  -GOLD-   2272012303D 1   1.00000     0.00000
 Structure written by MMmdl.
 45 46  0  0  0  0  0  0  0  0  2 V2000
  147.9865  145.7192  161.0015 C   0  0  0  0  0  0  0  0  0  0  0  0
  147.1793  144.5885  160.3733 C   0  0  0  0  0  0  0  0  0  0  0  0
  146.7291  143.6850  161.0774 O   0  0  0  0  0  0  0  0  0  0  0  0
  147.0014  144.6517  159.0445 N   0  0  0  0  0  0  0  0  0  0  0  0
  146.2465  143.6837  158.2534 C   0  0  0  0  0  0  0  0  0  0  0  0
  146.8811  142.2884  158.2701 C   0  0  0  0  0  0  0  0  0  0  0  0
  146.2558  141.3192  158.7016 O   0  0  0  0  0  0  0  0  0  0  0  0
  148.1216  142.1966  157.7720 N   0  0  0  0  0  0  0  0  0  0  0  0
  148.8939  140.9600  157.7026 C   0  0  0  0  0  0  0  0  0  0  0  0
  150.2582  141.1509  156.9794 C   0  0  0  0  0  0  0  0  0  0  0  0
  151.1369  142.0968  157.8302 C   0  0  0  0  0  0  0  0  0  0  0  0
  151.4176  143.4057  157.3621 C   0  0  0  0  0  0  0  0  0  0  0  0
  152.2069  144.2806  158.1345 C   0  0  0  0  0  0  0  0  0  0  0  0
  152.6931  143.8723  159.3243 N   0  3  0  0  0  0  0  0  0  0  0  0
  152.4536  142.6422  159.8231 C   0  0  0  0  0  0  0  0  0  0  0  0
  151.6694  141.7255  159.0936 C   0  0  0  0  0  0  0  0  0  0  0  0
  150.9463  139.7678  156.7505 C   0  0  0  0  0  0  0  0  0  0  0  0
  150.2149  138.8523  155.7522 C   0  0  0  0  0  0  0  0  0  0  0  0
  150.0241  139.5487  154.4001 C   0  0  0  0  0  0  0  0  0  0  0  0
  149.3047  140.8910  154.5726 C   0  0  0  0  0  0  0  0  0  0  0  0
  150.0337  141.7983  155.5814 C   0  0  0  0  0  0  0  0  0  0  0  0
  148.9455  145.8328  160.4951 H   0  0  0  0  0  0  0  0  0  0  0  0
  148.1794  145.5179  162.0558 H   0  0  0  0  0  0  0  0  0  0  0  0
  147.4414  146.6606  160.9274 H   0  0  0  0  0  0  0  0  0  0  0  0
  147.4011  145.4347  158.5476 H   0  0  0  0  0  0  0  0  0  0  0  0
  145.2410  143.6107  158.6677 H   0  0  0  0  0  0  0  0  0  0  0  0
  146.1375  144.0409  157.2275 H   0  0  0  0  0  0  0  0  0  0  0  0
  148.5659  143.0390  157.4371 H   0  0  0  0  0  0  0  0  0  0  0  0
  149.0251  140.5799  158.7151 H   0  0  0  0  0  0  0  0  0  0  0  0
  148.2969  140.2094  157.1822 H   0  0  0  0  0  0  0  0  0  0  0  0
  151.0278  143.7513  156.4162 H   0  0  0  0  0  0  0  0  0  0  0  0
  152.4589  145.2886  157.8388 H   0  0  0  0  0  0  0  0  0  0  0  0
  152.8911  142.4285  160.7875 H   0  0  0  0  0  0  0  0  0  0  0  0
  151.4933  140.7544  159.5290 H   0  0  0  0  0  0  0  0  0  0  0  0
  151.9503  139.9264  156.3539 H   0  0  0  0  0  0  0  0  0  0  0  0
  151.0707  139.2333  157.6929 H   0  0  0  0  0  0  0  0  0  0  0  0
  150.7880  137.9354  155.6111 H   0  0  0  0  0  0  0  0  0  0  0  0
  149.2501  138.5420  156.1528 H   0  0  0  0  0  0  0  0  0  0  0  0
  150.9960  139.7128  153.9328 H   0  0  0  0  0  0  0  0  0  0  0  0
  149.4599  138.9056  153.7240 H   0  0  0  0  0  0  0  0  0  0  0  0
  149.2386  141.3956  153.6083 H   0  0  0  0  0  0  0  0  0  0  0  0
  148.2766  140.7205  154.8922 H   0  0  0  0  0  0  0  0  0  0  0  0
  149.4754  142.7302  155.6690 H   0  0  0  0  0  0  0  0  0  0  0  0
  151.0014  142.0698  155.1564 H   0  0  0  0  0  0  0  0  0  0  0  0
  153.2623  144.5206  159.8695 H   0  0  0  0  0  0  0  0  0  0  0  0
  1  2  1  0  0  0  0
  1 22  1  0  0  0  0
  1 23  1  0  0  0  0
  1 24  1  0  0  0  0
  2  3  2  0  0  0  0
  2  4  1  0  0  0  0
  4  5  1  0  0  0  0
  4 25  1  0  0  0  0
  5  6  1  0  0  0  0
  5 26  1  0  0  0  0
  5 27  1  0  0  0  0
  6  7  2  0  0  0  0
  6  8  1  0  0  0  0
  8  9  1  0  0  0  0
  8 28  1  0  0  0  0
  9 10  1  0  0  0  0
  9 29  1  0  0  0  0
  9 30  1  0  0  0  0
 10 21  1  0  0  0  0
 10 11  1  0  0  0  0
 10 17  1  0  0  0  0
 11 16  1  0  0  0  0
 11 12  2  0  0  0  0
 12 13  1  0  0  0  0
 12 31  1  0  0  0  0
 13 14  2  0  0  0  0
 13 32  1  0  0  0  0
 14 15  1  0  0  0  0
 14 45  1  0  0  0  0
 15 16  2  0  0  0  0
 15 33  1  0  0  0  0
 16 34  1  0  0  0  0
 17 18  1  0  0  0  0
 17 35  1  0  0  0  0
 17 36  1  0  0  0  0
 18 19  1  0  0  0  0
 18 37  1  0  0  0  0
 18 38  1  0  0  0  0
 19 20  1  0  0  0  0
 19 39  1  0  0  0  0
 19 40  1  0  0  0  0
 20 21  1  0  0  0  0
 20 41  1  0  0  0  0
 20 42  1  0  0  0  0
 21 43  1  0  0  0  0
 21 44  1  0  0  0  0
M  CHG  1  14   1
M  END
> <s_m_source_file>
AV-unprocessed.smi

> <i_m_source_file_index>
2251

> <i_lp_mmshare_version>
43012

> <i_f3d_flags>
0

> <s_epik_input>
W0NIM11DKD1PKVtOSF1bQ0gyXUMoPU8pW05IXVtDSDJdQzEoW0NIMl1bQ0gyXVtDSDJdW0NIMl1bQ0gyXTEpYzJbY0hdW2NIXW5bY0hdW2NIXTI=

> <s_epik_cmdline>
J2VwaWtfcHl0aG9uJywgJy1waCcsICc3LjAnLCAnLXRuJywgJzgnLCAnLW1hJywgJzIwMCcsICctbWV0YWxfYmluZGluZycsICctaW1hZScsICc8aW5maWxlLm1hZT4nLCAnLW9tYWUnLCAnPG91dGZpbGUubWFlPic=

> <r_epik_Ionization_Penalty>
1.36815

> <r_epik_Ionization_Penalty_Charging>
1.36815

> <r_epik_Ionization_Penalty_Neutral>
3.04412e-07

> <r_epik_State_Penalty>
1.44763

> <r_epik_Charging_Adjusted_Penalty>
2.81578

> <i_epik_Tot_Q>
1

> <i_epik_Tot_abs_Q>
1

> <r_epik_Metal_State_Penalty>
1.50443

> <b_epik_Metal_Only>
0

> <s_lp_Force_Field>
OPLS_2005

> <r_lp_Energy>
22.2864

> <b_lp_Chiralities_Consistent>
1

> <s_lp_Variant>
AV-unprocessed.smi:2251-2

> <Gold.Version>
5.8.1

> <Gold.Id.Protein>
6NUR|6NUR_protein|mol2

> <Gold.PLP.Fitness>
47.4031

> <Gold.PLP.PLP>
-40.4705

> <Gold.PLP.part.hbond>
-3.0000

> <Gold.PLP.part.metal>
0.0000

> <Gold.PLP.part.buried>
-4.1239

> <Gold.PLP.part.nonpolar>
-33.5006

> <Gold.PLP.part.repulsive>
0.2098

> <Gold.PLP.ligand.clash>
0.0000

> <Gold.PLP.ligand.torsion>
0.2653

> <Gold.PLP.Chemscore.Hbond>
2.4720

> <Gold.PLP.Chemscore.CHOScore>
0.0000

> <Gold.PLP.Chemscore.Metal>
0.0000

> <Gold.Chemscore.Hbonds>
donor molecule, donor type, donor heavy atom, donor atom, acceptor molecule, acceptor atom, score
      L1  H     4    25       P1  8029  0.74
      P1  H  6933  6944       L1     3  0.49
      P1  H  6934  6946       L1     7  0.43

> <Gold.PLP.Chemscore.Internal.Correction>
0.0471

> <Gold.Rescore>
     Score         DG    S(hbond)    S(metal)    S(lipo)     H(rot)  DE(clash)    DE(int)     intcor
     17.46     -19.45       2.52        0.00      93.22       2.10       1.81       0.17       ----

> <Gold.Chemscore.Fitness>
17.4603

> <Gold.Chemscore.DG>
-19.4469

> <Gold.Chemscore.ZeroCoef>
-5.4800

> <Gold.Chemscore.Hbond>
2.5222

> <Gold.Chemscore.Metal>
0.0000

> <Gold.Chemscore.Lipo>
93.2163

> <Gold.Chemscore.Internal_Hbond>
0.0000

> <Gold.Chemscore.DEClash>
1.8131

> <Gold.Chemscore.DEInternal>
0.1735

> <Gold.Chemscore.Rot>
2.0952

> <Gold.Chemscore.Internal.Correction>
   9.000000E+99

> <Gold.Chemscore.Hbonds>
donor molecule, donor type, donor heavy atom, donor atom, acceptor molecule, acceptor atom, score
      L1  H     4    25       P1  8029  0.70
      L1  H     8    28       P1  8028  0.01
      P1  H  6933  6944       L1     3  0.21
      P1  H  6934  6946       L1     7  0.32

> <Gold.Chemscore.Hbond.Weighted>
-8.4242

> <Gold.Chemscore.Metal.Weighted>
-0.0000

> <Gold.Chemscore.Lipo.Weighted>
-10.9063

> <Gold.Chemscore.Internal_Hbond.Weighted>
0.0000

> <Gold.Chemscore.DEClash.Weighted>
1.8131

> <Gold.Chemscore.DEInternal.Weighted>
0.1735

> <Gold.Chemscore.Rot.Weighted>
5.3636

> <Gold.Chemscore.Internal.Correction.Weighted>
   9.000000E+99

> <Gold.Protein.RotatedTorsions>
[ 6907 6896 6895 6894 ] final -165.68 input  -60.11 | X-H torsion
[ 7974 7965 7964 7962 ] final  -89.32 input  175.53 | X-H torsion
[ 8008 7997 7996 7995 ] final -134.82 input   59.86 | X-H torsion
[ 10167 10162 10161 10158 ] final  -77.16 input  -65.29 | X-H torsion
[ 10718 10713 10712 10709 ] final -146.23 input   66.30 | X-H torsion
[ 10763 10752 10751 10750 ] final -122.45 input  -60.55 | X-H torsion
[ 11005 11000 10999 10996 ] final -177.08 input  -57.11 | X-H torsion

> <Gold.Protein.ActiveResidues>
 VAL166  LYS551  ARG553  GLY616  TRP617  ASP618  TYR619  PRO620  LYS621  CYS622 
 ASP623  PHE694  ASN695  SER759  ASP760  ASP761  ALA762  ILE779  LEU786  VAL792 
 PHE793  MET794  SER795  GLU796  ALA797  LYS798  CYS799  TRP800  GLU811  SER814 

> <Gold.Protein.RotatedAtoms>
  151.4315  133.3669  159.2769 H   0  0  0  0  0  0  0  0  0  0  0  0  # atno 6907 bound_to 6896
  150.9222  134.8640  159.7507 H   0  0  0  0  0  0  0  0  0  0  0  0  # atno 6908 bound_to 6896
  152.4987  134.4254  159.9546 H   0  0  0  0  0  0  0  0  0  0  0  0  # atno 6909 bound_to 6896
  145.4413  140.9559  143.2073 H   0  0  0  0  0  0  0  0  0  0  0  0  # atno 7974 bound_to 7965
  155.3684  140.0487  157.3046 H   0  0  0  0  0  0  0  0  0  0  0  0  # atno 8008 bound_to 7997
  154.5142  140.2202  155.9060 H   0  0  0  0  0  0  0  0  0  0  0  0  # atno 8009 bound_to 7997
  156.1618  140.3115  155.8825 H   0  0  0  0  0  0  0  0  0  0  0  0  # atno 8010 bound_to 7997
  140.4795  143.2406  151.8081 H   0  0  0  0  0  0  0  0  0  0  0  0  # atno 10167 bound_to 10162
  156.3923  130.7892  151.2095 H   0  0  0  0  0  0  0  0  0  0  0  0  # atno 10718 bound_to 10713
  154.8689  135.4132  154.2783 H   0  0  0  0  0  0  0  0  0  0  0  0  # atno 10763 bound_to 10752
  153.3681  135.7006  153.6665 H   0  0  0  0  0  0  0  0  0  0  0  0  # atno 10764 bound_to 10752
  153.5538  135.3623  155.2743 H   0  0  0  0  0  0  0  0  0  0  0  0  # atno 10765 bound_to 10752
  140.4449  134.6397  157.4775 H   0  0  0  0  0  0  0  0  0  0  0  0  # atno 11005 bound_to 11000
  144.8119  139.5946  143.7025 LP  0  0  0  0  0  0  0  0  0  0  0  0  # atno 17320 bound_to 7965
  146.2554  139.6291  142.9398 LP  0  0  0  0  0  0  0  0  0  0  0  0  # atno 17321 bound_to 7965
  139.4831  144.4791  151.9329 LP  0  0  0  0  0  0  0  0  0  0  0  0  # atno 17342 bound_to 10162
  140.3876  144.2656  150.5902 LP  0  0  0  0  0  0  0  0  0  0  0  0  # atno 17343 bound_to 10162
  157.7499  131.0312  150.4170 LP  0  0  0  0  0  0  0  0  0  0  0  0  # atno 17370 bound_to 10713
  156.4433  130.3996  149.6683 LP  0  0  0  0  0  0  0  0  0  0  0  0  # atno 17371 bound_to 10713
  140.0045  134.6785  155.9477 LP  0  0  0  0  0  0  0  0  0  0  0  0  # atno 17394 bound_to 11000
  141.1689  133.6537  156.4580 LP  0  0  0  0  0  0  0  0  0  0  0  0  # atno 17395 bound_to 11000

$$$$
