AV-unprocessed.smi:538|AV-procd|sdf|2866|dock1
  -GOLD-   2262023353D 1   1.00000     0.00000
 Structure written by MMmdl.
 43 44  0  0  0  0  0  0  0  0  1 V2000
  145.9243  142.9940  154.6847 C   0  0  0  0  0  0  0  0  0  0  0  0
  147.1442  142.5635  154.1077 O   0  0  0  0  0  0  0  0  0  0  0  0
  147.8869  141.7226  154.9754 C   0  0  0  0  0  0  0  0  0  0  0  0
  149.2137  141.3495  154.3021 C   0  0  0  0  0  0  0  0  0  0  0  0
  150.1071  140.6534  155.2098 N   0  0  0  0  0  0  0  0  0  0  0  0
  150.7106  141.0378  156.4008 C   0  0  0  0  0  0  0  0  0  0  0  0
  150.5597  142.2338  156.9741 N   0  0  0  0  0  0  0  0  0  0  0  0
  151.3518  142.1304  158.1092 C   0  0  0  0  0  0  0  0  0  0  0  0
  151.9400  140.9131  158.1829 C   0  0  0  0  0  0  0  0  0  0  0  0
  152.8420  140.5311  159.2742 C   0  0  0  0  0  0  0  0  0  0  0  0
  153.3719  139.4194  159.3130 O   0  0  0  0  0  0  0  0  0  0  0  0
  153.0286  141.5099  160.2135 N   0  0  0  0  0  0  0  0  0  0  0  0
  153.9276  141.1616  161.3297 C   0  0  0  0  0  0  0  0  0  0  0  0
  152.4388  142.7628  160.1874 C   0  0  0  0  0  0  0  0  0  0  0  0
  152.6408  143.5904  161.0799 O   0  0  0  0  0  0  0  0  0  0  0  0
  151.6115  143.0735  159.1369 N   0  0  0  0  0  0  0  0  0  0  0  0
  150.9728  144.3912  159.0727 C   0  0  0  0  0  0  0  0  0  0  0  0
  151.5205  140.1813  157.0712 N   0  0  0  0  0  0  0  0  0  0  0  0
  151.8742  138.8122  156.7072 C   0  0  0  0  0  0  0  0  0  0  0  0
  152.4927  138.7289  155.3048 C   0  0  0  0  0  0  0  0  0  0  0  0
  152.1672  137.4816  154.7134 O   0  0  0  0  0  0  0  0  0  0  0  0
  150.7724  137.2372  154.6924 C   0  0  0  0  0  0  0  0  0  0  0  0
  145.3946  143.6385  153.9833 H   0  0  0  0  0  0  0  0  0  0  0  0
  146.0984  143.5624  155.5992 H   0  0  0  0  0  0  0  0  0  0  0  0
  145.2778  142.1465  154.9164 H   0  0  0  0  0  0  0  0  0  0  0  0
  148.0892  142.2552  155.9057 H   0  0  0  0  0  0  0  0  0  0  0  0
  147.3179  140.8273  155.2315 H   0  0  0  0  0  0  0  0  0  0  0  0
  149.0351  140.7289  153.4238 H   0  0  0  0  0  0  0  0  0  0  0  0
  149.7178  142.2520  153.9556 H   0  0  0  0  0  0  0  0  0  0  0  0
  150.3099  139.7058  154.9258 H   0  0  0  0  0  0  0  0  0  0  0  0
  154.1376  141.9751  162.0244 H   0  0  0  0  0  0  0  0  0  0  0  0
  154.8964  140.8275  160.9542 H   0  0  0  0  0  0  0  0  0  0  0  0
  153.4992  140.3485  161.9181 H   0  0  0  0  0  0  0  0  0  0  0  0
  151.7230  145.1833  159.0834 H   0  0  0  0  0  0  0  0  0  0  0  0
  150.3113  144.5362  159.9280 H   0  0  0  0  0  0  0  0  0  0  0  0
  150.3741  144.5276  158.1718 H   0  0  0  0  0  0  0  0  0  0  0  0
  152.5608  138.4119  157.4524 H   0  0  0  0  0  0  0  0  0  0  0  0
  150.9869  138.1813  156.7611 H   0  0  0  0  0  0  0  0  0  0  0  0
  152.1230  139.5453  154.6825 H   0  0  0  0  0  0  0  0  0  0  0  0
  153.5761  138.8369  155.3731 H   0  0  0  0  0  0  0  0  0  0  0  0
  150.5769  136.2747  154.2198 H   0  0  0  0  0  0  0  0  0  0  0  0
  150.2452  138.0048  154.1244 H   0  0  0  0  0  0  0  0  0  0  0  0
  150.3632  137.2053  155.7029 H   0  0  0  0  0  0  0  0  0  0  0  0
  1  2  1  0  0  0  0
  1 23  1  0  0  0  0
  1 24  1  0  0  0  0
  1 25  1  0  0  0  0
  2  3  1  0  0  0  0
  3  4  1  0  0  0  0
  3 26  1  0  0  0  0
  3 27  1  0  0  0  0
  4  5  1  0  0  0  0
  4 28  1  0  0  0  0
  4 29  1  0  0  0  0
  5  6  1  0  0  0  0
  5 30  1  0  0  0  0
  6 18  1  0  0  0  0
  6  7  2  0  0  0  0
  7  8  1  0  0  0  0
  8 16  1  0  0  0  0
  8  9  2  0  0  0  0
  9 10  1  0  0  0  0
  9 18  1  0  0  0  0
 10 11  2  0  0  0  0
 10 12  1  0  0  0  0
 12 13  1  0  0  0  0
 12 14  1  0  0  0  0
 13 31  1  0  0  0  0
 13 32  1  0  0  0  0
 13 33  1  0  0  0  0
 14 15  2  0  0  0  0
 14 16  1  0  0  0  0
 16 17  1  0  0  0  0
 17 34  1  0  0  0  0
 17 35  1  0  0  0  0
 17 36  1  0  0  0  0
 18 19  1  0  0  0  0
 19 20  1  0  0  0  0
 19 37  1  0  0  0  0
 19 38  1  0  0  0  0
 20 21  1  0  0  0  0
 20 39  1  0  0  0  0
 20 40  1  0  0  0  0
 21 22  1  0  0  0  0
 22 41  1  0  0  0  0
 22 42  1  0  0  0  0
 22 43  1  0  0  0  0
M  END
> <s_m_source_file>
AV-unprocessed.smi

> <i_m_source_file_index>
538

> <i_lp_mmshare_version>
43012

> <i_f3d_flags>
0

> <s_epik_input>
W0NIM11PW0NIMl1bQ0gyXVtOSF1jKG4xKW4oW0NIMl1bQ0gyXU9bQ0gzXSljKGMxMiljKD1PKW4oW0NIM10pYyg9TyluMltDSDNd

> <s_epik_cmdline>
J2VwaWtfcHl0aG9uJywgJy1waCcsICc3LjAnLCAnLXRuJywgJzgnLCAnLW1hJywgJzIwMCcsICctbWV0YWxfYmluZGluZycsICctaW1hZScsICc8aW5maWxlLm1hZT4nLCAnLW9tYWUnLCAnPG91dGZpbGUubWFlPic=

> <r_lp_tautomer_probability>
1

> <r_epik_Ionization_Penalty>
5.57243e-05

> <r_epik_Ionization_Penalty_Charging>
2.44156e-09

> <r_epik_Ionization_Penalty_Neutral>
5.57218e-05

> <r_epik_State_Penalty>
-0

> <r_epik_Charging_Adjusted_Penalty>
2.44156e-09

> <i_epik_Tot_Q>
0

> <i_epik_Tot_abs_Q>
0

> <r_epik_Metal_State_Penalty>
-0

> <b_epik_Metal_Only>
0

> <s_lp_Force_Field>
OPLS_2005

> <r_lp_Energy>
28.2468

> <b_lp_Chiralities_Consistent>
1

> <s_lp_Variant>
AV-unprocessed.smi:538-1

> <Gold.Version>
5.8.1

> <Gold.Id.Protein>
6NUR|6NUR_protein|mol2

> <Gold.PLP.Fitness>
45.8065

> <Gold.PLP.PLP>
-43.8110

> <Gold.PLP.part.hbond>
-1.0000

> <Gold.PLP.part.metal>
0.0000

> <Gold.PLP.part.buried>
-6.0731

> <Gold.PLP.part.nonpolar>
-38.0001

> <Gold.PLP.part.repulsive>
0.6103

> <Gold.PLP.ligand.clash>
0.0000

> <Gold.PLP.ligand.torsion>
0.2432

> <Gold.PLP.Chemscore.Hbond>
0.8000

> <Gold.PLP.Chemscore.CHOScore>
0.0000

> <Gold.PLP.Chemscore.Metal>
0.0000

> <Gold.Chemscore.Hbonds>
donor molecule, donor type, donor heavy atom, donor atom, acceptor molecule, acceptor atom, score
      P1  H 10752 10764       L1    21  0.77

> <Gold.PLP.Chemscore.Internal.Correction>
0.0818

> <Gold.Rescore>
     Score         DG    S(hbond)    S(metal)    S(lipo)     H(rot)  DE(clash)    DE(int)     intcor
     10.23     -10.52       0.91        0.00      66.91       2.28       0.02       0.26       ----

> <Gold.Chemscore.Fitness>
10.2333

> <Gold.Chemscore.DG>
-10.5183

> <Gold.Chemscore.ZeroCoef>
-5.4800

> <Gold.Chemscore.Hbond>
0.9119

> <Gold.Chemscore.Metal>
0.0000

> <Gold.Chemscore.Lipo>
66.9111

> <Gold.Chemscore.Internal_Hbond>
0.0000

> <Gold.Chemscore.DEClash>
0.0243

> <Gold.Chemscore.DEInternal>
0.2607

> <Gold.Chemscore.Rot>
2.2797

> <Gold.Chemscore.Internal.Correction>
   9.000000E+99

> <Gold.Chemscore.Hbonds>
donor molecule, donor type, donor heavy atom, donor atom, acceptor molecule, acceptor atom, score
      P1  H 10752 10764       L1    21  0.29

> <Gold.Chemscore.Hbond.Weighted>
-3.0459

> <Gold.Chemscore.Metal.Weighted>
-0.0000

> <Gold.Chemscore.Lipo.Weighted>
-7.8286

> <Gold.Chemscore.Internal_Hbond.Weighted>
0.0000

> <Gold.Chemscore.DEClash.Weighted>
0.0243

> <Gold.Chemscore.DEInternal.Weighted>
0.2607

> <Gold.Chemscore.Rot.Weighted>
5.8361

> <Gold.Chemscore.Internal.Correction.Weighted>
   9.000000E+99

> <Gold.Protein.RotatedTorsions>
[ 6907 6896 6895 6894 ] final -121.51 input  -60.11 | X-H torsion
[ 7974 7965 7964 7962 ] final  -81.08 input  175.53 | X-H torsion
[ 8008 7997 7996 7995 ] final  -95.03 input   59.86 | X-H torsion
[ 10167 10162 10161 10158 ] final   89.53 input  -65.29 | X-H torsion
[ 10718 10713 10712 10709 ] final  -51.07 input   66.30 | X-H torsion
[ 10763 10752 10751 10750 ] final  -68.94 input  -60.55 | X-H torsion
[ 11005 11000 10999 10996 ] final -164.19 input  -57.11 | X-H torsion

> <Gold.Protein.ActiveResidues>
 VAL166  LYS551  ARG553  GLY616  TRP617  ASP618  TYR619  PRO620  LYS621  CYS622 
 ASP623  PHE694  ASN695  SER759  ASP760  ASP761  ALA762  ILE779  LEU786  VAL792 
 PHE793  MET794  SER795  GLU796  ALA797  LYS798  CYS799  TRP800  GLU811  SER814 

> <Gold.Protein.RotatedAtoms>
  150.8490  133.7817  159.3032 H   0  0  0  0  0  0  0  0  0  0  0  0  # atno 6907 bound_to 6896
  151.5495  135.1066  159.9956 H   0  0  0  0  0  0  0  0  0  0  0  0  # atno 6908 bound_to 6896
  152.4537  133.7637  159.6816 H   0  0  0  0  0  0  0  0  0  0  0  0  # atno 6909 bound_to 6896
  145.5514  140.9496  143.1497 H   0  0  0  0  0  0  0  0  0  0  0  0  # atno 7974 bound_to 7965
  154.7560  140.0484  157.0934 H   0  0  0  0  0  0  0  0  0  0  0  0  # atno 8008 bound_to 7997
  154.9997  140.3123  155.4853 H   0  0  0  0  0  0  0  0  0  0  0  0  # atno 8009 bound_to 7997
  156.2895  140.2203  156.5106 H   0  0  0  0  0  0  0  0  0  0  0  0  # atno 8010 bound_to 7997
  139.8564  144.6567  150.9109 H   0  0  0  0  0  0  0  0  0  0  0  0  # atno 10167 bound_to 10162
  156.1743  130.4149  149.9601 H   0  0  0  0  0  0  0  0  0  0  0  0  # atno 10718 bound_to 10713
  154.3962  135.6041  153.5871 H   0  0  0  0  0  0  0  0  0  0  0  0  # atno 10763 bound_to 10752
  152.9787  135.5895  154.4238 H   0  0  0  0  0  0  0  0  0  0  0  0  # atno 10764 bound_to 10752
  154.4030  135.2843  155.2063 H   0  0  0  0  0  0  0  0  0  0  0  0  # atno 10765 bound_to 10752
  140.5897  134.5057  157.5191 H   0  0  0  0  0  0  0  0  0  0  0  0  # atno 11005 bound_to 11000
  144.7527  139.7151  143.7266 LP  0  0  0  0  0  0  0  0  0  0  0  0  # atno 17320 bound_to 7965
  146.1914  139.5157  142.9802 LP  0  0  0  0  0  0  0  0  0  0  0  0  # atno 17321 bound_to 7965
  140.7781  143.3782  151.1524 LP  0  0  0  0  0  0  0  0  0  0  0  0  # atno 17342 bound_to 10162
  139.7416  143.8916  152.3051 LP  0  0  0  0  0  0  0  0  0  0  0  0  # atno 17343 bound_to 10162
  156.7391  130.9073  151.3631 LP  0  0  0  0  0  0  0  0  0  0  0  0  # atno 17370 bound_to 10713
  157.6824  130.9153  150.0301 LP  0  0  0  0  0  0  0  0  0  0  0  0  # atno 17371 bound_to 10713
  139.9279  134.8019  156.1014 LP  0  0  0  0  0  0  0  0  0  0  0  0  # atno 17394 bound_to 11000
  141.0943  133.6702  156.2609 LP  0  0  0  0  0  0  0  0  0  0  0  0  # atno 17395 bound_to 11000

$$$$
