AV-unprocessed.smi:2185|AV-procd|sdf|8875|dock10
  -GOLD-   2272012 73D 1   1.00000     0.00000
 Structure written by MMmdl.
 38 39  0  0  0  0  0  0  0  0  1 V2000
  149.8745  141.9949  157.1064 C   0  0  0  0  0  0  0  0  0  0  0  0
  149.9568  140.3654  156.2577 S   0  0  0  0  0  0  0  0  0  0  0  0
  150.7252  140.5350  155.0150 O   0  0  0  0  0  0  0  0  0  0  0  0
  150.3757  139.3556  157.2419 O   0  0  0  0  0  0  0  0  0  0  0  0
  148.3059  140.0312  155.8202 N   0  0  0  0  0  0  0  0  0  0  0  0
  147.7966  140.4342  154.4940 C   0  0  0  0  0  0  0  0  0  0  0  0
  147.7334  139.2423  153.5231 C   0  0  0  0  0  0  0  0  0  0  0  0
  146.9254  138.0792  154.1164 C   0  0  0  0  0  0  0  0  0  0  0  0
  146.9339  136.9489  153.1923 N   0  0  0  0  0  0  0  0  0  0  0  0
  145.8838  136.1588  152.9266 C   0  0  0  0  0  0  0  0  0  0  0  0
  144.7791  136.3009  153.4497 O   0  0  0  0  0  0  0  0  0  0  0  0
  146.2019  135.2223  152.0163 N   0  0  0  0  0  0  0  0  0  0  0  0
  145.3809  134.2033  151.4607 C   0  0  0  0  0  0  0  0  0  0  0  0
  145.8139  133.2581  150.4988 C   0  0  0  0  0  0  0  0  0  0  0  0
  144.8925  132.3086  150.0161 C   0  0  0  0  0  0  0  0  0  0  0  0
  143.5725  132.3415  150.5061 C   0  0  0  0  0  0  0  0  0  0  0  0
  143.1428  133.2430  151.4136 N   0  0  0  0  0  0  0  0  0  0  0  0
  144.0316  134.1502  151.8714 C   0  0  0  0  0  0  0  0  0  0  0  0
  147.5289  137.6830  155.4743 C   0  0  0  0  0  0  0  0  0  0  0  0
  147.5988  138.8871  156.4307 C   0  0  0  0  0  0  0  0  0  0  0  0
  150.8777  142.2825  157.4199 H   0  0  0  0  0  0  0  0  0  0  0  0
  149.2363  141.9244  157.9852 H   0  0  0  0  0  0  0  0  0  0  0  0
  149.4886  142.7494  156.4230 H   0  0  0  0  0  0  0  0  0  0  0  0
  146.7976  140.8525  154.6224 H   0  0  0  0  0  0  0  0  0  0  0  0
  148.4107  141.2313  154.0763 H   0  0  0  0  0  0  0  0  0  0  0  0
  147.2840  139.5646  152.5831 H   0  0  0  0  0  0  0  0  0  0  0  0
  148.7417  138.9089  153.2793 H   0  0  0  0  0  0  0  0  0  0  0  0
  145.8972  138.4152  154.2649 H   0  0  0  0  0  0  0  0  0  0  0  0
  147.8029  136.7599  152.7146 H   0  0  0  0  0  0  0  0  0  0  0  0
  147.1339  135.2788  151.6327 H   0  0  0  0  0  0  0  0  0  0  0  0
  146.8206  133.2478  150.1117 H   0  0  0  0  0  0  0  0  0  0  0  0
  145.1906  131.5740  149.2827 H   0  0  0  0  0  0  0  0  0  0  0  0
  142.8411  131.6287  150.1553 H   0  0  0  0  0  0  0  0  0  0  0  0
  143.6513  134.8573  152.5944 H   0  0  0  0  0  0  0  0  0  0  0  0
  146.9326  136.8937  155.9335 H   0  0  0  0  0  0  0  0  0  0  0  0
  148.5244  137.2646  155.3292 H   0  0  0  0  0  0  0  0  0  0  0  0
  148.0776  138.6005  157.3664 H   0  0  0  0  0  0  0  0  0  0  0  0
  146.5880  139.2056  156.6877 H   0  0  0  0  0  0  0  0  0  0  0  0
  1  2  1  0  0  0  0
  1 21  1  0  0  0  0
  1 22  1  0  0  0  0
  1 23  1  0  0  0  0
  2  3  2  0  0  0  0
  2  4  2  0  0  0  0
  2  5  1  0  0  0  0
  5 20  1  0  0  0  0
  5  6  1  0  0  0  0
  6  7  1  0  0  0  0
  6 24  1  0  0  0  0
  6 25  1  0  0  0  0
  7  8  1  0  0  0  0
  7 26  1  0  0  0  0
  7 27  1  0  0  0  0
  8  9  1  0  0  0  0
  8 19  1  0  0  0  0
  8 28  1  0  0  0  0
  9 10  1  0  0  0  0
  9 29  1  0  0  0  0
 10 11  2  0  0  0  0
 10 12  1  0  0  0  0
 12 13  1  0  0  0  0
 12 30  1  0  0  0  0
 13 18  1  0  0  0  0
 13 14  2  0  0  0  0
 14 15  1  0  0  0  0
 14 31  1  0  0  0  0
 15 16  2  0  0  0  0
 15 32  1  0  0  0  0
 16 17  1  0  0  0  0
 16 33  1  0  0  0  0
 17 18  2  0  0  0  0
 18 34  1  0  0  0  0
 19 20  1  0  0  0  0
 19 35  1  0  0  0  0
 19 36  1  0  0  0  0
 20 37  1  0  0  0  0
 20 38  1  0  0  0  0
M  END
> <s_m_source_file>
AV-unprocessed.smi

> <i_m_source_file_index>
2185

> <i_lp_mmshare_version>
43012

> <i_f3d_flags>
0

> <s_epik_input>
W0NIM11TKD1PKSg9TylOMVtDSDJdW0NIMl1bQ0hdKFtDSDJdW0NIMl0xKVtOSF1DKD1PKVtOSF1jMltjSF1bY0hdW2NIXW5bY0hdMg==

> <s_epik_cmdline>
J2VwaWtfcHl0aG9uJywgJy1waCcsICc3LjAnLCAnLXRuJywgJzgnLCAnLW1hJywgJzIwMCcsICctbWV0YWxfYmluZGluZycsICctaW1hZScsICc8aW5maWxlLm1hZT4nLCAnLW9tYWUnLCAnPG91dGZpbGUubWFlPic=

> <r_epik_Ionization_Penalty>
0.00480481

> <r_epik_Ionization_Penalty_Charging>
0

> <r_epik_Ionization_Penalty_Neutral>
0.00480481

> <r_epik_State_Penalty>
0.00345682

> <r_epik_Charging_Adjusted_Penalty>
0.00345682

> <i_epik_Tot_Q>
0

> <i_epik_Tot_abs_Q>
0

> <r_epik_Metal_State_Penalty>
-0

> <b_epik_Metal_Only>
0

> <s_lp_Force_Field>
OPLS_2005

> <r_lp_Energy>
2.72974

> <b_lp_Chiralities_Consistent>
1

> <s_lp_Variant>
AV-unprocessed.smi:2185-1

> <Gold.Version>
5.8.1

> <Gold.Id.Protein>
6NUR|6NUR_protein|mol2

> <Gold.PLP.Fitness>
35.5473

> <Gold.PLP.PLP>
-24.4690

> <Gold.PLP.part.hbond>
-2.9637

> <Gold.PLP.part.metal>
0.0000

> <Gold.PLP.part.buried>
-3.9517

> <Gold.PLP.part.nonpolar>
-17.3591

> <Gold.PLP.part.repulsive>
0.8989

> <Gold.PLP.ligand.clash>
0.0000

> <Gold.PLP.ligand.torsion>
1.3171

> <Gold.PLP.Chemscore.Hbond>
2.8873

> <Gold.PLP.Chemscore.CHOScore>
1.0000

> <Gold.PLP.Chemscore.Metal>
0.0000

> <Gold.Chemscore.Hbonds>
donor molecule, donor type, donor heavy atom, donor atom, acceptor molecule, acceptor atom, score
      L1  H     9    29       P1  7948  0.99
      L1  H    12    30       P1  7948  0.90
      P1  H  7989  7998       L1     3  1.00
      L1  C    16    33       P1 10952  1.00

> <Gold.PLP.Chemscore.Internal.Correction>
2.0507

> <Gold.Rescore>
     Score         DG    S(hbond)    S(metal)    S(lipo)     H(rot)  DE(clash)    DE(int)     intcor
     16.06     -18.83       2.81        0.00      55.80       1.00       0.04       2.74       ----

> <Gold.Chemscore.Fitness>
16.0595

> <Gold.Chemscore.DG>
-18.8306

> <Gold.Chemscore.ZeroCoef>
-5.4800

> <Gold.Chemscore.Hbond>
2.8091

> <Gold.Chemscore.Metal>
0.0000

> <Gold.Chemscore.Lipo>
55.7958

> <Gold.Chemscore.Internal_Hbond>
0.0000

> <Gold.Chemscore.DEClash>
0.0354

> <Gold.Chemscore.DEInternal>
2.7357

> <Gold.Chemscore.Rot>
1.0000

> <Gold.Chemscore.Internal.Correction>
   9.000000E+99

> <Gold.Chemscore.Hbonds>
donor molecule, donor type, donor heavy atom, donor atom, acceptor molecule, acceptor atom, score
      L1  H     9    29       P1  7948  0.92
      L1  H    12    30       P1  7948  0.81
      P1  H  7989  7998       L1     3  0.94

> <Gold.Chemscore.Hbond.Weighted>
-9.3825

> <Gold.Chemscore.Metal.Weighted>
-0.0000

> <Gold.Chemscore.Lipo.Weighted>
-6.5281

> <Gold.Chemscore.Internal_Hbond.Weighted>
0.0000

> <Gold.Chemscore.DEClash.Weighted>
0.0354

> <Gold.Chemscore.DEInternal.Weighted>
2.7357

> <Gold.Chemscore.Rot.Weighted>
2.5600

> <Gold.Chemscore.Internal.Correction.Weighted>
   9.000000E+99

> <Gold.Protein.RotatedTorsions>
[ 6907 6896 6895 6894 ] final   65.87 input  -60.11 | X-H torsion
[ 7974 7965 7964 7962 ] final  118.28 input  175.53 | X-H torsion
[ 8008 7997 7996 7995 ] final   -7.15 input   59.86 | X-H torsion
[ 10167 10162 10161 10158 ] final  156.58 input  -65.29 | X-H torsion
[ 10718 10713 10712 10709 ] final  -37.55 input   66.30 | X-H torsion
[ 10763 10752 10751 10750 ] final -132.07 input  -60.55 | X-H torsion
[ 11005 11000 10999 10996 ] final  139.89 input  -57.11 | X-H torsion

> <Gold.Protein.ActiveResidues>
 VAL166  LYS551  ARG553  GLY616  TRP617  ASP618  TYR619  PRO620  LYS621  CYS622 
 ASP623  PHE694  ASN695  SER759  ASP760  ASP761  ALA762  ILE779  LEU786  VAL792 
 PHE793  MET794  SER795  GLU796  ALA797  LYS798  CYS799  TRP800  GLU811  SER814 

> <Gold.Protein.RotatedAtoms>
  152.4439  134.5534  159.9873 H   0  0  0  0  0  0  0  0  0  0  0  0  # atno 6907 bound_to 6896
  151.5624  133.3395  159.2981 H   0  0  0  0  0  0  0  0  0  0  0  0  # atno 6908 bound_to 6896
  150.8351  134.7654  159.6950 H   0  0  0  0  0  0  0  0  0  0  0  0  # atno 6909 bound_to 6896
  145.1571  139.3176  143.4536 H   0  0  0  0  0  0  0  0  0  0  0  0  # atno 7974 bound_to 7965
  154.5867  140.2414  155.7978 H   0  0  0  0  0  0  0  0  0  0  0  0  # atno 8008 bound_to 7997
  156.2218  140.2995  155.9926 H   0  0  0  0  0  0  0  0  0  0  0  0  # atno 8009 bound_to 7997
  155.2446  140.0408  157.2969 H   0  0  0  0  0  0  0  0  0  0  0  0  # atno 8010 bound_to 7997
  139.4821  144.4996  151.8188 H   0  0  0  0  0  0  0  0  0  0  0  0  # atno 10167 bound_to 10162
  156.3139  130.4256  149.8023 H   0  0  0  0  0  0  0  0  0  0  0  0  # atno 10718 bound_to 10713
  154.8746  135.3809  154.4350 H   0  0  0  0  0  0  0  0  0  0  0  0  # atno 10763 bound_to 10752
  153.5040  135.7030  153.5821 H   0  0  0  0  0  0  0  0  0  0  0  0  # atno 10764 bound_to 10752
  153.4140  135.3917  155.2035 H   0  0  0  0  0  0  0  0  0  0  0  0  # atno 10765 bound_to 10752
  140.0287  134.9362  157.0620 H   0  0  0  0  0  0  0  0  0  0  0  0  # atno 11005 bound_to 11000
  146.3487  140.1667  142.8590 LP  0  0  0  0  0  0  0  0  0  0  0  0  # atno 17320 bound_to 7965
  145.0370  140.8915  143.5075 LP  0  0  0  0  0  0  0  0  0  0  0  0  # atno 17321 bound_to 7965
  140.4488  144.1884  150.5896 LP  0  0  0  0  0  0  0  0  0  0  0  0  # atno 17342 bound_to 10162
  140.4607  143.2450  151.9224 LP  0  0  0  0  0  0  0  0  0  0  0  0  # atno 17343 bound_to 10162
  156.5356  130.8277  151.3252 LP  0  0  0  0  0  0  0  0  0  0  0  0  # atno 17370 bound_to 10713
  157.7397  130.9837  150.2332 LP  0  0  0  0  0  0  0  0  0  0  0  0  # atno 17371 bound_to 10713
  140.4262  134.1828  155.7166 LP  0  0  0  0  0  0  0  0  0  0  0  0  # atno 17394 bound_to 11000
  141.1818  133.8397  157.1230 LP  0  0  0  0  0  0  0  0  0  0  0  0  # atno 17395 bound_to 11000

$$$$
