#       Name:                AV-unprocessed.smi:1244
#       Creating user name   scv26
#       Creation time:       Fri Mar 27 04:32:49 2020


#       File generated by GOLD software.
#

@<TRIPOS>MOLECULE
AV-unprocessed.smi:1244
    61    63     1
SMALL
NO_CHARGES


@<TRIPOS>ATOM
      1 ****        -4.9039   4.1797   0.7628 C.3            1 S1                 0.0000
      2 ****        -3.4858   4.2001   0.1814 C.3            1 S1                 0.0000
      3 ****        -2.8477   2.7996   0.1690 C.3            1 S1                 0.0000
      4 ****        -1.5160   2.8397  -0.4784 N.4            1 S1                 1.0000
      5 ****        -0.8220   1.5291  -0.4209 C.3            1 S1                 0.0000
      6 ****         0.6983   1.6570  -0.6358 C.3            1 S1                 0.0000
      7 ****         1.3645   0.3661  -0.5107 N.am           1 S1                 0.0000
      8 ****         1.6799  -0.2214   0.6521 C.2            1 S1                 0.0000
      9 ****         1.4294   0.2729   1.7516 O.2            1 S1                 0.0000
     10 ****         2.2721  -1.4106   0.4544 N.am           1 S1                 0.0000
     11 ****         2.7128  -2.3389   1.4390 C.ar           1 S1                 0.0000
     12 ****         3.2666  -1.9023   2.6672 C.ar           1 S1                 0.0000
     13 ****         3.7555  -2.8522   3.5801 C.ar           1 S1                 0.0000
     14 ****         3.6891  -4.2098   3.2253 C.ar           1 S1                 0.0000
     15 ****         3.1774  -4.6409   2.0551 N.ar           1 S1                 0.0000
     16 ****         2.6876  -3.7376   1.1702 C.ar           1 S1                 0.0000
     17 ****         2.1447  -4.2490  -0.0311 N.3            1 S1                 0.0000
     18 ****         2.3894  -5.6333  -0.4231 C.3            1 S1                 0.0000
     19 ****         1.3553  -5.9267  -1.5061 C.3            1 S1                 0.0000
     20 ****         0.1480  -5.1249  -1.0299 C.3            1 S1                 0.0000
     21 ****         0.7695  -3.8909  -0.3674 C.3            1 S1                 0.0000
     22 ****        -1.6269   3.3950  -1.8501 C.3            1 S1                 0.0000
     23 ****        -2.3177   4.7732  -1.8396 C.3            1 S1                 0.0000
     24 ****        -1.4244   5.9047  -1.3002 C.3            1 S1                 0.0000
     25 ****        -3.5664   4.6954  -1.1524 O.3            1 S1                 0.0000
     26 ****        -4.9020   3.8196   1.7919 H              1 S1                 0.0000
     27 ****        -5.5597   3.5303   0.1820 H              1 S1                 0.0000
     28 ****        -5.3401   5.1789   0.7623 H              1 S1                 0.0000
     29 ****        -2.8816   4.8735   0.7899 H              1 S1                 0.0000
     30 ****        -2.7491   2.4370   1.1930 H              1 S1                 0.0000
     31 ****        -3.4891   2.0931  -0.3607 H              1 S1                 0.0000
     32 ****        -0.9954   1.0855   0.5606 H              1 S1                 0.0000
     33 ****        -1.2601   0.8447  -1.1491 H              1 S1                 0.0000
     34 ****         0.9196   2.0386  -1.6317 H              1 S1                 0.0000
     35 ****         1.1268   2.3681   0.0727 H              1 S1                 0.0000
     36 ****         1.6052  -0.1112  -1.3675 H              1 S1                 0.0000
     37 ****         2.3200  -1.7368  -0.4999 H              1 S1                 0.0000
     38 ****         3.3455  -0.8541   2.9127 H              1 S1                 0.0000
     39 ****         4.1832  -2.5460   4.5232 H              1 S1                 0.0000
     40 ****         4.0622  -4.9699   3.8955 H              1 S1                 0.0000
     41 ****         3.4081  -5.7686  -0.7877 H              1 S1                 0.0000
     42 ****         2.2329  -6.3094   0.4186 H              1 S1                 0.0000
     43 ****         1.7009  -5.5445  -2.4677 H              1 S1                 0.0000
     44 ****         1.1460  -6.9908  -1.6170 H              1 S1                 0.0000
     45 ****        -0.5406  -4.8716  -1.8363 H              1 S1                 0.0000
     46 ****        -0.4033  -5.7020  -0.2861 H              1 S1                 0.0000
     47 ****         0.1987  -3.5799   0.5088 H              1 S1                 0.0000
     48 ****         0.7857  -3.0602  -1.0733 H              1 S1                 0.0000
     49 ****        -0.6453   3.4853  -2.3141 H              1 S1                 0.0000
     50 ****        -2.2030   2.7036  -2.4671 H              1 S1                 0.0000
     51 ****        -2.5589   5.0295  -2.8717 H              1 S1                 0.0000
     52 ****        -0.5423   6.0326  -1.9280 H              1 S1                 0.0000
     53 ****        -1.0742   5.7100  -0.2868 H              1 S1                 0.0000
     54 ****        -1.9619   6.8532  -1.2926 H              1 S1                 0.0000
     55 ****        -0.9581   3.4858   0.0618 H              1 S1                 0.0000
     56 ****         0.9672   1.1579   1.8084 LP             1 S1                 0.0000
     57 ****         1.6881  -0.2106   2.5879 LP             1 S1                 0.0000
     58 ****         3.1592  -5.6176   1.8416 LP             1 S1                 0.0000
     59 ****         2.7679  -3.7032  -0.5913 LP             1 S1                 0.0000
     60 ****        -3.9610   5.6137  -1.1197 LP             1 S1                 0.0000
     61 ****        -4.1703   4.0914  -1.6724 LP             1 S1                 0.0000
@<TRIPOS>BOND
    1    1    2 1     
    2    1   26 1     
    3    1   27 1     
    4    1   28 1     
    5    2   25 1     
    6    2    3 1     
    7    2   29 1     
    8    3    4 1     
    9    3   30 1     
   10    3   31 1     
   11    4    5 1     
   12    4   22 1     
   13    4   55 1     
   14    5    6 1     
   15    5   32 1     
   16    5   33 1     
   17    6    7 1     
   18    6   34 1     
   19    6   35 1     
   20    7    8 am    
   21    7   36 1     
   22    8    9 2     
   23    8   10 am    
   24   10   11 1     
   25   10   37 1     
   26   11   16 ar    
   27   11   12 ar    
   28   12   13 ar    
   29   12   38 1     
   30   13   14 ar    
   31   13   39 1     
   32   14   15 ar    
   33   14   40 1     
   34   15   16 ar    
   35   16   17 1     
   36   17   21 1     
   37   17   18 1     
   38   18   19 1     
   39   18   41 1     
   40   18   42 1     
   41   19   20 1     
   42   19   43 1     
   43   19   44 1     
   44   20   21 1     
   45   20   45 1     
   46   20   46 1     
   47   21   47 1     
   48   21   48 1     
   49   22   23 1     
   50   22   49 1     
   51   22   50 1     
   52   23   24 1     
   53   23   25 1     
   54   23   51 1     
   55   24   52 1     
   56   24   53 1     
   57   24   54 1     
   58    9   56 1     
   59    9   57 1     
   60   15   58 1     
   61   17   59 1     
   62   25   60 1     
   63   25   61 1     
@<TRIPOS>SUBSTRUCTURE
      1 S1             1
@<TRIPOS>SET
LONE_PAIRS      STATIC     ATOMS    <user>   **** ""
6 56 57 58 59 60 61
DONOR_HYDROGENS      STATIC     ATOMS    <user>   **** ""
3 55 36 37
ATOM$BLUE        STATIC     ATOMS    COLORGROUP SYSTEM
6 56 57 58 59 60 61
ATOM$RED        STATIC     ATOMS    COLORGROUP SYSTEM
3 55 36 37
