AV-unprocessed.smi:3243|AV-procd|sdf|12395|dock3
  -GOLD-   2272018263D 1   1.00000     0.00000
 Structure written by MMmdl.
 37 38  0  0  0  0  0  0  0  0  1 V2000
  143.8252  145.2300  153.8107 C   0  0  0  0  0  0  0  0  0  0  0  0
  145.3043  144.9775  153.4851 C   0  0  0  0  0  0  0  0  0  0  0  0
  145.5880  145.0187  151.9766 C   0  0  0  0  0  0  0  0  0  0  0  0
  145.8040  143.7137  154.1140 C   0  0  0  0  0  0  0  0  0  0  0  0
  147.0700  143.2971  154.0191 N   0  0  0  0  0  0  0  0  0  0  0  0
  147.2968  142.0934  154.6942 C   0  0  0  0  0  0  0  0  0  0  0  0
  148.6651  141.4825  154.6961 C   0  0  0  0  0  0  0  0  0  0  0  0
  149.2445  141.3594  156.1154 C   0  0  0  0  0  0  0  0  0  0  0  0
  150.1151  142.4834  156.4403 N   0  0  0  0  0  0  0  0  0  0  0  0
  151.0772  142.4701  157.3752 C   0  0  0  0  0  0  0  0  0  0  0  0
  151.3145  141.4844  158.0746 O   0  0  0  0  0  0  0  0  0  0  0  0
  151.8287  143.7605  157.4825 C   0  0  1  0  0  0  0  0  0  0  0  0
  151.6089  144.6169  158.7144 C   0  0  0  0  0  0  0  0  0  0  0  0
  152.9307  143.9125  158.5225 C   0  0  1  0  0  0  0  0  0  0  0  0
  153.3684  142.8085  159.4692 C   0  0  0  0  0  0  0  0  0  0  0  0
  146.1744  141.5980  155.3092 C   0  0  0  0  0  0  0  0  0  0  0  0
  144.7910  142.6271  155.0625 S   0  0  0  0  0  0  0  0  0  0  0  0
  143.6632  145.2708  154.8882 H   0  0  0  0  0  0  0  0  0  0  0  0
  143.1881  144.4423  153.4073 H   0  0  0  0  0  0  0  0  0  0  0  0
  143.4870  146.1774  153.3904 H   0  0  0  0  0  0  0  0  0  0  0  0
  145.8676  145.7986  153.9315 H   0  0  0  0  0  0  0  0  0  0  0  0
  146.6532  144.9032  151.7750 H   0  0  0  0  0  0  0  0  0  0  0  0
  145.2721  145.9682  151.5442 H   0  0  0  0  0  0  0  0  0  0  0  0
  145.0604  144.2233  151.4495 H   0  0  0  0  0  0  0  0  0  0  0  0
  148.6279  140.4980  154.2278 H   0  0  0  0  0  0  0  0  0  0  0  0
  149.3376  142.0799  154.0794 H   0  0  0  0  0  0  0  0  0  0  0  0
  148.4359  141.3385  156.8468 H   0  0  0  0  0  0  0  0  0  0  0  0
  149.7877  140.4193  156.2269 H   0  0  0  0  0  0  0  0  0  0  0  0
  149.9810  143.3322  155.9100 H   0  0  0  0  0  0  0  0  0  0  0  0
  151.9984  144.2851  156.5432 H   0  0  0  0  0  0  0  0  0  0  0  0
  151.5810  145.6947  158.5674 H   0  0  0  0  0  0  0  0  0  0  0  0
  150.9483  144.2472  159.4968 H   0  0  0  0  0  0  0  0  0  0  0  0
  153.7656  144.5284  158.1937 H   0  0  0  0  0  0  0  0  0  0  0  0
  152.5175  142.3426  159.9650 H   0  0  0  0  0  0  0  0  0  0  0  0
  154.0202  143.2196  160.2399 H   0  0  0  0  0  0  0  0  0  0  0  0
  153.9197  142.0430  158.9232 H   0  0  0  0  0  0  0  0  0  0  0  0
  146.0787  140.6939  155.8923 H   0  0  0  0  0  0  0  0  0  0  0  0
  1  2  1  0  0  0  0
  1 18  1  0  0  0  0
  1 19  1  0  0  0  0
  1 20  1  0  0  0  0
  2  3  1  0  0  0  0
  2  4  1  0  0  0  0
  2 21  1  0  0  0  0
  3 22  1  0  0  0  0
  3 23  1  0  0  0  0
  3 24  1  0  0  0  0
  4 17  1  0  0  0  0
  4  5  2  0  0  0  0
  5  6  1  0  0  0  0
  6  7  1  0  0  0  0
  6 16  2  0  0  0  0
  7  8  1  0  0  0  0
  7 25  1  0  0  0  0
  7 26  1  0  0  0  0
  8  9  1  0  0  0  0
  8 27  1  0  0  0  0
  8 28  1  0  0  0  0
  9 10  1  0  0  0  0
  9 29  1  0  0  0  0
 10 11  2  0  0  0  0
 10 12  1  0  0  0  0
 12 14  1  0  0  0  0
 12 13  1  0  0  0  0
 12 30  1  0  0  0  0
 13 14  1  0  0  0  0
 13 31  1  0  0  0  0
 13 32  1  0  0  0  0
 14 15  1  0  0  0  0
 14 33  1  0  0  0  0
 15 34  1  0  0  0  0
 15 35  1  0  0  0  0
 15 36  1  0  0  0  0
 16 17  1  0  0  0  0
 16 37  1  0  0  0  0
M  END
> <s_m_source_file>
AV-unprocessed.smi

> <i_m_source_file_index>
3243

> <i_lp_mmshare_version>
43012

> <i_f3d_flags>
0

> <s_epik_input>
W0NIM11bQ0hdKFtDSDNdKWMxbmMoW2NIXXMxKVtDSDJdW0NIMl1bTkhdQyg9TylbQ0BASF0yW0NIMl1bQ0BIXTJbQ0gzXQ==

> <s_epik_cmdline>
J2VwaWtfcHl0aG9uJywgJy1waCcsICc3LjAnLCAnLXRuJywgJzgnLCAnLW1hJywgJzIwMCcsICctbWV0YWxfYmluZGluZycsICctaW1hZScsICc8aW5maWxlLm1hZT4nLCAnLW9tYWUnLCAnPG91dGZpbGUubWFlPic=

> <r_epik_Ionization_Penalty>
0.00084212

> <r_epik_Ionization_Penalty_Charging>
0

> <r_epik_Ionization_Penalty_Neutral>
0.00084212

> <r_epik_State_Penalty>
0.000542609

> <r_epik_Charging_Adjusted_Penalty>
0.000542609

> <i_epik_Tot_Q>
0

> <i_epik_Tot_abs_Q>
0

> <r_epik_Metal_State_Penalty>
-0

> <b_epik_Metal_Only>
0

> <s_lp_Force_Field>
OPLS_2005

> <r_lp_Energy>
-2.57645

> <b_lp_Chiralities_Consistent>
1

> <s_lp_Variant>
AV-unprocessed.smi:3243-2

> <Gold.Version>
5.8.1

> <Gold.Id.Protein>
6NUR|6NUR_protein|mol2

> <Gold.PLP.Fitness>
42.3462

> <Gold.PLP.PLP>
-39.8690

> <Gold.PLP.part.hbond>
-2.0000

> <Gold.PLP.part.metal>
0.0000

> <Gold.PLP.part.buried>
-4.1842

> <Gold.PLP.part.nonpolar>
-35.6908

> <Gold.PLP.part.repulsive>
1.8602

> <Gold.PLP.ligand.clash>
0.0000

> <Gold.PLP.ligand.torsion>
0.5480

> <Gold.PLP.Chemscore.Hbond>
1.1310

> <Gold.PLP.Chemscore.CHOScore>
0.0000

> <Gold.PLP.Chemscore.Metal>
0.0000

> <Gold.Chemscore.Hbonds>
donor molecule, donor type, donor heavy atom, donor atom, acceptor molecule, acceptor atom, score
      L1  H     9    29       P1  8028  0.90
      P1  H  8022  8030       L1     5  0.34

> <Gold.PLP.Chemscore.Internal.Correction>
0.1802

> <Gold.Rescore>
     Score         DG    S(hbond)    S(metal)    S(lipo)     H(rot)  DE(clash)    DE(int)     intcor
     15.12     -17.57       0.92        0.00     109.70       1.49       0.56       1.89       ----

> <Gold.Chemscore.Fitness>
15.1193

> <Gold.Chemscore.DG>
-17.5681

> <Gold.Chemscore.ZeroCoef>
-5.4800

> <Gold.Chemscore.Hbond>
0.9161

> <Gold.Chemscore.Metal>
0.0000

> <Gold.Chemscore.Lipo>
109.6998

> <Gold.Chemscore.Internal_Hbond>
0.0000

> <Gold.Chemscore.DEClash>
0.5621

> <Gold.Chemscore.DEInternal>
1.8867

> <Gold.Chemscore.Rot>
1.4870

> <Gold.Chemscore.Internal.Correction>
   9.000000E+99

> <Gold.Chemscore.Hbonds>
donor molecule, donor type, donor heavy atom, donor atom, acceptor molecule, acceptor atom, score
      L1  H     9    29       P1  8028  0.88
      P1  H  8022  8030       L1     5  0.31

> <Gold.Chemscore.Hbond.Weighted>
-3.0599

> <Gold.Chemscore.Metal.Weighted>
-0.0000

> <Gold.Chemscore.Lipo.Weighted>
-12.8349

> <Gold.Chemscore.Internal_Hbond.Weighted>
0.0000

> <Gold.Chemscore.DEClash.Weighted>
0.5621

> <Gold.Chemscore.DEInternal.Weighted>
1.8867

> <Gold.Chemscore.Rot.Weighted>
3.8067

> <Gold.Chemscore.Internal.Correction.Weighted>
   9.000000E+99

> <Gold.Protein.RotatedTorsions>
[ 6907 6896 6895 6894 ] final  -30.96 input  -60.11 | X-H torsion
[ 7974 7965 7964 7962 ] final -156.78 input  175.53 | X-H torsion
[ 8008 7997 7996 7995 ] final   36.49 input   59.86 | X-H torsion
[ 10167 10162 10161 10158 ] final  -13.86 input  -65.29 | X-H torsion
[ 10718 10713 10712 10709 ] final   34.73 input   66.30 | X-H torsion
[ 10763 10752 10751 10750 ] final  -64.99 input  -60.55 | X-H torsion
[ 11005 11000 10999 10996 ] final  172.50 input  -57.11 | X-H torsion

> <Gold.Protein.ActiveResidues>
 VAL166  LYS551  ARG553  GLY616  TRP617  ASP618  TYR619  PRO620  LYS621  CYS622 
 ASP623  PHE694  ASN695  SER759  ASP760  ASP761  ALA762  ILE779  LEU786  VAL792 
 PHE793  MET794  SER795  GLU796  ALA797  LYS798  CYS799  TRP800  GLU811  SER814 

> <Gold.Protein.RotatedAtoms>
  151.0985  134.9958  159.8436 H   0  0  0  0  0  0  0  0  0  0  0  0  # atno 6907 bound_to 6896
  152.5435  134.1979  159.8710 H   0  0  0  0  0  0  0  0  0  0  0  0  # atno 6908 bound_to 6896
  151.2020  133.4561  159.2630 H   0  0  0  0  0  0  0  0  0  0  0  0  # atno 6909 bound_to 6896
  144.7577  140.4061  143.5999 H   0  0  0  0  0  0  0  0  0  0  0  0  # atno 7974 bound_to 7965
  155.1883  140.3306  155.4363 H   0  0  0  0  0  0  0  0  0  0  0  0  # atno 8008 bound_to 7997
  156.2451  140.1914  156.6927 H   0  0  0  0  0  0  0  0  0  0  0  0  # atno 8009 bound_to 7997
  154.6223  140.0593  156.9616 H   0  0  0  0  0  0  0  0  0  0  0  0  # atno 8010 bound_to 7997
  140.7190  143.5382  150.9440 H   0  0  0  0  0  0  0  0  0  0  0  0  # atno 10167 bound_to 10162
  157.3140  130.7414  149.6743 H   0  0  0  0  0  0  0  0  0  0  0  0  # atno 10718 bound_to 10713
  154.3384  135.6162  153.5584 H   0  0  0  0  0  0  0  0  0  0  0  0  # atno 10763 bound_to 10752
  152.9806  135.5763  154.4881 H   0  0  0  0  0  0  0  0  0  0  0  0  # atno 10764 bound_to 10752
  154.4581  135.2855  155.1710 H   0  0  0  0  0  0  0  0  0  0  0  0  # atno 10765 bound_to 10752
  140.3304  134.7362  157.4130 H   0  0  0  0  0  0  0  0  0  0  0  0  # atno 11005 bound_to 11000
  145.6722  139.1601  143.2748 LP  0  0  0  0  0  0  0  0  0  0  0  0  # atno 17320 bound_to 7965
  146.1607  140.6792  142.9279 LP  0  0  0  0  0  0  0  0  0  0  0  0  # atno 17321 bound_to 7965
  139.9104  143.6727  152.3116 LP  0  0  0  0  0  0  0  0  0  0  0  0  # atno 17342 bound_to 10162
  139.7108  144.7620  151.1115 LP  0  0  0  0  0  0  0  0  0  0  0  0  # atno 17343 bound_to 10162
  155.9680  130.4243  150.4601 LP  0  0  0  0  0  0  0  0  0  0  0  0  # atno 17370 bound_to 10713
  157.2604  131.0566  151.2323 LP  0  0  0  0  0  0  0  0  0  0  0  0  # atno 17371 bound_to 10713
  140.0865  134.5659  155.8487 LP  0  0  0  0  0  0  0  0  0  0  0  0  # atno 17394 bound_to 11000
  141.2064  133.6655  156.6244 LP  0  0  0  0  0  0  0  0  0  0  0  0  # atno 17395 bound_to 11000

$$$$
