#       Name:                AV-unprocessed.smi:1390
#       Creating user name   scv26
#       Creation time:       Fri Mar 27 05:28:10 2020


#       File generated by GOLD software.
#

@<TRIPOS>MOLECULE
AV-unprocessed.smi:1390
    52    53     1
SMALL
NO_CHARGES


@<TRIPOS>ATOM
      1 ****        -4.8862   4.0043  -1.2665 C.3            1 S1                 0.0000
      2 ****        -3.5480   3.7806  -0.5549 C.3            1 S1                 0.0000
      3 ****        -3.1802   2.2867  -0.4680 C.3            1 S1                 0.0000
      4 ****        -1.9480   2.1199   0.2914 N.3            1 S1                 0.0000
      5 ****        -1.4806   0.7992   0.3161 C.ar           1 S1                 0.0000
      6 ****        -2.2060  -0.2325   0.9558 C.ar           1 S1                 0.0000
      7 ****        -1.6741  -1.5360   0.9503 C.ar           1 S1                 0.0000
      8 ****        -0.4383  -1.7689   0.3137 C.ar           1 S1                 0.0000
      9 ****         0.1543  -3.1694   0.2883 C.3            1 S1                 0.0000
     10 ****         1.6111  -3.1801   0.2349 N.am           1 S1                 0.0000
     11 ****         2.3604  -4.2147  -0.1739 C.2            1 S1                 0.0000
     12 ****         1.8897  -5.2980  -0.5196 O.2            1 S1                 0.0000
     13 ****         3.8740  -4.0026  -0.1799 C.3            1 S1                 0.0000
     14 ****         4.1613  -2.6955  -0.6535 O.3            1 S1                 0.0000
     15 ****         5.5507  -2.4099  -0.6733 C.3            1 S1                 0.0000
     16 ****         5.7698  -0.9781  -1.1770 C.3            1 S1                 0.0000
     17 ****         7.0750  -0.7094  -1.1826 F              1 S1                 0.0000
     18 ****         5.3007  -0.8480  -2.4175 F              1 S1                 0.0000
     19 ****         5.1576  -0.1090  -0.3729 F              1 S1                 0.0000
     20 ****         0.2017  -0.6717  -0.3062 C.ar           1 S1                 0.0000
     21 ****        -0.3010   0.5809  -0.3046 N.ar           1 S1                 0.0000
     22 ****        -2.0125   2.7365   1.6098 C.3            1 S1                 0.0000
     23 ****        -2.4161   4.2148   1.4794 C.3            1 S1                 0.0000
     24 ****        -3.6452   4.3123   0.7649 O.3            1 S1                 0.0000
     25 ****        -4.8535   3.6289  -2.2897 H              1 S1                 0.0000
     26 ****        -5.1311   5.0658  -1.3101 H              1 S1                 0.0000
     27 ****        -5.6991   3.4951  -0.7482 H              1 S1                 0.0000
     28 ****        -2.7707   4.3192  -1.0998 H              1 S1                 0.0000
     29 ****        -3.9879   1.7321   0.0119 H              1 S1                 0.0000
     30 ****        -3.0531   1.8716  -1.4688 H              1 S1                 0.0000
     31 ****        -3.1494  -0.0334   1.4429 H              1 S1                 0.0000
     32 ****        -2.2081  -2.3423   1.4314 H              1 S1                 0.0000
     33 ****        -0.1652  -3.7168   1.1761 H              1 S1                 0.0000
     34 ****        -0.2576  -3.6927  -0.5762 H              1 S1                 0.0000
     35 ****         2.0861  -2.3315   0.5075 H              1 S1                 0.0000
     36 ****         4.2552  -4.1354   0.8336 H              1 S1                 0.0000
     37 ****         4.3481  -4.7502  -0.8182 H              1 S1                 0.0000
     38 ****         5.9686  -2.5184   0.3289 H              1 S1                 0.0000
     39 ****         6.0685  -3.1178  -1.3227 H              1 S1                 0.0000
     40 ****         1.1427  -0.7940  -0.8220 H              1 S1                 0.0000
     41 ****        -2.7383   2.2101   2.2308 H              1 S1                 0.0000
     42 ****        -1.0433   2.6541   2.1036 H              1 S1                 0.0000
     43 ****        -2.5421   4.6585   2.4670 H              1 S1                 0.0000
     44 ****        -1.6401   4.7874   0.9690 H              1 S1                 0.0000
     45 ****        -1.2495   2.6281  -0.2125 LP             1 S1                 0.0000
     46 ****         0.9001  -5.4409  -0.5044 LP             1 S1                 0.0000
     47 ****         2.4969  -6.0354  -0.8158 LP             1 S1                 0.0000
     48 ****         3.7075  -2.0331  -0.0575 LP             1 S1                 0.0000
     49 ****         3.8038  -2.6070  -1.5832 LP             1 S1                 0.0000
     50 ****         0.1881   1.3294  -0.7523 LP             1 S1                 0.0000
     51 ****        -4.3485   3.8064   1.2644 LP             1 S1                 0.0000
     52 ****        -3.9068   5.2756   0.7050 LP             1 S1                 0.0000
@<TRIPOS>BOND
    1    1    2 1     
    2    1   25 1     
    3    1   26 1     
    4    1   27 1     
    5    2   24 1     
    6    2    3 1     
    7    2   28 1     
    8    3    4 1     
    9    3   29 1     
   10    3   30 1     
   11    4    5 1     
   12    4   22 1     
   13    5   21 ar    
   14    5    6 ar    
   15    6    7 ar    
   16    6   31 1     
   17    7    8 ar    
   18    7   32 1     
   19    8    9 1     
   20    8   20 ar    
   21    9   10 1     
   22    9   33 1     
   23    9   34 1     
   24   10   11 am    
   25   10   35 1     
   26   11   12 2     
   27   11   13 1     
   28   13   14 1     
   29   13   36 1     
   30   13   37 1     
   31   14   15 1     
   32   15   16 1     
   33   15   38 1     
   34   15   39 1     
   35   16   17 1     
   36   16   18 1     
   37   16   19 1     
   38   20   21 ar    
   39   20   40 1     
   40   22   23 1     
   41   22   41 1     
   42   22   42 1     
   43   23   24 1     
   44   23   43 1     
   45   23   44 1     
   46    4   45 1     
   47   12   46 1     
   48   12   47 1     
   49   14   48 1     
   50   14   49 1     
   51   21   50 1     
   52   24   51 1     
   53   24   52 1     
@<TRIPOS>SUBSTRUCTURE
      1 S1             1
@<TRIPOS>SET
LONE_PAIRS      STATIC     ATOMS    <user>   **** ""
8 45 46 47 48 49 50 51 52
DONOR_HYDROGENS      STATIC     ATOMS    <user>   **** ""
1 35
ATOM$BLUE        STATIC     ATOMS    COLORGROUP SYSTEM
8 45 46 47 48 49 50 51 52
ATOM$RED        STATIC     ATOMS    COLORGROUP SYSTEM
1 35
