#       Name:                AV-unprocessed.smi:3153
#       Creating user name   scv26
#       Creation time:       Fri Mar 27 17:43:11 2020


#       File generated by GOLD software.
#

@<TRIPOS>MOLECULE
AV-unprocessed.smi:3153
    41    42     1
SMALL
NO_CHARGES


@<TRIPOS>ATOM
      1 ****        -0.9225   1.9503   1.4835 O.3            1 S1                 0.0000
      2 ****        -1.4036   1.3400   0.2982 C.3            1 S1                 0.0000
      3 ****        -0.9093  -0.1241   0.2996 C.3            1 S1                 0.0000
      4 ****         0.5659  -0.2229   0.3012 N.4            1 S1                 1.0000
      5 ****         1.0753  -1.6075   0.2905 C.3            1 S1                 0.0000
      6 ****         2.6112  -1.6311   0.3168 C.3            1 S1                 0.0000
      7 ****         3.1361  -2.9824   0.2595 N.pl3          1 S1                 0.0000
      8 ****         3.9185  -3.5578  -0.7199 C.2            1 S1                 0.0000
      9 ****         4.1751  -4.8419  -0.3330 C.2            1 S1                 0.0000
     10 ****         3.5064  -4.9587   0.9175 C.2            1 S1                 0.0000
     11 ****         2.8897  -3.8424   1.2717 N.2            1 S1                 0.0000
     12 ****        -2.9504   1.3700   0.3389 C.3            1 S1                 0.0000
     13 ****        -3.5302   2.7918   0.2344 C.3            1 S1                 0.0000
     14 ****        -3.0101   3.5145  -1.0154 C.3            1 S1                 0.0000
     15 ****        -1.4756   3.5430  -1.0329 C.3            1 S1                 0.0000
     16 ****        -0.8844   2.1251  -0.9328 C.3            1 S1                 0.0000
     17 ****        -1.3457   1.5465   2.2262 H              1 S1                 0.0000
     18 ****        -1.2988  -0.6508   1.1723 H              1 S1                 0.0000
     19 ****        -1.2936  -0.6448  -0.5789 H              1 S1                 0.0000
     20 ****         0.9204   0.2579  -0.5131 H              1 S1                 0.0000
     21 ****         0.6749  -2.1403   1.1542 H              1 S1                 0.0000
     22 ****         0.7092  -2.1168  -0.6020 H              1 S1                 0.0000
     23 ****         3.0120  -1.0688  -0.5276 H              1 S1                 0.0000
     24 ****         2.9870  -1.1541   1.2232 H              1 S1                 0.0000
     25 ****         4.2234  -3.0137  -1.6018 H              1 S1                 0.0000
     26 ****         4.7555  -5.5840  -0.8610 H              1 S1                 0.0000
     27 ****         3.4530  -5.8144   1.5744 H              1 S1                 0.0000
     28 ****        -3.3425   0.7765  -0.4883 H              1 S1                 0.0000
     29 ****        -3.3153   0.8928   1.2495 H              1 S1                 0.0000
     30 ****        -4.6193   2.7454   0.2082 H              1 S1                 0.0000
     31 ****        -3.2701   3.3655   1.1246 H              1 S1                 0.0000
     32 ****        -3.3786   3.0118  -1.9106 H              1 S1                 0.0000
     33 ****        -3.4022   4.5316  -1.0472 H              1 S1                 0.0000
     34 ****        -1.1257   4.0260  -1.9458 H              1 S1                 0.0000
     35 ****        -1.1127   4.1539  -0.2055 H              1 S1                 0.0000
     36 ****         0.2039   2.1932  -0.9152 H              1 S1                 0.0000
     37 ****        -1.1384   1.5771  -1.8412 H              1 S1                 0.0000
     38 ****         0.9133   0.2442   1.1268 H              1 S1                 0.0000
     39 ****        -1.1322   2.9279   1.4675 LP             1 S1                 0.0000
     40 ****         0.0671   1.8226   1.5498 LP             1 S1                 0.0000
     41 ****         2.3598  -3.6734   2.1028 LP             1 S1                 0.0000
@<TRIPOS>BOND
    1    1    2 1     
    2    1   17 1     
    3    2   16 1     
    4    2    3 1     
    5    2   12 1     
    6    3    4 1     
    7    3   18 1     
    8    3   19 1     
    9    4    5 1     
   10    4   20 1     
   11    4   38 1     
   12    5    6 1     
   13    5   21 1     
   14    5   22 1     
   15    6    7 1     
   16    6   23 1     
   17    6   24 1     
   18    7   11 1     
   19    7    8 1     
   20    8    9 2     
   21    8   25 1     
   22    9   10 1     
   23    9   26 1     
   24   10   11 2     
   25   10   27 1     
   26   12   13 1     
   27   12   28 1     
   28   12   29 1     
   29   13   14 1     
   30   13   30 1     
   31   13   31 1     
   32   14   15 1     
   33   14   32 1     
   34   14   33 1     
   35   15   16 1     
   36   15   34 1     
   37   15   35 1     
   38   16   36 1     
   39   16   37 1     
   40    1   39 1     
   41    1   40 1     
   42   11   41 1     
@<TRIPOS>SUBSTRUCTURE
      1 S1             1
@<TRIPOS>SET
LONE_PAIRS      STATIC     ATOMS    <user>   **** ""
3 39 40 41
DONOR_HYDROGENS      STATIC     ATOMS    <user>   **** ""
3 17 20 38
ATOM$BLUE        STATIC     ATOMS    COLORGROUP SYSTEM
3 39 40 41
ATOM$RED        STATIC     ATOMS    COLORGROUP SYSTEM
3 17 20 38
