AV-unprocessed.smi:2572|AV-procd|sdf|10110|dock8
  -GOLD-   2272014123D 1   1.00000     0.00000
 Structure written by MMmdl.
 38 39  0  0  0  0  0  0  0  0  1 V2000
  147.6133  141.6283  154.3755 C   0  0  0  0  0  0  0  0  0  0  0  0
  148.9432  141.4385  153.8963 O   0  0  0  0  0  0  0  0  0  0  0  0
  149.5445  140.2255  154.1838 C   0  0  0  0  0  0  0  0  0  0  0  0
  148.8252  139.0093  153.8692 C   0  0  0  0  0  0  0  0  0  0  0  0
  149.4012  137.8185  154.1415 C   0  0  0  0  0  0  0  0  0  0  0  0
  150.7312  137.7251  154.7428 C   0  0  0  0  0  0  0  0  0  0  0  0
  151.2819  136.6534  154.9942 O   0  0  0  0  0  0  0  0  0  0  0  0
  151.3067  138.9376  154.9983 N   0  0  0  0  0  0  0  0  0  0  0  0
  152.6462  139.0352  155.5903 C   0  0  0  0  0  0  0  0  0  0  0  0
  152.5890  139.2098  157.1236 C   0  0  2  0  0  0  0  0  0  0  0  0
  151.6365  138.3062  157.6503 O   0  0  0  0  0  0  0  0  0  0  0  0
  152.1585  140.6347  157.5190 C   0  0  0  0  0  0  0  0  0  0  0  0
  152.2562  140.9078  159.0294 C   0  0  0  0  0  0  0  0  0  0  0  0
  152.1139  142.3831  159.3517 C   0  0  0  0  0  0  0  0  0  0  0  0
  151.8785  143.3150  158.3188 C   0  0  0  0  0  0  0  0  0  0  0  0
  151.7378  144.6840  158.6198 C   0  0  0  0  0  0  0  0  0  0  0  0
  151.8310  145.1253  159.9540 C   0  0  0  0  0  0  0  0  0  0  0  0
  152.0664  144.1978  160.9873 C   0  0  0  0  0  0  0  0  0  0  0  0
  152.2080  142.8289  160.6870 C   0  0  0  0  0  0  0  0  0  0  0  0
  150.7218  140.1624  154.7217 N   0  0  0  0  0  0  0  0  0  0  0  0
  147.2680  142.6194  154.0817 H   0  0  0  0  0  0  0  0  0  0  0  0
  147.5622  141.5756  155.4644 H   0  0  0  0  0  0  0  0  0  0  0  0
  146.9196  140.9020  153.9482 H   0  0  0  0  0  0  0  0  0  0  0  0
  147.8430  139.0656  153.4238 H   0  0  0  0  0  0  0  0  0  0  0  0
  148.8671  136.9090  153.9092 H   0  0  0  0  0  0  0  0  0  0  0  0
  153.1755  138.1103  155.3536 H   0  0  0  0  0  0  0  0  0  0  0  0
  153.2466  139.8215  155.1285 H   0  0  0  0  0  0  0  0  0  0  0  0
  153.5644  138.9978  157.5635 H   0  0  0  0  0  0  0  0  0  0  0  0
  151.8593  137.4327  157.3666 H   0  0  0  0  0  0  0  0  0  0  0  0
  152.7964  141.3522  157.0011 H   0  0  0  0  0  0  0  0  0  0  0  0
  151.1424  140.8268  157.1710 H   0  0  0  0  0  0  0  0  0  0  0  0
  151.4867  140.3532  159.5675 H   0  0  0  0  0  0  0  0  0  0  0  0
  153.2134  140.5516  159.4120 H   0  0  0  0  0  0  0  0  0  0  0  0
  151.8023  142.9821  157.2941 H   0  0  0  0  0  0  0  0  0  0  0  0
  151.5564  145.3948  157.8271 H   0  0  0  0  0  0  0  0  0  0  0  0
  151.7212  146.1748  160.1850 H   0  0  0  0  0  0  0  0  0  0  0  0
  152.1375  144.5357  162.0107 H   0  0  0  0  0  0  0  0  0  0  0  0
  152.3862  142.1219  161.4843 H   0  0  0  0  0  0  0  0  0  0  0  0
  1  2  1  0  0  0  0
  1 21  1  0  0  0  0
  1 22  1  0  0  0  0
  1 23  1  0  0  0  0
  2  3  1  0  0  0  0
  3 20  2  0  0  0  0
  3  4  1  0  0  0  0
  4  5  2  0  0  0  0
  4 24  1  0  0  0  0
  5  6  1  0  0  0  0
  5 25  1  0  0  0  0
  6  7  2  0  0  0  0
  6  8  1  0  0  0  0
  8  9  1  0  0  0  0
  8 20  1  0  0  0  0
  9 10  1  0  0  0  0
  9 26  1  0  0  0  0
  9 27  1  0  0  0  0
 10 11  1  0  0  0  0
 10 12  1  0  0  0  0
 10 28  1  0  0  0  0
 11 29  1  0  0  0  0
 12 13  1  0  0  0  0
 12 30  1  0  0  0  0
 12 31  1  0  0  0  0
 13 14  1  0  0  0  0
 13 32  1  0  0  0  0
 13 33  1  0  0  0  0
 14 19  1  0  0  0  0
 14 15  2  0  0  0  0
 15 16  1  0  0  0  0
 15 34  1  0  0  0  0
 16 17  2  0  0  0  0
 16 35  1  0  0  0  0
 17 18  1  0  0  0  0
 17 36  1  0  0  0  0
 18 19  2  0  0  0  0
 18 37  1  0  0  0  0
 19 38  1  0  0  0  0
M  END
> <s_m_source_file>
AV-unprocessed.smi

> <i_m_source_file_index>
2572

> <i_lp_mmshare_version>
43012

> <i_f3d_flags>
0

> <s_epik_input>
W0NIM11PYzFbY0hdW2NIXWMoPU8pbihuMSlbQ0gyXVtDQEhdKFtPSF0pW0NIMl1bQ0gyXWMyW2NIXVtjSF1bY0hdW2NIXVtjSF0y

> <s_epik_cmdline>
J2VwaWtfcHl0aG9uJywgJy1waCcsICc3LjAnLCAnLXRuJywgJzgnLCAnLW1hJywgJzIwMCcsICctbWV0YWxfYmluZGluZycsICctaW1hZScsICc8aW5maWxlLm1hZT4nLCAnLW9tYWUnLCAnPG91dGZpbGUubWFlPic=

> <r_lp_tautomer_probability>
1

> <r_epik_Ionization_Penalty>
8.48543e-06

> <r_epik_Ionization_Penalty_Charging>
6.90219e-06

> <r_epik_Ionization_Penalty_Neutral>
1.58323e-06

> <r_epik_State_Penalty>
-0

> <r_epik_Charging_Adjusted_Penalty>
6.90219e-06

> <i_epik_Tot_Q>
0

> <i_epik_Tot_abs_Q>
0

> <r_epik_Metal_State_Penalty>
-0

> <b_epik_Metal_Only>
0

> <s_lp_Force_Field>
OPLS_2005

> <r_lp_Energy>
29.9707

> <b_lp_Chiralities_Consistent>
1

> <s_lp_Variant>
AV-unprocessed.smi:2572-1

> <Gold.Version>
5.8.1

> <Gold.Id.Protein>
6NUR|6NUR_protein|mol2

> <Gold.PLP.Fitness>
50.1932

> <Gold.PLP.PLP>
-43.4375

> <Gold.PLP.part.hbond>
-3.1626

> <Gold.PLP.part.metal>
0.0000

> <Gold.PLP.part.buried>
2.6812

> <Gold.PLP.part.nonpolar>
-41.5828

> <Gold.PLP.part.repulsive>
0.3849

> <Gold.PLP.ligand.clash>
0.0000

> <Gold.PLP.ligand.torsion>
0.6027

> <Gold.PLP.Chemscore.Hbond>
2.6385

> <Gold.PLP.Chemscore.CHOScore>
0.0000

> <Gold.PLP.Chemscore.Metal>
0.0000

> <Gold.Chemscore.Hbonds>
donor molecule, donor type, donor heavy atom, donor atom, acceptor molecule, acceptor atom, score
      P1  H  7989  7998       L1    20  1.00
      P1  H  8011  8017       L1     2  0.74
      P1  H 10752 10765       L1     7  1.00

> <Gold.PLP.Chemscore.Internal.Correction>
0.0456

> <Gold.Rescore>
     Score         DG    S(hbond)    S(metal)    S(lipo)     H(rot)  DE(clash)    DE(int)     intcor
     15.36     -17.98       1.60        0.00     116.24       2.52       1.08       1.55       ----

> <Gold.Chemscore.Fitness>
15.3588

> <Gold.Chemscore.DG>
-17.9849

> <Gold.Chemscore.ZeroCoef>
-5.4800

> <Gold.Chemscore.Hbond>
1.6044

> <Gold.Chemscore.Metal>
0.0000

> <Gold.Chemscore.Lipo>
116.2445

> <Gold.Chemscore.Internal_Hbond>
0.0000

> <Gold.Chemscore.DEClash>
1.0809

> <Gold.Chemscore.DEInternal>
1.5452

> <Gold.Chemscore.Rot>
2.5212

> <Gold.Chemscore.Internal.Correction>
   9.000000E+99

> <Gold.Chemscore.Hbonds>
donor molecule, donor type, donor heavy atom, donor atom, acceptor molecule, acceptor atom, score
      P1  H  7989  7998       L1    20  0.15
      P1  H  8011  8017       L1     2  0.61
      P1  H 10752 10765       L1     7  0.95

> <Gold.Chemscore.Hbond.Weighted>
-5.3585

> <Gold.Chemscore.Metal.Weighted>
-0.0000

> <Gold.Chemscore.Lipo.Weighted>
-13.6006

> <Gold.Chemscore.Internal_Hbond.Weighted>
0.0000

> <Gold.Chemscore.DEClash.Weighted>
1.0809

> <Gold.Chemscore.DEInternal.Weighted>
1.5452

> <Gold.Chemscore.Rot.Weighted>
6.4543

> <Gold.Chemscore.Internal.Correction.Weighted>
   9.000000E+99

> <Gold.Protein.RotatedTorsions>
[ 6907 6896 6895 6894 ] final  -52.03 input  -60.11 | X-H torsion
[ 7974 7965 7964 7962 ] final  -62.53 input  175.53 | X-H torsion
[ 8008 7997 7996 7995 ] final   20.32 input   59.86 | X-H torsion
[ 10167 10162 10161 10158 ] final  -17.46 input  -65.29 | X-H torsion
[ 10718 10713 10712 10709 ] final -167.65 input   66.30 | X-H torsion
[ 10763 10752 10751 10750 ] final  173.25 input  -60.55 | X-H torsion
[ 11005 11000 10999 10996 ] final -125.05 input  -57.11 | X-H torsion

> <Gold.Protein.ActiveResidues>
 VAL166  LYS551  ARG553  GLY616  TRP617  ASP618  TYR619  PRO620  LYS621  CYS622 
 ASP623  PHE694  ASN695  SER759  ASP760  ASP761  ALA762  ILE779  LEU786  VAL792 
 PHE793  MET794  SER795  GLU796  ALA797  LYS798  CYS799  TRP800  GLU811  SER814 

> <Gold.Protein.RotatedAtoms>
  150.8555  134.7893  159.7042 H   0  0  0  0  0  0  0  0  0  0  0  0  # atno 6907 bound_to 6896
  152.4608  134.5185  159.9785 H   0  0  0  0  0  0  0  0  0  0  0  0  # atno 6908 bound_to 6896
  151.5298  133.3413  159.2952 H   0  0  0  0  0  0  0  0  0  0  0  0  # atno 6909 bound_to 6896
  145.7901  140.8714  143.0285 H   0  0  0  0  0  0  0  0  0  0  0  0  # atno 7974 bound_to 7965
  154.9338  140.3044  155.5154 H   0  0  0  0  0  0  0  0  0  0  0  0  # atno 8008 bound_to 7997
  156.3001  140.2349  156.4338 H   0  0  0  0  0  0  0  0  0  0  0  0  # atno 8009 bound_to 7997
  154.8211  140.0423  157.1400 H   0  0  0  0  0  0  0  0  0  0  0  0  # atno 8010 bound_to 7997
  140.7247  143.5013  150.9865 H   0  0  0  0  0  0  0  0  0  0  0  0  # atno 10167 bound_to 10162
  156.6854  130.9138  151.3062 H   0  0  0  0  0  0  0  0  0  0  0  0  # atno 10718 bound_to 10713
  154.4375  135.2761  155.1870 H   0  0  0  0  0  0  0  0  0  0  0  0  # atno 10763 bound_to 10752
  154.3751  135.6100  153.5764 H   0  0  0  0  0  0  0  0  0  0  0  0  # atno 10764 bound_to 10752
  152.9839  135.5866  154.4697 H   0  0  0  0  0  0  0  0  0  0  0  0  # atno 10765 bound_to 10752
  140.9792  134.0696  157.3784 H   0  0  0  0  0  0  0  0  0  0  0  0  # atno 11005 bound_to 11000
  144.6783  140.0111  143.7484 LP  0  0  0  0  0  0  0  0  0  0  0  0  # atno 17320 bound_to 7965
  145.9985  139.3072  143.0942 LP  0  0  0  0  0  0  0  0  0  0  0  0  # atno 17321 bound_to 7965
  139.8723  143.7177  152.3165 LP  0  0  0  0  0  0  0  0  0  0  0  0  # atno 17342 bound_to 10162
  139.7430  144.7554  151.0623 LP  0  0  0  0  0  0  0  0  0  0  0  0  # atno 17343 bound_to 10162
  157.7028  130.9352  150.0838 LP  0  0  0  0  0  0  0  0  0  0  0  0  # atno 17370 bound_to 10713
  156.1837  130.3651  149.9002 LP  0  0  0  0  0  0  0  0  0  0  0  0  # atno 17371 bound_to 10713
  139.8943  135.0135  156.6945 LP  0  0  0  0  0  0  0  0  0  0  0  0  # atno 17394 bound_to 11000
  140.7212  133.9139  155.8148 LP  0  0  0  0  0  0  0  0  0  0  0  0  # atno 17395 bound_to 11000

$$$$
