#       Name:                AV-unprocessed.smi:837
#       Creating user name   scv26
#       Creation time:       Fri Mar 27 01:36:56 2020


#       File generated by GOLD software.
#

@<TRIPOS>MOLECULE
AV-unprocessed.smi:837
    56    58     1
SMALL
NO_CHARGES


@<TRIPOS>ATOM
      1 ****         0.7864   2.2828   0.4533 C.3            1 S1                 0.0000
      2 ****        -0.6326   2.5734   0.9868 C.3            1 S1                 0.0000
      3 ****        -1.3292   3.6504   0.1275 C.3            1 S1                 0.0000
      4 ****        -2.6975   4.0425   0.7037 C.3            1 S1                 0.0000
      5 ****        -3.6062   2.8157   0.8536 C.3            1 S1                 0.0000
      6 ****        -2.9377   1.7292   1.7136 C.3            1 S1                 0.0000
      7 ****        -1.5421   1.3154   1.1776 C.3            1 S1                 0.0000
      8 ****        -1.6843   0.5515  -0.0534 N.pl3          1 S1                -1.0000
      9 ****        -1.2421  -0.7088   0.1601 C.2            1 S1                 0.0000
     10 ****        -1.2226  -1.6290  -0.6573 O.2            1 S1                 0.0000
     11 ****        -0.7892  -0.8574   1.4195 N.am           1 S1                 0.0000
     12 ****        -0.1788  -2.0835   1.9462 C.3            1 S1                 0.0000
     13 ****         1.2917  -2.1919   1.5301 C.2            1 S1                 0.0000
     14 ****         2.1114  -1.3597   1.9183 O.2            1 S1                 0.0000
     15 ****         1.6045  -3.2242   0.7332 N.am           1 S1                 0.0000
     16 ****         2.9196  -3.4895   0.1577 C.3            1 S1                 0.0000
     17 ****         3.3916  -2.4059  -0.8377 C.3            1 S1                 0.0000
     18 ****         2.3190  -1.9277  -1.8055 C.ar           1 S1                 0.0000
     19 ****         1.9447  -0.5656  -1.8434 C.ar           1 S1                 0.0000
     20 ****         0.9396  -0.1468  -2.7395 C.ar           1 S1                 0.0000
     21 ****         0.3243  -1.1007  -3.5743 C.ar           1 S1                 0.0000
     22 ****         0.7080  -2.3945  -3.5124 N.pl3          1 S1                 1.0000
     23 ****         1.6717  -2.8341  -2.6734 C.ar           1 S1                 0.0000
     24 ****        -0.9163   0.2833   2.1054 C.2            1 S1                 0.0000
     25 ****        -0.5843   0.4992   3.2717 O.2            1 S1                 0.0000
     26 ****         0.7534   1.8792  -0.5571 H              1 S1                 0.0000
     27 ****         1.3253   1.5729   1.0806 H              1 S1                 0.0000
     28 ****         1.3816   3.1953   0.4191 H              1 S1                 0.0000
     29 ****        -0.4950   3.0148   1.9755 H              1 S1                 0.0000
     30 ****        -0.6999   4.5385   0.0623 H              1 S1                 0.0000
     31 ****        -1.4529   3.2884  -0.8939 H              1 S1                 0.0000
     32 ****        -2.5628   4.5190   1.6754 H              1 S1                 0.0000
     33 ****        -3.1741   4.7812   0.0590 H              1 S1                 0.0000
     34 ****        -4.5554   3.1101   1.3017 H              1 S1                 0.0000
     35 ****        -3.8441   2.4137  -0.1319 H              1 S1                 0.0000
     36 ****        -2.8389   2.1091   2.7319 H              1 S1                 0.0000
     37 ****        -3.5976   0.8624   1.7821 H              1 S1                 0.0000
     38 ****        -0.2351  -2.1055   3.0356 H              1 S1                 0.0000
     39 ****        -0.7394  -2.9549   1.6027 H              1 S1                 0.0000
     40 ****         0.8602  -3.8564   0.4759 H              1 S1                 0.0000
     41 ****         3.6569  -3.6301   0.9491 H              1 S1                 0.0000
     42 ****         2.8444  -4.4438  -0.3638 H              1 S1                 0.0000
     43 ****         3.7681  -1.5479  -0.2793 H              1 S1                 0.0000
     44 ****         4.2394  -2.7800  -1.4121 H              1 S1                 0.0000
     45 ****         2.4146   0.1520  -1.1867 H              1 S1                 0.0000
     46 ****         0.6320   0.8881  -2.7733 H              1 S1                 0.0000
     47 ****        -0.4618  -0.8705  -4.2786 H              1 S1                 0.0000
     48 ****         1.8854  -3.8919  -2.7144 H              1 S1                 0.0000
     49 ****         0.2461  -3.0692  -4.1222 H              1 S1                 0.0000
     50 ****        -2.0494   0.9015  -0.9161 LP             1 S1                 0.0000
     51 ****        -1.5574  -1.4786  -1.5875 LP             1 S1                 0.0000
     52 ****        -0.8720  -2.5269  -0.3911 LP             1 S1                 0.0000
     53 ****         1.8189  -0.6074   2.5087 LP             1 S1                 0.0000
     54 ****         3.0698  -1.4358   1.6433 LP             1 S1                 0.0000
     55 ****        -0.7209   1.4059   3.6708 LP             1 S1                 0.0000
     56 ****        -0.1781  -0.2322   3.8195 LP             1 S1                 0.0000
@<TRIPOS>BOND
    1    1    2 1     
    2    1   26 1     
    3    1   27 1     
    4    1   28 1     
    5    2    7 1     
    6    2    3 1     
    7    2   29 1     
    8    3    4 1     
    9    3   30 1     
   10    3   31 1     
   11    4    5 1     
   12    4   32 1     
   13    4   33 1     
   14    5    6 1     
   15    5   34 1     
   16    5   35 1     
   17    6    7 1     
   18    6   36 1     
   19    6   37 1     
   20    7   24 1     
   21    7    8 1     
   22    8    9 1     
   23    9   10 2     
   24    9   11 am    
   25   11   12 1     
   26   11   24 am    
   27   12   13 1     
   28   12   38 1     
   29   12   39 1     
   30   13   14 2     
   31   13   15 am    
   32   15   16 1     
   33   15   40 1     
   34   16   17 1     
   35   16   41 1     
   36   16   42 1     
   37   17   18 1     
   38   17   43 1     
   39   17   44 1     
   40   18   23 ar    
   41   18   19 ar    
   42   19   20 ar    
   43   19   45 1     
   44   20   21 ar    
   45   20   46 1     
   46   21   22 ar    
   47   21   47 1     
   48   22   23 ar    
   49   22   49 1     
   50   23   48 1     
   51   24   25 2     
   52    8   50 1     
   53   10   51 1     
   54   10   52 1     
   55   14   53 1     
   56   14   54 1     
   57   25   55 1     
   58   25   56 1     
@<TRIPOS>SUBSTRUCTURE
      1 S1             1
@<TRIPOS>SET
LONE_PAIRS      STATIC     ATOMS    <user>   **** ""
7 50 51 52 53 54 55 56
DONOR_HYDROGENS      STATIC     ATOMS    <user>   **** ""
2 40 49
ATOM$BLUE        STATIC     ATOMS    COLORGROUP SYSTEM
7 50 51 52 53 54 55 56
ATOM$RED        STATIC     ATOMS    COLORGROUP SYSTEM
2 40 49
