AV-unprocessed.smi:2923|AV-procd|sdf|11204|dock4
  -GOLD-   2272016 93D 1   1.00000     0.00000
 Structure written by MMmdl.
 47 49  0  0  0  0  0  0  0  0  2 V2000
  145.3057  131.5891  150.5642 C   0  0  0  0  0  0  0  0  0  0  0  0
  144.5899  132.7648  150.0863 N   0  0  0  0  0  0  0  0  0  0  0  0
  143.7259  132.6757  148.9143 C   0  0  0  0  0  0  0  0  0  0  0  0
  144.7778  134.0092  150.7261 C   0  0  0  0  0  0  0  0  0  0  0  0
  146.0378  134.4614  151.1889 C   0  0  0  0  0  0  0  0  0  0  0  0
  146.1440  135.7183  151.8188 C   0  0  0  0  0  0  0  0  0  0  0  0
  144.9973  136.5238  151.9777 C   0  0  0  0  0  0  0  0  0  0  0  0
  145.1518  137.7762  152.6317 N   0  0  0  0  0  0  0  0  0  0  0  0
  146.0644  138.1327  153.5519 C   0  0  0  0  0  0  0  0  0  0  0  0
  146.9186  137.3889  154.0332 O   0  0  0  0  0  0  0  0  0  0  0  0
  145.9257  139.4186  153.9005 N   0  0  0  0  0  0  0  0  0  0  0  0
  146.7698  140.1027  154.8751 C   0  0  2  0  0  0  0  0  0  0  0  0
  145.9585  140.9684  155.8515 C   0  0  1  0  0  0  0  0  0  0  0  0
  145.9260  140.6186  157.3147 C   0  0  0  0  0  0  0  0  0  0  0  0
  147.0242  141.5089  157.9035 C   0  0  0  0  0  0  0  0  0  0  0  0
  147.8685  141.8173  156.7970 O   0  0  0  0  0  0  0  0  0  0  0  0
  147.0299  142.0320  155.6643 C   0  0  1  0  0  0  0  0  0  0  0  0
  147.4751  141.3759  154.3403 C   0  0  0  0  0  0  0  0  0  0  0  0
  148.9849  141.2682  154.1206 C   0  0  0  0  0  0  0  0  0  0  0  0
  146.8911  142.0377  153.0837 C   0  0  0  0  0  0  0  0  0  0  0  0
  143.7591  136.0236  151.5093 C   0  0  0  0  0  0  0  0  0  0  0  0
  143.7027  134.8130  150.9134 N   0  3  0  0  0  0  0  0  0  0  0  0
  146.3833  131.7437  150.4998 H   0  0  0  0  0  0  0  0  0  0  0  0
  145.0594  130.7074  149.9724 H   0  0  0  0  0  0  0  0  0  0  0  0
  145.0445  131.3767  151.6014 H   0  0  0  0  0  0  0  0  0  0  0  0
  142.7077  132.9757  149.1653 H   0  0  0  0  0  0  0  0  0  0  0  0
  143.6873  131.6577  148.5257 H   0  0  0  0  0  0  0  0  0  0  0  0
  144.0931  133.3235  148.1174 H   0  0  0  0  0  0  0  0  0  0  0  0
  146.9294  133.8636  151.0725 H   0  0  0  0  0  0  0  0  0  0  0  0
  147.1056  136.0606  152.1731 H   0  0  0  0  0  0  0  0  0  0  0  0
  144.4657  138.4775  152.3939 H   0  0  0  0  0  0  0  0  0  0  0  0
  145.1962  139.9625  153.4636 H   0  0  0  0  0  0  0  0  0  0  0  0
  147.4592  139.4391  155.4021 H   0  0  0  0  0  0  0  0  0  0  0  0
  145.0008  141.2887  155.4370 H   0  0  0  0  0  0  0  0  0  0  0  0
  144.9577  140.8196  157.7739 H   0  0  0  0  0  0  0  0  0  0  0  0
  146.1573  139.5641  157.4679 H   0  0  0  0  0  0  0  0  0  0  0  0
  146.5988  142.4348  158.2934 H   0  0  0  0  0  0  0  0  0  0  0  0
  147.5770  141.0220  158.7071 H   0  0  0  0  0  0  0  0  0  0  0  0
  146.6410  143.0489  155.5933 H   0  0  0  0  0  0  0  0  0  0  0  0
  149.4439  142.2506  154.0070 H   0  0  0  0  0  0  0  0  0  0  0  0
  149.2184  140.6876  153.2276 H   0  0  0  0  0  0  0  0  0  0  0  0
  149.4792  140.7760  154.9586 H   0  0  0  0  0  0  0  0  0  0  0  0
  147.3124  143.0308  152.9252 H   0  0  0  0  0  0  0  0  0  0  0  0
  145.8098  142.1583  153.1550 H   0  0  0  0  0  0  0  0  0  0  0  0
  147.0943  141.4514  152.1871 H   0  0  0  0  0  0  0  0  0  0  0  0
  142.8093  136.5293  151.5940 H   0  0  0  0  0  0  0  0  0  0  0  0
  142.7938  134.4840  150.5870 H   0  0  0  0  0  0  0  0  0  0  0  0
  1  2  1  0  0  0  0
  1 23  1  0  0  0  0
  1 24  1  0  0  0  0
  1 25  1  0  0  0  0
  2  3  1  0  0  0  0
  2  4  1  0  0  0  0
  3 26  1  0  0  0  0
  3 27  1  0  0  0  0
  3 28  1  0  0  0  0
  4 22  1  0  0  0  0
  4  5  2  0  0  0  0
  5  6  1  0  0  0  0
  5 29  1  0  0  0  0
  6  7  2  0  0  0  0
  6 30  1  0  0  0  0
  7  8  1  0  0  0  0
  7 21  1  0  0  0  0
  8  9  1  0  0  0  0
  8 31  1  0  0  0  0
  9 10  2  0  0  0  0
  9 11  1  0  0  0  0
 11 12  1  0  0  0  0
 11 32  1  0  0  0  0
 12 18  1  0  0  0  0
 12 13  1  0  0  0  0
 12 33  1  0  0  0  0
 13 17  1  0  0  0  0
 13 14  1  0  0  0  0
 13 34  1  0  0  0  0
 14 15  1  0  0  0  0
 14 35  1  0  0  0  0
 14 36  1  0  0  0  0
 15 16  1  0  0  0  0
 15 37  1  0  0  0  0
 15 38  1  0  0  0  0
 16 17  1  0  0  0  0
 17 18  1  0  0  0  0
 17 39  1  0  0  0  0
 18 19  1  0  0  0  0
 18 20  1  0  0  0  0
 19 40  1  0  0  0  0
 19 41  1  0  0  0  0
 19 42  1  0  0  0  0
 20 43  1  0  0  0  0
 20 44  1  0  0  0  0
 20 45  1  0  0  0  0
 21 22  2  0  0  0  0
 21 46  1  0  0  0  0
 22 47  1  0  0  0  0
M  CHG  1  22   1
M  END
> <s_m_source_file>
AV-unprocessed.smi

> <i_m_source_file_index>
2923

> <i_lp_mmshare_version>
43012

> <i_f3d_flags>
0

> <s_epik_input>
W0NIM11OKFtDSDNdKWMxW2NIXVtjSF1jKFtjSF1uMSlbTkhdQyg9TylbTkhdW0NASF0yQyhbQ0gzXSkoW0NIM10pW0NAQEhdKFtDQEhdMjMpT1tDSDJdW0NIMl0z

> <s_epik_cmdline>
J2VwaWtfcHl0aG9uJywgJy1waCcsICc3LjAnLCAnLXRuJywgJzgnLCAnLW1hJywgJzIwMCcsICctbWV0YWxfYmluZGluZycsICctaW1hZScsICc8aW5maWxlLm1hZT4nLCAnLW9tYWUnLCAnPG91dGZpbGUubWFlPic=

> <r_lp_tautomer_probability>
0.999994

> <r_epik_Ionization_Penalty>
0.252205

> <r_epik_Ionization_Penalty_Charging>
0.252185

> <r_epik_Ionization_Penalty_Neutral>
1.99479e-05

> <r_epik_State_Penalty>
0.243573

> <r_epik_Charging_Adjusted_Penalty>
0.495758

> <i_epik_Tot_Q>
1

> <i_epik_Tot_abs_Q>
1

> <r_epik_Metal_State_Penalty>
0.534372

> <b_epik_Metal_Only>
0

> <s_lp_Force_Field>
OPLS_2005

> <r_lp_Energy>
44.365

> <b_lp_Chiralities_Consistent>
1

> <s_lp_Variant>
AV-unprocessed.smi:2923-3

> <Gold.Version>
5.8.1

> <Gold.Id.Protein>
6NUR|6NUR_protein|mol2

> <Gold.PLP.Fitness>
40.6133

> <Gold.PLP.PLP>
-30.6519

> <Gold.PLP.part.hbond>
-3.4745

> <Gold.PLP.part.metal>
0.0000

> <Gold.PLP.part.buried>
-2.4447

> <Gold.PLP.part.nonpolar>
-24.9502

> <Gold.PLP.part.repulsive>
0.2581

> <Gold.PLP.ligand.clash>
0.0000

> <Gold.PLP.ligand.torsion>
0.9252

> <Gold.PLP.Chemscore.Hbond>
3.8775

> <Gold.PLP.Chemscore.CHOScore>
0.0000

> <Gold.PLP.Chemscore.Metal>
0.0000

> <Gold.Chemscore.Hbonds>
donor molecule, donor type, donor heavy atom, donor atom, acceptor molecule, acceptor atom, score
      L1  H     8    31       P1 10175  0.76
      L1  H    11    32       P1 10175  1.00
      L1  H    22    47       P1 10186  1.89

> <Gold.PLP.Chemscore.Internal.Correction>
0.1793

> <Gold.Rescore>
     Score         DG    S(hbond)    S(metal)    S(lipo)     H(rot)  DE(clash)    DE(int)     intcor
     15.04     -19.89       2.38        0.00      77.03       1.00       2.94       1.90       ----

> <Gold.Chemscore.Fitness>
15.0433

> <Gold.Chemscore.DG>
-19.8865

> <Gold.Chemscore.ZeroCoef>
-5.4800

> <Gold.Chemscore.Hbond>
2.3813

> <Gold.Chemscore.Metal>
0.0000

> <Gold.Chemscore.Lipo>
77.0349

> <Gold.Chemscore.Internal_Hbond>
0.0000

> <Gold.Chemscore.DEClash>
2.9404

> <Gold.Chemscore.DEInternal>
1.9028

> <Gold.Chemscore.Rot>
1.0000

> <Gold.Chemscore.Internal.Correction>
   9.000000E+99

> <Gold.Chemscore.Hbonds>
donor molecule, donor type, donor heavy atom, donor atom, acceptor molecule, acceptor atom, score
      L1  H     8    31       P1 10175  0.75
      L1  H    11    32       P1 10175  1.00
      L1  H    22    47       P1 10186  0.36

> <Gold.Chemscore.Hbond.Weighted>
-7.9534

> <Gold.Chemscore.Metal.Weighted>
-0.0000

> <Gold.Chemscore.Lipo.Weighted>
-9.0131

> <Gold.Chemscore.Internal_Hbond.Weighted>
0.0000

> <Gold.Chemscore.DEClash.Weighted>
2.9404

> <Gold.Chemscore.DEInternal.Weighted>
1.9028

> <Gold.Chemscore.Rot.Weighted>
2.5600

> <Gold.Chemscore.Internal.Correction.Weighted>
   9.000000E+99

> <Gold.Protein.RotatedTorsions>
[ 6907 6896 6895 6894 ] final  -41.11 input  -60.11 | X-H torsion
[ 7974 7965 7964 7962 ] final   59.43 input  175.53 | X-H torsion
[ 8008 7997 7996 7995 ] final   45.79 input   59.86 | X-H torsion
[ 10167 10162 10161 10158 ] final   69.51 input  -65.29 | X-H torsion
[ 10718 10713 10712 10709 ] final   18.58 input   66.30 | X-H torsion
[ 10763 10752 10751 10750 ] final   99.14 input  -60.55 | X-H torsion
[ 11005 11000 10999 10996 ] final   -6.40 input  -57.11 | X-H torsion

> <Gold.Protein.ActiveResidues>
 VAL166  LYS551  ARG553  GLY616  TRP617  ASP618  TYR619  PRO620  LYS621  CYS622 
 ASP623  PHE694  ASN695  SER759  ASP760  ASP761  ALA762  ILE779  LEU786  VAL792 
 PHE793  MET794  SER795  GLU796  ALA797  LYS798  CYS799  TRP800  GLU811  SER814 

> <Gold.Protein.RotatedAtoms>
  150.9705  134.9079  159.7784 H   0  0  0  0  0  0  0  0  0  0  0  0  # atno 6907 bound_to 6896
  152.5188  134.3547  159.9273 H   0  0  0  0  0  0  0  0  0  0  0  0  # atno 6908 bound_to 6896
  151.3556  133.3868  159.2719 H   0  0  0  0  0  0  0  0  0  0  0  0  # atno 6909 bound_to 6896
  145.9072  139.3626  143.0557 H   0  0  0  0  0  0  0  0  0  0  0  0  # atno 7974 bound_to 7965
  155.3418  140.3408  155.4239 H   0  0  0  0  0  0  0  0  0  0  0  0  # atno 8008 bound_to 7997
  156.1809  140.1664  156.8311 H   0  0  0  0  0  0  0  0  0  0  0  0  # atno 8009 bound_to 7997
  154.5333  140.0740  156.8366 H   0  0  0  0  0  0  0  0  0  0  0  0  # atno 8010 bound_to 7997
  140.0670  144.5184  150.7253 H   0  0  0  0  0  0  0  0  0  0  0  0  # atno 10167 bound_to 10162
  157.0984  130.6457  149.5866 H   0  0  0  0  0  0  0  0  0  0  0  0  # atno 10718 bound_to 10713
  153.2977  135.4124  155.1225 H   0  0  0  0  0  0  0  0  0  0  0  0  # atno 10763 bound_to 10752
  154.8540  135.3534  154.5894 H   0  0  0  0  0  0  0  0  0  0  0  0  # atno 10764 bound_to 10752
  153.6318  135.7060  153.5331 H   0  0  0  0  0  0  0  0  0  0  0  0  # atno 10765 bound_to 10752
  140.7016  133.8985  155.8687 H   0  0  0  0  0  0  0  0  0  0  0  0  # atno 11005 bound_to 11000
  145.8717  140.9416  143.0647 LP  0  0  0  0  0  0  0  0  0  0  0  0  # atno 17320 bound_to 7965
  144.6740  140.0664  143.7474 LP  0  0  0  0  0  0  0  0  0  0  0  0  # atno 17321 bound_to 7965
  140.7144  143.2532  151.4481 LP  0  0  0  0  0  0  0  0  0  0  0  0  # atno 17342 bound_to 10162
  139.5859  144.1606  152.2028 LP  0  0  0  0  0  0  0  0  0  0  0  0  # atno 17343 bound_to 10162
  155.9880  130.4921  150.7150 LP  0  0  0  0  0  0  0  0  0  0  0  0  # atno 17370 bound_to 10713
  157.4662  131.0888  151.0692 LP  0  0  0  0  0  0  0  0  0  0  0  0  # atno 17371 bound_to 10713
  141.0159  134.0957  157.4173 LP  0  0  0  0  0  0  0  0  0  0  0  0  # atno 17394 bound_to 11000
  139.8895  135.0105  156.6683 LP  0  0  0  0  0  0  0  0  0  0  0  0  # atno 17395 bound_to 11000

$$$$
