AV-unprocessed.smi:896|AV-procd|sdf|4077|dock10
  -GOLD-   22720 1563D 1   1.00000     0.00000
 Structure written by MMmdl.
 49 50  0  0  0  0  0  0  0  0  2 V2000
  151.7901  143.0630  158.5772 C   0  0  0  0  0  0  0  0  0  0  0  0
  152.2389  141.7908  158.1233 O   0  0  0  0  0  0  0  0  0  0  0  0
  151.5193  141.1589  157.1300 C   0  0  0  0  0  0  0  0  0  0  0  0
  150.2203  141.6185  156.8415 C   0  0  0  0  0  0  0  0  0  0  0  0
  149.4837  140.9819  155.8252 C   0  0  0  0  0  0  0  0  0  0  0  0
  150.0714  139.9048  155.1192 C   0  0  0  0  0  0  0  0  0  0  0  0
  149.3966  139.1889  154.0907 N   0  0  0  0  0  0  0  0  0  0  0  0
  148.1477  139.3743  153.6305 C   0  0  0  0  0  0  0  0  0  0  0  0
  147.3599  140.2299  154.0346 O   0  0  0  0  0  0  0  0  0  0  0  0
  147.8606  138.5144  152.6427 N   0  0  0  0  0  0  0  0  0  0  0  0
  146.5925  138.4619  151.9242 C   0  0  0  0  0  0  0  0  0  0  0  0
  145.5250  137.6890  152.7210 C   0  0  0  0  0  0  0  0  0  0  0  0
  144.7903  136.6094  151.9012 C   0  0  2  0  0  0  0  0  0  0  0  0
  143.8601  135.7743  152.8010 C   0  0  0  0  0  0  0  0  0  0  0  0
  143.1372  134.6765  152.0034 C   0  0  0  0  0  0  0  0  0  0  0  0
  144.1098  133.7945  151.3134 N   0  3  1  0  0  0  0  0  0  0  0  0
  143.4548  132.6554  150.6354 C   0  0  0  0  0  0  0  0  0  0  0  0
  145.0002  134.5578  150.4051 C   0  0  0  0  0  0  0  0  0  0  0  0
  145.7578  135.6587  151.1669 C   0  0  0  0  0  0  0  0  0  0  0  0
  151.3755  139.5045  155.4984 C   0  0  0  0  0  0  0  0  0  0  0  0
  152.0776  138.3428  154.8175 C   0  0  0  0  0  0  0  0  0  0  0  0
  152.0840  140.1169  156.4724 N   0  0  0  0  0  0  0  0  0  0  0  0
  152.4607  143.4245  159.3564 H   0  0  0  0  0  0  0  0  0  0  0  0
  150.7883  143.0026  159.0051 H   0  0  0  0  0  0  0  0  0  0  0  0
  151.7925  143.7986  157.7715 H   0  0  0  0  0  0  0  0  0  0  0  0
  149.7941  142.4439  157.3925 H   0  0  0  0  0  0  0  0  0  0  0  0
  148.4804  141.3208  155.6177 H   0  0  0  0  0  0  0  0  0  0  0  0
  149.9562  138.5088  153.5976 H   0  0  0  0  0  0  0  0  0  0  0  0
  148.5680  137.8477  152.3698 H   0  0  0  0  0  0  0  0  0  0  0  0
  146.2590  139.4856  151.7517 H   0  0  0  0  0  0  0  0  0  0  0  0
  146.7509  138.0178  150.9410 H   0  0  0  0  0  0  0  0  0  0  0  0
  145.9752  137.2312  153.6030 H   0  0  0  0  0  0  0  0  0  0  0  0
  144.7937  138.4065  153.0965 H   0  0  0  0  0  0  0  0  0  0  0  0
  144.1707  137.1122  151.1569 H   0  0  0  0  0  0  0  0  0  0  0  0
  144.4367  135.3181  153.6072 H   0  0  0  0  0  0  0  0  0  0  0  0
  143.1224  136.4206  153.2781 H   0  0  0  0  0  0  0  0  0  0  0  0
  142.5209  134.0828  152.6796 H   0  0  0  0  0  0  0  0  0  0  0  0
  142.4640  135.1246  151.2707 H   0  0  0  0  0  0  0  0  0  0  0  0
  142.7913  133.0014  149.8419 H   0  0  0  0  0  0  0  0  0  0  0  0
  142.8659  132.0723  151.3440 H   0  0  0  0  0  0  0  0  0  0  0  0
  144.1983  131.9903  150.1947 H   0  0  0  0  0  0  0  0  0  0  0  0
  145.7171  133.8787  149.9416 H   0  0  0  0  0  0  0  0  0  0  0  0
  144.4112  134.9965  149.5979 H   0  0  0  0  0  0  0  0  0  0  0  0
  146.3770  136.2121  150.4613 H   0  0  0  0  0  0  0  0  0  0  0  0
  146.4416  135.2011  151.8834 H   0  0  0  0  0  0  0  0  0  0  0  0
  152.1540  138.5205  153.7444 H   0  0  0  0  0  0  0  0  0  0  0  0
  151.5219  137.4183  154.9769 H   0  0  0  0  0  0  0  0  0  0  0  0
  153.0866  138.2002  155.2067 H   0  0  0  0  0  0  0  0  0  0  0  0
  144.7007  133.3997  152.0313 H   0  0  0  0  0  0  0  0  0  0  0  0
  1  2  1  0  0  0  0
  1 23  1  0  0  0  0
  1 24  1  0  0  0  0
  1 25  1  0  0  0  0
  2  3  1  0  0  0  0
  3 22  1  0  0  0  0
  3  4  2  0  0  0  0
  4  5  1  0  0  0  0
  4 26  1  0  0  0  0
  5  6  2  0  0  0  0
  5 27  1  0  0  0  0
  6  7  1  0  0  0  0
  6 20  1  0  0  0  0
  7  8  1  0  0  0  0
  7 28  1  0  0  0  0
  8  9  2  0  0  0  0
  8 10  1  0  0  0  0
 10 11  1  0  0  0  0
 10 29  1  0  0  0  0
 11 12  1  0  0  0  0
 11 30  1  0  0  0  0
 11 31  1  0  0  0  0
 12 13  1  0  0  0  0
 12 32  1  0  0  0  0
 12 33  1  0  0  0  0
 13 19  1  0  0  0  0
 13 14  1  0  0  0  0
 13 34  1  0  0  0  0
 14 15  1  0  0  0  0
 14 35  1  0  0  0  0
 14 36  1  0  0  0  0
 15 16  1  0  0  0  0
 15 37  1  0  0  0  0
 15 38  1  0  0  0  0
 16 17  1  0  0  0  0
 16 18  1  0  0  0  0
 16 49  1  0  0  0  0
 17 39  1  0  0  0  0
 17 40  1  0  0  0  0
 17 41  1  0  0  0  0
 18 19  1  0  0  0  0
 18 42  1  0  0  0  0
 18 43  1  0  0  0  0
 19 44  1  0  0  0  0
 19 45  1  0  0  0  0
 20 21  1  0  0  0  0
 20 22  2  0  0  0  0
 21 46  1  0  0  0  0
 21 47  1  0  0  0  0
 21 48  1  0  0  0  0
M  CHG  1  16   1
M  END
> <s_m_source_file>
AV-unprocessed.smi

> <i_m_source_file_index>
896

> <i_lp_mmshare_version>
43012

> <i_f3d_flags>
0

> <s_epik_input>
W0NIM11PYzFbY0hdW2NIXWMoYyhuMSlbQ0gzXSlbTkhdQyg9TylbTkhdW0NIMl1bQ0gyXVtDSF0yW0NIMl1bQ0gyXU4oW0NIM10pW0NIMl1bQ0gyXTI=

> <s_epik_cmdline>
J2VwaWtfcHl0aG9uJywgJy1waCcsICc3LjAnLCAnLXRuJywgJzgnLCAnLW1hJywgJzIwMCcsICctbWV0YWxfYmluZGluZycsICctaW1hZScsICc8aW5maWxlLm1hZT4nLCAnLW9tYWUnLCAnPG91dGZpbGUubWFlPic=

> <r_lp_tautomer_probability>
1

> <r_epik_Ionization_Penalty>
0.000968128

> <r_epik_Ionization_Penalty_Charging>
0.000718523

> <r_epik_Ionization_Penalty_Neutral>
0.000249604

> <r_epik_State_Penalty>
0.00045807

> <r_epik_Charging_Adjusted_Penalty>
0.00117659

> <i_epik_Tot_Q>
1

> <i_epik_Tot_abs_Q>
1

> <r_epik_Metal_State_Penalty>
-0

> <b_epik_Metal_Only>
0

> <s_lp_Force_Field>
OPLS_2005

> <r_lp_Energy>
19.0488

> <b_lp_Chiralities_Consistent>
1

> <s_lp_Variant>
AV-unprocessed.smi:896-1

> <Gold.Version>
5.8.1

> <Gold.Id.Protein>
6NUR|6NUR_protein|mol2

> <Gold.PLP.Fitness>
42.6223

> <Gold.PLP.PLP>
-39.2557

> <Gold.PLP.part.hbond>
-3.5807

> <Gold.PLP.part.metal>
0.0000

> <Gold.PLP.part.buried>
-0.4279

> <Gold.PLP.part.nonpolar>
-34.5113

> <Gold.PLP.part.repulsive>
0.2700

> <Gold.PLP.ligand.clash>
0.0000

> <Gold.PLP.ligand.torsion>
0.7202

> <Gold.PLP.Chemscore.Hbond>
1.5933

> <Gold.PLP.Chemscore.CHOScore>
0.0000

> <Gold.PLP.Chemscore.Metal>
0.0000

> <Gold.Chemscore.Hbonds>
donor molecule, donor type, donor heavy atom, donor atom, acceptor molecule, acceptor atom, score
      L1  H    10    29       P1  7948  0.99
      P1  H  7997  8008       L1    22  0.44

> <Gold.PLP.Chemscore.Internal.Correction>
0.0274

> <Gold.Rescore>
     Score         DG    S(hbond)    S(metal)    S(lipo)     H(rot)  DE(clash)    DE(int)     intcor
     15.42     -17.38       1.73        0.00      88.60       1.65       0.04       1.92       ----

> <Gold.Chemscore.Fitness>
15.4193

> <Gold.Chemscore.DG>
-17.3843

> <Gold.Chemscore.ZeroCoef>
-5.4800

> <Gold.Chemscore.Hbond>
1.7268

> <Gold.Chemscore.Metal>
0.0000

> <Gold.Chemscore.Lipo>
88.5995

> <Gold.Chemscore.Internal_Hbond>
0.0000

> <Gold.Chemscore.DEClash>
0.0402

> <Gold.Chemscore.DEInternal>
1.9248

> <Gold.Chemscore.Rot>
1.6521

> <Gold.Chemscore.Internal.Correction>
   9.000000E+99

> <Gold.Chemscore.Hbonds>
donor molecule, donor type, donor heavy atom, donor atom, acceptor molecule, acceptor atom, score
      L1  H    10    29       P1  7948  0.93
      P1  H  7997  8008       L1    22  0.39

> <Gold.Chemscore.Hbond.Weighted>
-5.7676

> <Gold.Chemscore.Metal.Weighted>
-0.0000

> <Gold.Chemscore.Lipo.Weighted>
-10.3661

> <Gold.Chemscore.Internal_Hbond.Weighted>
0.0000

> <Gold.Chemscore.DEClash.Weighted>
0.0402

> <Gold.Chemscore.DEInternal.Weighted>
1.9248

> <Gold.Chemscore.Rot.Weighted>
4.2294

> <Gold.Chemscore.Internal.Correction.Weighted>
   9.000000E+99

> <Gold.Protein.RotatedTorsions>
[ 6907 6896 6895 6894 ] final   76.64 input  -60.11 | X-H torsion
[ 7974 7965 7964 7962 ] final  165.51 input  175.53 | X-H torsion
[ 8008 7997 7996 7995 ] final  -40.72 input   59.86 | X-H torsion
[ 10167 10162 10161 10158 ] final -119.26 input  -65.29 | X-H torsion
[ 10718 10713 10712 10709 ] final   -5.94 input   66.30 | X-H torsion
[ 10763 10752 10751 10750 ] final  -55.86 input  -60.55 | X-H torsion
[ 11005 11000 10999 10996 ] final -136.56 input  -57.11 | X-H torsion

> <Gold.Protein.ActiveResidues>
 VAL166  LYS551  ARG553  GLY616  TRP617  ASP618  TYR619  PRO620  LYS621  CYS622 
 ASP623  PHE694  ASN695  SER759  ASP760  ASP761  ALA762  ILE779  LEU786  VAL792 
 PHE793  MET794  SER795  GLU796  ALA797  LYS798  CYS799  TRP800  GLU811  SER814 

> <Gold.Protein.RotatedAtoms>
  152.5082  134.3938  159.9392 H   0  0  0  0  0  0  0  0  0  0  0  0  # atno 6907 bound_to 6896
  151.3899  133.3786  159.2727 H   0  0  0  0  0  0  0  0  0  0  0  0  # atno 6908 bound_to 6896
  150.9440  134.8867  159.7689 H   0  0  0  0  0  0  0  0  0  0  0  0  # atno 6909 bound_to 6896
  144.7500  139.8480  143.6369 H   0  0  0  0  0  0  0  0  0  0  0  0  # atno 7974 bound_to 7965
  154.4009  140.1518  156.3073 H   0  0  0  0  0  0  0  0  0  0  0  0  # atno 8008 bound_to 7997
  155.8647  140.3452  155.5758 H   0  0  0  0  0  0  0  0  0  0  0  0  # atno 8009 bound_to 7997
  155.7841  140.0847  157.2034 H   0  0  0  0  0  0  0  0  0  0  0  0  # atno 8010 bound_to 7997
  140.0486  143.5083  152.2094 H   0  0  0  0  0  0  0  0  0  0  0  0  # atno 10167 bound_to 10162
  156.7392  130.5204  149.5828 H   0  0  0  0  0  0  0  0  0  0  0  0  # atno 10718 bound_to 10713
  154.1975  135.6417  153.5077 H   0  0  0  0  0  0  0  0  0  0  0  0  # atno 10763 bound_to 10752
  153.0020  135.5443  154.6350 H   0  0  0  0  0  0  0  0  0  0  0  0  # atno 10764 bound_to 10752
  154.5755  135.2920  155.0758 H   0  0  0  0  0  0  0  0  0  0  0  0  # atno 10765 bound_to 10752
  140.8794  134.1951  157.4601 H   0  0  0  0  0  0  0  0  0  0  0  0  # atno 11005 bound_to 11000
  146.1436  139.4499  143.0093 LP  0  0  0  0  0  0  0  0  0  0  0  0  # atno 17320 bound_to 7965
  145.6980  141.0144  143.1519 LP  0  0  0  0  0  0  0  0  0  0  0  0  # atno 17321 bound_to 7965
  139.5968  144.7569  151.3268 LP  0  0  0  0  0  0  0  0  0  0  0  0  # atno 17342 bound_to 10162
  140.7227  143.7090  150.7785 LP  0  0  0  0  0  0  0  0  0  0  0  0  # atno 17343 bound_to 10162
  156.1476  130.6288  151.0553 LP  0  0  0  0  0  0  0  0  0  0  0  0  # atno 17370 bound_to 10713
  157.6826  131.0834  150.7329 LP  0  0  0  0  0  0  0  0  0  0  0  0  # atno 17371 bound_to 10713
  139.8718  134.9810  156.5099 LP  0  0  0  0  0  0  0  0  0  0  0  0  # atno 17394 bound_to 11000
  140.8480  133.8154  155.9140 LP  0  0  0  0  0  0  0  0  0  0  0  0  # atno 17395 bound_to 11000

$$$$
