AV-unprocessed.smi:3183|AV-procd|sdf|12155|dock10
  -GOLD-   2272017593D 1   1.00000     0.00000
 Structure written by MMmdl.
 43 44  0  0  0  0  0  0  0  0  2 V2000
  152.3935  144.1432  161.9102 C   0  0  0  0  0  0  0  0  0  0  0  0
  152.6505  143.8233  160.4268 C   0  0  2  0  0  0  0  0  0  0  0  0
  151.7609  144.7169  159.5391 C   0  0  0  0  0  0  0  0  0  0  0  0
  151.9852  144.4539  158.0420 C   0  0  0  0  0  0  0  0  0  0  0  0
  151.7806  142.9737  157.6798 C   0  0  2  0  0  0  0  0  0  0  0  0
  150.3506  142.5998  157.7682 N   0  3  0  0  0  0  0  0  0  0  0  0
  150.0728  141.1575  157.6204 C   0  0  0  0  0  0  0  0  0  0  0  0
  150.2364  140.7119  156.1598 C   0  0  0  0  0  0  0  0  0  0  0  0
  151.3859  139.7789  155.9252 C   0  0  0  0  0  0  0  0  0  0  0  0
  152.6903  139.8447  156.3341 C   0  0  0  0  0  0  0  0  0  0  0  0
  153.2856  138.6708  155.7968 C   0  0  0  0  0  0  0  0  0  0  0  0
  152.4271  137.9364  155.1126 N   0  0  0  0  0  0  0  0  0  0  0  0
  151.2615  138.6121  155.1887 N   0  0  0  0  0  0  0  0  0  0  0  0
  150.0982  138.0553  154.5243 C   0  0  0  0  0  0  0  0  0  0  0  0
  152.6427  142.0668  158.5766 C   0  0  0  0  0  0  0  0  0  0  0  0
  152.4361  142.3244  160.0862 C   0  0  1  0  0  0  0  0  0  0  0  0
  153.3490  141.3907  160.9015 C   0  0  0  0  0  0  0  0  0  0  0  0
  151.3890  143.8451  162.2127 H   0  0  0  0  0  0  0  0  0  0  0  0
  152.4931  145.2117  162.1034 H   0  0  0  0  0  0  0  0  0  0  0  0
  153.1050  143.6386  162.5632 H   0  0  0  0  0  0  0  0  0  0  0  0
  153.6904  144.0751  160.2128 H   0  0  0  0  0  0  0  0  0  0  0  0
  150.7110  144.5555  159.7877 H   0  0  0  0  0  0  0  0  0  0  0  0
  151.9637  145.7675  159.7508 H   0  0  0  0  0  0  0  0  0  0  0  0
  151.3245  145.0852  157.4463 H   0  0  0  0  0  0  0  0  0  0  0  0
  153.0022  144.7489  157.7802 H   0  0  0  0  0  0  0  0  0  0  0  0
  152.1124  142.8355  156.6494 H   0  0  0  0  0  0  0  0  0  0  0  0
  150.0000  142.9028  158.6656 H   0  0  0  0  0  0  0  0  0  0  0  0
  150.7544  140.5964  158.2615 H   0  0  0  0  0  0  0  0  0  0  0  0
  149.0573  140.9535  157.9628 H   0  0  0  0  0  0  0  0  0  0  0  0
  149.3154  140.2291  155.8299 H   0  0  0  0  0  0  0  0  0  0  0  0
  150.3620  141.5938  155.5302 H   0  0  0  0  0  0  0  0  0  0  0  0
  153.1563  140.6158  156.9294 H   0  0  0  0  0  0  0  0  0  0  0  0
  154.3078  138.3330  155.8828 H   0  0  0  0  0  0  0  0  0  0  0  0
  149.2259  138.6925  154.6645 H   0  0  0  0  0  0  0  0  0  0  0  0
  149.8799  137.0680  154.9326 H   0  0  0  0  0  0  0  0  0  0  0  0
  150.2956  137.9617  153.4560 H   0  0  0  0  0  0  0  0  0  0  0  0
  152.4392  141.0207  158.3428 H   0  0  0  0  0  0  0  0  0  0  0  0
  153.6934  142.2285  158.3305 H   0  0  0  0  0  0  0  0  0  0  0  0
  151.4053  142.0654  160.3327 H   0  0  0  0  0  0  0  0  0  0  0  0
  154.4005  141.6474  160.7684 H   0  0  0  0  0  0  0  0  0  0  0  0
  153.2215  140.3522  160.5952 H   0  0  0  0  0  0  0  0  0  0  0  0
  153.1255  141.4342  161.9672 H   0  0  0  0  0  0  0  0  0  0  0  0
  149.8493  143.0971  157.0460 H   0  0  0  0  0  0  0  0  0  0  0  0
  1  2  1  0  0  0  0
  1 18  1  0  0  0  0
  1 19  1  0  0  0  0
  1 20  1  0  0  0  0
  2 16  1  0  0  0  0
  2  3  1  0  0  0  0
  2 21  1  0  0  0  0
  3  4  1  0  0  0  0
  3 22  1  0  0  0  0
  3 23  1  0  0  0  0
  4  5  1  0  0  0  0
  4 24  1  0  0  0  0
  4 25  1  0  0  0  0
  5  6  1  0  0  0  0
  5 15  1  0  0  0  0
  5 26  1  0  0  0  0
  6  7  1  0  0  0  0
  6 27  1  0  0  0  0
  6 43  1  0  0  0  0
  7  8  1  0  0  0  0
  7 28  1  0  0  0  0
  7 29  1  0  0  0  0
  8  9  1  0  0  0  0
  8 30  1  0  0  0  0
  8 31  1  0  0  0  0
  9 13  1  0  0  0  0
  9 10  2  0  0  0  0
 10 11  1  0  0  0  0
 10 32  1  0  0  0  0
 11 12  2  0  0  0  0
 11 33  1  0  0  0  0
 12 13  1  0  0  0  0
 13 14  1  0  0  0  0
 14 34  1  0  0  0  0
 14 35  1  0  0  0  0
 14 36  1  0  0  0  0
 15 16  1  0  0  0  0
 15 37  1  0  0  0  0
 15 38  1  0  0  0  0
 16 17  1  0  0  0  0
 16 39  1  0  0  0  0
 17 40  1  0  0  0  0
 17 41  1  0  0  0  0
 17 42  1  0  0  0  0
M  CHG  1   6   1
M  END
> <s_m_source_file>
AV-unprocessed.smi

> <i_m_source_file_index>
3183

> <i_lp_mmshare_version>
43012

> <i_f3d_flags>
0

> <s_epik_input>
W0NIM11bQ0BASF0xW0NIMl1bQ0gyXVtDQEhdKFtDSDJdW0NASF0xW0NIM10pW05IXVtDSDJdW0NIMl1jMltjSF1bY0hdbm4yW0NIM10=

> <s_epik_cmdline>
J2VwaWtfcHl0aG9uJywgJy1waCcsICc3LjAnLCAnLXRuJywgJzgnLCAnLW1hJywgJzIwMCcsICctbWV0YWxfYmluZGluZycsICctaW1hZScsICc8aW5maWxlLm1hZT4nLCAnLW9tYWUnLCAnPG91dGZpbGUubWFlPic=

> <r_lp_tautomer_probability>
1

> <r_epik_Ionization_Penalty>
0.000327718

> <r_epik_Ionization_Penalty_Charging>
0.000294043

> <r_epik_Ionization_Penalty_Neutral>
3.36755e-05

> <r_epik_State_Penalty>
-0

> <r_epik_Charging_Adjusted_Penalty>
0.000294043

> <i_epik_Tot_Q>
1

> <i_epik_Tot_abs_Q>
1

> <r_epik_Metal_State_Penalty>
-0

> <b_epik_Metal_Only>
0

> <s_lp_Force_Field>
OPLS_2005

> <r_lp_Energy>
17.888

> <b_lp_Chiralities_Consistent>
1

> <s_lp_Variant>
AV-unprocessed.smi:3183-3

> <Gold.Version>
5.8.1

> <Gold.Id.Protein>
6NUR|6NUR_protein|mol2

> <Gold.PLP.Fitness>
49.3446

> <Gold.PLP.PLP>
-44.5234

> <Gold.PLP.part.hbond>
-1.0000

> <Gold.PLP.part.metal>
0.0000

> <Gold.PLP.part.buried>
-5.1273

> <Gold.PLP.part.nonpolar>
-37.8396

> <Gold.PLP.part.repulsive>
0.1740

> <Gold.PLP.ligand.clash>
0.0000

> <Gold.PLP.ligand.torsion>
0.5960

> <Gold.PLP.Chemscore.Hbond>
2.0000

> <Gold.PLP.Chemscore.CHOScore>
0.0000

> <Gold.PLP.Chemscore.Metal>
0.0000

> <Gold.Chemscore.Hbonds>
donor molecule, donor type, donor heavy atom, donor atom, acceptor molecule, acceptor atom, score
      L1  H     6    43       P1  8028  0.49

> <Gold.PLP.Chemscore.Internal.Correction>
0.0132

> <Gold.Rescore>
     Score         DG    S(hbond)    S(metal)    S(lipo)     H(rot)  DE(clash)    DE(int)     intcor
     18.97     -19.61       1.00        0.00     122.46       1.38       0.06       0.58       ----

> <Gold.Chemscore.Fitness>
18.9655

> <Gold.Chemscore.DG>
-19.6114

> <Gold.Chemscore.ZeroCoef>
-5.4800

> <Gold.Chemscore.Hbond>
0.9964

> <Gold.Chemscore.Metal>
0.0000

> <Gold.Chemscore.Lipo>
122.4637

> <Gold.Chemscore.Internal_Hbond>
0.0000

> <Gold.Chemscore.DEClash>
0.0641

> <Gold.Chemscore.DEInternal>
0.5817

> <Gold.Chemscore.Rot>
1.3768

> <Gold.Chemscore.Internal.Correction>
   9.000000E+99

> <Gold.Chemscore.Hbonds>
donor molecule, donor type, donor heavy atom, donor atom, acceptor molecule, acceptor atom, score
      L1  H     6    43       P1  8028  0.25
      P1  H 10752 10764       L1    12  0.03

> <Gold.Chemscore.Hbond.Weighted>
-3.3279

> <Gold.Chemscore.Metal.Weighted>
-0.0000

> <Gold.Chemscore.Lipo.Weighted>
-14.3282

> <Gold.Chemscore.Internal_Hbond.Weighted>
0.0000

> <Gold.Chemscore.DEClash.Weighted>
0.0641

> <Gold.Chemscore.DEInternal.Weighted>
0.5817

> <Gold.Chemscore.Rot.Weighted>
3.5247

> <Gold.Chemscore.Internal.Correction.Weighted>
   9.000000E+99

> <Gold.Protein.RotatedTorsions>
[ 6907 6896 6895 6894 ] final  102.31 input  -60.11 | X-H torsion
[ 7974 7965 7964 7962 ] final   46.79 input  175.53 | X-H torsion
[ 8008 7997 7996 7995 ] final  146.42 input   59.86 | X-H torsion
[ 10167 10162 10161 10158 ] final -129.51 input  -65.29 | X-H torsion
[ 10718 10713 10712 10709 ] final  -89.21 input   66.30 | X-H torsion
[ 10763 10752 10751 10750 ] final  -53.78 input  -60.55 | X-H torsion
[ 11005 11000 10999 10996 ] final -107.02 input  -57.11 | X-H torsion

> <Gold.Protein.ActiveResidues>
 VAL166  LYS551  ARG553  GLY616  TRP617  ASP618  TYR619  PRO620  LYS621  CYS622 
 ASP623  PHE694  ASN695  SER759  ASP760  ASP761  ALA762  ILE779  LEU786  VAL792 
 PHE793  MET794  SER795  GLU796  ALA797  LYS798  CYS799  TRP800  GLU811  SER814 

> <Gold.Protein.RotatedAtoms>
  152.5327  133.9995  159.7887 H   0  0  0  0  0  0  0  0  0  0  0  0  # atno 6907 bound_to 6896
  151.0216  133.5863  159.2678 H   0  0  0  0  0  0  0  0  0  0  0  0  # atno 6908 bound_to 6896
  151.2901  135.0746  159.9254 H   0  0  0  0  0  0  0  0  0  0  0  0  # atno 6909 bound_to 6896
  146.0358  139.4819  142.9809 H   0  0  0  0  0  0  0  0  0  0  0  0  # atno 7974 bound_to 7965
  156.2855  140.2183  156.5374 H   0  0  0  0  0  0  0  0  0  0  0  0  # atno 8008 bound_to 7997
  154.7398  140.0488  157.0823 H   0  0  0  0  0  0  0  0  0  0  0  0  # atno 8009 bound_to 7997
  155.0246  140.3128  155.4784 H   0  0  0  0  0  0  0  0  0  0  0  0  # atno 8010 bound_to 7997
  139.9390  143.6185  152.2509 H   0  0  0  0  0  0  0  0  0  0  0  0  # atno 10167 bound_to 10162
  155.9984  130.4864  150.5136 H   0  0  0  0  0  0  0  0  0  0  0  0  # atno 10718 bound_to 10713
  154.1644  135.6469  153.4994 H   0  0  0  0  0  0  0  0  0  0  0  0  # atno 10763 bound_to 10752
  153.0101  135.5368  154.6678 H   0  0  0  0  0  0  0  0  0  0  0  0  # atno 10764 bound_to 10752
  154.6000  135.2943  155.0517 H   0  0  0  0  0  0  0  0  0  0  0  0  # atno 10765 bound_to 10752
  141.0975  133.8944  157.1925 H   0  0  0  0  0  0  0  0  0  0  0  0  # atno 11005 bound_to 11000
  145.6966  141.0148  143.1526 LP  0  0  0  0  0  0  0  0  0  0  0  0  # atno 17320 bound_to 7965
  144.7051  139.8595  143.7432 LP  0  0  0  0  0  0  0  0  0  0  0  0  # atno 17321 bound_to 7965
  139.6720  144.7660  151.1765 LP  0  0  0  0  0  0  0  0  0  0  0  0  # atno 17342 bound_to 10162
  140.7616  143.5851  150.8854 LP  0  0  0  0  0  0  0  0  0  0  0  0  # atno 17343 bound_to 10162
  157.3106  131.0663  151.2003 LP  0  0  0  0  0  0  0  0  0  0  0  0  # atno 17370 bound_to 10713
  157.2951  130.6815  149.6134 LP  0  0  0  0  0  0  0  0  0  0  0  0  # atno 17371 bound_to 10713
  139.9816  135.0096  156.9764 LP  0  0  0  0  0  0  0  0  0  0  0  0  # atno 17394 bound_to 11000
  140.5103  134.1009  155.7269 LP  0  0  0  0  0  0  0  0  0  0  0  0  # atno 17395 bound_to 11000

$$$$
