#       Name:                AV-unprocessed.smi:544
#       Creating user name   scv26
#       Creation time:       Thu Mar 26 23:37:16 2020


#       File generated by GOLD software.
#

@<TRIPOS>MOLECULE
AV-unprocessed.smi:544
    56    58     1
SMALL
NO_CHARGES


@<TRIPOS>ATOM
      1 ****        -2.6264   3.4786  -2.8421 C.3            1 S1                 0.0000
      2 ****        -2.8196   1.9738  -2.6423 C.3            1 S1                 0.0000
      3 ****        -1.5754   1.4032  -2.2791 O.3            1 S1                 0.0000
      4 ****        -1.6474   0.0061  -2.0499 C.3            1 S1                 0.0000
      5 ****        -0.2623  -0.5645  -1.6914 C.3            1 S1                 0.0000
      6 ****         0.4514   0.2016  -0.6703 N.pl3          1 S1                 0.0000
      7 ****         0.5592  -0.0498   0.6635 C.2            1 S1                 0.0000
      8 ****        -0.0688  -1.1374   1.2702 N.pl3          1 S1                 0.0000
      9 ****        -1.5130  -1.3313   1.3821 C.3            1 S1                 0.0000
     10 ****        -1.9323  -2.7565   0.9849 C.3            1 S1                 0.0000
     11 ****        -1.1957  -3.7907   1.8468 C.3            1 S1                 0.0000
     12 ****         0.3210  -3.5331   1.8108 C.3            1 S1                 0.0000
     13 ****         1.0792  -4.4989   2.7312 C.3            1 S1                 0.0000
     14 ****         0.6159  -2.0626   2.1711 C.3            1 S1                 0.0000
     15 ****         1.3488   0.7972   1.3292 N.2            1 S1                 0.0000
     16 ****         1.7691   1.6754   0.3431 C.2            1 S1                 0.0000
     17 ****         1.2547   1.3289  -0.8642 C.2            1 S1                 0.0000
     18 ****         1.5748   2.0678  -2.0947 C.2            1 S1                 0.0000
     19 ****         1.1565   1.7525  -3.2065 O.2            1 S1                 0.0000
     20 ****         2.3833   3.1337  -1.8803 N.am           1 S1                 0.0000
     21 ****         2.9197   3.5449  -0.6913 C.2            1 S1                 0.0000
     22 ****         3.6336   4.5469  -0.6528 O.2            1 S1                 0.0000
     23 ****         2.6326   2.8046   0.4267 N.am           1 S1                 0.0000
     24 ****         3.1930   3.1847   1.7249 C.3            1 S1                 0.0000
     25 ****         2.6208   3.6851  -2.6919 H              1 S1                 0.0000
     26 ****        -3.5640   3.9581  -3.1237 H              1 S1                 0.0000
     27 ****        -1.8979   3.6784  -3.6285 H              1 S1                 0.0000
     28 ****        -2.2692   3.9516  -1.9269 H              1 S1                 0.0000
     29 ****        -3.5604   1.7936  -1.8620 H              1 S1                 0.0000
     30 ****        -3.1884   1.5188  -3.5628 H              1 S1                 0.0000
     31 ****        -2.3645  -0.1913  -1.2557 H              1 S1                 0.0000
     32 ****        -2.0238  -0.4979  -2.9411 H              1 S1                 0.0000
     33 ****        -0.3514  -1.6011  -1.3704 H              1 S1                 0.0000
     34 ****         0.3594  -0.6004  -2.5851 H              1 S1                 0.0000
     35 ****        -1.8104  -1.1368   2.4135 H              1 S1                 0.0000
     36 ****        -2.0374  -0.5912   0.7835 H              1 S1                 0.0000
     37 ****        -3.0097  -2.8746   1.1009 H              1 S1                 0.0000
     38 ****        -1.7143  -2.9317  -0.0683 H              1 S1                 0.0000
     39 ****        -1.5562  -3.7274   2.8745 H              1 S1                 0.0000
     40 ****        -1.4214  -4.7987   1.4974 H              1 S1                 0.0000
     41 ****         0.6698  -3.7057   0.7912 H              1 S1                 0.0000
     42 ****         0.7788  -4.3724   3.7719 H              1 S1                 0.0000
     43 ****         2.1549  -4.3322   2.6725 H              1 S1                 0.0000
     44 ****         0.8903  -5.5362   2.4532 H              1 S1                 0.0000
     45 ****         1.6903  -1.8823   2.1184 H              1 S1                 0.0000
     46 ****         0.3164  -1.8527   3.1988 H              1 S1                 0.0000
     47 ****         4.2630   3.3838   1.6484 H              1 S1                 0.0000
     48 ****         3.0692   2.4040   2.4755 H              1 S1                 0.0000
     49 ****         2.7036   4.0850   2.0977 H              1 S1                 0.0000
     50 ****        -1.2547   1.8465  -1.4421 LP             1 S1                 0.0000
     51 ****        -0.9214   1.5710  -3.0167 LP             1 S1                 0.0000
     52 ****         1.5803   0.7975   2.3020 LP             1 S1                 0.0000
     53 ****         0.5638   0.9537  -3.3097 LP             1 S1                 0.0000
     54 ****         1.4089   2.2947  -4.0080 LP             1 S1                 0.0000
     55 ****         3.8211   5.0597  -1.4906 LP             1 S1                 0.0000
     56 ****         4.0261   4.8481   0.2162 LP             1 S1                 0.0000
@<TRIPOS>BOND
    1    1    2 1     
    2    1   26 1     
    3    1   27 1     
    4    1   28 1     
    5    2    3 1     
    6    2   29 1     
    7    2   30 1     
    8    3    4 1     
    9    4    5 1     
   10    4   31 1     
   11    4   32 1     
   12    5    6 1     
   13    5   33 1     
   14    5   34 1     
   15    6   17 1     
   16    6    7 1     
   17    7    8 1     
   18    7   15 2     
   19    8   14 1     
   20    8    9 1     
   21    9   10 1     
   22    9   35 1     
   23    9   36 1     
   24   10   11 1     
   25   10   37 1     
   26   10   38 1     
   27   11   12 1     
   28   11   39 1     
   29   11   40 1     
   30   12   13 1     
   31   12   14 1     
   32   12   41 1     
   33   13   42 1     
   34   13   43 1     
   35   13   44 1     
   36   14   45 1     
   37   14   46 1     
   38   15   16 1     
   39   16   23 1     
   40   16   17 2     
   41   17   18 1     
   42   18   19 2     
   43   18   20 1     
   44   20   25 1     
   45   20   21 1     
   46   21   22 2     
   47   21   23 1     
   48   23   24 1     
   49   24   47 1     
   50   24   48 1     
   51   24   49 1     
   52    3   50 1     
   53    3   51 1     
   54   15   52 1     
   55   19   53 1     
   56   19   54 1     
   57   22   55 1     
   58   22   56 1     
@<TRIPOS>SUBSTRUCTURE
      1 S1             1
@<TRIPOS>SET
LONE_PAIRS      STATIC     ATOMS    <user>   **** ""
7 50 51 52 53 54 55 56
DONOR_HYDROGENS      STATIC     ATOMS    <user>   **** ""
1 25
ATOM$BLUE        STATIC     ATOMS    COLORGROUP SYSTEM
7 50 51 52 53 54 55 56
ATOM$RED        STATIC     ATOMS    COLORGROUP SYSTEM
1 25
