AV-unprocessed.smi:1961|AV-procd|sdf|7921|dock1
  -GOLD-   2272010 83D 1   1.00000     0.00000
 Structure written by MMmdl.
 35 36  0  0  0  0  0  0  0  0  2 V2000
  152.2197  143.0991  161.3526 C   0  0  0  0  0  0  0  0  0  0  0  0
  152.5004  143.6589  159.9506 C   0  0  0  0  0  0  0  0  0  0  0  0
  151.7862  144.9909  159.6785 C   0  0  0  0  0  0  0  0  0  0  0  0
  152.2391  142.6491  158.8770 C   0  0  0  0  0  0  0  0  0  0  0  0
  152.7633  141.4194  158.8868 N   0  0  0  0  0  0  0  0  0  0  0  0
  152.3713  140.6732  157.7852 N   0  0  0  0  0  0  0  0  0  0  0  0
  151.5511  141.3415  156.9623 C   0  0  0  0  0  0  0  0  0  0  0  0
  151.0598  140.7983  155.8362 N   0  5  0  0  0  0  0  0  0  0  0  0
  151.6434  139.6996  155.3054 C   0  0  0  0  0  0  0  0  0  0  0  0
  152.8241  139.5907  154.9656 O   0  0  0  0  0  0  0  0  0  0  0  0
  150.8108  138.6606  155.1607 N   0  0  0  0  0  0  0  0  0  0  0  0
  151.1838  137.3582  154.6257 C   0  0  0  0  0  0  0  0  0  0  0  0
  150.6788  136.2306  155.5364 C   0  0  1  0  0  0  0  0  0  0  0  0
  149.8140  135.2001  154.8122 C   0  0  0  0  0  0  0  0  0  0  0  0
  149.9921  133.9813  155.6879 C   0  0  0  0  0  0  0  0  0  0  0  0
  151.4633  134.0904  156.0770 C   0  0  0  0  0  0  0  0  0  0  0  0
  151.7698  135.4824  156.0697 O   0  0  0  0  0  0  0  0  0  0  0  0
  151.2134  142.9887  157.4924 S   0  0  0  0  0  0  0  0  0  0  0  0
  152.8105  142.2021  161.5416 H   0  0  0  0  0  0  0  0  0  0  0  0
  151.1679  142.8367  161.4712 H   0  0  0  0  0  0  0  0  0  0  0  0
  152.4692  143.8277  162.1242 H   0  0  0  0  0  0  0  0  0  0  0  0
  153.5694  143.8732  159.9158 H   0  0  0  0  0  0  0  0  0  0  0  0
  152.0748  145.3986  158.7092 H   0  0  0  0  0  0  0  0  0  0  0  0
  152.0366  145.7328  160.4370 H   0  0  0  0  0  0  0  0  0  0  0  0
  150.7027  144.8679  159.6788 H   0  0  0  0  0  0  0  0  0  0  0  0
  149.8518  138.7819  155.4520 H   0  0  0  0  0  0  0  0  0  0  0  0
  150.7538  137.2478  153.6290 H   0  0  0  0  0  0  0  0  0  0  0  0
  152.2682  137.3017  154.5189 H   0  0  0  0  0  0  0  0  0  0  0  0
  150.1128  136.6437  156.3733 H   0  0  0  0  0  0  0  0  0  0  0  0
  148.7732  135.5105  154.7157 H   0  0  0  0  0  0  0  0  0  0  0  0
  150.2061  135.0006  153.8138 H   0  0  0  0  0  0  0  0  0  0  0  0
  149.3612  134.0616  156.5739 H   0  0  0  0  0  0  0  0  0  0  0  0
  149.7532  133.0469  155.1794 H   0  0  0  0  0  0  0  0  0  0  0  0
  151.6690  133.6421  157.0492 H   0  0  0  0  0  0  0  0  0  0  0  0
  152.0917  133.5952  155.3357 H   0  0  0  0  0  0  0  0  0  0  0  0
  1  2  1  0  0  0  0
  1 19  1  0  0  0  0
  1 20  1  0  0  0  0
  1 21  1  0  0  0  0
  2  3  1  0  0  0  0
  2  4  1  0  0  0  0
  2 22  1  0  0  0  0
  3 23  1  0  0  0  0
  3 24  1  0  0  0  0
  3 25  1  0  0  0  0
  4 18  1  0  0  0  0
  4  5  2  0  0  0  0
  5  6  1  0  0  0  0
  6  7  2  0  0  0  0
  7  8  1  0  0  0  0
  7 18  1  0  0  0  0
  8  9  1  0  0  0  0
  9 10  2  0  0  0  0
  9 11  1  0  0  0  0
 11 12  1  0  0  0  0
 11 26  1  0  0  0  0
 12 13  1  0  0  0  0
 12 27  1  0  0  0  0
 12 28  1  0  0  0  0
 13 17  1  0  0  0  0
 13 14  1  0  0  0  0
 13 29  1  0  0  0  0
 14 15  1  0  0  0  0
 14 30  1  0  0  0  0
 14 31  1  0  0  0  0
 15 16  1  0  0  0  0
 15 32  1  0  0  0  0
 15 33  1  0  0  0  0
 16 17  1  0  0  0  0
 16 34  1  0  0  0  0
 16 35  1  0  0  0  0
M  CHG  1   8  -1
M  END
> <s_m_source_file>
AV-unprocessed.smi

> <i_m_source_file_index>
1961

> <i_lp_mmshare_version>
43012

> <i_f3d_flags>
0

> <s_epik_input>
W0NIM11bQ0hdKFtDSDNdKWMxbm5jKHMxKVtOSF1DKD1PKVtOSF1bQ0gyXVtDQEBIXTJbQ0gyXVtDSDJdW0NIMl1PMg==

> <s_epik_cmdline>
J2VwaWtfcHl0aG9uJywgJy1waCcsICc3LjAnLCAnLXRuJywgJzgnLCAnLW1hJywgJzIwMCcsICctbWV0YWxfYmluZGluZycsICctaW1hZScsICc8aW5maWxlLm1hZT4nLCAnLW9tYWUnLCAnPG91dGZpbGUubWFlPic=

> <r_lp_tautomer_probability>
1

> <r_epik_Ionization_Penalty>
4.36179

> <r_epik_Ionization_Penalty_Charging>
4.21437

> <r_epik_Ionization_Penalty_Neutral>
0.147417

> <r_epik_State_Penalty>
4.21389

> <r_epik_Charging_Adjusted_Penalty>
8.42826

> <i_epik_Tot_Q>
-1

> <i_epik_Tot_abs_Q>
1

> <r_epik_Metal_State_Penalty>
0.693772

> <b_epik_Metal_Only>
1

> <s_lp_Force_Field>
OPLS_2005

> <r_lp_Energy>
8.86259

> <b_lp_Chiralities_Consistent>
1

> <s_lp_Variant>
AV-unprocessed.smi:1961-4

> <Gold.Version>
5.8.1

> <Gold.Id.Protein>
6NUR|6NUR_protein|mol2

> <Gold.PLP.Fitness>
39.5897

> <Gold.PLP.PLP>
-36.2781

> <Gold.PLP.part.hbond>
-3.7900

> <Gold.PLP.part.metal>
0.0000

> <Gold.PLP.part.buried>
-4.8147

> <Gold.PLP.part.nonpolar>
-27.7518

> <Gold.PLP.part.repulsive>
0.1125

> <Gold.PLP.ligand.clash>
0.0000

> <Gold.PLP.ligand.torsion>
1.4649

> <Gold.PLP.Chemscore.Hbond>
2.0000

> <Gold.PLP.Chemscore.CHOScore>
0.0000

> <Gold.PLP.Chemscore.Metal>
0.0000

> <Gold.Chemscore.Hbonds>
donor molecule, donor type, donor heavy atom, donor atom, acceptor molecule, acceptor atom, score
      P1  H  7997  8008       L1    10  1.00
      P1  H 10752 10764       L1    17  1.00

> <Gold.PLP.Chemscore.Internal.Correction>
0.2415

> <Gold.Rescore>
     Score         DG    S(hbond)    S(metal)    S(lipo)     H(rot)  DE(clash)    DE(int)     intcor
     15.88     -17.39       1.78        0.00      82.11       1.42       0.02       1.49       ----

> <Gold.Chemscore.Fitness>
15.8822

> <Gold.Chemscore.DG>
-17.3894

> <Gold.Chemscore.ZeroCoef>
-5.4800

> <Gold.Chemscore.Hbond>
1.7773

> <Gold.Chemscore.Metal>
0.0000

> <Gold.Chemscore.Lipo>
82.1069

> <Gold.Chemscore.Internal_Hbond>
0.0000

> <Gold.Chemscore.DEClash>
0.0181

> <Gold.Chemscore.DEInternal>
1.4891

> <Gold.Chemscore.Rot>
1.4193

> <Gold.Chemscore.Internal.Correction>
   9.000000E+99

> <Gold.Chemscore.Hbonds>
donor molecule, donor type, donor heavy atom, donor atom, acceptor molecule, acceptor atom, score
      P1  H  7997  8008       L1    10  0.97
      P1  H 10752 10764       L1    17  0.17

> <Gold.Chemscore.Hbond.Weighted>
-5.9363

> <Gold.Chemscore.Metal.Weighted>
-0.0000

> <Gold.Chemscore.Lipo.Weighted>
-9.6065

> <Gold.Chemscore.Internal_Hbond.Weighted>
0.0000

> <Gold.Chemscore.DEClash.Weighted>
0.0181

> <Gold.Chemscore.DEInternal.Weighted>
1.4891

> <Gold.Chemscore.Rot.Weighted>
3.6333

> <Gold.Chemscore.Internal.Correction.Weighted>
   9.000000E+99

> <Gold.Protein.RotatedTorsions>
[ 6907 6896 6895 6894 ] final   84.83 input  -60.11 | X-H torsion
[ 7974 7965 7964 7962 ] final  -40.04 input  175.53 | X-H torsion
[ 8008 7997 7996 7995 ] final  -26.85 input   59.86 | X-H torsion
[ 10167 10162 10161 10158 ] final -142.57 input  -65.29 | X-H torsion
[ 10718 10713 10712 10709 ] final   77.26 input   66.30 | X-H torsion
[ 10763 10752 10751 10750 ] final  -40.67 input  -60.55 | X-H torsion
[ 11005 11000 10999 10996 ] final   45.61 input  -57.11 | X-H torsion

> <Gold.Protein.ActiveResidues>
 VAL166  LYS551  ARG553  GLY616  TRP617  ASP618  TYR619  PRO620  LYS621  CYS622 
 ASP623  PHE694  ASN695  SER759  ASP760  ASP761  ALA762  ILE779  LEU786  VAL792 
 PHE793  MET794  SER795  GLU796  ALA797  LYS798  CYS799  TRP800  GLU811  SER814 

> <Gold.Protein.RotatedAtoms>
  152.5361  134.2679  159.8960 H   0  0  0  0  0  0  0  0  0  0  0  0  # atno 6907 bound_to 6896
  151.2637  133.4282  159.2625 H   0  0  0  0  0  0  0  0  0  0  0  0  # atno 6908 bound_to 6896
  151.0430  134.9635  159.8228 H   0  0  0  0  0  0  0  0  0  0  0  0  # atno 6909 bound_to 6896
  146.0341  140.6694  142.9118 H   0  0  0  0  0  0  0  0  0  0  0  0  # atno 7974 bound_to 7965
  154.4405  140.1888  156.0840 H   0  0  0  0  0  0  0  0  0  0  0  0  # atno 8008 bound_to 7997
  156.0417  140.3319  155.7225 H   0  0  0  0  0  0  0  0  0  0  0  0  # atno 8009 bound_to 7997
  155.5689  140.0611  157.2802 H   0  0  0  0  0  0  0  0  0  0  0  0  # atno 8010 bound_to 7997
  139.8076  143.7747  152.2662 H   0  0  0  0  0  0  0  0  0  0  0  0  # atno 10167 bound_to 10162
  157.6704  130.9813  150.1615 H   0  0  0  0  0  0  0  0  0  0  0  0  # atno 10718 bound_to 10713
  153.9497  135.6752  153.4744 H   0  0  0  0  0  0  0  0  0  0  0  0  # atno 10763 bound_to 10752
  153.0890  135.4884  154.8650 H   0  0  0  0  0  0  0  0  0  0  0  0  # atno 10764 bound_to 10752
  154.7332  135.3143  154.8815 H   0  0  0  0  0  0  0  0  0  0  0  0  # atno 10765 bound_to 10752
  140.1444  134.4542  155.8426 H   0  0  0  0  0  0  0  0  0  0  0  0  # atno 11005 bound_to 11000
  144.7043  140.3789  143.7130 LP  0  0  0  0  0  0  0  0  0  0  0  0  # atno 17320 bound_to 7965
  145.6993  139.1657  143.2602 LP  0  0  0  0  0  0  0  0  0  0  0  0  # atno 17321 bound_to 7965
  139.7886  144.7418  150.9986 LP  0  0  0  0  0  0  0  0  0  0  0  0  # atno 17342 bound_to 10162
  140.7819  143.4466  151.0474 LP  0  0  0  0  0  0  0  0  0  0  0  0  # atno 17343 bound_to 10162
  156.2390  130.3689  149.8358 LP  0  0  0  0  0  0  0  0  0  0  0  0  # atno 17370 bound_to 10713
  156.6163  130.8608  151.3465 LP  0  0  0  0  0  0  0  0  0  0  0  0  # atno 17371 bound_to 10713
  141.2190  133.6846  156.7306 LP  0  0  0  0  0  0  0  0  0  0  0  0  # atno 17394 bound_to 11000
  140.2682  134.8413  157.3822 LP  0  0  0  0  0  0  0  0  0  0  0  0  # atno 17395 bound_to 11000

$$$$
