AV-unprocessed.smi:771|AV-procd|sdf|3682|dock8
  -GOLD-   22720 1 93D 1   1.00000     0.00000
 Structure written by MMmdl.
 41 42  0  0  0  0  0  0  0  0  3 V2000
  149.5650  133.3882  154.9021 O   0  0  0  0  0  0  0  0  0  0  0  0
  148.7199  134.2595  154.6924 C   0  0  0  0  0  0  0  0  0  0  0  0
  148.6697  135.5238  155.5607 C   0  0  0  0  0  0  0  0  0  0  0  0
  150.0037  135.9707  155.9963 N   0  0  0  0  0  0  0  0  0  0  0  0
  150.4889  137.1756  155.4506 C   0  0  0  0  0  0  0  0  0  0  0  0
  151.6943  137.6778  155.7834 C   0  0  0  0  0  0  0  0  0  0  0  0
  152.1760  138.9178  155.2153 N   0  3  0  0  0  0  0  0  0  0  0  0
  153.3846  139.0652  155.0642 O   0  0  0  0  0  0  0  0  0  0  0  0
  151.3647  139.7835  154.9004 O   0  5  0  0  0  0  0  0  0  0  0  0
  152.4956  136.9335  156.7358 C   0  0  0  0  0  0  0  0  0  0  0  0
  152.0359  135.7818  157.2633 C   0  0  0  0  0  0  0  0  0  0  0  0
  150.7236  135.2374  156.9004 C   0  0  0  0  0  0  0  0  0  0  0  0
  150.2967  134.1867  157.3800 O   0  0  0  0  0  0  0  0  0  0  0  0
  147.7981  134.1728  153.7220 N   0  0  0  0  0  0  0  0  0  0  0  0
  147.6999  133.0871  152.7516 C   0  0  0  0  0  0  0  0  0  0  0  0
  146.2411  132.7971  152.3263 C   0  0  1  0  0  0  0  0  0  0  0  0
  145.5063  134.0912  151.9197 C   0  0  0  0  0  0  0  0  0  0  0  0
  144.0348  133.8210  151.5674 C   0  0  0  0  0  0  0  0  0  0  0  0
  143.9118  132.7651  150.4591 C   0  0  0  0  0  0  0  0  0  0  0  0
  144.6385  131.4650  150.8443 C   0  0  0  0  0  0  0  0  0  0  0  0
  146.1111  131.7109  151.2259 C   0  0  1  0  0  0  0  0  0  0  0  0
  146.8392  132.0707  150.0665 O   0  0  0  0  0  0  0  0  0  0  0  0
  148.1717  136.3275  155.0144 H   0  0  0  0  0  0  0  0  0  0  0  0
  148.0268  135.3203  156.4181 H   0  0  0  0  0  0  0  0  0  0  0  0
  149.8153  137.6578  154.7569 H   0  0  0  0  0  0  0  0  0  0  0  0
  153.4689  137.2944  157.0343 H   0  0  0  0  0  0  0  0  0  0  0  0
  152.6485  135.2444  157.9721 H   0  0  0  0  0  0  0  0  0  0  0  0
  147.1348  134.9288  153.6293 H   0  0  0  0  0  0  0  0  0  0  0  0
  148.3076  133.3255  151.8774 H   0  0  0  0  0  0  0  0  0  0  0  0
  148.1465  132.1972  153.1956 H   0  0  0  0  0  0  0  0  0  0  0  0
  145.7239  132.4131  153.2071 H   0  0  0  0  0  0  0  0  0  0  0  0
  145.5553  134.8171  152.7320 H   0  0  0  0  0  0  0  0  0  0  0  0
  146.0073  134.5518  151.0673 H   0  0  0  0  0  0  0  0  0  0  0  0
  143.5022  133.4816  152.4568 H   0  0  0  0  0  0  0  0  0  0  0  0
  143.5522  134.7469  151.2532 H   0  0  0  0  0  0  0  0  0  0  0  0
  142.8603  132.5568  150.2596 H   0  0  0  0  0  0  0  0  0  0  0  0
  144.3281  133.1595  149.5313 H   0  0  0  0  0  0  0  0  0  0  0  0
  144.1237  131.0096  151.6912 H   0  0  0  0  0  0  0  0  0  0  0  0
  144.5744  130.7441  150.0284 H   0  0  0  0  0  0  0  0  0  0  0  0
  146.5290  130.7706  151.5872 H   0  0  0  0  0  0  0  0  0  0  0  0
  147.7323  131.7806  150.1703 H   0  0  0  0  0  0  0  0  0  0  0  0
  1  2  2  0  0  0  0
  2  3  1  0  0  0  0
  2 14  1  0  0  0  0
  3  4  1  0  0  0  0
  3 23  1  0  0  0  0
  3 24  1  0  0  0  0
  4 12  1  0  0  0  0
  4  5  1  0  0  0  0
  5  6  2  0  0  0  0
  5 25  1  0  0  0  0
  6  7  1  0  0  0  0
  6 10  1  0  0  0  0
  7  8  2  0  0  0  0
  7  9  1  0  0  0  0
 10 11  2  0  0  0  0
 10 26  1  0  0  0  0
 11 12  1  0  0  0  0
 11 27  1  0  0  0  0
 12 13  2  0  0  0  0
 14 15  1  0  0  0  0
 14 28  1  0  0  0  0
 15 16  1  0  0  0  0
 15 29  1  0  0  0  0
 15 30  1  0  0  0  0
 16 21  1  0  0  0  0
 16 17  1  0  0  0  0
 16 31  1  0  0  0  0
 17 18  1  0  0  0  0
 17 32  1  0  0  0  0
 17 33  1  0  0  0  0
 18 19  1  0  0  0  0
 18 34  1  0  0  0  0
 18 35  1  0  0  0  0
 19 20  1  0  0  0  0
 19 36  1  0  0  0  0
 19 37  1  0  0  0  0
 20 21  1  0  0  0  0
 20 38  1  0  0  0  0
 20 39  1  0  0  0  0
 21 22  1  0  0  0  0
 21 40  1  0  0  0  0
 22 41  1  0  0  0  0
M  CHG  1   7   1
M  CHG  1   9  -1
M  END
> <s_m_source_file>
AV-unprocessed.smi

> <i_m_source_file_index>
771

> <i_lp_mmshare_version>
43012

> <i_f3d_flags>
0

> <s_epik_input>
Tz1jMVtjSF1bY0hdYyhbTitdKD1PKVtPLV0pW2NIXW4xW0NIMl1DKD1PKVtOSF1bQ0gyXVtDQEBIXTJbQ0gyXVtDSDJdW0NIMl1bQ0gyXVtDQEhdMltPSF0=

> <s_epik_cmdline>
J2VwaWtfcHl0aG9uJywgJy1waCcsICc3LjAnLCAnLXRuJywgJzgnLCAnLW1hJywgJzIwMCcsICctbWV0YWxfYmluZGluZycsICctaW1hZScsICc8aW5maWxlLm1hZT4nLCAnLW9tYWUnLCAnPG91dGZpbGUubWFlPic=

> <r_lp_tautomer_probability>
1

> <r_epik_Ionization_Penalty>
3.77175e-07

> <r_epik_Ionization_Penalty_Charging>
7.70067e-11

> <r_epik_Ionization_Penalty_Neutral>
3.77098e-07

> <r_epik_State_Penalty>
-0

> <r_epik_Charging_Adjusted_Penalty>
7.70067e-11

> <i_epik_Tot_Q>
0

> <i_epik_Tot_abs_Q>
2

> <r_epik_Metal_State_Penalty>
-0

> <b_epik_Metal_Only>
0

> <s_lp_Force_Field>
OPLS_2005

> <r_lp_Energy>
25.2575

> <b_lp_Chiralities_Consistent>
1

> <s_lp_Variant>
AV-unprocessed.smi:771-2

> <Gold.Version>
5.8.1

> <Gold.Id.Protein>
6NUR|6NUR_protein|mol2

> <Gold.PLP.Fitness>
44.8406

> <Gold.PLP.PLP>
-36.0343

> <Gold.PLP.part.hbond>
-4.8919

> <Gold.PLP.part.metal>
0.0000

> <Gold.PLP.part.buried>
-6.3670

> <Gold.PLP.part.nonpolar>
-26.0957

> <Gold.PLP.part.repulsive>
0.1583

> <Gold.PLP.ligand.clash>
0.0000

> <Gold.PLP.ligand.torsion>
1.0335

> <Gold.PLP.Chemscore.Hbond>
3.6084

> <Gold.PLP.Chemscore.CHOScore>
0.0000

> <Gold.PLP.Chemscore.Metal>
0.0000

> <Gold.Chemscore.Hbonds>
donor molecule, donor type, donor heavy atom, donor atom, acceptor molecule, acceptor atom, score
      L1  H    22    41       P1 10747  1.00
      P1  H  6896  6908       L1    13  0.78
      P1  H  7989  7998       L1     9  1.00
      P1  H  7997  8008       L1     8  0.96

> <Gold.PLP.Chemscore.Internal.Correction>
0.0482

> <Gold.Rescore>
     Score         DG    S(hbond)    S(metal)    S(lipo)     H(rot)  DE(clash)    DE(int)     intcor
     15.97     -19.46       3.66        0.00      69.05       2.48       0.01       3.48       ----

> <Gold.Chemscore.Fitness>
15.9678

> <Gold.Chemscore.DG>
-19.4611

> <Gold.Chemscore.ZeroCoef>
-5.4800

> <Gold.Chemscore.Hbond>
3.6644

> <Gold.Chemscore.Metal>
0.0000

> <Gold.Chemscore.Lipo>
69.0504

> <Gold.Chemscore.Internal_Hbond>
0.0000

> <Gold.Chemscore.DEClash>
0.0127

> <Gold.Chemscore.DEInternal>
3.4807

> <Gold.Chemscore.Rot>
2.4753

> <Gold.Chemscore.Internal.Correction>
   9.000000E+99

> <Gold.Chemscore.Hbonds>
donor molecule, donor type, donor heavy atom, donor atom, acceptor molecule, acceptor atom, score
      L1  H    22    41       P1 10747  0.94
      P1  H  6896  6908       L1    13  0.69
      P1  H  7989  7998       L1     9  0.98
      P1  H  7997  8008       L1     8  0.92

> <Gold.Chemscore.Hbond.Weighted>
-12.2391

> <Gold.Chemscore.Metal.Weighted>
-0.0000

> <Gold.Chemscore.Lipo.Weighted>
-8.0789

> <Gold.Chemscore.Internal_Hbond.Weighted>
0.0000

> <Gold.Chemscore.DEClash.Weighted>
0.0127

> <Gold.Chemscore.DEInternal.Weighted>
3.4807

> <Gold.Chemscore.Rot.Weighted>
6.3369

> <Gold.Chemscore.Internal.Correction.Weighted>
   9.000000E+99

> <Gold.Protein.RotatedTorsions>
[ 6907 6896 6895 6894 ] final  125.47 input  -60.11 | X-H torsion
[ 7974 7965 7964 7962 ] final   29.38 input  175.53 | X-H torsion
[ 8008 7997 7996 7995 ] final    2.01 input   59.86 | X-H torsion
[ 10167 10162 10161 10158 ] final -109.58 input  -65.29 | X-H torsion
[ 10718 10713 10712 10709 ] final  178.42 input   66.30 | X-H torsion
[ 10763 10752 10751 10750 ] final  132.32 input  -60.55 | X-H torsion
[ 11005 11000 10999 10996 ] final -115.43 input  -57.11 | X-H torsion

> <Gold.Protein.ActiveResidues>
 VAL166  LYS551  ARG553  GLY616  TRP617  ASP618  TYR619  PRO620  LYS621  CYS622 
 ASP623  PHE694  ASN695  SER759  ASP760  ASP761  ALA762  ILE779  LEU786  VAL792 
 PHE793  MET794  SER795  GLU796  ALA797  LYS798  CYS799  TRP800  GLU811  SER814 

> <Gold.Protein.RotatedAtoms>
  152.3989  133.6788  159.6299 H   0  0  0  0  0  0  0  0  0  0  0  0  # atno 6907 bound_to 6896
  150.7884  133.8825  159.3299 H   0  0  0  0  0  0  0  0  0  0  0  0  # atno 6908 bound_to 6896
  151.6595  135.0993  160.0228 H   0  0  0  0  0  0  0  0  0  0  0  0  # atno 6909 bound_to 6896
  146.1674  139.6929  142.8991 H   0  0  0  0  0  0  0  0  0  0  0  0  # atno 7974 bound_to 7965
  154.6865  140.2644  155.6856 H   0  0  0  0  0  0  0  0  0  0  0  0  # atno 8008 bound_to 7997
  156.2716  140.2800  156.1351 H   0  0  0  0  0  0  0  0  0  0  0  0  # atno 8009 bound_to 7997
  155.0957  140.0374  157.2672 H   0  0  0  0  0  0  0  0  0  0  0  0  # atno 8010 bound_to 7997
  140.1538  143.4177  152.1476 H   0  0  0  0  0  0  0  0  0  0  0  0  # atno 10167 bound_to 10162
  156.8909  130.9847  151.3049 H   0  0  0  0  0  0  0  0  0  0  0  0  # atno 10718 bound_to 10713
  153.7887  135.3158  155.3375 H   0  0  0  0  0  0  0  0  0  0  0  0  # atno 10763 bound_to 10752
  154.8134  135.4652  154.0580 H   0  0  0  0  0  0  0  0  0  0  0  0  # atno 10764 bound_to 10752
  153.1891  135.6905  153.8462 H   0  0  0  0  0  0  0  0  0  0  0  0  # atno 10765 bound_to 10752
  141.0488  133.9720  157.2872 H   0  0  0  0  0  0  0  0  0  0  0  0  # atno 11005 bound_to 11000
  145.4430  141.0423  143.2847 LP  0  0  0  0  0  0  0  0  0  0  0  0  # atno 17320 bound_to 7965
  144.8113  139.5957  143.7028 LP  0  0  0  0  0  0  0  0  0  0  0  0  # atno 17321 bound_to 7965
  139.5413  144.7259  151.4724 LP  0  0  0  0  0  0  0  0  0  0  0  0  # atno 17342 bound_to 10162
  140.6686  143.8343  150.6972 LP  0  0  0  0  0  0  0  0  0  0  0  0  # atno 17343 bound_to 10162
  157.6084  130.8564  149.8912 LP  0  0  0  0  0  0  0  0  0  0  0  0  # atno 17370 bound_to 10713
  156.0629  130.3697  150.0941 LP  0  0  0  0  0  0  0  0  0  0  0  0  # atno 17371 bound_to 10713
  139.9333  135.0198  156.8474 LP  0  0  0  0  0  0  0  0  0  0  0  0  # atno 17394 bound_to 11000
  140.6095  134.0096  155.7571 LP  0  0  0  0  0  0  0  0  0  0  0  0  # atno 17395 bound_to 11000

$$$$
