AV-unprocessed.smi:320|AV-procd|sdf|2333|dock1
  -GOLD-   2262022233D 1   1.00000     0.00000
 Structure written by MMmdl.
 49 52  0  0  0  0  0  0  0  0  1 V2000
  150.0913  139.1181  158.3033 C   0  0  0  0  0  0  0  0  0  0  0  0
  149.4935  138.3336  157.1193 C   0  0  1  0  0  0  0  0  0  0  0  0
  148.5883  137.3190  157.6626 N   0  0  0  0  0  0  0  0  0  0  0  0
  148.9282  136.3007  158.4682 C   0  0  0  0  0  0  0  0  0  0  0  0
  150.0733  136.1113  158.8797 O   0  0  0  0  0  0  0  0  0  0  0  0
  147.7870  135.3599  158.8777 C   0  0  0  0  0  0  0  0  0  0  0  0
  147.6544  135.2232  160.3375 N   0  0  0  0  0  0  0  0  0  0  0  0
  147.6468  133.9160  160.8642 C   0  0  0  0  0  0  0  0  0  0  0  0
  147.5250  133.6815  162.1804 C   0  0  0  0  0  0  0  0  0  0  0  0
  147.4001  134.8141  163.0669 C   0  0  0  0  0  0  0  0  0  0  0  0
  147.4042  136.0685  162.5735 C   0  0  0  0  0  0  0  0  0  0  0  0
  147.5360  136.3298  161.1354 C   0  0  0  0  0  0  0  0  0  0  0  0
  147.5396  137.4726  160.6760 O   0  0  0  0  0  0  0  0  0  0  0  0
  148.7837  139.2011  156.0294 C   0  0  0  0  0  0  0  0  0  0  0  0
  149.6849  140.3635  155.5205 C   0  0  0  0  0  0  0  0  0  0  0  0
  148.9420  141.2030  154.4581 C   0  0  2  0  0  0  0  0  0  0  0  0
  147.6645  141.8089  155.0746 C   0  0  0  0  0  0  0  0  0  0  0  0
  146.7439  140.6681  155.5535 C   0  0  1  0  0  0  0  0  0  0  0  0
  146.3577  139.7722  154.3604 C   0  0  0  0  0  0  0  0  0  0  0  0
  147.6386  139.1730  153.7472 C   0  0  1  0  0  0  0  0  0  0  0  0
  148.5630  140.3079  153.2600 C   0  0  0  0  0  0  0  0  0  0  0  0
  148.3764  138.3281  154.8074 C   0  0  0  0  0  0  0  0  0  0  0  0
  147.4810  139.8255  156.6146 C   0  0  0  0  0  0  0  0  0  0  0  0
  150.8592  139.8213  157.9845 H   0  0  0  0  0  0  0  0  0  0  0  0
  150.5686  138.4383  159.0100 H   0  0  0  0  0  0  0  0  0  0  0  0
  149.3310  139.6721  158.8537 H   0  0  0  0  0  0  0  0  0  0  0  0
  150.3351  137.8382  156.6320 H   0  0  0  0  0  0  0  0  0  0  0  0
  147.6206  137.3884  157.3827 H   0  0  0  0  0  0  0  0  0  0  0  0
  146.8633  135.7388  158.4387 H   0  0  0  0  0  0  0  0  0  0  0  0
  147.9369  134.3772  158.4257 H   0  0  0  0  0  0  0  0  0  0  0  0
  147.7372  133.1242  160.1345 H   0  0  0  0  0  0  0  0  0  0  0  0
  147.5158  132.6725  162.5657 H   0  0  0  0  0  0  0  0  0  0  0  0
  147.3008  134.6548  164.1307 H   0  0  0  0  0  0  0  0  0  0  0  0
  147.3080  136.9031  163.2521 H   0  0  0  0  0  0  0  0  0  0  0  0
  149.9855  141.0091  156.3464 H   0  0  0  0  0  0  0  0  0  0  0  0
  150.6061  139.9747  155.0866 H   0  0  0  0  0  0  0  0  0  0  0  0
  149.5932  142.0075  154.1149 H   0  0  0  0  0  0  0  0  0  0  0  0
  147.9209  142.4639  155.9082 H   0  0  0  0  0  0  0  0  0  0  0  0
  147.1478  142.4295  154.3414 H   0  0  0  0  0  0  0  0  0  0  0  0
  145.8410  141.0931  155.9931 H   0  0  0  0  0  0  0  0  0  0  0  0
  145.6855  138.9771  154.6855 H   0  0  0  0  0  0  0  0  0  0  0  0
  145.8138  140.3508  153.6126 H   0  0  0  0  0  0  0  0  0  0  0  0
  147.3706  138.5381  152.9022 H   0  0  0  0  0  0  0  0  0  0  0  0
  148.0638  140.8976  152.4903 H   0  0  0  0  0  0  0  0  0  0  0  0
  149.4601  139.8937  152.7978 H   0  0  0  0  0  0  0  0  0  0  0  0
  149.2527  137.8801  154.3398 H   0  0  0  0  0  0  0  0  0  0  0  0
  147.7432  137.4998  155.1286 H   0  0  0  0  0  0  0  0  0  0  0  0
  146.8212  139.0405  156.9869 H   0  0  0  0  0  0  0  0  0  0  0  0
  147.7035  140.4629  157.4709 H   0  0  0  0  0  0  0  0  0  0  0  0
  1  2  1  0  0  0  0
  1 24  1  0  0  0  0
  1 25  1  0  0  0  0
  1 26  1  0  0  0  0
  2  3  1  0  0  0  0
  2 14  1  0  0  0  0
  2 27  1  0  0  0  0
  3  4  1  0  0  0  0
  3 28  1  0  0  0  0
  4  5  2  0  0  0  0
  4  6  1  0  0  0  0
  6  7  1  0  0  0  0
  6 29  1  0  0  0  0
  6 30  1  0  0  0  0
  7 12  1  0  0  0  0
  7  8  1  0  0  0  0
  8  9  2  0  0  0  0
  8 31  1  0  0  0  0
  9 10  1  0  0  0  0
  9 32  1  0  0  0  0
 10 11  2  0  0  0  0
 10 33  1  0  0  0  0
 11 12  1  0  0  0  0
 11 34  1  0  0  0  0
 12 13  2  0  0  0  0
 14 22  1  0  0  0  0
 14 23  1  0  0  0  0
 14 15  1  0  0  0  0
 15 16  1  0  0  0  0
 15 35  1  0  0  0  0
 15 36  1  0  0  0  0
 16 21  1  0  0  0  0
 16 17  1  0  0  0  0
 16 37  1  0  0  0  0
 17 18  1  0  0  0  0
 17 38  1  0  0  0  0
 17 39  1  0  0  0  0
 18 19  1  0  0  0  0
 18 23  1  0  0  0  0
 18 40  1  0  0  0  0
 19 20  1  0  0  0  0
 19 41  1  0  0  0  0
 19 42  1  0  0  0  0
 20 21  1  0  0  0  0
 20 22  1  0  0  0  0
 20 43  1  0  0  0  0
 21 44  1  0  0  0  0
 21 45  1  0  0  0  0
 22 46  1  0  0  0  0
 22 47  1  0  0  0  0
 23 48  1  0  0  0  0
 23 49  1  0  0  0  0
M  END
> <s_m_source_file>
AV-unprocessed.smi

> <i_m_source_file_index>
320

> <i_lp_mmshare_version>
43012

> <i_f3d_flags>
0

> <s_epik_input>
W0NIMl0xW0NAQEhdKFtDSDJdMilbQ0gyXVtDQEBIXShbQ0gyXTMpW0NIMl1bQ0BIXTFbQ0gyXUMyM1tDQEhdKFtDSDNdKVtOSF1DKD1PKVtDSDJdbjRbY0hdW2NIXVtjSF1bY0hdYzQ9Tw==

> <s_epik_cmdline>
J2VwaWtfcHl0aG9uJywgJy1waCcsICc3LjAnLCAnLXRuJywgJzgnLCAnLW1hJywgJzIwMCcsICctbWV0YWxfYmluZGluZycsICctaW1hZScsICc8aW5maWxlLm1hZT4nLCAnLW9tYWUnLCAnPG91dGZpbGUubWFlPic=

> <r_lp_tautomer_probability>
1

> <r_epik_Ionization_Penalty>
4.15949e-07

> <r_epik_Ionization_Penalty_Charging>
3.97363e-07

> <r_epik_Ionization_Penalty_Neutral>
1.85865e-08

> <r_epik_State_Penalty>
-0

> <r_epik_Charging_Adjusted_Penalty>
3.97363e-07

> <i_epik_Tot_Q>
0

> <i_epik_Tot_abs_Q>
0

> <r_epik_Metal_State_Penalty>
-0

> <b_epik_Metal_Only>
0

> <s_lp_Force_Field>
OPLS_2005

> <r_lp_Energy>
45.3355

> <b_lp_Chiralities_Consistent>
1

> <s_lp_Variant>
AV-unprocessed.smi:320-2

> <Gold.Version>
5.8.1

> <Gold.Id.Protein>
6NUR|6NUR_protein|mol2

> <Gold.PLP.Fitness>
40.3440

> <Gold.PLP.PLP>
-32.7810

> <Gold.PLP.part.hbond>
-2.9454

> <Gold.PLP.part.metal>
0.0000

> <Gold.PLP.part.buried>
1.9307

> <Gold.PLP.part.nonpolar>
-32.8455

> <Gold.PLP.part.repulsive>
0.0434

> <Gold.PLP.ligand.clash>
0.0000

> <Gold.PLP.ligand.torsion>
0.1866

> <Gold.PLP.Chemscore.Hbond>
2.6320

> <Gold.PLP.Chemscore.CHOScore>
0.0000

> <Gold.PLP.Chemscore.Metal>
0.0000

> <Gold.Chemscore.Hbonds>
donor molecule, donor type, donor heavy atom, donor atom, acceptor molecule, acceptor atom, score
      P1  H  6896  6907       L1     5  0.98
      P1  H  6931  6943       L1    13  0.52
      P1  H  6934  6947       L1    13  0.98

> <Gold.PLP.Chemscore.Internal.Correction>
0.0402

> <Gold.Rescore>
     Score         DG    S(hbond)    S(metal)    S(lipo)     H(rot)  DE(clash)    DE(int)     intcor
     16.74     -19.65       2.59        0.00      80.52       1.52       1.30       1.61       ----

> <Gold.Chemscore.Fitness>
16.7405

> <Gold.Chemscore.DG>
-19.6505

> <Gold.Chemscore.ZeroCoef>
-5.4800

> <Gold.Chemscore.Hbond>
2.5871

> <Gold.Chemscore.Metal>
0.0000

> <Gold.Chemscore.Lipo>
80.5237

> <Gold.Chemscore.Internal_Hbond>
0.0000

> <Gold.Chemscore.DEClash>
1.3044

> <Gold.Chemscore.DEInternal>
1.6057

> <Gold.Chemscore.Rot>
1.5202

> <Gold.Chemscore.Internal.Correction>
   9.000000E+99

> <Gold.Chemscore.Hbonds>
donor molecule, donor type, donor heavy atom, donor atom, acceptor molecule, acceptor atom, score
      P1  H  6896  6907       L1     5  0.93
      P1  H  6931  6943       L1    13  0.10
      P1  H  6934  6947       L1    13  0.92

> <Gold.Chemscore.Hbond.Weighted>
-8.6409

> <Gold.Chemscore.Metal.Weighted>
-0.0000

> <Gold.Chemscore.Lipo.Weighted>
-9.4213

> <Gold.Chemscore.Internal_Hbond.Weighted>
0.0000

> <Gold.Chemscore.DEClash.Weighted>
1.3044

> <Gold.Chemscore.DEInternal.Weighted>
1.6057

> <Gold.Chemscore.Rot.Weighted>
3.8916

> <Gold.Chemscore.Internal.Correction.Weighted>
   9.000000E+99

> <Gold.Protein.RotatedTorsions>
[ 6907 6896 6895 6894 ] final  -66.51 input  -60.11 | X-H torsion
[ 7974 7965 7964 7962 ] final -172.28 input  175.53 | X-H torsion
[ 8008 7997 7996 7995 ] final  155.31 input   59.86 | X-H torsion
[ 10167 10162 10161 10158 ] final  119.74 input  -65.29 | X-H torsion
[ 10718 10713 10712 10709 ] final  -88.16 input   66.30 | X-H torsion
[ 10763 10752 10751 10750 ] final -157.80 input  -60.55 | X-H torsion
[ 11005 11000 10999 10996 ] final  113.22 input  -57.11 | X-H torsion

> <Gold.Protein.ActiveResidues>
 VAL166  LYS551  ARG553  GLY616  TRP617  ASP618  TYR619  PRO620  LYS621  CYS622 
 ASP623  PHE694  ASN695  SER759  ASP760  ASP761  ALA762  ILE779  LEU786  VAL792 
 PHE793  MET794  SER795  GLU796  ALA797  LYS798  CYS799  TRP800  GLU811  SER814 

> <Gold.Protein.RotatedAtoms>
  150.7461  134.6010  159.6036 H   0  0  0  0  0  0  0  0  0  0  0  0  # atno 6907 bound_to 6896
  152.3372  134.7180  160.0283 H   0  0  0  0  0  0  0  0  0  0  0  0  # atno 6908 bound_to 6896
  151.7644  133.3300  159.3463 H   0  0  0  0  0  0  0  0  0  0  0  0  # atno 6909 bound_to 6896
  144.7148  140.1795  143.6359 H   0  0  0  0  0  0  0  0  0  0  0  0  # atno 7974 bound_to 7965
  156.2485  140.1943  156.6782 H   0  0  0  0  0  0  0  0  0  0  0  0  # atno 8008 bound_to 7997
  154.6342  140.0592  156.9794 H   0  0  0  0  0  0  0  0  0  0  0  0  # atno 8009 bound_to 7997
  155.1663  140.3264  155.4404 H   0  0  0  0  0  0  0  0  0  0  0  0  # atno 8010 bound_to 7997
  139.6027  144.7061  151.3026 H   0  0  0  0  0  0  0  0  0  0  0  0  # atno 10167 bound_to 10162
  155.9984  130.4826  150.4977 H   0  0  0  0  0  0  0  0  0  0  0  0  # atno 10718 bound_to 10713
  154.7608  135.3117  154.8382 H   0  0  0  0  0  0  0  0  0  0  0  0  # atno 10763 bound_to 10752
  153.9144  135.6802  153.4754 H   0  0  0  0  0  0  0  0  0  0  0  0  # atno 10764 bound_to 10752
  153.1208  135.4823  154.9124 H   0  0  0  0  0  0  0  0  0  0  0  0  # atno 10765 bound_to 10752
  139.8947  134.9545  156.6705 H   0  0  0  0  0  0  0  0  0  0  0  0  # atno 11005 bound_to 11000
  145.8869  139.2354  143.1572 LP  0  0  0  0  0  0  0  0  0  0  0  0  # atno 17320 bound_to 7965
  145.9941  140.8577  143.0051 LP  0  0  0  0  0  0  0  0  0  0  0  0  # atno 17321 bound_to 7965
  140.7261  143.6998  150.7854 LP  0  0  0  0  0  0  0  0  0  0  0  0  # atno 17342 bound_to 10162
  140.0578  143.5185  152.2643 LP  0  0  0  0  0  0  0  0  0  0  0  0  # atno 17343 bound_to 10162
  157.2965  131.0637  151.2098 LP  0  0  0  0  0  0  0  0  0  0  0  0  # atno 17370 bound_to 10713
  157.3092  130.6881  149.6206 LP  0  0  0  0  0  0  0  0  0  0  0  0  # atno 17371 bound_to 10713
  140.7377  133.9005  155.8255 LP  0  0  0  0  0  0  0  0  0  0  0  0  # atno 17394 bound_to 11000
  141.0103  134.1029  157.4228 LP  0  0  0  0  0  0  0  0  0  0  0  0  # atno 17395 bound_to 11000

$$$$
