#       Name:                AV-unprocessed.smi:2032
#       Creating user name   scv26
#       Creation time:       Fri Mar 27 10:51:00 2020


#       File generated by GOLD software.
#

@<TRIPOS>MOLECULE
AV-unprocessed.smi:2032
    48    49     1
SMALL
NO_CHARGES


@<TRIPOS>ATOM
      1 ****        -3.2437  -1.6238  -3.1114 C.3            1 S1                 0.0000
      2 ****        -2.5006  -1.1063  -1.8753 C.3            1 S1                 0.0000
      3 ****        -2.6029   0.4258  -1.7350 C.3            1 S1                 0.0000
      4 ****        -1.9042   0.9003  -0.5096 N.4            1 S1                 1.0000
      5 ****        -0.4029   0.9230  -0.5462 C.3            1 S1                 0.0000
      6 ****         0.1715   1.2833  -1.9376 C.3            1 S1                 0.0000
      7 ****         0.1456   1.9088   0.5206 C.3            1 S1                 0.0000
      8 ****         1.6031   1.9036   0.6101 N.am           1 S1                 0.0000
      9 ****         2.3270   0.9299   1.1812 C.2            1 S1                 0.0000
     10 ****         1.8253  -0.0731   1.6907 O.2            1 S1                 0.0000
     11 ****         3.6433   1.1961   1.1172 N.am           1 S1                 0.0000
     12 ****         4.7219   0.4033   1.5900 C.2            1 S1                 0.0000
     13 ****         4.5798  -0.7849   2.1888 N.2            1 S1                 0.0000
     14 ****         5.8103  -1.3420   2.5465 C.2            1 S1                 0.0000
     15 ****         6.8863  -0.5596   2.2084 C.2            1 S1                 0.0000
     16 ****         6.3942   0.9181   1.4251 S.3            1 S1                 0.0000
     17 ****        -2.4752   0.1869   0.6664 C.3            1 S1                 0.0000
     18 ****        -2.4270  -1.3477   0.4854 C.3            1 S1                 0.0000
     19 ****        -3.1214  -2.0826   1.6373 C.3            1 S1                 0.0000
     20 ****        -3.0881  -1.7034  -0.7244 O.3            1 S1                 0.0000
     21 ****        -2.8267  -1.2007  -4.0256 H              1 S1                 0.0000
     22 ****        -4.3023  -1.3647  -3.0746 H              1 S1                 0.0000
     23 ****        -3.1690  -2.7091  -3.1845 H              1 S1                 0.0000
     24 ****        -1.4558  -1.4121  -1.9487 H              1 S1                 0.0000
     25 ****        -2.2611   0.9384  -2.6328 H              1 S1                 0.0000
     26 ****        -3.6549   0.7012  -1.6453 H              1 S1                 0.0000
     27 ****        -0.0431  -0.0786  -0.3137 H              1 S1                 0.0000
     28 ****         1.2597   1.3413  -1.9230 H              1 S1                 0.0000
     29 ****        -0.2015   2.2471  -2.2853 H              1 S1                 0.0000
     30 ****        -0.0700   0.5312  -2.6882 H              1 S1                 0.0000
     31 ****        -0.1717   2.9239   0.2799 H              1 S1                 0.0000
     32 ****        -0.2472   1.7024   1.5150 H              1 S1                 0.0000
     33 ****         2.0901   2.6953   0.2155 H              1 S1                 0.0000
     34 ****         3.9066   2.0646   0.6754 H              1 S1                 0.0000
     35 ****         5.8286  -2.3031   3.0391 H              1 S1                 0.0000
     36 ****         7.9343  -0.7621   2.3720 H              1 S1                 0.0000
     37 ****        -1.9847   0.4709   1.5950 H              1 S1                 0.0000
     38 ****        -3.5140   0.5017   0.7764 H              1 S1                 0.0000
     39 ****        -1.3940  -1.6941   0.4406 H              1 S1                 0.0000
     40 ****        -2.6424  -1.8592   2.5909 H              1 S1                 0.0000
     41 ****        -3.0806  -3.1622   1.4911 H              1 S1                 0.0000
     42 ****        -4.1707  -1.7964   1.7144 H              1 S1                 0.0000
     43 ****        -2.1707   1.8697  -0.4114 H              1 S1                 0.0000
     44 ****         0.8321  -0.1902   1.6911 LP             1 S1                 0.0000
     45 ****         2.4111  -0.7703   2.1039 LP             1 S1                 0.0000
     46 ****         3.6971  -1.2226   2.3601 LP             1 S1                 0.0000
     47 ****        -3.0515  -2.6975  -0.8272 LP             1 S1                 0.0000
     48 ****        -4.0421  -1.4094  -0.6646 LP             1 S1                 0.0000
@<TRIPOS>BOND
    1    1    2 1     
    2    1   21 1     
    3    1   22 1     
    4    1   23 1     
    5    2   20 1     
    6    2    3 1     
    7    2   24 1     
    8    3    4 1     
    9    3   25 1     
   10    3   26 1     
   11    4    5 1     
   12    4   17 1     
   13    4   43 1     
   14    5    6 1     
   15    5    7 1     
   16    5   27 1     
   17    6   28 1     
   18    6   29 1     
   19    6   30 1     
   20    7    8 1     
   21    7   31 1     
   22    7   32 1     
   23    8    9 am    
   24    8   33 1     
   25    9   10 2     
   26    9   11 am    
   27   11   12 1     
   28   11   34 1     
   29   12   16 1     
   30   12   13 2     
   31   13   14 1     
   32   14   15 2     
   33   14   35 1     
   34   15   16 1     
   35   15   36 1     
   36   17   18 1     
   37   17   37 1     
   38   17   38 1     
   39   18   19 1     
   40   18   20 1     
   41   18   39 1     
   42   19   40 1     
   43   19   41 1     
   44   19   42 1     
   45   10   44 1     
   46   10   45 1     
   47   13   46 1     
   48   20   47 1     
   49   20   48 1     
@<TRIPOS>SUBSTRUCTURE
      1 S1             1
@<TRIPOS>SET
LONE_PAIRS      STATIC     ATOMS    <user>   **** ""
5 44 45 46 47 48
DONOR_HYDROGENS      STATIC     ATOMS    <user>   **** ""
3 43 33 34
ATOM$BLUE        STATIC     ATOMS    COLORGROUP SYSTEM
5 44 45 46 47 48
ATOM$RED        STATIC     ATOMS    COLORGROUP SYSTEM
3 43 33 34
