AV-unprocessed.smi:1759|AV-procd|sdf|7087|dock9
  -GOLD-   22720 8303D 1   1.00000     0.00000
 Structure written by MMmdl.
 31 32  0  0  0  0  0  0  0  0  1 V2000
  143.2422  143.9206  162.0874 C   0  0  0  0  0  0  0  0  0  0  0  0
  144.6119  143.8249  161.5092 C   0  0  0  0  0  0  0  0  0  0  0  0
  145.3412  144.6524  160.7026 C   0  0  0  0  0  0  0  0  0  0  0  0
  146.5633  143.9469  160.5424 C   0  0  0  0  0  0  0  0  0  0  0  0
  147.6162  144.4843  159.7594 N   0  0  0  0  0  0  0  0  0  0  0  0
  148.9258  144.5146  160.0587 C   0  0  0  0  0  0  0  0  0  0  0  0
  149.4320  144.0432  161.0774 O   0  0  0  0  0  0  0  0  0  0  0  0
  149.6313  145.1250  159.0961 N   0  0  0  0  0  0  0  0  0  0  0  0
  151.0792  145.2977  159.1046 C   0  0  0  0  0  0  0  0  0  0  0  0
  151.7892  144.0519  159.6591 C   0  0  2  0  0  0  0  0  0  0  0  0
  153.1611  143.8006  159.0344 C   0  0  0  0  0  0  0  0  0  0  0  0
  153.3020  142.3040  159.1895 C   0  0  0  0  0  0  0  0  0  0  0  0
  151.8789  141.8347  158.9097 C   0  0  0  0  0  0  0  0  0  0  0  0
  151.0286  142.8773  159.3788 O   0  0  0  0  0  0  0  0  0  0  0  0
  146.5783  142.7927  161.1915 N   0  0  0  0  0  0  0  0  0  0  0  0
  145.3275  142.7085  161.8145 O   0  0  0  0  0  0  0  0  0  0  0  0
  142.7541  144.8465  161.7826 H   0  0  0  0  0  0  0  0  0  0  0  0
  143.2812  143.9014  163.1766 H   0  0  0  0  0  0  0  0  0  0  0  0
  142.6238  143.0866  161.7554 H   0  0  0  0  0  0  0  0  0  0  0  0
  145.0460  145.6081  160.2953 H   0  0  0  0  0  0  0  0  0  0  0  0
  147.3421  144.8961  158.8798 H   0  0  0  0  0  0  0  0  0  0  0  0
  149.1365  145.4783  158.2902 H   0  0  0  0  0  0  0  0  0  0  0  0
  151.4095  145.4948  158.0845 H   0  0  0  0  0  0  0  0  0  0  0  0
  151.3470  146.1783  159.6913 H   0  0  0  0  0  0  0  0  0  0  0  0
  151.9044  144.1253  160.7418 H   0  0  0  0  0  0  0  0  0  0  0  0
  153.1587  144.0654  157.9759 H   0  0  0  0  0  0  0  0  0  0  0  0
  153.9587  144.3592  159.5247 H   0  0  0  0  0  0  0  0  0  0  0  0
  154.0370  141.8681  158.5123 H   0  0  0  0  0  0  0  0  0  0  0  0
  153.5870  142.0569  160.2130 H   0  0  0  0  0  0  0  0  0  0  0  0
  151.7221  141.7183  157.8367 H   0  0  0  0  0  0  0  0  0  0  0  0
  151.6500  140.8834  159.3907 H   0  0  0  0  0  0  0  0  0  0  0  0
  1  2  1  0  0  0  0
  1 17  1  0  0  0  0
  1 18  1  0  0  0  0
  1 19  1  0  0  0  0
  2 16  1  0  0  0  0
  2  3  2  0  0  0  0
  3  4  1  0  0  0  0
  3 20  1  0  0  0  0
  4  5  1  0  0  0  0
  4 15  2  0  0  0  0
  5  6  1  0  0  0  0
  5 21  1  0  0  0  0
  6  7  2  0  0  0  0
  6  8  1  0  0  0  0
  8  9  1  0  0  0  0
  8 22  1  0  0  0  0
  9 10  1  0  0  0  0
  9 23  1  0  0  0  0
  9 24  1  0  0  0  0
 10 14  1  0  0  0  0
 10 11  1  0  0  0  0
 10 25  1  0  0  0  0
 11 12  1  0  0  0  0
 11 26  1  0  0  0  0
 11 27  1  0  0  0  0
 12 13  1  0  0  0  0
 12 28  1  0  0  0  0
 12 29  1  0  0  0  0
 13 14  1  0  0  0  0
 13 30  1  0  0  0  0
 13 31  1  0  0  0  0
 15 16  1  0  0  0  0
M  END
> <s_m_source_file>
AV-unprocessed.smi

> <i_m_source_file_index>
1759

> <i_lp_mmshare_version>
43012

> <i_f3d_flags>
0

> <s_epik_input>
W0NIM11jMVtjSF1jKG5vMSlbTkhdQyg9TylbTkhdW0NIMl1bQ0BASF0yW0NIMl1bQ0gyXVtDSDJdTzI=

> <s_epik_cmdline>
J2VwaWtfcHl0aG9uJywgJy1waCcsICc3LjAnLCAnLXRuJywgJzgnLCAnLW1hJywgJzIwMCcsICctbWV0YWxfYmluZGluZycsICctaW1hZScsICc8aW5maWxlLm1hZT4nLCAnLW9tYWUnLCAnPG91dGZpbGUubWFlPic=

> <r_lp_tautomer_probability>
1

> <r_epik_Ionization_Penalty>
2.1743e-05

> <r_epik_Ionization_Penalty_Charging>
0

> <r_epik_Ionization_Penalty_Neutral>
2.1743e-05

> <r_epik_State_Penalty>
-0

> <r_epik_Charging_Adjusted_Penalty>
0

> <i_epik_Tot_Q>
0

> <i_epik_Tot_abs_Q>
0

> <r_epik_Metal_State_Penalty>
-0

> <b_epik_Metal_Only>
0

> <s_lp_Force_Field>
OPLS_2005

> <r_lp_Energy>
14.3546

> <b_lp_Chiralities_Consistent>
1

> <s_lp_Variant>
AV-unprocessed.smi:1759-1

> <Gold.Version>
5.8.1

> <Gold.Id.Protein>
6NUR|6NUR_protein|mol2

> <Gold.PLP.Fitness>
43.7200

> <Gold.PLP.PLP>
-35.1066

> <Gold.PLP.part.hbond>
-5.6338

> <Gold.PLP.part.metal>
0.0000

> <Gold.PLP.part.buried>
-6.1240

> <Gold.PLP.part.nonpolar>
-24.4688

> <Gold.PLP.part.repulsive>
0.5948

> <Gold.PLP.ligand.clash>
0.0000

> <Gold.PLP.ligand.torsion>
0.9041

> <Gold.PLP.Chemscore.Hbond>
3.4734

> <Gold.PLP.Chemscore.CHOScore>
0.0000

> <Gold.PLP.Chemscore.Metal>
0.0000

> <Gold.Chemscore.Hbonds>
donor molecule, donor type, donor heavy atom, donor atom, acceptor molecule, acceptor atom, score
      L1  H     5    21       P1  8029  0.96
      L1  H     8    22       P1  8029  1.00
      P1  H  6933  6944       L1    15  0.80
      P1  H  6934  6946       L1    15  0.78

> <Gold.PLP.Chemscore.Internal.Correction>
0.0013

> <Gold.Rescore>
     Score         DG    S(hbond)    S(metal)    S(lipo)     H(rot)  DE(clash)    DE(int)     intcor
     19.22     -21.14       3.06        0.00      74.74       1.30       0.11       1.81       ----

> <Gold.Chemscore.Fitness>
19.2245

> <Gold.Chemscore.DG>
-21.1418

> <Gold.Chemscore.ZeroCoef>
-5.4800

> <Gold.Chemscore.Hbond>
3.0647

> <Gold.Chemscore.Metal>
0.0000

> <Gold.Chemscore.Lipo>
74.7428

> <Gold.Chemscore.Internal_Hbond>
0.0000

> <Gold.Chemscore.DEClash>
0.1103

> <Gold.Chemscore.DEInternal>
1.8071

> <Gold.Chemscore.Rot>
1.2965

> <Gold.Chemscore.Internal.Correction>
   9.000000E+99

> <Gold.Chemscore.Hbonds>
donor molecule, donor type, donor heavy atom, donor atom, acceptor molecule, acceptor atom, score
      L1  H     5    21       P1  8029  0.90
      L1  H     8    22       P1  8029  0.88
      P1  H  6933  6944       L1    15  0.47
      P1  H  6934  6946       L1    15  0.22

> <Gold.Chemscore.Hbond.Weighted>
-10.2361

> <Gold.Chemscore.Metal.Weighted>
-0.0000

> <Gold.Chemscore.Lipo.Weighted>
-8.7449

> <Gold.Chemscore.Internal_Hbond.Weighted>
0.0000

> <Gold.Chemscore.DEClash.Weighted>
0.1103

> <Gold.Chemscore.DEInternal.Weighted>
1.8071

> <Gold.Chemscore.Rot.Weighted>
3.3192

> <Gold.Chemscore.Internal.Correction.Weighted>
   9.000000E+99

> <Gold.Protein.RotatedTorsions>
[ 6907 6896 6895 6894 ] final  121.20 input  -60.11 | X-H torsion
[ 7974 7965 7964 7962 ] final  -40.69 input  175.53 | X-H torsion
[ 8008 7997 7996 7995 ] final  124.10 input   59.86 | X-H torsion
[ 10167 10162 10161 10158 ] final  174.87 input  -65.29 | X-H torsion
[ 10718 10713 10712 10709 ] final   61.07 input   66.30 | X-H torsion
[ 10763 10752 10751 10750 ] final   -9.44 input  -60.55 | X-H torsion
[ 11005 11000 10999 10996 ] final -177.83 input  -57.11 | X-H torsion

> <Gold.Protein.ActiveResidues>
 VAL166  LYS551  ARG553  GLY616  TRP617  ASP618  TYR619  PRO620  LYS621  CYS622 
 ASP623  PHE694  ASN695  SER759  ASP760  ASP761  ALA762  ILE779  LEU786  VAL792 
 PHE793  MET794  SER795  GLU796  ALA797  LYS798  CYS799  TRP800  GLU811  SER814 

> <Gold.Protein.RotatedAtoms>
  152.4340  133.7327  159.6596 H   0  0  0  0  0  0  0  0  0  0  0  0  # atno 6907 bound_to 6896
  150.8222  133.8223  159.3140 H   0  0  0  0  0  0  0  0  0  0  0  0  # atno 6908 bound_to 6896
  151.5902  135.1056  160.0089 H   0  0  0  0  0  0  0  0  0  0  0  0  # atno 6909 bound_to 6896
  146.0281  140.6766  142.9146 H   0  0  0  0  0  0  0  0  0  0  0  0  # atno 7974 bound_to 7965
  156.2790  140.2747  156.1734 H   0  0  0  0  0  0  0  0  0  0  0  0  # atno 8008 bound_to 7997
  155.0631  140.0386  157.2601 H   0  0  0  0  0  0  0  0  0  0  0  0  # atno 8009 bound_to 7997
  154.7101  140.2667  155.6643 H   0  0  0  0  0  0  0  0  0  0  0  0  # atno 8010 bound_to 7997
  139.5157  144.3097  152.0303 H   0  0  0  0  0  0  0  0  0  0  0  0  # atno 10167 bound_to 10162
  157.5800  130.8974  149.9414 H   0  0  0  0  0  0  0  0  0  0  0  0  # atno 10718 bound_to 10713
  153.4548  135.7015  153.6086 H   0  0  0  0  0  0  0  0  0  0  0  0  # atno 10763 bound_to 10752
  153.4405  135.3781  155.2225 H   0  0  0  0  0  0  0  0  0  0  0  0  # atno 10764 bound_to 10752
  154.8728  135.3973  154.3966 H   0  0  0  0  0  0  0  0  0  0  0  0  # atno 10765 bound_to 10752
  140.4366  134.6470  157.4737 H   0  0  0  0  0  0  0  0  0  0  0  0  # atno 11005 bound_to 11000
  144.7018  140.3686  143.7150 LP  0  0  0  0  0  0  0  0  0  0  0  0  # atno 17320 bound_to 7965
  145.7085  139.1679  143.2552 LP  0  0  0  0  0  0  0  0  0  0  0  0  # atno 17321 bound_to 7965
  140.2542  144.4136  150.6210 LP  0  0  0  0  0  0  0  0  0  0  0  0  # atno 17342 bound_to 10162
  140.6203  143.2176  151.6708 LP  0  0  0  0  0  0  0  0  0  0  0  0  # atno 17343 bound_to 10162
  156.0846  130.3669  150.0513 LP  0  0  0  0  0  0  0  0  0  0  0  0  # atno 17370 bound_to 10713
  156.8654  130.9506  151.3614 LP  0  0  0  0  0  0  0  0  0  0  0  0  # atno 17371 bound_to 10713
  140.0098  134.6708  155.9398 LP  0  0  0  0  0  0  0  0  0  0  0  0  # atno 17394 bound_to 11000
  141.1723  133.6538  156.4698 LP  0  0  0  0  0  0  0  0  0  0  0  0  # atno 17395 bound_to 11000

$$$$
