#       Name:                AV-unprocessed.smi:2698
#       Creating user name   scv26
#       Creation time:       Fri Mar 27 14:45:53 2020


#       File generated by GOLD software.
#

@<TRIPOS>MOLECULE
AV-unprocessed.smi:2698
    40    40     1
SMALL
NO_CHARGES


@<TRIPOS>ATOM
      1 ****        -3.7540   0.0241  -0.5687 C.3            1 S1                 0.0000
      2 ****        -2.2315   0.1581  -0.7217 C.3            1 S1                 0.0000
      3 ****        -1.8916   1.0287  -1.9457 C.3            1 S1                 0.0000
      4 ****        -1.5650  -1.2371  -0.7581 C.3            1 S1                 0.0000
      5 ****        -0.0394  -1.1899  -0.6320 C.2            1 S1                 0.0000
      6 ****         0.6530  -0.9065  -1.6098 O.2            1 S1                 0.0000
      7 ****         0.4658  -1.4763   0.5788 N.am           1 S1                 0.0000
      8 ****         1.8811  -1.4766   0.9499 C.3            1 S1                 0.0000
      9 ****         2.3062  -0.1389   1.5979 C.3            1 S1                 0.0000
     10 ****         2.0916   1.0969   0.7565 C.2            1 S1                 0.0000
     11 ****         2.9153   1.7507  -0.1336 C.2            1 S1                 0.0000
     12 ****         2.2420   2.8407  -0.6918 N.2            1 S1                 0.0000
     13 ****         1.0404   2.8018  -0.1278 C.2            1 S1                 0.0000
     14 ****         0.8948   1.7936   0.7354 N.pl3          1 S1                 0.0000
     15 ****         2.1879  -2.6924   1.8315 C.2            1 S1                 0.0000
     16 ****         1.4961  -2.8429   2.8636 O.co2          1 S1                 0.0000
     17 ****         3.1118  -3.4503   1.4626 O.co2          1 S1                -1.0000
     18 ****         0.0652   1.5730   1.2676 H              1 S1                 0.0000
     19 ****        -4.1943  -0.4895  -1.4239 H              1 S1                 0.0000
     20 ****        -4.2291   1.0021  -0.4862 H              1 S1                 0.0000
     21 ****        -4.0120  -0.5403   0.3279 H              1 S1                 0.0000
     22 ****        -1.8686   0.6820   0.1639 H              1 S1                 0.0000
     23 ****        -2.1820   0.5359  -2.8741 H              1 S1                 0.0000
     24 ****        -0.8263   1.2499  -2.0045 H              1 S1                 0.0000
     25 ****        -2.4120   1.9856  -1.9017 H              1 S1                 0.0000
     26 ****        -1.9600  -1.8563   0.0490 H              1 S1                 0.0000
     27 ****        -1.8236  -1.7514  -1.6845 H              1 S1                 0.0000
     28 ****        -0.1813  -1.7195   1.3149 H              1 S1                 0.0000
     29 ****         2.4761  -1.5991   0.0424 H              1 S1                 0.0000
     30 ****         1.7866   0.0017   2.5469 H              1 S1                 0.0000
     31 ****         3.3682  -0.1865   1.8423 H              1 S1                 0.0000
     32 ****         3.9304   1.5170  -0.4192 H              1 S1                 0.0000
     33 ****         0.2573   3.5124  -0.3477 H              1 S1                 0.0000
     34 ****         0.2194  -0.7066  -2.4885 LP             1 S1                 0.0000
     35 ****         1.6490  -0.8763  -1.5253 LP             1 S1                 0.0000
     36 ****         2.5860   3.4986  -1.3618 LP             1 S1                 0.0000
     37 ****         1.6646  -3.6205   3.4694 LP             1 S1                 0.0000
     38 ****         0.7750  -2.1856   3.0824 LP             1 S1                 0.0000
     39 ****         3.3482  -4.2534   2.0095 LP             1 S1                 0.0000
     40 ****         3.6142  -3.2532   0.6207 LP             1 S1                 0.0000
@<TRIPOS>BOND
    1    1    2 1     
    2    1   19 1     
    3    1   20 1     
    4    1   21 1     
    5    2    3 1     
    6    2    4 1     
    7    2   22 1     
    8    3   23 1     
    9    3   24 1     
   10    3   25 1     
   11    4    5 1     
   12    4   26 1     
   13    4   27 1     
   14    5    6 2     
   15    5    7 am    
   16    7    8 1     
   17    7   28 1     
   18    8    9 1     
   19    8   15 1     
   20    8   29 1     
   21    9   30 1     
   22    9   31 1     
   23    9   10 1     
   24   10   11 2     
   25   10   14 1     
   26   11   32 1     
   27   11   12 1     
   28   12   13 2     
   29   13   14 1     
   30   13   33 1     
   31   14   18 1     
   32   15   16 ar    
   33   15   17 ar    
   34    6   34 1     
   35    6   35 1     
   36   12   36 1     
   37   16   37 1     
   38   16   38 1     
   39   17   39 1     
   40   17   40 1     
@<TRIPOS>SUBSTRUCTURE
      1 S1             1
@<TRIPOS>SET
LONE_PAIRS      STATIC     ATOMS    <user>   **** ""
7 34 35 36 37 38 39 40
DONOR_HYDROGENS      STATIC     ATOMS    <user>   **** ""
2 28 18
ATOM$BLUE        STATIC     ATOMS    COLORGROUP SYSTEM
7 34 35 36 37 38 39 40
ATOM$RED        STATIC     ATOMS    COLORGROUP SYSTEM
2 28 18
