AV-unprocessed.smi:2061|AV-procd|sdf|8394|dock1
  -GOLD-   2272011 73D 1   1.00000     0.00000
 Structure written by MMmdl.
 45 46  0  0  0  0  0  0  0  0  3 V2000
  147.3189  135.3941  162.7382 C   0  0  0  0  0  0  0  0  0  0  0  0
  147.9027  135.7286  161.4085 C   0  0  0  0  0  0  0  0  0  0  0  0
  147.9677  135.0508  160.2238 C   0  0  0  0  0  0  0  0  0  0  0  0
  148.6645  135.9521  159.3752 C   0  0  0  0  0  0  0  0  0  0  0  0
  148.9421  135.6089  158.0251 N   0  0  0  0  0  0  0  0  0  0  0  0
  149.1881  134.3950  157.4983 C   0  0  0  0  0  0  0  0  0  0  0  0
  149.2001  133.3923  158.2223 O   0  0  0  0  0  0  0  0  0  0  0  0
  149.4012  134.4486  156.1546 N   0  5  0  0  0  0  0  0  0  0  0  0
  150.0441  135.5679  155.4661 C   0  0  0  0  0  0  0  0  0  0  0  0
  149.0364  136.7339  155.2447 C   0  0  2  0  0  0  0  0  0  0  0  0
  147.6016  136.1824  154.9995 C   0  0  0  0  0  0  0  0  0  0  0  0
  149.5470  137.6407  154.1555 N   0  3  1  0  0  0  0  0  0  0  0  0
  148.9511  139.0004  154.0347 C   0  0  0  0  0  0  0  0  0  0  0  0
  149.5484  139.9781  155.0696 C   0  0  2  0  0  0  0  0  0  0  0  0
  148.9968  141.3981  154.9040 C   0  0  0  0  0  0  0  0  0  0  0  0
  150.9582  140.0300  154.8903 O   0  0  0  0  0  0  0  0  0  0  0  0
  151.5822  138.7696  155.1048 C   0  0  2  0  0  0  0  0  0  0  0  0
  153.0964  138.9629  154.9681 C   0  0  0  0  0  0  0  0  0  0  0  0
  151.0335  137.7537  154.0806 C   0  0  0  0  0  0  0  0  0  0  0  0
  148.9910  137.0804  159.9882 N   0  0  0  0  0  0  0  0  0  0  0  0
  148.5047  136.9429  161.2935 O   0  0  0  0  0  0  0  0  0  0  0  0
  147.0988  134.3288  162.8099 H   0  0  0  0  0  0  0  0  0  0  0  0
  146.3917  135.9433  162.9011 H   0  0  0  0  0  0  0  0  0  0  0  0
  148.0107  135.6503  163.5407 H   0  0  0  0  0  0  0  0  0  0  0  0
  147.5809  134.0672  160.0020 H   0  0  0  0  0  0  0  0  0  0  0  0
  148.9456  136.3780  157.3719 H   0  0  0  0  0  0  0  0  0  0  0  0
  150.8918  135.9353  156.0456 H   0  0  0  0  0  0  0  0  0  0  0  0
  150.4598  135.2733  154.5016 H   0  0  0  0  0  0  0  0  0  0  0  0
  148.9872  137.3233  156.1612 H   0  0  0  0  0  0  0  0  0  0  0  0
  147.2527  135.5537  155.8214 H   0  0  0  0  0  0  0  0  0  0  0  0
  147.5332  135.5854  154.0879 H   0  0  0  0  0  0  0  0  0  0  0  0
  146.8645  136.9798  154.9249 H   0  0  0  0  0  0  0  0  0  0  0  0
  149.1850  139.3684  153.0346 H   0  0  0  0  0  0  0  0  0  0  0  0
  147.8629  138.9825  154.0745 H   0  0  0  0  0  0  0  0  0  0  0  0
  149.3354  139.6444  156.0853 H   0  0  0  0  0  0  0  0  0  0  0  0
  147.9161  141.4183  155.0470 H   0  0  0  0  0  0  0  0  0  0  0  0
  149.2108  141.7920  153.9101 H   0  0  0  0  0  0  0  0  0  0  0  0
  149.4406  142.0758  155.6335 H   0  0  0  0  0  0  0  0  0  0  0  0
  151.3717  138.4329  156.1209 H   0  0  0  0  0  0  0  0  0  0  0  0
  153.6279  138.0261  155.1376 H   0  0  0  0  0  0  0  0  0  0  0  0
  153.4637  139.6888  155.6939 H   0  0  0  0  0  0  0  0  0  0  0  0
  153.3611  139.3236  153.9737 H   0  0  0  0  0  0  0  0  0  0  0  0
  151.5172  136.7859  154.2145 H   0  0  0  0  0  0  0  0  0  0  0  0
  151.2949  138.0802  153.0731 H   0  0  0  0  0  0  0  0  0  0  0  0
  149.2651  137.1634  153.3109 H   0  0  0  0  0  0  0  0  0  0  0  0
  1  2  1  0  0  0  0
  1 22  1  0  0  0  0
  1 23  1  0  0  0  0
  1 24  1  0  0  0  0
  2 21  1  0  0  0  0
  2  3  2  0  0  0  0
  3  4  1  0  0  0  0
  3 25  1  0  0  0  0
  4  5  1  0  0  0  0
  4 20  2  0  0  0  0
  5  6  1  0  0  0  0
  5 26  1  0  0  0  0
  6  7  2  0  0  0  0
  6  8  1  0  0  0  0
  8  9  1  0  0  0  0
  9 10  1  0  0  0  0
  9 27  1  0  0  0  0
  9 28  1  0  0  0  0
 10 11  1  0  0  0  0
 10 12  1  0  0  0  0
 10 29  1  0  0  0  0
 11 30  1  0  0  0  0
 11 31  1  0  0  0  0
 11 32  1  0  0  0  0
 12 19  1  0  0  0  0
 12 13  1  0  0  0  0
 12 45  1  0  0  0  0
 13 14  1  0  0  0  0
 13 33  1  0  0  0  0
 13 34  1  0  0  0  0
 14 15  1  0  0  0  0
 14 16  1  0  0  0  0
 14 35  1  0  0  0  0
 15 36  1  0  0  0  0
 15 37  1  0  0  0  0
 15 38  1  0  0  0  0
 16 17  1  0  0  0  0
 17 18  1  0  0  0  0
 17 19  1  0  0  0  0
 17 39  1  0  0  0  0
 18 40  1  0  0  0  0
 18 41  1  0  0  0  0
 18 42  1  0  0  0  0
 19 43  1  0  0  0  0
 19 44  1  0  0  0  0
 20 21  1  0  0  0  0
M  CHG  1   8  -1
M  CHG  1  12   1
M  END
> <s_m_source_file>
AV-unprocessed.smi

> <i_m_source_file_index>
2061

> <i_lp_mmshare_version>
43012

> <i_f3d_flags>
0

> <s_epik_input>
W0NIM11jMVtjSF1jKG5vMSlbTkhdQyg9TylbTkhdW0NIMl1bQ0BIXShbQ0gzXSlOMltDSDJdW0NAQEhdKFtDSDNdKU9bQ0BASF0oW0NIM10pW0NIMl0y

> <s_epik_cmdline>
J2VwaWtfcHl0aG9uJywgJy1waCcsICc3LjAnLCAnLXRuJywgJzgnLCAnLW1hJywgJzIwMCcsICctbWV0YWxfYmluZGluZycsICctaW1hZScsICc8aW5maWxlLm1hZT4nLCAnLW9tYWUnLCAnPG91dGZpbGUubWFlPic=

> <r_epik_Ionization_Penalty>
6.8073

> <r_epik_Ionization_Penalty_Charging>
6.80729

> <r_epik_Ionization_Penalty_Neutral>
5.65391e-06

> <r_epik_State_Penalty>
7.47323

> <r_epik_Charging_Adjusted_Penalty>
14.2805

> <i_epik_Tot_Q>
0

> <i_epik_Tot_abs_Q>
2

> <r_epik_Metal_State_Penalty>
3.40035

> <b_epik_Metal_Only>
1

> <s_lp_Force_Field>
OPLS_2005

> <r_lp_Energy>
21.662

> <b_lp_Chiralities_Consistent>
1

> <s_lp_Variant>
AV-unprocessed.smi:2061-35

> <Gold.Version>
5.8.1

> <Gold.Id.Protein>
6NUR|6NUR_protein|mol2

> <Gold.PLP.Fitness>
47.2822

> <Gold.PLP.PLP>
-34.3898

> <Gold.PLP.part.hbond>
-5.3758

> <Gold.PLP.part.metal>
0.0000

> <Gold.PLP.part.buried>
-2.7907

> <Gold.PLP.part.nonpolar>
-27.6802

> <Gold.PLP.part.repulsive>
0.1603

> <Gold.PLP.ligand.clash>
0.0000

> <Gold.PLP.ligand.torsion>
1.1959

> <Gold.PLP.Chemscore.Hbond>
5.0000

> <Gold.PLP.Chemscore.CHOScore>
0.0000

> <Gold.PLP.Chemscore.Metal>
0.0000

> <Gold.Chemscore.Hbonds>
donor molecule, donor type, donor heavy atom, donor atom, acceptor molecule, acceptor atom, score
      L1  H    12    45       P1  7948  2.00
      P1  H  6896  6909       L1     7  1.00
      P1  H  6931  6943       L1    21  0.95
      P1  H  7989  7998       L1    16  1.00

> <Gold.PLP.Chemscore.Internal.Correction>
0.2843

> <Gold.Rescore>
     Score         DG    S(hbond)    S(metal)    S(lipo)     H(rot)  DE(clash)    DE(int)     intcor
     16.30     -20.25       2.88        0.00      78.19       1.56       0.38       3.57       ----

> <Gold.Chemscore.Fitness>
16.2960

> <Gold.Chemscore.DG>
-20.2519

> <Gold.Chemscore.ZeroCoef>
-5.4800

> <Gold.Chemscore.Hbond>
2.8755

> <Gold.Chemscore.Metal>
0.0000

> <Gold.Chemscore.Lipo>
78.1945

> <Gold.Chemscore.Internal_Hbond>
0.0000

> <Gold.Chemscore.DEClash>
0.3824

> <Gold.Chemscore.DEInternal>
3.5735

> <Gold.Chemscore.Rot>
1.5550

> <Gold.Chemscore.Internal.Correction>
   9.000000E+99

> <Gold.Chemscore.Hbonds>
donor molecule, donor type, donor heavy atom, donor atom, acceptor molecule, acceptor atom, score
      L1  H    12    45       P1  7948  0.98
      P1  H  6896  6909       L1     7  0.33
      P1  H  6931  6943       L1    21  0.20
      P1  H  7989  7998       L1    16  0.80

> <Gold.Chemscore.Hbond.Weighted>
-9.6041

> <Gold.Chemscore.Metal.Weighted>
-0.0000

> <Gold.Chemscore.Lipo.Weighted>
-9.1488

> <Gold.Chemscore.Internal_Hbond.Weighted>
0.0000

> <Gold.Chemscore.DEClash.Weighted>
0.3824

> <Gold.Chemscore.DEInternal.Weighted>
3.5735

> <Gold.Chemscore.Rot.Weighted>
3.9809

> <Gold.Chemscore.Internal.Correction.Weighted>
   9.000000E+99

> <Gold.Protein.RotatedTorsions>
[ 6907 6896 6895 6894 ] final  -11.57 input  -60.11 | X-H torsion
[ 7974 7965 7964 7962 ] final -124.12 input  175.53 | X-H torsion
[ 8008 7997 7996 7995 ] final -173.51 input   59.86 | X-H torsion
[ 10167 10162 10161 10158 ] final  -94.74 input  -65.29 | X-H torsion
[ 10718 10713 10712 10709 ] final   70.95 input   66.30 | X-H torsion
[ 10763 10752 10751 10750 ] final  -25.39 input  -60.55 | X-H torsion
[ 11005 11000 10999 10996 ] final   70.19 input  -57.11 | X-H torsion

> <Gold.Protein.ActiveResidues>
 VAL166  LYS551  ARG553  GLY616  TRP617  ASP618  TYR619  PRO620  LYS621  CYS622 
 ASP623  PHE694  ASN695  SER759  ASP760  ASP761  ALA762  ILE779  LEU786  VAL792 
 PHE793  MET794  SER795  GLU796  ALA797  LYS798  CYS799  TRP800  GLU811  SER814 

> <Gold.Protein.RotatedAtoms>
  151.3842  135.0945  159.9505 H   0  0  0  0  0  0  0  0  0  0  0  0  # atno 6907 bound_to 6896
  152.5099  133.9043  159.7466 H   0  0  0  0  0  0  0  0  0  0  0  0  # atno 6908 bound_to 6896
  150.9482  133.6523  159.2806 H   0  0  0  0  0  0  0  0  0  0  0  0  # atno 6909 bound_to 6896
  145.0115  140.7909  143.4436 H   0  0  0  0  0  0  0  0  0  0  0  0  # atno 7974 bound_to 7965
  155.9584  140.1140  157.0917 H   0  0  0  0  0  0  0  0  0  0  0  0  # atno 8008 bound_to 7997
  154.4126  140.1187  156.5213 H   0  0  0  0  0  0  0  0  0  0  0  0  # atno 8009 bound_to 7997
  155.6752  140.3473  155.4836 H   0  0  0  0  0  0  0  0  0  0  0  0  # atno 8010 bound_to 7997
  140.3113  143.3103  152.0145 H   0  0  0  0  0  0  0  0  0  0  0  0  # atno 10167 bound_to 10162
  157.6426  130.9503  150.0722 H   0  0  0  0  0  0  0  0  0  0  0  0  # atno 10718 bound_to 10713
  153.6991  135.6957  153.5068 H   0  0  0  0  0  0  0  0  0  0  0  0  # atno 10763 bound_to 10752
  153.2355  135.4323  155.0641 H   0  0  0  0  0  0  0  0  0  0  0  0  # atno 10764 bound_to 10752
  154.8349  135.3495  154.6531 H   0  0  0  0  0  0  0  0  0  0  0  0  # atno 10765 bound_to 10752
  139.9611  134.7059  156.0644 H   0  0  0  0  0  0  0  0  0  0  0  0  # atno 11005 bound_to 11000
  145.2017  139.2248  143.5189 LP  0  0  0  0  0  0  0  0  0  0  0  0  # atno 17320 bound_to 7965
  146.3470  140.1836  142.8589 LP  0  0  0  0  0  0  0  0  0  0  0  0  # atno 17321 bound_to 7965
  139.4893  144.6382  151.6932 LP  0  0  0  0  0  0  0  0  0  0  0  0  # atno 17342 bound_to 10162
  140.5565  144.0339  150.6150 LP  0  0  0  0  0  0  0  0  0  0  0  0  # atno 17343 bound_to 10162
  156.1722  130.3647  149.9149 LP  0  0  0  0  0  0  0  0  0  0  0  0  # atno 17370 bound_to 10713
  156.7121  130.8974  151.3610 LP  0  0  0  0  0  0  0  0  0  0  0  0  # atno 17371 bound_to 10713
  141.1288  133.6592  156.3409 LP  0  0  0  0  0  0  0  0  0  0  0  0  # atno 17394 bound_to 11000
  140.5498  134.6039  157.5404 LP  0  0  0  0  0  0  0  0  0  0  0  0  # atno 17395 bound_to 11000

$$$$
