AV-unprocessed.smi:285|AV-procd|sdf|2166|dock4
  -GOLD-   2262021523D 1   1.00000     0.00000
 Structure written by MMmdl.
 31 33  0  0  0  0  0  0  0  0  1 V2000
  139.1220  138.5424  156.5245 N   0  0  0  0  0  0  0  0  0  0  0  0
  139.7474  137.8036  155.5974 C   0  0  0  0  0  0  0  0  0  0  0  0
  138.9959  137.1638  154.6712 N   0  0  0  0  0  0  0  0  0  0  0  0
  139.5953  136.4199  153.7357 C   0  0  0  0  0  0  0  0  0  0  0  0
  140.8993  136.1929  153.5574 N   0  0  0  0  0  0  0  0  0  0  0  0
  141.6577  136.8399  154.4903 C   0  0  0  0  0  0  0  0  0  0  0  0
  141.1570  137.6620  155.5424 C   0  0  0  0  0  0  0  0  0  0  0  0
  142.2063  138.1569  156.3063 N   0  0  0  0  0  0  0  0  0  0  0  0
  143.2531  137.6461  155.7205 C   0  0  0  0  0  0  0  0  0  0  0  0
  145.0003  138.0035  156.3895 Br  0  0  0  0  0  0  0  0  0  0  0  0
  143.0325  136.8445  154.6230 N   0  0  0  0  0  0  0  0  0  0  0  0
  144.0277  136.1383  153.7596 C   0  0  1  0  0  0  0  0  0  0  0  0
  143.5842  136.1029  152.3078 C   0  0  0  0  0  0  0  0  0  0  0  0
  144.9242  135.8588  151.6491 C   0  0  1  0  0  0  0  0  0  0  0  0
  144.8959  136.1949  150.2758 O   0  0  0  0  0  0  0  0  0  0  0  0
  145.8997  136.6874  152.5181 C   0  0  1  0  0  0  0  0  0  0  0  0
  146.2106  138.1036  151.9922 C   0  0  0  0  0  0  0  0  0  0  0  0
  146.6445  138.0334  150.6508 O   0  0  0  0  0  0  0  0  0  0  0  0
  145.2285  136.8404  153.7748 O   0  0  0  0  0  0  0  0  0  0  0  0
  139.6604  139.0297  157.2264 H   0  0  0  0  0  0  0  0  0  0  0  0
  138.1149  138.6134  156.5172 H   0  0  0  0  0  0  0  0  0  0  0  0
  138.9365  135.9377  153.0286 H   0  0  0  0  0  0  0  0  0  0  0  0
  144.1674  135.1487  154.1948 H   0  0  0  0  0  0  0  0  0  0  0  0
  142.8484  135.3176  152.1326 H   0  0  0  0  0  0  0  0  0  0  0  0
  143.1685  137.0696  152.0194 H   0  0  0  0  0  0  0  0  0  0  0  0
  145.1747  134.8007  151.7405 H   0  0  0  0  0  0  0  0  0  0  0  0
  144.5335  137.0632  150.1856 H   0  0  0  0  0  0  0  0  0  0  0  0
  146.8262  136.1269  152.6510 H   0  0  0  0  0  0  0  0  0  0  0  0
  145.3166  138.7266  151.9936 H   0  0  0  0  0  0  0  0  0  0  0  0
  146.9550  138.6077  152.6078 H   0  0  0  0  0  0  0  0  0  0  0  0
  145.9056  138.2044  150.0875 H   0  0  0  0  0  0  0  0  0  0  0  0
  1  2  1  0  0  0  0
  1 20  1  0  0  0  0
  1 21  1  0  0  0  0
  2  7  1  0  0  0  0
  2  3  2  0  0  0  0
  3  4  1  0  0  0  0
  4  5  2  0  0  0  0
  4 22  1  0  0  0  0
  5  6  1  0  0  0  0
  6 11  1  0  0  0  0
  6  7  2  0  0  0  0
  7  8  1  0  0  0  0
  8  9  2  0  0  0  0
  9 10  1  0  0  0  0
  9 11  1  0  0  0  0
 11 12  1  0  0  0  0
 12 19  1  0  0  0  0
 12 13  1  0  0  0  0
 12 23  1  0  0  0  0
 13 14  1  0  0  0  0
 13 24  1  0  0  0  0
 13 25  1  0  0  0  0
 14 15  1  0  0  0  0
 14 16  1  0  0  0  0
 14 26  1  0  0  0  0
 15 27  1  0  0  0  0
 16 17  1  0  0  0  0
 16 19  1  0  0  0  0
 16 28  1  0  0  0  0
 17 18  1  0  0  0  0
 17 29  1  0  0  0  0
 17 30  1  0  0  0  0
 18 31  1  0  0  0  0
M  END
> <s_m_source_file>
AV-unprocessed.smi

> <i_m_source_file_index>
285

> <i_lp_mmshare_version>
43012

> <i_f3d_flags>
0

> <s_epik_input>
bjFbY0hdbmMoW05IMl0pYyhjMTIpbmMoQnIpbjJbQ0BASF0zW0NIMl1bQ0BASF0oW09IXSlbQ0BIXShPMylbQ0gyXVtPSF0=

> <s_epik_cmdline>
J2VwaWtfcHl0aG9uJywgJy1waCcsICc3LjAnLCAnLXRuJywgJzgnLCAnLW1hJywgJzIwMCcsICctbWV0YWxfYmluZGluZycsICctaW1hZScsICc8aW5maWxlLm1hZT4nLCAnLW9tYWUnLCAnPG91dGZpbGUubWFlPic=

> <r_lp_tautomer_probability>
1

> <r_epik_Ionization_Penalty>
0.000103242

> <r_epik_Ionization_Penalty_Charging>
0

> <r_epik_Ionization_Penalty_Neutral>
0.000103242

> <r_epik_State_Penalty>
-0

> <r_epik_Charging_Adjusted_Penalty>
0

> <i_epik_Tot_Q>
0

> <i_epik_Tot_abs_Q>
0

> <r_epik_Metal_State_Penalty>
-0

> <b_epik_Metal_Only>
0

> <s_epik_Chemistry_Notes>
This compound contains an acetal/aminal-like group ( X-CH(R)-Y where X, Y are N, S, or O) that may be acid/base labile, releasing an aldehyde.

> <s_lp_Force_Field>
OPLS_2005

> <r_lp_Energy>
35.0354

> <b_lp_Chiralities_Consistent>
1

> <s_lp_Variant>
AV-unprocessed.smi:285-2

> <Gold.Version>
5.8.1

> <Gold.Id.Protein>
6NUR|6NUR_protein|mol2

> <Gold.PLP.Fitness>
32.3974

> <Gold.PLP.PLP>
-21.9050

> <Gold.PLP.part.hbond>
-3.9780

> <Gold.PLP.part.metal>
0.0000

> <Gold.PLP.part.buried>
-4.3805

> <Gold.PLP.part.nonpolar>
-13.8804

> <Gold.PLP.part.repulsive>
0.3087

> <Gold.PLP.ligand.clash>
0.0000

> <Gold.PLP.ligand.torsion>
0.7612

> <Gold.PLP.Chemscore.Hbond>
3.0000

> <Gold.PLP.Chemscore.CHOScore>
1.0000

> <Gold.PLP.Chemscore.Metal>
0.0000

> <Gold.Chemscore.Hbonds>
donor molecule, donor type, donor heavy atom, donor atom, acceptor molecule, acceptor atom, score
      L1  H    15    27       P1 10171  1.00
      L1  H    18    31       P1 10171  0.91
      P1  H  7954  7966       L1    18  1.00
      L1  C     4    22       P1 10187  1.00

> <Gold.PLP.Chemscore.Internal.Correction>
0.0147

> <Gold.Rescore>
     Score         DG    S(hbond)    S(metal)    S(lipo)     H(rot)  DE(clash)    DE(int)     intcor
      7.30     -10.16       2.91        0.00      23.87       3.06       0.04       2.82       ----

> <Gold.Chemscore.Fitness>
7.2980

> <Gold.Chemscore.DG>
-10.1619

> <Gold.Chemscore.ZeroCoef>
-5.4800

> <Gold.Chemscore.Hbond>
2.9115

> <Gold.Chemscore.Metal>
0.0000

> <Gold.Chemscore.Lipo>
23.8717

> <Gold.Chemscore.Internal_Hbond>
0.0000

> <Gold.Chemscore.DEClash>
0.0402

> <Gold.Chemscore.DEInternal>
2.8238

> <Gold.Chemscore.Rot>
3.0607

> <Gold.Chemscore.Internal.Correction>
   9.000000E+99

> <Gold.Chemscore.Hbonds>
donor molecule, donor type, donor heavy atom, donor atom, acceptor molecule, acceptor atom, score
      L1  H    15    27       P1 10171  1.00
      L1  H    18    31       P1 10171  0.85
      P1  H  7954  7966       L1    18  0.89

> <Gold.Chemscore.Hbond.Weighted>
-9.7243

> <Gold.Chemscore.Metal.Weighted>
-0.0000

> <Gold.Chemscore.Lipo.Weighted>
-2.7930

> <Gold.Chemscore.Internal_Hbond.Weighted>
0.0000

> <Gold.Chemscore.DEClash.Weighted>
0.0402

> <Gold.Chemscore.DEInternal.Weighted>
2.8238

> <Gold.Chemscore.Rot.Weighted>
7.8354

> <Gold.Chemscore.Internal.Correction.Weighted>
   9.000000E+99

> <Gold.Protein.RotatedTorsions>
[ 6907 6896 6895 6894 ] final  -34.98 input  -60.11 | X-H torsion
[ 7974 7965 7964 7962 ] final -106.34 input  175.53 | X-H torsion
[ 8008 7997 7996 7995 ] final   11.42 input   59.86 | X-H torsion
[ 10167 10162 10161 10158 ] final  173.72 input  -65.29 | X-H torsion
[ 10718 10713 10712 10709 ] final -105.74 input   66.30 | X-H torsion
[ 10763 10752 10751 10750 ] final   84.82 input  -60.55 | X-H torsion
[ 11005 11000 10999 10996 ] final -168.97 input  -57.11 | X-H torsion

> <Gold.Protein.ActiveResidues>
 VAL166  LYS551  ARG553  GLY616  TRP617  ASP618  TYR619  PRO620  LYS621  CYS622 
 ASP623  PHE694  ASN695  SER759  ASP760  ASP761  ALA762  ILE779  LEU786  VAL792 
 PHE793  MET794  SER795  GLU796  ALA797  LYS798  CYS799  TRP800  GLU811  SER814 

> <Gold.Protein.RotatedAtoms>
  151.0457  134.9638  159.8184 H   0  0  0  0  0  0  0  0  0  0  0  0  # atno 6907 bound_to 6896
  152.5372  134.2601  159.8942 H   0  0  0  0  0  0  0  0  0  0  0  0  # atno 6908 bound_to 6896
  151.2615  133.4257  159.2650 H   0  0  0  0  0  0  0  0  0  0  0  0  # atno 6909 bound_to 6896
  145.2191  140.9127  143.3270 H   0  0  0  0  0  0  0  0  0  0  0  0  # atno 7974 bound_to 7965
  154.8067  140.2861  155.5882 H   0  0  0  0  0  0  0  0  0  0  0  0  # atno 8008 bound_to 7997
  156.2983  140.2576  156.2876 H   0  0  0  0  0  0  0  0  0  0  0  0  # atno 8009 bound_to 7997
  154.9495  140.0379  157.2126 H   0  0  0  0  0  0  0  0  0  0  0  0  # atno 8010 bound_to 7997
  139.5118  144.3228  152.0186 H   0  0  0  0  0  0  0  0  0  0  0  0  # atno 10167 bound_to 10162
  156.0359  130.5578  150.7582 H   0  0  0  0  0  0  0  0  0  0  0  0  # atno 10718 bound_to 10713
  153.1417  135.4640  154.9506 H   0  0  0  0  0  0  0  0  0  0  0  0  # atno 10763 bound_to 10752
  154.7753  135.3171  154.8108 H   0  0  0  0  0  0  0  0  0  0  0  0  # atno 10764 bound_to 10752
  153.8629  135.6911  153.4835 H   0  0  0  0  0  0  0  0  0  0  0  0  # atno 10765 bound_to 10752
  140.5360  134.5569  157.5087 H   0  0  0  0  0  0  0  0  0  0  0  0  # atno 11005 bound_to 11000
  144.9782  139.3810  143.6275 LP  0  0  0  0  0  0  0  0  0  0  0  0  # atno 17320 bound_to 7965
  146.3380  139.8911  142.8809 LP  0  0  0  0  0  0  0  0  0  0  0  0  # atno 17321 bound_to 7965
  140.2670  144.4006  150.6165 LP  0  0  0  0  0  0  0  0  0  0  0  0  # atno 17342 bound_to 10162
  140.6116  143.2170  151.6874 LP  0  0  0  0  0  0  0  0  0  0  0  0  # atno 17343 bound_to 10162
  157.5108  131.0925  151.0200 LP  0  0  0  0  0  0  0  0  0  0  0  0  # atno 17370 bound_to 10713
  157.0556  130.5805  149.5377 LP  0  0  0  0  0  0  0  0  0  0  0  0  # atno 17371 bound_to 10713
  139.9529  134.7585  156.0407 LP  0  0  0  0  0  0  0  0  0  0  0  0  # atno 17394 bound_to 11000
  141.1254  133.6600  156.3324 LP  0  0  0  0  0  0  0  0  0  0  0  0  # atno 17395 bound_to 11000

$$$$
