#       Name:                AV-unprocessed.smi:1338
#       Creating user name   scv26
#       Creation time:       Fri Mar 27 05:08:14 2020


#       File generated by GOLD software.
#

@<TRIPOS>MOLECULE
AV-unprocessed.smi:1338
    45    46     1
SMALL
NO_CHARGES


@<TRIPOS>ATOM
      1 ****        -6.1177  -1.5487   0.9590 C.3            1 S1                 0.0000
      2 ****        -4.6119  -1.4301   1.0643 C.2            1 S1                 0.0000
      3 ****        -3.9944  -0.3361   1.3676 N.2            1 S1                 0.0000
      4 ****        -2.5941  -0.3484   1.4335 C.2            1 S1                 0.0000
      5 ****        -1.9443   0.9774   1.7916 C.3            1 S1                 0.0000
      6 ****        -1.8757  -1.4833   1.1870 C.2            1 S1                 0.0000
      7 ****        -0.3501  -1.5283   1.2471 C.3            1 S1                 0.0000
      8 ****         0.3657  -1.0079  -0.0005 C.2            1 S1                 0.0000
      9 ****         0.1419  -1.5210  -1.0966 O.2            1 S1                 0.0000
     10 ****         1.2148   0.0157   0.1783 N.am           1 S1                 0.0000
     11 ****         1.9753   0.6779  -0.8765 C.3            1 S1                 0.0000
     12 ****         3.2793  -0.0917  -1.1712 C.3            1 S1                 0.0000
     13 ****         4.1354   0.6328  -2.2227 C.3            1 S1                 0.0000
     14 ****         4.4323   2.0802  -1.8002 C.3            1 S1                 0.0000
     15 ****         3.1346   2.8512  -1.5110 C.3            1 S1                 0.0000
     16 ****         2.2788   2.1289  -0.4579 C.3            1 S1                 0.0000
     17 ****        -2.5917  -2.7270   0.8418 C.2            1 S1                 0.0000
     18 ****        -2.0462  -3.8021   0.5973 O.2            1 S1                 0.0000
     19 ****        -3.9387  -2.6218   0.8011 N.am           1 S1                 0.0000
     20 ****        -4.4736  -3.4453   0.5672 H              1 S1                 0.0000
     21 ****        -6.4958  -0.8636   0.1999 H              1 S1                 0.0000
     22 ****        -6.5817  -1.2946   1.9123 H              1 S1                 0.0000
     23 ****        -6.4249  -2.5602   0.6890 H              1 S1                 0.0000
     24 ****        -1.3538   0.8841   2.7030 H              1 S1                 0.0000
     25 ****        -2.6932   1.7526   1.9589 H              1 S1                 0.0000
     26 ****        -1.2923   1.3149   0.9860 H              1 S1                 0.0000
     27 ****        -0.0184  -0.9614   2.1175 H              1 S1                 0.0000
     28 ****        -0.0031  -2.5448   1.4363 H              1 S1                 0.0000
     29 ****         1.3339   0.3719   1.1155 H              1 S1                 0.0000
     30 ****         1.3709   0.7090  -1.7855 H              1 S1                 0.0000
     31 ****         3.8566  -0.2047  -0.2525 H              1 S1                 0.0000
     32 ****         3.0520  -1.1001  -1.5188 H              1 S1                 0.0000
     33 ****         5.0696   0.0924  -2.3778 H              1 S1                 0.0000
     34 ****         3.6147   0.6311  -3.1812 H              1 S1                 0.0000
     35 ****         5.0632   2.0790  -0.9106 H              1 S1                 0.0000
     36 ****         4.9994   2.5869  -2.5817 H              1 S1                 0.0000
     37 ****         3.3699   3.8599  -1.1705 H              1 S1                 0.0000
     38 ****         2.5622   2.9615  -2.4330 H              1 S1                 0.0000
     39 ****         1.3476   2.6760  -0.3050 H              1 S1                 0.0000
     40 ****         2.8022   2.1370   0.4993 H              1 S1                 0.0000
     41 ****        -4.5057   0.5033   1.5518 LP             1 S1                 0.0000
     42 ****        -0.5076  -2.2777  -1.1712 LP             1 S1                 0.0000
     43 ****         0.6096  -1.1812  -1.9126 LP             1 S1                 0.0000
     44 ****        -1.0492  -3.8747   0.6252 LP             1 S1                 0.0000
     45 ****        -2.5997  -4.6035   0.3706 LP             1 S1                 0.0000
@<TRIPOS>BOND
    1    1    2 1     
    2    1   21 1     
    3    1   22 1     
    4    1   23 1     
    5    2   19 1     
    6    2    3 2     
    7    3    4 1     
    8    4    5 1     
    9    4    6 2     
   10    5   24 1     
   11    5   25 1     
   12    5   26 1     
   13    6    7 1     
   14    6   17 1     
   15    7    8 1     
   16    7   27 1     
   17    7   28 1     
   18    8    9 2     
   19    8   10 am    
   20   10   11 1     
   21   10   29 1     
   22   11   16 1     
   23   11   12 1     
   24   11   30 1     
   25   12   13 1     
   26   12   31 1     
   27   12   32 1     
   28   13   14 1     
   29   13   33 1     
   30   13   34 1     
   31   14   15 1     
   32   14   35 1     
   33   14   36 1     
   34   15   16 1     
   35   15   37 1     
   36   15   38 1     
   37   16   39 1     
   38   16   40 1     
   39   17   18 2     
   40   17   19 am    
   41   19   20 1     
   42    3   41 1     
   43    9   42 1     
   44    9   43 1     
   45   18   44 1     
   46   18   45 1     
@<TRIPOS>SUBSTRUCTURE
      1 S1             1
@<TRIPOS>SET
LONE_PAIRS      STATIC     ATOMS    <user>   **** ""
5 41 42 43 44 45
DONOR_HYDROGENS      STATIC     ATOMS    <user>   **** ""
2 29 20
ATOM$BLUE        STATIC     ATOMS    COLORGROUP SYSTEM
5 41 42 43 44 45
ATOM$RED        STATIC     ATOMS    COLORGROUP SYSTEM
2 29 20
