AV-unprocessed.smi:2328|AV-procd|sdf|9301|dock3
  -GOLD-   2272012523D 1   1.00000     0.00000
 Structure written by MMmdl.
 40 40  0  0  0  0  0  0  0  0  1 V2000
  150.3955  137.4365  158.9107 C   0  0  0  0  0  0  0  0  0  0  0  0
  150.6256  138.1618  157.5679 C   0  0  0  0  0  0  0  0  0  0  0  0
  150.3503  139.7066  157.4972 C   0  0  2  0  0  0  0  0  0  0  0  0
  151.1401  140.3911  158.5462 N   0  0  0  0  0  0  0  0  0  0  0  0
  152.4501  140.3912  158.8717 C   0  0  0  0  0  0  0  0  0  0  0  0
  153.2385  139.7168  158.2110 O   0  0  0  0  0  0  0  0  0  0  0  0
  152.9799  141.2301  160.0485 C   0  0  0  0  0  0  0  0  0  0  0  0
  152.5147  142.6743  159.9604 C   0  0  0  0  0  0  0  0  0  0  0  0
  152.4092  143.3300  158.7161 C   0  0  0  0  0  0  0  0  0  0  0  0
  151.9729  144.6687  158.6900 C   0  0  0  0  0  0  0  0  0  0  0  0
  151.6597  145.2959  159.9124 C   0  0  0  0  0  0  0  0  0  0  0  0
  151.7574  144.6786  161.1097 N   0  0  0  0  0  0  0  0  0  0  0  0
  152.1768  143.3953  161.1259 C   0  0  0  0  0  0  0  0  0  0  0  0
  148.8247  140.0002  157.6436 C   0  0  0  0  0  0  0  0  0  0  0  0
  147.9757  138.9747  157.7818 N   0  0  0  0  0  0  0  0  0  0  0  0
  148.4058  141.1550  157.6594 O   0  0  0  0  0  0  0  0  0  0  0  0
  150.8456  140.2975  156.1254 C   0  0  0  0  0  0  0  0  0  0  0  0
  149.8318  140.1176  154.9721 C   0  0  0  0  0  0  0  0  0  0  0  0
  152.2142  139.7498  155.6533 C   0  0  0  0  0  0  0  0  0  0  0  0
  150.6152  136.3745  158.8011 H   0  0  0  0  0  0  0  0  0  0  0  0
  149.3638  137.5089  159.2516 H   0  0  0  0  0  0  0  0  0  0  0  0
  151.0390  137.8078  159.7059 H   0  0  0  0  0  0  0  0  0  0  0  0
  151.6589  137.9558  157.2971 H   0  0  0  0  0  0  0  0  0  0  0  0
  150.0310  137.6534  156.8078 H   0  0  0  0  0  0  0  0  0  0  0  0
  150.5835  141.0188  159.1081 H   0  0  0  0  0  0  0  0  0  0  0  0
  152.6463  140.8386  161.0071 H   0  0  0  0  0  0  0  0  0  0  0  0
  154.0698  141.1962  160.0477 H   0  0  0  0  0  0  0  0  0  0  0  0
  152.6556  142.8177  157.7976 H   0  0  0  0  0  0  0  0  0  0  0  0
  151.8796  145.2019  157.7556 H   0  0  0  0  0  0  0  0  0  0  0  0
  151.3222  146.3217  159.9287 H   0  0  0  0  0  0  0  0  0  0  0  0
  152.2437  142.9289  162.0980 H   0  0  0  0  0  0  0  0  0  0  0  0
  146.9853  139.1504  157.8718 H   0  0  0  0  0  0  0  0  0  0  0  0
  148.3287  138.0287  157.7898 H   0  0  0  0  0  0  0  0  0  0  0  0
  150.9894  141.3710  156.2522 H   0  0  0  0  0  0  0  0  0  0  0  0
  149.6534  139.0654  154.7488 H   0  0  0  0  0  0  0  0  0  0  0  0
  150.1996  140.5830  154.0574 H   0  0  0  0  0  0  0  0  0  0  0  0
  148.8683  140.5770  155.1873 H   0  0  0  0  0  0  0  0  0  0  0  0
  152.1913  138.6695  155.5080 H   0  0  0  0  0  0  0  0  0  0  0  0
  153.0174  139.9750  156.3547 H   0  0  0  0  0  0  0  0  0  0  0  0
  152.5033  140.1968  154.7018 H   0  0  0  0  0  0  0  0  0  0  0  0
  1  2  1  0  0  0  0
  1 20  1  0  0  0  0
  1 21  1  0  0  0  0
  1 22  1  0  0  0  0
  2  3  1  0  0  0  0
  2 23  1  0  0  0  0
  2 24  1  0  0  0  0
  3  4  1  0  0  0  0
  3 14  1  0  0  0  0
  3 17  1  0  0  0  0
  4  5  1  0  0  0  0
  4 25  1  0  0  0  0
  5  6  2  0  0  0  0
  5  7  1  0  0  0  0
  7  8  1  0  0  0  0
  7 26  1  0  0  0  0
  7 27  1  0  0  0  0
  8 13  1  0  0  0  0
  8  9  2  0  0  0  0
  9 10  1  0  0  0  0
  9 28  1  0  0  0  0
 10 11  2  0  0  0  0
 10 29  1  0  0  0  0
 11 12  1  0  0  0  0
 11 30  1  0  0  0  0
 12 13  2  0  0  0  0
 13 31  1  0  0  0  0
 14 15  1  0  0  0  0
 14 16  2  0  0  0  0
 15 32  1  0  0  0  0
 15 33  1  0  0  0  0
 17 18  1  0  0  0  0
 17 19  1  0  0  0  0
 17 34  1  0  0  0  0
 18 35  1  0  0  0  0
 18 36  1  0  0  0  0
 18 37  1  0  0  0  0
 19 38  1  0  0  0  0
 19 39  1  0  0  0  0
 19 40  1  0  0  0  0
M  END
> <s_m_source_file>
AV-unprocessed.smi

> <i_m_source_file_index>
2328

> <i_lp_mmshare_version>
43012

> <i_f3d_flags>
0

> <s_epik_input>
W0NIM11bQ0gyXVtDQEBdKEMoPU8pW05IMl0pKFtDSF0oW0NIM10pW0NIM10pW05IXUMoPU8pW0NIMl1jMVtjSF1bY0hdW2NIXW5bY0hdMQ==

> <s_epik_cmdline>
J2VwaWtfcHl0aG9uJywgJy1waCcsICc3LjAnLCAnLXRuJywgJzgnLCAnLW1hJywgJzIwMCcsICctbWV0YWxfYmluZGluZycsICctaW1hZScsICc8aW5maWxlLm1hZT4nLCAnLW9tYWUnLCAnPG91dGZpbGUubWFlPic=

> <r_epik_Ionization_Penalty>
0.00378489

> <r_epik_Ionization_Penalty_Charging>
0

> <r_epik_Ionization_Penalty_Neutral>
0.00378489

> <r_epik_State_Penalty>
0.00269972

> <r_epik_Charging_Adjusted_Penalty>
0.00269972

> <i_epik_Tot_Q>
0

> <i_epik_Tot_abs_Q>
0

> <r_epik_Metal_State_Penalty>
-0

> <b_epik_Metal_Only>
0

> <s_lp_Force_Field>
OPLS_2005

> <r_lp_Energy>
16.0565

> <b_lp_Chiralities_Consistent>
1

> <s_lp_Variant>
AV-unprocessed.smi:2328-2

> <Gold.Version>
5.8.1

> <Gold.Id.Protein>
6NUR|6NUR_protein|mol2

> <Gold.PLP.Fitness>
41.2242

> <Gold.PLP.PLP>
-40.1576

> <Gold.PLP.part.hbond>
-1.0000

> <Gold.PLP.part.metal>
0.0000

> <Gold.PLP.part.buried>
-5.0906

> <Gold.PLP.part.nonpolar>
-35.0998

> <Gold.PLP.part.repulsive>
0.5254

> <Gold.PLP.ligand.clash>
0.0000

> <Gold.PLP.ligand.torsion>
1.0400

> <Gold.PLP.Chemscore.Hbond>
1.0000

> <Gold.PLP.Chemscore.CHOScore>
0.0000

> <Gold.PLP.Chemscore.Metal>
0.0000

> <Gold.Chemscore.Hbonds>
donor molecule, donor type, donor heavy atom, donor atom, acceptor molecule, acceptor atom, score
      P1  H  7997  8008       L1     6  1.00

> <Gold.PLP.Chemscore.Internal.Correction>
0.1466

> <Gold.Rescore>
     Score         DG    S(hbond)    S(metal)    S(lipo)     H(rot)  DE(clash)    DE(int)     intcor
     12.68     -15.35       1.00        0.00     105.97       2.29       0.13       2.54       ----

> <Gold.Chemscore.Fitness>
12.6763

> <Gold.Chemscore.DG>
-15.3452

> <Gold.Chemscore.ZeroCoef>
-5.4800

> <Gold.Chemscore.Hbond>
0.9984

> <Gold.Chemscore.Metal>
0.0000

> <Gold.Chemscore.Lipo>
105.9678

> <Gold.Chemscore.Internal_Hbond>
0.0000

> <Gold.Chemscore.DEClash>
0.1326

> <Gold.Chemscore.DEInternal>
2.5363

> <Gold.Chemscore.Rot>
2.2921

> <Gold.Chemscore.Internal.Correction>
   9.000000E+99

> <Gold.Chemscore.Hbonds>
donor molecule, donor type, donor heavy atom, donor atom, acceptor molecule, acceptor atom, score
      P1  H  7997  8008       L1     6  1.00

> <Gold.Chemscore.Hbond.Weighted>
-3.3347

> <Gold.Chemscore.Metal.Weighted>
-0.0000

> <Gold.Chemscore.Lipo.Weighted>
-12.3982

> <Gold.Chemscore.Internal_Hbond.Weighted>
0.0000

> <Gold.Chemscore.DEClash.Weighted>
0.1326

> <Gold.Chemscore.DEInternal.Weighted>
2.5363

> <Gold.Chemscore.Rot.Weighted>
5.8677

> <Gold.Chemscore.Internal.Correction.Weighted>
   9.000000E+99

> <Gold.Protein.RotatedTorsions>
[ 6907 6896 6895 6894 ] final  145.98 input  -60.11 | X-H torsion
[ 7974 7965 7964 7962 ] final   67.70 input  175.53 | X-H torsion
[ 8008 7997 7996 7995 ] final  -81.74 input   59.86 | X-H torsion
[ 10167 10162 10161 10158 ] final  108.22 input  -65.29 | X-H torsion
[ 10718 10713 10712 10709 ] final   22.05 input   66.30 | X-H torsion
[ 10763 10752 10751 10750 ] final  135.06 input  -60.55 | X-H torsion
[ 11005 11000 10999 10996 ] final  147.74 input  -57.11 | X-H torsion

> <Gold.Protein.ActiveResidues>
 VAL166  LYS551  ARG553  GLY616  TRP617  ASP618  TYR619  PRO620  LYS621  CYS622 
 ASP623  PHE694  ASN695  SER759  ASP760  ASP761  ALA762  ILE779  LEU786  VAL792 
 PHE793  MET794  SER795  GLU796  ALA797  LYS798  CYS799  TRP800  GLU811  SER814 

> <Gold.Protein.RotatedAtoms>
  152.1739  133.4662  159.4922 H   0  0  0  0  0  0  0  0  0  0  0  0  # atno 6907 bound_to 6896
  150.6924  134.1918  159.4297 H   0  0  0  0  0  0  0  0  0  0  0  0  # atno 6908 bound_to 6896
  151.9827  135.0020  160.0609 H   0  0  0  0  0  0  0  0  0  0  0  0  # atno 6909 bound_to 6896
  145.8115  139.3035  143.1096 H   0  0  0  0  0  0  0  0  0  0  0  0  # atno 7974 bound_to 7965
  154.6015  140.0643  156.9374 H   0  0  0  0  0  0  0  0  0  0  0  0  # atno 8008 bound_to 7997
  155.2125  140.3324  155.4308 H   0  0  0  0  0  0  0  0  0  0  0  0  # atno 8009 bound_to 7997
  156.2321  140.1845  156.7200 H   0  0  0  0  0  0  0  0  0  0  0  0  # atno 8010 bound_to 7997
  139.6864  144.7113  151.1425 H   0  0  0  0  0  0  0  0  0  0  0  0  # atno 10167 bound_to 10162
  157.1469  130.6657  149.5999 H   0  0  0  0  0  0  0  0  0  0  0  0  # atno 10718 bound_to 10713
  153.8339  135.3100  155.3421 H   0  0  0  0  0  0  0  0  0  0  0  0  # atno 10763 bound_to 10752
  154.7961  135.4754  154.0169 H   0  0  0  0  0  0  0  0  0  0  0  0  # atno 10764 bound_to 10752
  153.1617  135.6862  153.8824 H   0  0  0  0  0  0  0  0  0  0  0  0  # atno 10765 bound_to 10752
  140.0901  134.9046  157.1637 H   0  0  0  0  0  0  0  0  0  0  0  0  # atno 11005 bound_to 11000
  145.9772  140.8712  143.0133 LP  0  0  0  0  0  0  0  0  0  0  0  0  # atno 17320 bound_to 7965
  144.6757  140.2029  143.7385 LP  0  0  0  0  0  0  0  0  0  0  0  0  # atno 17321 bound_to 7965
  140.7669  143.5624  150.9085 LP  0  0  0  0  0  0  0  0  0  0  0  0  # atno 17342 bound_to 10162
  139.9299  143.6506  152.3078 LP  0  0  0  0  0  0  0  0  0  0  0  0  # atno 17343 bound_to 10162
  155.9778  130.4758  150.6614 LP  0  0  0  0  0  0  0  0  0  0  0  0  # atno 17370 bound_to 10713
  157.4256  131.0842  151.1089 LP  0  0  0  0  0  0  0  0  0  0  0  0  # atno 17371 bound_to 10713
  140.3364  134.2752  155.7219 LP  0  0  0  0  0  0  0  0  0  0  0  0  # atno 17394 bound_to 11000
  141.2075  133.7804  157.0115 LP  0  0  0  0  0  0  0  0  0  0  0  0  # atno 17395 bound_to 11000

$$$$
