#       Name:                AV-unprocessed.smi:414
#       Creating user name   scv26
#       Creation time:       Thu Mar 26 22:46:41 2020


#       File generated by GOLD software.
#

@<TRIPOS>MOLECULE
AV-unprocessed.smi:414
    44    45     1
SMALL
NO_CHARGES


@<TRIPOS>ATOM
      1 ****        -2.2969  -4.2220   0.4689 C.3            1 S1                 0.0000
      2 ****        -2.5901  -2.7222   0.6157 C.3            1 S1                 0.0000
      3 ****        -2.1064  -1.9317  -0.6149 C.3            1 S1                 0.0000
      4 ****        -2.3919  -0.4267  -0.4698 C.3            1 S1                 0.0000
      5 ****        -1.7828   0.1604   0.8219 C.3            1 S1                 0.0000
      6 ****        -0.3223   0.1930   0.7631 N.am           1 S1                 0.0000
      7 ****         0.4132   1.0802   0.0763 C.2            1 S1                 0.0000
      8 ****        -0.0800   1.9876  -0.5953 O.2            1 S1                 0.0000
      9 ****         1.9350   0.8920   0.1630 C.3            1 S1                 0.0000
     10 ****         2.6943   1.8973  -0.5954 N.am           1 S1                 0.0000
     11 ****         3.1121   1.6243  -1.8902 C.2            1 S1                 0.0000
     12 ****         3.8045   2.5041  -2.6518 C.2            1 S1                 0.0000
     13 ****         4.1519   3.8206  -2.1279 C.2            1 S1                 0.0000
     14 ****         4.7770   4.6846  -2.7388 O.2            1 S1                 0.0000
     15 ****         3.7115   4.0588  -0.8231 N.am           1 S1                 0.0000
     16 ****         2.9961   3.1571  -0.0335 C.2            1 S1                 0.0000
     17 ****         2.6503   3.4712   1.1048 O.2            1 S1                 0.0000
     18 ****        -2.2458  -0.6431   2.0524 C.3            1 S1                 0.0000
     19 ****        -1.9675  -2.1502   1.9038 C.3            1 S1                 0.0000
     20 ****         3.9258   4.9590  -0.4191 H              1 S1                 0.0000
     21 ****        -1.2255  -4.4114   0.3953 H              1 S1                 0.0000
     22 ****        -2.7691  -4.6287  -0.4259 H              1 S1                 0.0000
     23 ****        -2.6758  -4.7817   1.3244 H              1 S1                 0.0000
     24 ****        -3.6725  -2.6049   0.6853 H              1 S1                 0.0000
     25 ****        -1.0369  -2.0894  -0.7601 H              1 S1                 0.0000
     26 ****        -2.5955  -2.3077  -1.5141 H              1 S1                 0.0000
     27 ****        -2.0259   0.1083  -1.3466 H              1 S1                 0.0000
     28 ****        -3.4713  -0.2714  -0.4549 H              1 S1                 0.0000
     29 ****        -2.1356   1.1866   0.9398 H              1 S1                 0.0000
     30 ****         0.1662  -0.5198   1.2851 H              1 S1                 0.0000
     31 ****         2.2354   0.8967   1.2126 H              1 S1                 0.0000
     32 ****         2.1786  -0.1079  -0.1999 H              1 S1                 0.0000
     33 ****         2.8730   0.6622  -2.3209 H              1 S1                 0.0000
     34 ****         4.1017   2.2327  -3.6545 H              1 S1                 0.0000
     35 ****        -1.7666  -0.2618   2.9549 H              1 S1                 0.0000
     36 ****        -3.3169  -0.4929   2.1936 H              1 S1                 0.0000
     37 ****        -2.3612  -2.6788   2.7726 H              1 S1                 0.0000
     38 ****        -0.8909  -2.3259   1.9025 H              1 S1                 0.0000
     39 ****        -1.0736   2.0884  -0.6466 LP             1 S1                 0.0000
     40 ****         0.5133   2.6234  -1.0891 LP             1 S1                 0.0000
     41 ****         5.0900   4.5094  -3.6722 LP             1 S1                 0.0000
     42 ****         4.9726   5.5629  -2.3024 LP             1 S1                 0.0000
     43 ****         2.1361   2.8241   1.6677 LP             1 S1                 0.0000
     44 ****         2.8835   4.3737   1.4671 LP             1 S1                 0.0000
@<TRIPOS>BOND
    1    1    2 1     
    2    1   21 1     
    3    1   22 1     
    4    1   23 1     
    5    2   19 1     
    6    2    3 1     
    7    2   24 1     
    8    3    4 1     
    9    3   25 1     
   10    3   26 1     
   11    4    5 1     
   12    4   27 1     
   13    4   28 1     
   14    5    6 1     
   15    5   18 1     
   16    5   29 1     
   17    6    7 am    
   18    6   30 1     
   19    7    8 2     
   20    7    9 1     
   21    9   10 1     
   22    9   31 1     
   23    9   32 1     
   24   10   16 1     
   25   10   11 1     
   26   11   12 2     
   27   11   33 1     
   28   12   13 1     
   29   12   34 1     
   30   13   14 2     
   31   13   15 1     
   32   15   20 1     
   33   15   16 1     
   34   16   17 2     
   35   18   19 1     
   36   18   35 1     
   37   18   36 1     
   38   19   37 1     
   39   19   38 1     
   40    8   39 1     
   41    8   40 1     
   42   14   41 1     
   43   14   42 1     
   44   17   43 1     
   45   17   44 1     
@<TRIPOS>SUBSTRUCTURE
      1 S1             1
@<TRIPOS>SET
LONE_PAIRS      STATIC     ATOMS    <user>   **** ""
6 39 40 41 42 43 44
DONOR_HYDROGENS      STATIC     ATOMS    <user>   **** ""
2 30 20
ATOM$BLUE        STATIC     ATOMS    COLORGROUP SYSTEM
6 39 40 41 42 43 44
ATOM$RED        STATIC     ATOMS    COLORGROUP SYSTEM
2 30 20
