AV-unprocessed.smi:2124|AV-procd|sdf|8669|dock5
  -GOLD-   2272011423D 1   1.00000     0.00000
 Structure written by MMmdl.
 46 48  0  0  0  0  0  0  0  0  2 V2000
  152.1904  130.9606  158.1884 C   0  0  0  0  0  0  0  0  0  0  0  0
  151.5117  131.6976  157.0539 C   0  0  0  0  0  0  0  0  0  0  0  0
  150.9887  131.0276  156.0990 N   0  0  0  0  0  0  0  0  0  0  0  0
  150.3550  131.7063  155.0443 C   0  0  0  0  0  0  0  0  0  0  0  0
  149.7597  130.8311  153.9551 C   0  0  0  0  0  0  0  0  0  0  0  0
  150.2881  133.0683  155.0206 C   0  0  0  0  0  0  0  0  0  0  0  0
  149.6073  133.8540  153.8998 C   0  0  0  0  0  0  0  0  0  0  0  0
  148.0905  133.6883  153.7748 C   0  0  0  0  0  0  0  0  0  0  0  0
  147.4816  132.9028  154.5015 O   0  0  0  0  0  0  0  0  0  0  0  0
  147.4978  134.4537  152.8428 N   0  0  0  0  0  0  0  0  0  0  0  0
  146.0690  134.5266  152.5224 C   0  0  1  0  0  0  0  0  0  0  0  0
  145.5459  135.9654  152.7039 C   0  0  0  0  0  0  0  0  0  0  0  0
  145.7484  133.9269  151.1254 C   0  0  1  0  0  0  0  0  0  0  0  0
  146.2527  132.4743  150.9302 C   0  0  0  0  0  0  0  0  0  0  0  0
  144.9942  131.7200  150.4673 C   0  0  2  0  0  0  0  0  0  0  0  0
  144.6041  132.1826  149.0517 C   0  0  0  0  0  0  0  0  0  0  0  0
  144.0490  133.5974  149.2996 C   0  0  0  0  0  0  0  0  0  0  0  0
  144.2366  133.7750  150.8187 C   0  0  1  0  0  0  0  0  0  0  0  0
  143.9190  132.3716  151.3256 C   0  0  0  0  0  0  0  0  0  0  0  0
  150.9087  133.8033  156.1369 C   0  0  0  0  0  0  0  0  0  0  0  0
  150.8900  135.0335  156.1568 O   0  0  0  0  0  0  0  0  0  0  0  0
  151.4969  133.0724  157.1267 N   0  5  0  0  0  0  0  0  0  0  0  0
  152.3667  129.9161  157.9271 H   0  0  0  0  0  0  0  0  0  0  0  0
  151.5666  130.9912  159.0819 H   0  0  0  0  0  0  0  0  0  0  0  0
  153.1523  131.4187  158.4213 H   0  0  0  0  0  0  0  0  0  0  0  0
  148.6746  130.9319  153.9362 H   0  0  0  0  0  0  0  0  0  0  0  0
  149.9957  129.7795  154.1213 H   0  0  0  0  0  0  0  0  0  0  0  0
  150.1525  131.1101  152.9774 H   0  0  0  0  0  0  0  0  0  0  0  0
  149.8135  134.9138  154.0497 H   0  0  0  0  0  0  0  0  0  0  0  0
  150.0628  133.6180  152.9374 H   0  0  0  0  0  0  0  0  0  0  0  0
  148.0997  135.0584  152.3031 H   0  0  0  0  0  0  0  0  0  0  0  0
  145.5804  133.9090  153.2763 H   0  0  0  0  0  0  0  0  0  0  0  0
  144.4579  136.0046  152.6725 H   0  0  0  0  0  0  0  0  0  0  0  0
  145.9203  136.6328  151.9274 H   0  0  0  0  0  0  0  0  0  0  0  0
  145.8514  136.3740  153.6676 H   0  0  0  0  0  0  0  0  0  0  0  0
  146.1995  134.5689  150.3676 H   0  0  0  0  0  0  0  0  0  0  0  0
  147.0664  132.4130  150.2066 H   0  0  0  0  0  0  0  0  0  0  0  0
  146.6126  132.0445  151.8655 H   0  0  0  0  0  0  0  0  0  0  0  0
  145.0720  130.6371  150.5686 H   0  0  0  0  0  0  0  0  0  0  0  0
  145.4549  132.1827  148.3694 H   0  0  0  0  0  0  0  0  0  0  0  0
  143.8339  131.5371  148.6281 H   0  0  0  0  0  0  0  0  0  0  0  0
  144.5709  134.3593  148.7195 H   0  0  0  0  0  0  0  0  0  0  0  0
  142.9922  133.6446  149.0335 H   0  0  0  0  0  0  0  0  0  0  0  0
  143.6048  134.5606  151.2310 H   0  0  0  0  0  0  0  0  0  0  0  0
  142.9088  132.0401  151.0786 H   0  0  0  0  0  0  0  0  0  0  0  0
  144.0832  132.2451  152.3968 H   0  0  0  0  0  0  0  0  0  0  0  0
  1  2  1  0  0  0  0
  1 23  1  0  0  0  0
  1 24  1  0  0  0  0
  1 25  1  0  0  0  0
  2 22  1  0  0  0  0
  2  3  2  0  0  0  0
  3  4  1  0  0  0  0
  4  5  1  0  0  0  0
  4  6  2  0  0  0  0
  5 26  1  0  0  0  0
  5 27  1  0  0  0  0
  5 28  1  0  0  0  0
  6  7  1  0  0  0  0
  6 20  1  0  0  0  0
  7  8  1  0  0  0  0
  7 29  1  0  0  0  0
  7 30  1  0  0  0  0
  8  9  2  0  0  0  0
  8 10  1  0  0  0  0
 10 11  1  0  0  0  0
 10 31  1  0  0  0  0
 11 12  1  0  0  0  0
 11 13  1  0  0  0  0
 11 32  1  0  0  0  0
 12 33  1  0  0  0  0
 12 34  1  0  0  0  0
 12 35  1  0  0  0  0
 13 18  1  0  0  0  0
 13 14  1  0  0  0  0
 13 36  1  0  0  0  0
 14 15  1  0  0  0  0
 14 37  1  0  0  0  0
 14 38  1  0  0  0  0
 15 19  1  0  0  0  0
 15 16  1  0  0  0  0
 15 39  1  0  0  0  0
 16 17  1  0  0  0  0
 16 40  1  0  0  0  0
 16 41  1  0  0  0  0
 17 18  1  0  0  0  0
 17 42  1  0  0  0  0
 17 43  1  0  0  0  0
 18 19  1  0  0  0  0
 18 44  1  0  0  0  0
 19 45  1  0  0  0  0
 19 46  1  0  0  0  0
 20 21  2  0  0  0  0
 20 22  1  0  0  0  0
M  CHG  1  22  -1
M  END
> <s_m_source_file>
AV-unprocessed.smi

> <i_m_source_file_index>
2124

> <i_lp_mmshare_version>
43012

> <i_f3d_flags>
0

> <s_epik_input>
W0NIM11jMW5jKFtDSDNdKWMoYyg9TylbbkhdMSlbQ0gyXUMoPU8pW05IXVtDQEhdKFtDSDNdKVtDQEhdKFtDSDJdW0NASF0yMylbQ0BIXShbQ0gyXTMpW0NIMl1bQ0gyXTI=

> <s_epik_cmdline>
J2VwaWtfcHl0aG9uJywgJy1waCcsICc3LjAnLCAnLXRuJywgJzgnLCAnLW1hJywgJzIwMCcsICctbWV0YWxfYmluZGluZycsICctaW1hZScsICc8aW5maWxlLm1hZT4nLCAnLW9tYWUnLCAnPG91dGZpbGUubWFlPic=

> <r_lp_tautomer_probability>
0.839158

> <r_epik_Ionization_Penalty>
6.63797

> <r_epik_Ionization_Penalty_Charging>
7.48558e-08

> <r_epik_Ionization_Penalty_Neutral>
6.63797

> <r_epik_State_Penalty>
4.49496

> <r_epik_Charging_Adjusted_Penalty>
4.49496

> <i_epik_Tot_Q>
-1

> <i_epik_Tot_abs_Q>
1

> <r_epik_Metal_State_Penalty>
0.841241

> <b_epik_Metal_Only>
1

> <s_lp_Force_Field>
OPLS_2005

> <r_lp_Energy>
56.2785

> <b_lp_Chiralities_Consistent>
1

> <s_lp_Variant>
AV-unprocessed.smi:2124-20

> <Gold.Version>
5.8.1

> <Gold.Id.Protein>
6NUR|6NUR_protein|mol2

> <Gold.PLP.Fitness>
44.4747

> <Gold.PLP.PLP>
-35.6651

> <Gold.PLP.part.hbond>
-2.0000

> <Gold.PLP.part.metal>
0.0000

> <Gold.PLP.part.buried>
-1.4614

> <Gold.PLP.part.nonpolar>
-33.0714

> <Gold.PLP.part.repulsive>
0.0287

> <Gold.PLP.ligand.clash>
0.0000

> <Gold.PLP.ligand.torsion>
0.1237

> <Gold.PLP.Chemscore.Hbond>
3.0000

> <Gold.PLP.Chemscore.CHOScore>
0.0000

> <Gold.PLP.Chemscore.Metal>
0.0000

> <Gold.Chemscore.Hbonds>
donor molecule, donor type, donor heavy atom, donor atom, acceptor molecule, acceptor atom, score
      L1  H    10    31       P1  7948  0.86
      P1  H  6896  6908       L1    22  1.30

> <Gold.PLP.Chemscore.Internal.Correction>
0.0570

> <Gold.Rescore>
     Score         DG    S(hbond)    S(metal)    S(lipo)     H(rot)  DE(clash)    DE(int)     intcor
     18.03     -18.61       1.90        0.00      92.97       1.61       0.21       0.36       ----

> <Gold.Chemscore.Fitness>
18.0325

> <Gold.Chemscore.DG>
-18.6097

> <Gold.Chemscore.ZeroCoef>
-5.4800

> <Gold.Chemscore.Hbond>
1.9046

> <Gold.Chemscore.Metal>
0.0000

> <Gold.Chemscore.Lipo>
92.9675

> <Gold.Chemscore.Internal_Hbond>
0.0000

> <Gold.Chemscore.DEClash>
0.2134

> <Gold.Chemscore.DEInternal>
0.3638

> <Gold.Chemscore.Rot>
1.6051

> <Gold.Chemscore.Internal.Correction>
   9.000000E+99

> <Gold.Chemscore.Hbonds>
donor molecule, donor type, donor heavy atom, donor atom, acceptor molecule, acceptor atom, score
      L1  H    10    31       P1  7948  0.62
      P1  H  6896  6908       L1    22  0.22

> <Gold.Chemscore.Hbond.Weighted>
-6.3615

> <Gold.Chemscore.Metal.Weighted>
-0.0000

> <Gold.Chemscore.Lipo.Weighted>
-10.8772

> <Gold.Chemscore.Internal_Hbond.Weighted>
0.0000

> <Gold.Chemscore.DEClash.Weighted>
0.2134

> <Gold.Chemscore.DEInternal.Weighted>
0.3638

> <Gold.Chemscore.Rot.Weighted>
4.1090

> <Gold.Chemscore.Internal.Correction.Weighted>
   9.000000E+99

> <Gold.Protein.RotatedTorsions>
[ 6907 6896 6895 6894 ] final   81.47 input  -60.11 | X-H torsion
[ 7974 7965 7964 7962 ] final -140.47 input  175.53 | X-H torsion
[ 8008 7997 7996 7995 ] final  167.33 input   59.86 | X-H torsion
[ 10167 10162 10161 10158 ] final   30.82 input  -65.29 | X-H torsion
[ 10718 10713 10712 10709 ] final -166.58 input   66.30 | X-H torsion
[ 10763 10752 10751 10750 ] final -161.14 input  -60.55 | X-H torsion
[ 11005 11000 10999 10996 ] final -156.20 input  -57.11 | X-H torsion

> <Gold.Protein.ActiveResidues>
 VAL166  LYS551  ARG553  GLY616  TRP617  ASP618  TYR619  PRO620  LYS621  CYS622 
 ASP623  PHE694  ASN695  SER759  ASP760  ASP761  ALA762  ILE779  LEU786  VAL792 
 PHE793  MET794  SER795  GLU796  ALA797  LYS798  CYS799  TRP800  GLU811  SER814 

> <Gold.Protein.RotatedAtoms>
  152.5269  134.3199  159.9144 H   0  0  0  0  0  0  0  0  0  0  0  0  # atno 6907 bound_to 6896
  151.3148  133.4059  159.2657 H   0  0  0  0  0  0  0  0  0  0  0  0  # atno 6908 bound_to 6896
  151.0008  134.9337  159.8010 H   0  0  0  0  0  0  0  0  0  0  0  0  # atno 6909 bound_to 6896
  144.8594  140.6195  143.5338 H   0  0  0  0  0  0  0  0  0  0  0  0  # atno 7974 bound_to 7965
  156.1643  140.1619  156.8559 H   0  0  0  0  0  0  0  0  0  0  0  0  # atno 8008 bound_to 7997
  154.5191  140.0782  156.8173 H   0  0  0  0  0  0  0  0  0  0  0  0  # atno 8009 bound_to 7997
  155.3644  140.3397  155.4244 H   0  0  0  0  0  0  0  0  0  0  0  0  # atno 8010 bound_to 7997
  140.4644  144.0858  150.6221 H   0  0  0  0  0  0  0  0  0  0  0  0  # atno 10167 bound_to 10162
  156.6700  130.9080  151.3042 H   0  0  0  0  0  0  0  0  0  0  0  0  # atno 10718 bound_to 10713
  154.7330  135.3051  154.8860 H   0  0  0  0  0  0  0  0  0  0  0  0  # atno 10763 bound_to 10752
  153.9697  135.6743  153.4751 H   0  0  0  0  0  0  0  0  0  0  0  0  # atno 10764 bound_to 10752
  153.0936  135.4947  154.8658 H   0  0  0  0  0  0  0  0  0  0  0  0  # atno 10765 bound_to 10752
  140.6781  134.4174  157.5228 H   0  0  0  0  0  0  0  0  0  0  0  0  # atno 11005 bound_to 11000
  145.4342  139.1545  143.4006 LP  0  0  0  0  0  0  0  0  0  0  0  0  # atno 17320 bound_to 7965
  146.2849  140.4459  142.8762 LP  0  0  0  0  0  0  0  0  0  0  0  0  # atno 17321 bound_to 7965
  140.4054  143.2683  151.9897 LP  0  0  0  0  0  0  0  0  0  0  0  0  # atno 17342 bound_to 10162
  139.4810  144.5961  151.7687 LP  0  0  0  0  0  0  0  0  0  0  0  0  # atno 17343 bound_to 10162
  157.7080  130.9407  150.0995 LP  0  0  0  0  0  0  0  0  0  0  0  0  # atno 17370 bound_to 10713
  156.1946  130.3656  149.8866 LP  0  0  0  0  0  0  0  0  0  0  0  0  # atno 17371 bound_to 10713
  139.8960  134.8669  156.2106 LP  0  0  0  0  0  0  0  0  0  0  0  0  # atno 17394 bound_to 11000
  141.0339  133.6974  156.1478 LP  0  0  0  0  0  0  0  0  0  0  0  0  # atno 17395 bound_to 11000

$$$$
