AV-unprocessed.smi:3234|AV-procd|sdf|12352|dock10
  -GOLD-   2272018213D 1   1.00000     0.00000
 Structure written by MMmdl.
 38 40  0  0  0  0  0  0  0  0  3 V2000
  145.3956  138.6246  152.9399 O   0  0  0  0  0  0  0  0  0  0  0  0
  146.4768  138.0994  152.6788 C   0  0  0  0  0  0  0  0  0  0  0  0
  147.6881  138.6075  152.9683 N   0  0  0  0  0  0  0  0  0  0  0  0
  148.0324  139.8235  153.6245 C   0  0  0  0  0  0  0  0  0  0  0  0
  147.1084  140.8879  153.5239 C   0  0  0  0  0  0  0  0  0  0  0  0
  147.3892  142.1200  154.1489 C   0  0  0  0  0  0  0  0  0  0  0  0
  148.5391  142.2767  154.8380 N   0  3  0  0  0  0  0  0  0  0  0  0
  149.4547  141.2924  154.9614 C   0  0  0  0  0  0  0  0  0  0  0  0
  149.2286  140.0382  154.3580 C   0  0  0  0  0  0  0  0  0  0  0  0
  146.5835  136.9189  152.0523 N   0  0  0  0  0  0  0  0  0  0  0  0
  145.4516  136.1109  151.6100 C   0  0  2  0  0  0  0  0  0  0  0  0
  144.2351  136.1652  152.5291 C   0  0  0  0  0  0  0  0  0  0  0  0
  143.4693  134.8942  152.1444 C   0  0  0  0  0  0  0  0  0  0  0  0
  144.4750  133.9226  151.6460 N   0  3  1  0  0  0  0  0  0  0  0  0
  144.0984  133.2881  150.3639 C   0  0  0  0  0  0  0  0  0  0  0  0
  143.8187  131.8087  150.4812 C   0  0  0  0  0  0  0  0  0  0  0  0
  145.1137  132.2891  149.8624 C   0  0  0  0  0  0  0  0  0  0  0  0
  145.7801  134.6186  151.6007 C   0  0  0  0  0  0  0  0  0  0  0  0
  148.4750  138.0492  152.6711 H   0  0  0  0  0  0  0  0  0  0  0  0
  146.1873  140.7659  152.9723 H   0  0  0  0  0  0  0  0  0  0  0  0
  146.7337  142.9780  154.1178 H   0  0  0  0  0  0  0  0  0  0  0  0
  150.3371  141.5356  155.5352 H   0  0  0  0  0  0  0  0  0  0  0  0
  149.9836  139.2777  154.4750 H   0  0  0  0  0  0  0  0  0  0  0  0
  147.5073  136.5547  151.8692 H   0  0  0  0  0  0  0  0  0  0  0  0
  145.1574  136.4114  150.6020 H   0  0  0  0  0  0  0  0  0  0  0  0
  144.5456  136.1116  153.5739 H   0  0  0  0  0  0  0  0  0  0  0  0
  143.6412  137.0707  152.3988 H   0  0  0  0  0  0  0  0  0  0  0  0
  142.9113  134.4824  152.9858 H   0  0  0  0  0  0  0  0  0  0  0  0
  142.7500  135.1292  151.3579 H   0  0  0  0  0  0  0  0  0  0  0  0
  143.5362  133.9043  149.6640 H   0  0  0  0  0  0  0  0  0  0  0  0
  143.8719  131.3504  151.4672 H   0  0  0  0  0  0  0  0  0  0  0  0
  143.0738  131.3843  149.8112 H   0  0  0  0  0  0  0  0  0  0  0  0
  145.2213  132.1806  148.7850 H   0  0  0  0  0  0  0  0  0  0  0  0
  146.0278  132.1502  150.4370 H   0  0  0  0  0  0  0  0  0  0  0  0
  146.3854  134.3303  150.7397 H   0  0  0  0  0  0  0  0  0  0  0  0
  146.3356  134.3452  152.4992 H   0  0  0  0  0  0  0  0  0  0  0  0
  144.5573  133.1839  152.3300 H   0  0  0  0  0  0  0  0  0  0  0  0
  148.7245  143.1760  155.2832 H   0  0  0  0  0  0  0  0  0  0  0  0
  1  2  2  0  0  0  0
  2  3  1  0  0  0  0
  2 10  1  0  0  0  0
  3  4  1  0  0  0  0
  3 19  1  0  0  0  0
  4  9  1  0  0  0  0
  4  5  2  0  0  0  0
  5  6  1  0  0  0  0
  5 20  1  0  0  0  0
  6  7  2  0  0  0  0
  6 21  1  0  0  0  0
  7  8  1  0  0  0  0
  7 38  1  0  0  0  0
  8  9  2  0  0  0  0
  8 22  1  0  0  0  0
  9 23  1  0  0  0  0
 10 11  1  0  0  0  0
 10 24  1  0  0  0  0
 11 18  1  0  0  0  0
 11 12  1  0  0  0  0
 11 25  1  0  0  0  0
 12 13  1  0  0  0  0
 12 26  1  0  0  0  0
 12 27  1  0  0  0  0
 13 14  1  0  0  0  0
 13 28  1  0  0  0  0
 13 29  1  0  0  0  0
 14 15  1  0  0  0  0
 14 18  1  0  0  0  0
 14 37  1  0  0  0  0
 15 17  1  0  0  0  0
 15 16  1  0  0  0  0
 15 30  1  0  0  0  0
 16 17  1  0  0  0  0
 16 31  1  0  0  0  0
 16 32  1  0  0  0  0
 17 33  1  0  0  0  0
 17 34  1  0  0  0  0
 18 35  1  0  0  0  0
 18 36  1  0  0  0  0
M  CHG  1   7   1
M  CHG  1  14   1
M  END
> <s_m_source_file>
AV-unprocessed.smi

> <i_m_source_file_index>
3234

> <i_lp_mmshare_version>
43012

> <i_f3d_flags>
0

> <s_epik_input>
W2NIXTFbY0hdbltjSF1bY0hdYzFbTkhdQyg9TylbTkhdW0NAQEhdMltDSDJdW0NIMl1OKFtDSDJdMilbQ0hdM1tDSDJdW0NIMl0z

> <s_epik_cmdline>
J2VwaWtfcHl0aG9uJywgJy1waCcsICc3LjAnLCAnLXRuJywgJzgnLCAnLW1hJywgJzIwMCcsICctbWV0YWxfYmluZGluZycsICctaW1hZScsICc8aW5maWxlLm1hZT4nLCAnLW9tYWUnLCAnPG91dGZpbGUubWFlPic=

> <r_epik_Ionization_Penalty>
1.14489

> <r_epik_Ionization_Penalty_Charging>
1.14487

> <r_epik_Ionization_Penalty_Neutral>
1.95212e-05

> <r_epik_State_Penalty>
1.205

> <r_epik_Charging_Adjusted_Penalty>
2.34987

> <i_epik_Tot_Q>
2

> <i_epik_Tot_abs_Q>
2

> <r_epik_Metal_State_Penalty>
1.28709

> <b_epik_Metal_Only>
0

> <s_lp_Force_Field>
OPLS_2005

> <r_lp_Energy>
49.761

> <b_lp_Chiralities_Consistent>
1

> <s_lp_Variant>
AV-unprocessed.smi:3234-5

> <Gold.Version>
5.8.1

> <Gold.Id.Protein>
6NUR|6NUR_protein|mol2

> <Gold.PLP.Fitness>
44.3010

> <Gold.PLP.PLP>
-34.4684

> <Gold.PLP.part.hbond>
-3.7567

> <Gold.PLP.part.metal>
0.0000

> <Gold.PLP.part.buried>
-5.1620

> <Gold.PLP.part.nonpolar>
-30.9544

> <Gold.PLP.part.repulsive>
4.2450

> <Gold.PLP.ligand.clash>
0.0000

> <Gold.PLP.ligand.torsion>
1.2551

> <Gold.PLP.Chemscore.Hbond>
3.6928

> <Gold.PLP.Chemscore.CHOScore>
0.0000

> <Gold.PLP.Chemscore.Metal>
0.0000

> <Gold.Chemscore.Hbonds>
donor molecule, donor type, donor heavy atom, donor atom, acceptor molecule, acceptor atom, score
      L1  H     3    19       P1  7948  0.86
      L1  H     7    38       P1  8028  2.00
      L1  H    10    24       P1  7948  0.81

> <Gold.PLP.Chemscore.Internal.Correction>
1.2645

> <Gold.Rescore>
     Score         DG    S(hbond)    S(metal)    S(lipo)     H(rot)  DE(clash)    DE(int)     intcor
     15.73     -21.67       2.89        0.00      82.55       1.22       1.86       4.08       ----

> <Gold.Chemscore.Fitness>
15.7276

> <Gold.Chemscore.DG>
-21.6681

> <Gold.Chemscore.ZeroCoef>
-5.4800

> <Gold.Chemscore.Hbond>
2.8937

> <Gold.Chemscore.Metal>
0.0000

> <Gold.Chemscore.Lipo>
82.5512

> <Gold.Chemscore.Internal_Hbond>
0.0000

> <Gold.Chemscore.DEClash>
1.8564

> <Gold.Chemscore.DEInternal>
4.0840

> <Gold.Chemscore.Rot>
1.2248

> <Gold.Chemscore.Internal.Correction>
   9.000000E+99

> <Gold.Chemscore.Hbonds>
donor molecule, donor type, donor heavy atom, donor atom, acceptor molecule, acceptor atom, score
      L1  H     3    19       P1  7948  0.80
      L1  H     7    38       P1  8028  0.98
      L1  H    10    24       P1  7948  0.80

> <Gold.Chemscore.Hbond.Weighted>
-9.6650

> <Gold.Chemscore.Metal.Weighted>
-0.0000

> <Gold.Chemscore.Lipo.Weighted>
-9.6585

> <Gold.Chemscore.Internal_Hbond.Weighted>
0.0000

> <Gold.Chemscore.DEClash.Weighted>
1.8564

> <Gold.Chemscore.DEInternal.Weighted>
4.0840

> <Gold.Chemscore.Rot.Weighted>
3.1355

> <Gold.Chemscore.Internal.Correction.Weighted>
   9.000000E+99

> <Gold.Protein.RotatedTorsions>
[ 6907 6896 6895 6894 ] final  179.90 input  -60.11 | X-H torsion
[ 7974 7965 7964 7962 ] final  -27.13 input  175.53 | X-H torsion
[ 8008 7997 7996 7995 ] final  -40.67 input   59.86 | X-H torsion
[ 10167 10162 10161 10158 ] final   84.79 input  -65.29 | X-H torsion
[ 10718 10713 10712 10709 ] final  -36.04 input   66.30 | X-H torsion
[ 10763 10752 10751 10750 ] final   71.55 input  -60.55 | X-H torsion
[ 11005 11000 10999 10996 ] final   41.36 input  -57.11 | X-H torsion

> <Gold.Protein.ActiveResidues>
 VAL166  LYS551  ARG553  GLY616  TRP617  ASP618  TYR619  PRO620  LYS621  CYS622 
 ASP623  PHE694  ASN695  SER759  ASP760  ASP761  ALA762  ILE779  LEU786  VAL792 
 PHE793  MET794  SER795  GLU796  ALA797  LYS798  CYS799  TRP800  GLU811  SER814 

> <Gold.Protein.RotatedAtoms>
  151.6641  133.3316  159.3180 H   0  0  0  0  0  0  0  0  0  0  0  0  # atno 6907 bound_to 6896
  150.7899  134.6918  159.6510 H   0  0  0  0  0  0  0  0  0  0  0  0  # atno 6908 bound_to 6896
  152.3976  134.6342  160.0135 H   0  0  0  0  0  0  0  0  0  0  0  0  # atno 6909 bound_to 6896
  146.1379  140.5111  142.8665 H   0  0  0  0  0  0  0  0  0  0  0  0  # atno 7974 bound_to 7965
  154.4010  140.1519  156.3065 H   0  0  0  0  0  0  0  0  0  0  0  0  # atno 8008 bound_to 7997
  155.8654  140.3451  155.5763 H   0  0  0  0  0  0  0  0  0  0  0  0  # atno 8009 bound_to 7997
  155.7833  140.0846  157.2038 H   0  0  0  0  0  0  0  0  0  0  0  0  # atno 8010 bound_to 7997
  139.9045  144.6310  150.8602 H   0  0  0  0  0  0  0  0  0  0  0  0  # atno 10167 bound_to 10162
  156.3315  130.4280  149.7868 H   0  0  0  0  0  0  0  0  0  0  0  0  # atno 10718 bound_to 10713
  153.0406  135.5132  154.7610 H   0  0  0  0  0  0  0  0  0  0  0  0  # atno 10763 bound_to 10752
  154.6551  135.2930  154.9940 H   0  0  0  0  0  0  0  0  0  0  0  0  # atno 10764 bound_to 10752
  154.0810  135.6664  153.4890 H   0  0  0  0  0  0  0  0  0  0  0  0  # atno 10765 bound_to 10752
  140.1842  134.4066  155.8182 H   0  0  0  0  0  0  0  0  0  0  0  0  # atno 11005 bound_to 11000
  144.7759  140.5739  143.6638 LP  0  0  0  0  0  0  0  0  0  0  0  0  # atno 17320 bound_to 7965
  145.5115  139.1479  143.3602 LP  0  0  0  0  0  0  0  0  0  0  0  0  # atno 17321 bound_to 7965
  140.7699  143.3412  151.2204 LP  0  0  0  0  0  0  0  0  0  0  0  0  # atno 17342 bound_to 10162
  139.6996  143.9554  152.2899 LP  0  0  0  0  0  0  0  0  0  0  0  0  # atno 17343 bound_to 10162
  156.5139  130.8184  151.3179 LP  0  0  0  0  0  0  0  0  0  0  0  0  # atno 17370 bound_to 10713
  157.7431  130.9905  150.2567 LP  0  0  0  0  0  0  0  0  0  0  0  0  # atno 17371 bound_to 10713
  141.2224  133.7015  156.7984 LP  0  0  0  0  0  0  0  0  0  0  0  0  # atno 17394 bound_to 11000
  140.2232  134.8741  157.3399 LP  0  0  0  0  0  0  0  0  0  0  0  0  # atno 17395 bound_to 11000

$$$$
