AV-unprocessed.smi:2668|AV-procd|sdf|10342|dock9
  -GOLD-   2272014363D 1   1.00000     0.00000
 Structure written by MMmdl.
 53 54  0  0  0  0  0  0  0  0  2 V2000
  151.3961  137.1499  157.7939 C   0  0  0  0  0  0  0  0  0  0  0  0
  151.1996  138.0591  156.6669 N   0  0  0  0  0  0  0  0  0  0  0  0
  152.3101  139.0089  156.7009 C   0  0  0  0  0  0  0  0  0  0  0  0
  151.1247  137.3434  155.3774 C   0  0  2  0  0  0  0  0  0  0  0  0
  151.0211  138.2934  154.1628 C   0  0  0  0  0  0  0  0  0  0  0  0
  149.6581  139.0045  154.0962 C   0  0  0  0  0  0  0  0  0  0  0  0
  148.5295  138.0277  154.0380 N   0  3  2  0  0  0  0  0  0  0  0  0
  147.1731  138.6202  153.7417 C   0  0  0  0  0  0  0  0  0  0  0  0
  146.7292  139.5366  154.9106 C   0  0  0  0  0  0  0  0  0  0  0  0
  147.2657  139.5379  152.4957 C   0  0  0  0  0  0  0  0  0  0  0  0
  146.1076  137.5044  153.5193 C   0  0  0  0  0  0  0  0  0  0  0  0
  144.7539  138.0207  153.3193 N   0  0  0  0  0  0  0  0  0  0  0  0
  143.6190  137.3707  153.6151 C   0  0  0  0  0  0  0  0  0  0  0  0
  143.5914  136.2329  154.0834 O   0  0  0  0  0  0  0  0  0  0  0  0
  142.5425  138.1288  153.3455 N   0  0  0  0  0  0  0  0  0  0  0  0
  141.1683  137.8074  153.5138 C   0  0  0  0  0  0  0  0  0  0  0  0
  140.6917  136.5592  153.9834 C   0  0  0  0  0  0  0  0  0  0  0  0
  139.3019  136.3583  154.0883 C   0  0  0  0  0  0  0  0  0  0  0  0
  138.4400  137.4075  153.7150 C   0  0  0  0  0  0  0  0  0  0  0  0
  138.8795  138.5970  153.2533 N   0  0  0  0  0  0  0  0  0  0  0  0
  140.2131  138.7821  153.1545 C   0  0  0  0  0  0  0  0  0  0  0  0
  148.5817  137.0950  155.2040 C   0  0  0  0  0  0  0  0  0  0  0  0
  149.9332  136.3631  155.2832 C   0  0  0  0  0  0  0  0  0  0  0  0
  150.5216  136.5232  157.9611 H   0  0  0  0  0  0  0  0  0  0  0  0
  151.5486  137.7066  158.7196 H   0  0  0  0  0  0  0  0  0  0  0  0
  152.2636  136.5063  157.6402 H   0  0  0  0  0  0  0  0  0  0  0  0
  152.1599  139.8333  156.0062 H   0  0  0  0  0  0  0  0  0  0  0  0
  153.2576  138.5225  156.4646 H   0  0  0  0  0  0  0  0  0  0  0  0
  152.4017  139.4618  157.6891 H   0  0  0  0  0  0  0  0  0  0  0  0
  152.0443  136.7641  155.2788 H   0  0  0  0  0  0  0  0  0  0  0  0
  151.8318  139.0191  154.1297 H   0  0  0  0  0  0  0  0  0  0  0  0
  151.1447  137.7056  153.2521 H   0  0  0  0  0  0  0  0  0  0  0  0
  149.5475  139.6591  154.9609 H   0  0  0  0  0  0  0  0  0  0  0  0
  149.6762  139.6442  153.2168 H   0  0  0  0  0  0  0  0  0  0  0  0
  145.8586  140.1373  154.6440 H   0  0  0  0  0  0  0  0  0  0  0  0
  147.5206  140.2314  155.1951 H   0  0  0  0  0  0  0  0  0  0  0  0
  146.4405  138.9719  155.7967 H   0  0  0  0  0  0  0  0  0  0  0  0
  146.3736  140.1540  152.3781 H   0  0  0  0  0  0  0  0  0  0  0  0
  147.3621  138.9726  151.5691 H   0  0  0  0  0  0  0  0  0  0  0  0
  148.1143  140.2197  152.5648 H   0  0  0  0  0  0  0  0  0  0  0  0
  146.3817  136.8614  152.6824 H   0  0  0  0  0  0  0  0  0  0  0  0
  146.0549  136.8505  154.3892 H   0  0  0  0  0  0  0  0  0  0  0  0
  144.6771  138.9531  152.9398 H   0  0  0  0  0  0  0  0  0  0  0  0
  142.7297  139.0724  153.0389 H   0  0  0  0  0  0  0  0  0  0  0  0
  141.3567  135.7523  154.2493 H   0  0  0  0  0  0  0  0  0  0  0  0
  138.9057  135.4184  154.4428 H   0  0  0  0  0  0  0  0  0  0  0  0
  137.3691  137.2855  153.7828 H   0  0  0  0  0  0  0  0  0  0  0  0
  140.5284  139.7447  152.7787 H   0  0  0  0  0  0  0  0  0  0  0  0
  148.4090  137.6396  156.1323 H   0  0  0  0  0  0  0  0  0  0  0  0
  147.8098  136.3312  155.1389 H   0  0  0  0  0  0  0  0  0  0  0  0
  150.0503  135.7632  154.3795 H   0  0  0  0  0  0  0  0  0  0  0  0
  149.9281  135.6345  156.0923 H   0  0  0  0  0  0  0  0  0  0  0  0
  148.7292  137.4489  153.2348 H   0  0  0  0  0  0  0  0  0  0  0  0
  1  2  1  0  0  0  0
  1 24  1  0  0  0  0
  1 25  1  0  0  0  0
  1 26  1  0  0  0  0
  2  3  1  0  0  0  0
  2  4  1  0  0  0  0
  3 27  1  0  0  0  0
  3 28  1  0  0  0  0
  3 29  1  0  0  0  0
  4 23  1  0  0  0  0
  4  5  1  0  0  0  0
  4 30  1  0  0  0  0
  5  6  1  0  0  0  0
  5 31  1  0  0  0  0
  5 32  1  0  0  0  0
  6  7  1  0  0  0  0
  6 33  1  0  0  0  0
  6 34  1  0  0  0  0
  7  8  1  0  0  0  0
  7 22  1  0  0  0  0
  7 53  1  0  0  0  0
  8  9  1  0  0  0  0
  8 10  1  0  0  0  0
  8 11  1  0  0  0  0
  9 35  1  0  0  0  0
  9 36  1  0  0  0  0
  9 37  1  0  0  0  0
 10 38  1  0  0  0  0
 10 39  1  0  0  0  0
 10 40  1  0  0  0  0
 11 12  1  0  0  0  0
 11 41  1  0  0  0  0
 11 42  1  0  0  0  0
 12 13  1  0  0  0  0
 12 43  1  0  0  0  0
 13 14  2  0  0  0  0
 13 15  1  0  0  0  0
 15 16  1  0  0  0  0
 15 44  1  0  0  0  0
 16 21  1  0  0  0  0
 16 17  2  0  0  0  0
 17 18  1  0  0  0  0
 17 45  1  0  0  0  0
 18 19  2  0  0  0  0
 18 46  1  0  0  0  0
 19 20  1  0  0  0  0
 19 47  1  0  0  0  0
 20 21  2  0  0  0  0
 21 48  1  0  0  0  0
 22 23  1  0  0  0  0
 22 49  1  0  0  0  0
 22 50  1  0  0  0  0
 23 51  1  0  0  0  0
 23 52  1  0  0  0  0
M  CHG  1   7   1
M  END
> <s_m_source_file>
AV-unprocessed.smi

> <i_m_source_file_index>
2668

> <i_lp_mmshare_version>
43012

> <i_f3d_flags>
0

> <s_epik_input>
W0NIM11OKFtDSDNdKVtDSF0xW0NIMl1bQ0gyXU4oW0NIMl1bQ0gyXTEpQyhbQ0gzXSkoW0NIM10pW0NIMl1bTkhdQyg9TylbTkhdYzJbY0hdW2NIXVtjSF1uW2NIXTI=

> <s_epik_cmdline>
J2VwaWtfcHl0aG9uJywgJy1waCcsICc3LjAnLCAnLXRuJywgJzgnLCAnLW1hJywgJzIwMCcsICctbWV0YWxfYmluZGluZycsICctaW1hZScsICc8aW5maWxlLm1hZT4nLCAnLW9tYWUnLCAnPG91dGZpbGUubWFlPic=

> <r_epik_Ionization_Penalty>
1.32573

> <r_epik_Ionization_Penalty_Charging>
0.00219175

> <r_epik_Ionization_Penalty_Neutral>
1.32353

> <r_epik_State_Penalty>
1.51166

> <r_epik_Charging_Adjusted_Penalty>
1.51385

> <i_epik_Tot_Q>
1

> <i_epik_Tot_abs_Q>
1

> <r_epik_Metal_State_Penalty>
1.51178

> <b_epik_Metal_Only>
0

> <s_lp_Force_Field>
OPLS_2005

> <r_lp_Energy>
39.6139

> <b_lp_Chiralities_Consistent>
1

> <s_lp_Variant>
AV-unprocessed.smi:2668-5

> <Gold.Version>
5.8.1

> <Gold.Id.Protein>
6NUR|6NUR_protein|mol2

> <Gold.PLP.Fitness>
46.2135

> <Gold.PLP.PLP>
-31.6375

> <Gold.PLP.part.hbond>
-3.0000

> <Gold.PLP.part.metal>
0.0000

> <Gold.PLP.part.buried>
-0.5067

> <Gold.PLP.part.nonpolar>
-28.2322

> <Gold.PLP.part.repulsive>
0.1860

> <Gold.PLP.ligand.clash>
0.0000

> <Gold.PLP.ligand.torsion>
0.2676

> <Gold.PLP.Chemscore.Hbond>
4.0000

> <Gold.PLP.Chemscore.CHOScore>
1.0000

> <Gold.PLP.Chemscore.Metal>
0.0000

> <Gold.Chemscore.Hbonds>
donor molecule, donor type, donor heavy atom, donor atom, acceptor molecule, acceptor atom, score
      L1  H     7    53       P1  7948  2.00
      L1  H    12    43       P1 10175  1.00
      L1  H    15    44       P1 10175  1.00
      L1  C    21    48       P1 10160  1.00

> <Gold.PLP.Chemscore.Internal.Correction>
0.1112

> <Gold.Rescore>
     Score         DG    S(hbond)    S(metal)    S(lipo)     H(rot)  DE(clash)    DE(int)     intcor
     19.16     -21.99       2.96        0.00      92.14       1.62       1.35       1.48       ----

> <Gold.Chemscore.Fitness>
19.1586

> <Gold.Chemscore.DG>
-21.9889

> <Gold.Chemscore.ZeroCoef>
-5.4800

> <Gold.Chemscore.Hbond>
2.9589

> <Gold.Chemscore.Metal>
0.0000

> <Gold.Chemscore.Lipo>
92.1412

> <Gold.Chemscore.Internal_Hbond>
0.0000

> <Gold.Chemscore.DEClash>
1.3494

> <Gold.Chemscore.DEInternal>
1.4809

> <Gold.Chemscore.Rot>
1.6228

> <Gold.Chemscore.Internal.Correction>
   9.000000E+99

> <Gold.Chemscore.Hbonds>
donor molecule, donor type, donor heavy atom, donor atom, acceptor molecule, acceptor atom, score
      L1  H     7    53       P1  7948  1.00
      L1  H    12    43       P1 10175  0.95
      L1  H    15    44       P1 10175  1.00

> <Gold.Chemscore.Hbond.Weighted>
-9.8828

> <Gold.Chemscore.Metal.Weighted>
-0.0000

> <Gold.Chemscore.Lipo.Weighted>
-10.7805

> <Gold.Chemscore.Internal_Hbond.Weighted>
0.0000

> <Gold.Chemscore.DEClash.Weighted>
1.3494

> <Gold.Chemscore.DEInternal.Weighted>
1.4809

> <Gold.Chemscore.Rot.Weighted>
4.1545

> <Gold.Chemscore.Internal.Correction.Weighted>
   9.000000E+99

> <Gold.Protein.RotatedTorsions>
[ 6907 6896 6895 6894 ] final   -9.21 input  -60.11 | X-H torsion
[ 7974 7965 7964 7962 ] final   90.45 input  175.53 | X-H torsion
[ 8008 7997 7996 7995 ] final -177.57 input   59.86 | X-H torsion
[ 10167 10162 10161 10158 ] final  -79.96 input  -65.29 | X-H torsion
[ 10718 10713 10712 10709 ] final -129.69 input   66.30 | X-H torsion
[ 10763 10752 10751 10750 ] final   82.44 input  -60.55 | X-H torsion
[ 11005 11000 10999 10996 ] final -102.66 input  -57.11 | X-H torsion

> <Gold.Protein.ActiveResidues>
 VAL166  LYS551  ARG553  GLY616  TRP617  ASP618  TYR619  PRO620  LYS621  CYS622 
 ASP623  PHE694  ASN695  SER759  ASP760  ASP761  ALA762  ILE779  LEU786  VAL792 
 PHE793  MET794  SER795  GLU796  ALA797  LYS798  CYS799  TRP800  GLU811  SER814 

> <Gold.Protein.RotatedAtoms>
  151.4214  135.0998  159.9614 H   0  0  0  0  0  0  0  0  0  0  0  0  # atno 6907 bound_to 6896
  152.4987  133.8703  159.7306 H   0  0  0  0  0  0  0  0  0  0  0  0  # atno 6908 bound_to 6896
  150.9220  133.6811  159.2858 H   0  0  0  0  0  0  0  0  0  0  0  0  # atno 6909 bound_to 6896
  145.5188  139.2279  143.2683 H   0  0  0  0  0  0  0  0  0  0  0  0  # atno 7974 bound_to 7965
  156.0085  140.1235  157.0477 H   0  0  0  0  0  0  0  0  0  0  0  0  # atno 8008 bound_to 7997
  154.4267  140.1092  156.5865 H   0  0  0  0  0  0  0  0  0  0  0  0  # atno 8009 bound_to 7997
  155.6113  140.3471  155.4625 H   0  0  0  0  0  0  0  0  0  0  0  0  # atno 8010 bound_to 7997
  140.4546  143.2472  151.8438 H   0  0  0  0  0  0  0  0  0  0  0  0  # atno 10167 bound_to 10162
  156.2071  130.6895  151.0607 H   0  0  0  0  0  0  0  0  0  0  0  0  # atno 10718 bound_to 10713
  153.1203  135.4728  154.9184 H   0  0  0  0  0  0  0  0  0  0  0  0  # atno 10763 bound_to 10752
  154.7569  135.3121  154.8456 H   0  0  0  0  0  0  0  0  0  0  0  0  # atno 10764 bound_to 10752
  153.9022  135.6874  153.4808 H   0  0  0  0  0  0  0  0  0  0  0  0  # atno 10765 bound_to 10752
  141.1180  133.8576  157.1388 H   0  0  0  0  0  0  0  0  0  0  0  0  # atno 11005 bound_to 11000
  146.2119  140.5999  142.9055 LP  0  0  0  0  0  0  0  0  0  0  0  0  # atno 17320 bound_to 7965
  144.7687  140.5589  143.6685 LP  0  0  0  0  0  0  0  0  0  0  0  0  # atno 17321 bound_to 7965
  139.4800  144.5080  151.8971 LP  0  0  0  0  0  0  0  0  0  0  0  0  # atno 17342 bound_to 10162
  140.4166  144.2298  150.5887 LP  0  0  0  0  0  0  0  0  0  0  0  0  # atno 17343 bound_to 10162
  157.7018  131.0773  150.6795 LP  0  0  0  0  0  0  0  0  0  0  0  0  # atno 17370 bound_to 10713
  156.6854  130.4579  149.5615 LP  0  0  0  0  0  0  0  0  0  0  0  0  # atno 17371 bound_to 10713
  140.0115  134.9986  157.0405 LP  0  0  0  0  0  0  0  0  0  0  0  0  # atno 17394 bound_to 11000
  140.4591  134.1502  155.7189 LP  0  0  0  0  0  0  0  0  0  0  0  0  # atno 17395 bound_to 11000

$$$$
