AV-unprocessed.smi:2908|AV-procd|sdf|11168|dock3
  -GOLD-   2272016 53D 1   1.00000     0.00000
 Structure written by MMmdl.
 43 44  0  0  0  0  0  0  0  0  1 V2000
  148.3854  139.2915  157.1450 O   0  0  0  0  0  0  0  0  0  0  0  0
  149.5259  139.0128  157.5173 C   0  0  0  0  0  0  0  0  0  0  0  0
  150.4676  139.9514  157.6996 N   0  0  0  0  0  0  0  0  0  0  0  0
  150.2505  141.3922  157.6449 C   0  0  0  0  0  0  0  0  0  0  0  0
  151.5823  142.1643  157.6859 C   0  0  0  0  0  0  0  0  0  0  0  0
  151.8351  142.8657  159.0115 C   0  0  0  0  0  0  0  0  0  0  0  0
  152.8912  142.4527  159.8509 C   0  0  0  0  0  0  0  0  0  0  0  0
  153.1101  143.1573  161.0506 C   0  0  0  0  0  0  0  0  0  0  0  0
  152.2684  144.2419  161.3639 C   0  0  0  0  0  0  0  0  0  0  0  0
  151.2397  144.5742  160.4606 C   0  0  0  0  0  0  0  0  0  0  0  0
  151.0240  143.9079  159.3060 N   0  0  0  0  0  0  0  0  0  0  0  0
  149.9353  137.7465  157.7837 N   0  0  0  0  0  0  0  0  0  0  0  0
  151.2235  137.3599  158.3808 C   0  0  0  0  0  0  0  0  0  0  0  0
  150.9957  137.0795  159.8760 C   0  0  0  0  0  0  0  0  0  0  0  0
  149.9223  135.9834  160.0912 C   0  0  0  0  0  0  0  0  0  0  0  0
  149.6551  135.7460  161.6007 C   0  0  1  0  0  0  0  0  0  0  0  0
  148.9208  136.8275  162.1438 O   0  0  0  0  0  0  0  0  0  0  0  0
  148.9472  134.4182  161.9507 C   0  0  0  0  0  0  0  0  0  0  0  0
  148.7903  134.3321  163.2719 F   0  0  0  0  0  0  0  0  0  0  0  0
  147.7543  134.3153  161.3651 F   0  0  0  0  0  0  0  0  0  0  0  0
  149.7037  133.3914  161.5629 F   0  0  0  0  0  0  0  0  0  0  0  0
  148.6512  136.2741  159.2505 C   0  0  0  0  0  0  0  0  0  0  0  0
  149.0011  136.6164  157.7895 C   0  0  0  0  0  0  0  0  0  0  0  0
  151.3840  139.6439  157.9918 H   0  0  0  0  0  0  0  0  0  0  0  0
  149.6931  141.6428  156.7421 H   0  0  0  0  0  0  0  0  0  0  0  0
  149.6383  141.7030  158.4934 H   0  0  0  0  0  0  0  0  0  0  0  0
  152.4068  141.4773  157.4885 H   0  0  0  0  0  0  0  0  0  0  0  0
  151.6059  142.9007  156.8818 H   0  0  0  0  0  0  0  0  0  0  0  0
  153.5248  141.6215  159.5782 H   0  0  0  0  0  0  0  0  0  0  0  0
  153.9108  142.8729  161.7170 H   0  0  0  0  0  0  0  0  0  0  0  0
  152.4071  144.8057  162.2743 H   0  0  0  0  0  0  0  0  0  0  0  0
  150.5762  145.4007  160.6671 H   0  0  0  0  0  0  0  0  0  0  0  0
  151.5979  136.4623  157.8865 H   0  0  0  0  0  0  0  0  0  0  0  0
  152.0102  138.1037  158.2539 H   0  0  0  0  0  0  0  0  0  0  0  0
  151.9358  136.7804  160.3407 H   0  0  0  0  0  0  0  0  0  0  0  0
  150.6904  138.0045  160.3669 H   0  0  0  0  0  0  0  0  0  0  0  0
  150.3516  135.0623  159.6948 H   0  0  0  0  0  0  0  0  0  0  0  0
  150.6208  135.7373  162.1083 H   0  0  0  0  0  0  0  0  0  0  0  0
  148.3853  136.5014  162.8506 H   0  0  0  0  0  0  0  0  0  0  0  0
  147.9845  135.4127  159.2552 H   0  0  0  0  0  0  0  0  0  0  0  0
  148.0922  137.1027  159.6870 H   0  0  0  0  0  0  0  0  0  0  0  0
  148.0917  136.8222  157.2232 H   0  0  0  0  0  0  0  0  0  0  0  0
  149.4627  135.7566  157.3018 H   0  0  0  0  0  0  0  0  0  0  0  0
  1  2  2  0  0  0  0
  2  3  1  0  0  0  0
  2 12  1  0  0  0  0
  3  4  1  0  0  0  0
  3 24  1  0  0  0  0
  4  5  1  0  0  0  0
  4 25  1  0  0  0  0
  4 26  1  0  0  0  0
  5  6  1  0  0  0  0
  5 27  1  0  0  0  0
  5 28  1  0  0  0  0
  6 11  1  0  0  0  0
  6  7  2  0  0  0  0
  7  8  1  0  0  0  0
  7 29  1  0  0  0  0
  8  9  2  0  0  0  0
  8 30  1  0  0  0  0
  9 10  1  0  0  0  0
  9 31  1  0  0  0  0
 10 11  2  0  0  0  0
 10 32  1  0  0  0  0
 12 23  1  0  0  0  0
 12 13  1  0  0  0  0
 13 14  1  0  0  0  0
 13 33  1  0  0  0  0
 13 34  1  0  0  0  0
 14 15  1  0  0  0  0
 14 35  1  0  0  0  0
 14 36  1  0  0  0  0
 15 16  1  0  0  0  0
 15 22  1  0  0  0  0
 15 37  1  0  0  0  0
 16 17  1  0  0  0  0
 16 18  1  0  0  0  0
 16 38  1  0  0  0  0
 17 39  1  0  0  0  0
 18 19  1  0  0  0  0
 18 20  1  0  0  0  0
 18 21  1  0  0  0  0
 22 23  1  0  0  0  0
 22 40  1  0  0  0  0
 22 41  1  0  0  0  0
 23 42  1  0  0  0  0
 23 43  1  0  0  0  0
M  END
> <s_m_source_file>
AV-unprocessed.smi

> <i_m_source_file_index>
2908

> <i_lp_mmshare_version>
43012

> <i_f3d_flags>
0

> <s_epik_input>
RkMoRikoRilbQ0BASF0oW09IXSlbQ0hdKFtDSDJdW0NIMl0xKVtDSDJdW0NIMl1OMUMoPU8pW05IXVtDSDJdW0NIMl1jMltjSF1bY0hdW2NIXVtjSF1uMg==

> <s_epik_cmdline>
J2VwaWtfcHl0aG9uJywgJy1waCcsICc3LjAnLCAnLXRuJywgJzgnLCAnLW1hJywgJzIwMCcsICctbWV0YWxfYmluZGluZycsICctaW1hZScsICc8aW5maWxlLm1hZT4nLCAnLW9tYWUnLCAnPG91dGZpbGUubWFlPic=

> <r_epik_Ionization_Penalty>
0.0451198

> <r_epik_Ionization_Penalty_Charging>
0

> <r_epik_Ionization_Penalty_Neutral>
0.0451198

> <r_epik_State_Penalty>
0.0381178

> <r_epik_Charging_Adjusted_Penalty>
0.0381178

> <i_epik_Tot_Q>
0

> <i_epik_Tot_abs_Q>
0

> <r_epik_Metal_State_Penalty>
0.0354176

> <b_epik_Metal_Only>
0

> <s_lp_Force_Field>
OPLS_2005

> <r_lp_Energy>
37.4058

> <b_lp_Chiralities_Consistent>
1

> <s_lp_Variant>
AV-unprocessed.smi:2908-2

> <Gold.Version>
5.8.1

> <Gold.Id.Protein>
6NUR|6NUR_protein|mol2

> <Gold.PLP.Fitness>
46.1481

> <Gold.PLP.PLP>
-41.9006

> <Gold.PLP.part.hbond>
-2.0000

> <Gold.PLP.part.metal>
0.0000

> <Gold.PLP.part.buried>
-4.6914

> <Gold.PLP.part.nonpolar>
-35.3646

> <Gold.PLP.part.repulsive>
0.1495

> <Gold.PLP.ligand.clash>
0.0000

> <Gold.PLP.ligand.torsion>
0.6285

> <Gold.PLP.Chemscore.Hbond>
1.7120

> <Gold.PLP.Chemscore.CHOScore>
0.0000

> <Gold.PLP.Chemscore.Metal>
0.0000

> <Gold.Chemscore.Hbonds>
donor molecule, donor type, donor heavy atom, donor atom, acceptor molecule, acceptor atom, score
      P1  H  6931  6943       L1    17  0.75

> <Gold.PLP.Chemscore.Internal.Correction>
0.3683

> <Gold.Rescore>
     Score         DG    S(hbond)    S(metal)    S(lipo)     H(rot)  DE(clash)    DE(int)     intcor
     14.70     -15.43       1.38        0.00      96.13       2.30       0.02       0.72       ----

> <Gold.Chemscore.Fitness>
14.6962

> <Gold.Chemscore.DG>
-15.4301

> <Gold.Chemscore.ZeroCoef>
-5.4800

> <Gold.Chemscore.Hbond>
1.3782

> <Gold.Chemscore.Metal>
0.0000

> <Gold.Chemscore.Lipo>
96.1315

> <Gold.Chemscore.Internal_Hbond>
0.0000

> <Gold.Chemscore.DEClash>
0.0189

> <Gold.Chemscore.DEInternal>
0.7151

> <Gold.Chemscore.Rot>
2.3048

> <Gold.Chemscore.Internal.Correction>
   9.000000E+99

> <Gold.Chemscore.Hbonds>
donor molecule, donor type, donor heavy atom, donor atom, acceptor molecule, acceptor atom, score
      P1  H  6931  6943       L1    17  0.71

> <Gold.Chemscore.Hbond.Weighted>
-4.6031

> <Gold.Chemscore.Metal.Weighted>
-0.0000

> <Gold.Chemscore.Lipo.Weighted>
-11.2474

> <Gold.Chemscore.Internal_Hbond.Weighted>
0.0000

> <Gold.Chemscore.DEClash.Weighted>
0.0189

> <Gold.Chemscore.DEInternal.Weighted>
0.7151

> <Gold.Chemscore.Rot.Weighted>
5.9004

> <Gold.Chemscore.Internal.Correction.Weighted>
   9.000000E+99

> <Gold.Protein.RotatedTorsions>
[ 6907 6896 6895 6894 ] final    3.87 input  -60.11 | X-H torsion
[ 7974 7965 7964 7962 ] final  -32.81 input  175.53 | X-H torsion
[ 8008 7997 7996 7995 ] final  136.23 input   59.86 | X-H torsion
[ 10167 10162 10161 10158 ] final  -28.66 input  -65.29 | X-H torsion
[ 10718 10713 10712 10709 ] final  144.57 input   66.30 | X-H torsion
[ 10763 10752 10751 10750 ] final   33.37 input  -60.55 | X-H torsion
[ 11005 11000 10999 10996 ] final  -31.03 input  -57.11 | X-H torsion

> <Gold.Protein.ActiveResidues>
 VAL166  LYS551  ARG553  GLY616  TRP617  ASP618  TYR619  PRO620  LYS621  CYS622 
 ASP623  PHE694  ASN695  SER759  ASP760  ASP761  ALA762  ILE779  LEU786  VAL792 
 PHE793  MET794  SER795  GLU796  ALA797  LYS798  CYS799  TRP800  GLU811  SER814 

> <Gold.Protein.RotatedAtoms>
  151.6320  135.1022  160.0123 H   0  0  0  0  0  0  0  0  0  0  0  0  # atno 6907 bound_to 6896
  152.4101  133.6946  159.6399 H   0  0  0  0  0  0  0  0  0  0  0  0  # atno 6908 bound_to 6896
  150.7992  133.8556  159.3258 H   0  0  0  0  0  0  0  0  0  0  0  0  # atno 6909 bound_to 6896
  146.0961  140.5838  142.8842 H   0  0  0  0  0  0  0  0  0  0  0  0  # atno 7974 bound_to 7965
  156.3004  140.2450  156.3710 H   0  0  0  0  0  0  0  0  0  0  0  0  # atno 8008 bound_to 7997
  154.8788  140.0413  157.1789 H   0  0  0  0  0  0  0  0  0  0  0  0  # atno 8009 bound_to 7997
  154.8717  140.2936  155.5481 H   0  0  0  0  0  0  0  0  0  0  0  0  # atno 8010 bound_to 7997
  140.7268  143.3992  151.1294 H   0  0  0  0  0  0  0  0  0  0  0  0  # atno 10167 bound_to 10162
  157.3556  131.0957  151.0961 H   0  0  0  0  0  0  0  0  0  0  0  0  # atno 10718 bound_to 10713
  153.0215  135.6389  154.1500 H   0  0  0  0  0  0  0  0  0  0  0  0  # atno 10763 bound_to 10752
  154.1234  135.2845  155.3204 H   0  0  0  0  0  0  0  0  0  0  0  0  # atno 10764 bound_to 10752
  154.6247  135.5513  153.7676 H   0  0  0  0  0  0  0  0  0  0  0  0  # atno 10765 bound_to 10752
  140.9434  133.7265  156.1110 H   0  0  0  0  0  0  0  0  0  0  0  0  # atno 11005 bound_to 11000
  144.7396  140.4906  143.6879 LP  0  0  0  0  0  0  0  0  0  0  0  0  # atno 17320 bound_to 7965
  145.5946  139.1498  143.3163 LP  0  0  0  0  0  0  0  0  0  0  0  0  # atno 17321 bound_to 7965
  139.7609  143.8637  152.3100 LP  0  0  0  0  0  0  0  0  0  0  0  0  # atno 17342 bound_to 10162
  139.8522  144.7159  150.9200 LP  0  0  0  0  0  0  0  0  0  0  0  0  # atno 17343 bound_to 10162
  157.2121  130.6442  149.5778 LP  0  0  0  0  0  0  0  0  0  0  0  0  # atno 17370 bound_to 10713
  155.9728  130.4656  150.6261 LP  0  0  0  0  0  0  0  0  0  0  0  0  # atno 17371 bound_to 10713
  140.7703  134.3840  157.5509 LP  0  0  0  0  0  0  0  0  0  0  0  0  # atno 17394 bound_to 11000
  139.8826  134.9018  156.2818 LP  0  0  0  0  0  0  0  0  0  0  0  0  # atno 17395 bound_to 11000

$$$$
