AV-unprocessed.smi:1386|AV-procd|sdf|5639|dock2
  -GOLD-   22720 5253D 1   1.00000     0.00000
 Structure written by MMmdl.
 35 36  0  0  0  0  0  0  0  0  1 V2000
  149.5738  141.4195  157.0926 C   0  0  0  0  0  0  0  0  0  0  0  0
  150.8942  140.7085  157.4168 C   0  0  1  0  0  0  0  0  0  0  0  0
  151.7590  140.5155  156.1542 C   0  0  0  0  0  0  0  0  0  0  0  0
  151.4979  139.2525  155.4865 N   0  0  0  0  0  0  0  0  0  0  0  0
  150.2601  138.7105  155.1658 C   0  0  0  0  0  0  0  0  0  0  0  0
  150.5067  137.5005  154.5576 C   0  0  0  0  0  0  0  0  0  0  0  0
  151.8806  137.2837  154.4838 N   0  0  0  0  0  0  0  0  0  0  0  0
  152.4014  138.3655  155.0474 C   0  0  0  0  0  0  0  0  0  0  0  0
  151.6248  141.4833  158.4194 N   0  0  0  0  0  0  0  0  0  0  0  0
  152.8083  141.1518  158.9660 C   0  0  0  0  0  0  0  0  0  0  0  0
  153.3635  140.0768  158.7339 O   0  0  0  0  0  0  0  0  0  0  0  0
  153.3328  142.0916  159.7923 N   0  0  0  0  0  0  0  0  0  0  0  0
  154.1293  141.8259  161.0015 C   0  0  0  0  0  0  0  0  0  0  0  0
  153.1951  141.8115  162.2233 C   0  0  0  0  0  0  0  0  0  0  0  0
  152.4015  143.4328  162.4572 S   0  0  0  0  0  0  0  0  0  0  0  0
  151.7875  143.7223  160.7679 C   0  0  0  0  0  0  0  0  0  0  0  0
  152.8995  143.4924  159.7297 C   0  0  0  0  0  0  0  0  0  0  0  0
  148.9932  140.8536  156.3636 H   0  0  0  0  0  0  0  0  0  0  0  0
  149.7476  142.4140  156.6798 H   0  0  0  0  0  0  0  0  0  0  0  0
  148.9591  141.5317  157.9862 H   0  0  0  0  0  0  0  0  0  0  0  0
  150.6402  139.7235  157.8119 H   0  0  0  0  0  0  0  0  0  0  0  0
  151.5683  141.3182  155.4409 H   0  0  0  0  0  0  0  0  0  0  0  0
  152.8191  140.5665  156.4071 H   0  0  0  0  0  0  0  0  0  0  0  0
  149.3323  139.2116  155.3999 H   0  0  0  0  0  0  0  0  0  0  0  0
  149.8066  136.7756  154.1692 H   0  0  0  0  0  0  0  0  0  0  0  0
  153.4666  138.5110  155.1526 H   0  0  0  0  0  0  0  0  0  0  0  0
  151.2275  142.3748  158.6771 H   0  0  0  0  0  0  0  0  0  0  0  0
  154.6890  140.8920  160.9473 H   0  0  0  0  0  0  0  0  0  0  0  0
  154.8889  142.5993  161.1241 H   0  0  0  0  0  0  0  0  0  0  0  0
  152.4224  141.0522  162.1034 H   0  0  0  0  0  0  0  0  0  0  0  0
  153.7520  141.5613  163.1261 H   0  0  0  0  0  0  0  0  0  0  0  0
  150.9441  143.0574  160.5769 H   0  0  0  0  0  0  0  0  0  0  0  0
  151.4105  144.7430  160.7023 H   0  0  0  0  0  0  0  0  0  0  0  0
  153.7416  144.1577  159.9247 H   0  0  0  0  0  0  0  0  0  0  0  0
  152.5437  143.7624  158.7342 H   0  0  0  0  0  0  0  0  0  0  0  0
  1  2  1  0  0  0  0
  1 18  1  0  0  0  0
  1 19  1  0  0  0  0
  1 20  1  0  0  0  0
  2  3  1  0  0  0  0
  2  9  1  0  0  0  0
  2 21  1  0  0  0  0
  3  4  1  0  0  0  0
  3 22  1  0  0  0  0
  3 23  1  0  0  0  0
  4  8  1  0  0  0  0
  4  5  1  0  0  0  0
  5  6  2  0  0  0  0
  5 24  1  0  0  0  0
  6  7  1  0  0  0  0
  6 25  1  0  0  0  0
  7  8  2  0  0  0  0
  8 26  1  0  0  0  0
  9 10  1  0  0  0  0
  9 27  1  0  0  0  0
 10 11  2  0  0  0  0
 10 12  1  0  0  0  0
 12 17  1  0  0  0  0
 12 13  1  0  0  0  0
 13 14  1  0  0  0  0
 13 28  1  0  0  0  0
 13 29  1  0  0  0  0
 14 15  1  0  0  0  0
 14 30  1  0  0  0  0
 14 31  1  0  0  0  0
 15 16  1  0  0  0  0
 16 17  1  0  0  0  0
 16 32  1  0  0  0  0
 16 33  1  0  0  0  0
 17 34  1  0  0  0  0
 17 35  1  0  0  0  0
M  END
> <s_m_source_file>
AV-unprocessed.smi

> <i_m_source_file_index>
1386

> <i_lp_mmshare_version>
43012

> <i_f3d_flags>
0

> <s_epik_input>
W2NIXTFuW2NIXVtjSF1uMVtDSDJdW0NAQEhdKFtDSDNdKVtOSF1DKD1PKU4yW0NIMl1bQ0gyXVNbQ0gyXVtDSDJdMg==

> <s_epik_cmdline>
J2VwaWtfcHl0aG9uJywgJy1waCcsICc3LjAnLCAnLXRuJywgJzgnLCAnLW1hJywgJzIwMCcsICctbWV0YWxfYmluZGluZycsICctaW1hZScsICc8aW5maWxlLm1hZT4nLCAnLW9tYWUnLCAnPG91dGZpbGUubWFlPic=

> <r_lp_tautomer_probability>
1

> <r_epik_Ionization_Penalty>
0.622677

> <r_epik_Ionization_Penalty_Charging>
0.62263

> <r_epik_Ionization_Penalty_Neutral>
4.67019e-05

> <r_epik_State_Penalty>
0.63879

> <r_epik_Charging_Adjusted_Penalty>
1.26142

> <i_epik_Tot_Q>
0

> <i_epik_Tot_abs_Q>
0

> <r_epik_Metal_State_Penalty>
0.307117

> <b_epik_Metal_Only>
0

> <s_lp_Force_Field>
OPLS_2005

> <r_lp_Energy>
24.3831

> <b_lp_Chiralities_Consistent>
1

> <s_lp_Variant>
AV-unprocessed.smi:1386-4

> <Gold.Version>
5.8.1

> <Gold.Id.Protein>
6NUR|6NUR_protein|mol2

> <Gold.PLP.Fitness>
46.7059

> <Gold.PLP.PLP>
-40.5894

> <Gold.PLP.part.hbond>
-2.0000

> <Gold.PLP.part.metal>
0.0000

> <Gold.PLP.part.buried>
-2.7615

> <Gold.PLP.part.nonpolar>
-35.2204

> <Gold.PLP.part.repulsive>
0.2297

> <Gold.PLP.ligand.clash>
1.2211

> <Gold.PLP.ligand.torsion>
0.8661

> <Gold.PLP.Chemscore.Hbond>
2.0000

> <Gold.PLP.Chemscore.CHOScore>
1.0000

> <Gold.PLP.Chemscore.Metal>
0.0000

> <Gold.Chemscore.Hbonds>
donor molecule, donor type, donor heavy atom, donor atom, acceptor molecule, acceptor atom, score
      P1  H  7997  8009       L1    11  0.86
      P1  H 10752 10765       L1     7  0.99
      L1  C     6    25       P1  7948  1.00

> <Gold.PLP.Chemscore.Internal.Correction>
0.0698

> <Gold.Rescore>
     Score         DG    S(hbond)    S(metal)    S(lipo)     H(rot)  DE(clash)    DE(int)     intcor
     16.44     -17.59       1.72        0.00      89.16       1.59       0.53       0.62       ----

> <Gold.Chemscore.Fitness>
16.4381

> <Gold.Chemscore.DG>
-17.5890

> <Gold.Chemscore.ZeroCoef>
-5.4800

> <Gold.Chemscore.Hbond>
1.7211

> <Gold.Chemscore.Metal>
0.0000

> <Gold.Chemscore.Lipo>
89.1565

> <Gold.Chemscore.Internal_Hbond>
0.0000

> <Gold.Chemscore.DEClash>
0.5327

> <Gold.Chemscore.DEInternal>
0.6183

> <Gold.Chemscore.Rot>
1.5901

> <Gold.Chemscore.Internal.Correction>
   9.000000E+99

> <Gold.Chemscore.Hbonds>
donor molecule, donor type, donor heavy atom, donor atom, acceptor molecule, acceptor atom, score
      P1  H  7997  8009       L1    11  0.73
      P1  H 10752 10765       L1     7  0.92

> <Gold.Chemscore.Hbond.Weighted>
-5.7483

> <Gold.Chemscore.Metal.Weighted>
-0.0000

> <Gold.Chemscore.Lipo.Weighted>
-10.4313

> <Gold.Chemscore.Internal_Hbond.Weighted>
0.0000

> <Gold.Chemscore.DEClash.Weighted>
0.5327

> <Gold.Chemscore.DEInternal.Weighted>
0.6183

> <Gold.Chemscore.Rot.Weighted>
4.0706

> <Gold.Chemscore.Internal.Correction.Weighted>
   9.000000E+99

> <Gold.Protein.RotatedTorsions>
[ 6907 6896 6895 6894 ] final -124.33 input  -60.11 | X-H torsion
[ 7974 7965 7964 7962 ] final  -61.23 input  175.53 | X-H torsion
[ 8008 7997 7996 7995 ] final  150.54 input   59.86 | X-H torsion
[ 10167 10162 10161 10158 ] final   -7.56 input  -65.29 | X-H torsion
[ 10718 10713 10712 10709 ] final   96.22 input   66.30 | X-H torsion
[ 10763 10752 10751 10750 ] final  163.05 input  -60.55 | X-H torsion
[ 11005 11000 10999 10996 ] final   64.05 input  -57.11 | X-H torsion

> <Gold.Protein.ActiveResidues>
 VAL166  LYS551  ARG553  GLY616  TRP617  ASP618  TYR619  PRO620  LYS621  CYS622 
 ASP623  PHE694  ASN695  SER759  ASP760  ASP761  ALA762  ILE779  LEU786  VAL792 
 PHE793  MET794  SER795  GLU796  ALA797  LYS798  CYS799  TRP800  GLU811  SER814 

> <Gold.Protein.RotatedAtoms>
  150.8758  133.7441  159.2946 H   0  0  0  0  0  0  0  0  0  0  0  0  # atno 6907 bound_to 6896
  151.5038  135.1061  159.9845 H   0  0  0  0  0  0  0  0  0  0  0  0  # atno 6908 bound_to 6896
  152.4726  133.8020  159.7013 H   0  0  0  0  0  0  0  0  0  0  0  0  # atno 6909 bound_to 6896
  145.8060  140.8627  143.0206 H   0  0  0  0  0  0  0  0  0  0  0  0  # atno 7974 bound_to 7965
  156.2711  140.2072  156.6034 H   0  0  0  0  0  0  0  0  0  0  0  0  # atno 8008 bound_to 7997
  154.6888  140.0532  157.0366 H   0  0  0  0  0  0  0  0  0  0  0  0  # atno 8009 bound_to 7997
  155.0895  140.3195  155.4580 H   0  0  0  0  0  0  0  0  0  0  0  0  # atno 8010 bound_to 7997
  140.7032  143.6067  150.8744 H   0  0  0  0  0  0  0  0  0  0  0  0  # atno 10167 bound_to 10162
  157.6929  131.0571  150.4458 H   0  0  0  0  0  0  0  0  0  0  0  0  # atno 10718 bound_to 10713
  154.2878  135.2761  155.2668 H   0  0  0  0  0  0  0  0  0  0  0  0  # atno 10763 bound_to 10752
  154.5161  135.5769  153.6647 H   0  0  0  0  0  0  0  0  0  0  0  0  # atno 10764 bound_to 10752
  152.9919  135.6193  154.3041 H   0  0  0  0  0  0  0  0  0  0  0  0  # atno 10765 bound_to 10752
  139.9984  134.6481  155.9972 H   0  0  0  0  0  0  0  0  0  0  0  0  # atno 11005 bound_to 11000
  144.6763  140.0327  143.7482 LP  0  0  0  0  0  0  0  0  0  0  0  0  # atno 17320 bound_to 7965
  145.9828  139.2954  143.1032 LP  0  0  0  0  0  0  0  0  0  0  0  0  # atno 17321 bound_to 7965
  139.9791  143.5971  152.2949 LP  0  0  0  0  0  0  0  0  0  0  0  0  # atno 17342 bound_to 10162
  139.6586  144.7662  151.2008 LP  0  0  0  0  0  0  0  0  0  0  0  0  # atno 17343 bound_to 10162
  156.4813  130.4074  149.6460 LP  0  0  0  0  0  0  0  0  0  0  0  0  # atno 17370 bound_to 10713
  156.3505  130.7429  151.2388 LP  0  0  0  0  0  0  0  0  0  0  0  0  # atno 17371 bound_to 10713
  141.1622  133.6538  156.4359 LP  0  0  0  0  0  0  0  0  0  0  0  0  # atno 17394 bound_to 11000
  140.4775  134.6696  157.5156 LP  0  0  0  0  0  0  0  0  0  0  0  0  # atno 17395 bound_to 11000

$$$$
