AV-unprocessed.smi:1240|AV-procd|sdf|5206|dock2
  -GOLD-   22720 4293D 1   1.00000     0.00000
 Structure written by MMmdl.
 48 50  0  0  0  0  0  0  0  0  2 V2000
  145.3012  134.9630  153.9742 O   0  0  0  0  0  0  0  0  0  0  0  0
  146.3181  135.1993  153.3225 C   0  0  0  0  0  0  0  0  0  0  0  0
  147.2935  136.0151  153.7462 N   0  0  0  0  0  0  0  0  0  0  0  0
  147.2950  136.7263  155.0212 C   0  0  0  0  0  0  0  0  0  0  0  0
  148.6846  137.3289  155.3759 C   0  0  1  0  0  0  0  0  0  0  0  0
  148.9781  138.6519  154.6055 C   0  0  1  0  0  0  0  0  0  0  0  0
  148.1609  139.8945  154.9680 C   0  0  0  0  0  0  0  0  0  0  0  0
  149.1928  141.0249  154.9826 C   0  0  0  0  0  0  0  0  0  0  0  0
  150.2999  140.5100  154.2585 O   0  0  0  0  0  0  0  0  0  0  0  0
  150.4290  139.1467  154.6260 C   0  0  0  0  0  0  0  0  0  0  0  0
  148.9944  137.3671  156.8184 N   0  0  0  0  0  0  0  0  0  0  0  0
  148.3936  136.3036  157.6211 C   0  0  0  0  0  0  0  0  0  0  0  0
  148.6956  136.4799  159.1197 C   0  0  0  0  0  0  0  0  0  0  0  0
  150.1018  136.5631  159.3259 O   0  0  0  0  0  0  0  0  0  0  0  0
  150.6979  137.6359  158.6043 C   0  0  0  0  0  0  0  0  0  0  0  0
  150.4252  137.4532  157.1023 C   0  0  0  0  0  0  0  0  0  0  0  0
  146.6126  134.6695  152.1226 N   0  0  0  0  0  0  0  0  0  0  0  0
  145.8414  133.7675  151.3398 C   0  0  0  0  0  0  0  0  0  0  0  0
  144.4583  133.6812  151.6147 C   0  0  0  0  0  0  0  0  0  0  0  0
  143.6557  132.7898  150.8740 C   0  0  0  0  0  0  0  0  0  0  0  0
  144.2144  132.0188  149.9167 N   0  3  0  0  0  0  0  0  0  0  0  0
  145.5328  132.0550  149.6278 C   0  0  0  0  0  0  0  0  0  0  0  0
  146.3856  132.9272  150.3350 C   0  0  0  0  0  0  0  0  0  0  0  0
  148.0977  136.1509  153.1512 H   0  0  0  0  0  0  0  0  0  0  0  0
  146.5398  137.5089  154.9596 H   0  0  0  0  0  0  0  0  0  0  0  0
  146.9513  136.0401  155.7951 H   0  0  0  0  0  0  0  0  0  0  0  0
  149.4120  136.6329  154.9553 H   0  0  0  0  0  0  0  0  0  0  0  0
  148.7584  138.4571  153.5546 H   0  0  0  0  0  0  0  0  0  0  0  0
  147.4032  140.0749  154.2046 H   0  0  0  0  0  0  0  0  0  0  0  0
  147.6407  139.8259  155.9219 H   0  0  0  0  0  0  0  0  0  0  0  0
  148.8155  141.9451  154.5362 H   0  0  0  0  0  0  0  0  0  0  0  0
  149.5055  141.2457  156.0042 H   0  0  0  0  0  0  0  0  0  0  0  0
  150.8783  139.0939  155.6182 H   0  0  0  0  0  0  0  0  0  0  0  0
  151.0683  138.6018  153.9312 H   0  0  0  0  0  0  0  0  0  0  0  0
  147.3130  136.2994  157.4978 H   0  0  0  0  0  0  0  0  0  0  0  0
  148.7606  135.3309  157.2931 H   0  0  0  0  0  0  0  0  0  0  0  0
  148.2131  137.3792  159.5054 H   0  0  0  0  0  0  0  0  0  0  0  0
  148.3007  135.6372  159.6872 H   0  0  0  0  0  0  0  0  0  0  0  0
  150.3013  138.5890  158.9579 H   0  0  0  0  0  0  0  0  0  0  0  0
  151.7706  137.6429  158.7973 H   0  0  0  0  0  0  0  0  0  0  0  0
  150.9340  136.5493  156.7683 H   0  0  0  0  0  0  0  0  0  0  0  0
  150.8657  138.2853  156.5518 H   0  0  0  0  0  0  0  0  0  0  0  0
  147.5243  134.8947  151.7524 H   0  0  0  0  0  0  0  0  0  0  0  0
  144.0110  134.2966  152.3819 H   0  0  0  0  0  0  0  0  0  0  0  0
  142.5918  132.6702  151.0185 H   0  0  0  0  0  0  0  0  0  0  0  0
  145.8659  131.3853  148.8486 H   0  0  0  0  0  0  0  0  0  0  0  0
  147.4390  132.9247  150.1011 H   0  0  0  0  0  0  0  0  0  0  0  0
  143.6163  131.3789  149.3929 H   0  0  0  0  0  0  0  0  0  0  0  0
  1  2  2  0  0  0  0
  2  3  1  0  0  0  0
  2 17  1  0  0  0  0
  3  4  1  0  0  0  0
  3 24  1  0  0  0  0
  4  5  1  0  0  0  0
  4 25  1  0  0  0  0
  4 26  1  0  0  0  0
  5  6  1  0  0  0  0
  5 11  1  0  0  0  0
  5 27  1  0  0  0  0
  6 10  1  0  0  0  0
  6  7  1  0  0  0  0
  6 28  1  0  0  0  0
  7  8  1  0  0  0  0
  7 29  1  0  0  0  0
  7 30  1  0  0  0  0
  8  9  1  0  0  0  0
  8 31  1  0  0  0  0
  8 32  1  0  0  0  0
  9 10  1  0  0  0  0
 10 33  1  0  0  0  0
 10 34  1  0  0  0  0
 11 16  1  0  0  0  0
 11 12  1  0  0  0  0
 12 13  1  0  0  0  0
 12 35  1  0  0  0  0
 12 36  1  0  0  0  0
 13 14  1  0  0  0  0
 13 37  1  0  0  0  0
 13 38  1  0  0  0  0
 14 15  1  0  0  0  0
 15 16  1  0  0  0  0
 15 39  1  0  0  0  0
 15 40  1  0  0  0  0
 16 41  1  0  0  0  0
 16 42  1  0  0  0  0
 17 18  1  0  0  0  0
 17 43  1  0  0  0  0
 18 23  1  0  0  0  0
 18 19  2  0  0  0  0
 19 20  1  0  0  0  0
 19 44  1  0  0  0  0
 20 21  2  0  0  0  0
 20 45  1  0  0  0  0
 21 22  1  0  0  0  0
 21 48  1  0  0  0  0
 22 23  2  0  0  0  0
 22 46  1  0  0  0  0
 23 47  1  0  0  0  0
M  CHG  1  21   1
M  END
> <s_m_source_file>
AV-unprocessed.smi

> <i_m_source_file_index>
1240

> <i_lp_mmshare_version>
43012

> <i_f3d_flags>
0

> <s_epik_input>
W2NIXTFbY0hdbltjSF1bY0hdYzFbTkhdQyg9TylbTkhdW0NIMl1bQ0BIXShbQ0BASF0yW0NIMl1bQ0gyXU9bQ0gyXTIpTjNbQ0gyXVtDSDJdT1tDSDJdW0NIMl0z

> <s_epik_cmdline>
J2VwaWtfcHl0aG9uJywgJy1waCcsICc3LjAnLCAnLXRuJywgJzgnLCAnLW1hJywgJzIwMCcsICctbWV0YWxfYmluZGluZycsICctaW1hZScsICc8aW5maWxlLm1hZT4nLCAnLW9tYWUnLCAnPG91dGZpbGUubWFlPic=

> <r_epik_Ionization_Penalty>
1.15944

> <r_epik_Ionization_Penalty_Charging>
1.0344

> <r_epik_Ionization_Penalty_Neutral>
0.125034

> <r_epik_State_Penalty>
1.2199

> <r_epik_Charging_Adjusted_Penalty>
2.25431

> <i_epik_Tot_Q>
1

> <i_epik_Tot_abs_Q>
1

> <r_epik_Metal_State_Penalty>
1.3155

> <b_epik_Metal_Only>
0

> <s_lp_Force_Field>
OPLS_2005

> <r_lp_Energy>
63.7867

> <b_lp_Chiralities_Consistent>
1

> <s_lp_Variant>
AV-unprocessed.smi:1240-12

> <Gold.Version>
5.8.1

> <Gold.Id.Protein>
6NUR|6NUR_protein|mol2

> <Gold.PLP.Fitness>
41.3464

> <Gold.PLP.PLP>
-31.4362

> <Gold.PLP.part.hbond>
-3.6008

> <Gold.PLP.part.metal>
0.0000

> <Gold.PLP.part.buried>
-5.3418

> <Gold.PLP.part.nonpolar>
-22.8846

> <Gold.PLP.part.repulsive>
0.3391

> <Gold.PLP.ligand.clash>
0.0000

> <Gold.PLP.ligand.torsion>
0.9169

> <Gold.PLP.Chemscore.Hbond>
3.8157

> <Gold.PLP.Chemscore.CHOScore>
0.0000

> <Gold.PLP.Chemscore.Metal>
0.0000

> <Gold.Chemscore.Hbonds>
donor molecule, donor type, donor heavy atom, donor atom, acceptor molecule, acceptor atom, score
      L1  H     3    24       P1  7948  1.00
      L1  H    17    43       P1  7948  0.88
      P1  H  6896  6909       L1    14  1.00
      P1  H  7989  7998       L1     9  0.88

> <Gold.PLP.Chemscore.Internal.Correction>
0.2968

> <Gold.Rescore>
     Score         DG    S(hbond)    S(metal)    S(lipo)     H(rot)  DE(clash)    DE(int)     intcor
     19.01     -21.74       3.54        0.00      74.93       1.69       0.01       2.72       ----

> <Gold.Chemscore.Fitness>
19.0073

> <Gold.Chemscore.DG>
-21.7382

> <Gold.Chemscore.ZeroCoef>
-5.4800

> <Gold.Chemscore.Hbond>
3.5391

> <Gold.Chemscore.Metal>
0.0000

> <Gold.Chemscore.Lipo>
74.9330

> <Gold.Chemscore.Internal_Hbond>
0.0000

> <Gold.Chemscore.DEClash>
0.0135

> <Gold.Chemscore.DEInternal>
2.7173

> <Gold.Chemscore.Rot>
1.6912

> <Gold.Chemscore.Internal.Correction>
   9.000000E+99

> <Gold.Chemscore.Hbonds>
donor molecule, donor type, donor heavy atom, donor atom, acceptor molecule, acceptor atom, score
      L1  H     3    24       P1  7948  0.95
      L1  H    17    43       P1  7948  0.60
      P1  H  6896  6909       L1    14  0.61
      P1  H  7989  7998       L1     9  0.50

> <Gold.Chemscore.Hbond.Weighted>
-11.8204

> <Gold.Chemscore.Metal.Weighted>
-0.0000

> <Gold.Chemscore.Lipo.Weighted>
-8.7672

> <Gold.Chemscore.Internal_Hbond.Weighted>
0.0000

> <Gold.Chemscore.DEClash.Weighted>
0.0135

> <Gold.Chemscore.DEInternal.Weighted>
2.7173

> <Gold.Chemscore.Rot.Weighted>
4.3295

> <Gold.Chemscore.Internal.Correction.Weighted>
   9.000000E+99

> <Gold.Protein.RotatedTorsions>
[ 6907 6896 6895 6894 ] final   61.83 input  -60.11 | X-H torsion
[ 7974 7965 7964 7962 ] final  -31.53 input  175.53 | X-H torsion
[ 8008 7997 7996 7995 ] final -149.51 input   59.86 | X-H torsion
[ 10167 10162 10161 10158 ] final -105.78 input  -65.29 | X-H torsion
[ 10718 10713 10712 10709 ] final  -87.43 input   66.30 | X-H torsion
[ 10763 10752 10751 10750 ] final  174.52 input  -60.55 | X-H torsion
[ 11005 11000 10999 10996 ] final  -72.66 input  -57.11 | X-H torsion

> <Gold.Protein.ActiveResidues>
 VAL166  LYS551  ARG553  GLY616  TRP617  ASP618  TYR619  PRO620  LYS621  CYS622 
 ASP623  PHE694  ASN695  SER759  ASP760  ASP761  ALA762  ILE779  LEU786  VAL792 
 PHE793  MET794  SER795  GLU796  ALA797  LYS798  CYS799  TRP800  GLU811  SER814 

> <Gold.Protein.RotatedAtoms>
  152.4121  134.6105  160.0024 H   0  0  0  0  0  0  0  0  0  0  0  0  # atno 6907 bound_to 6896
  151.6279  133.3328  159.3110 H   0  0  0  0  0  0  0  0  0  0  0  0  # atno 6908 bound_to 6896
  150.8012  134.7146  159.6668 H   0  0  0  0  0  0  0  0  0  0  0  0  # atno 6909 bound_to 6896
  146.1060  140.5679  142.8799 H   0  0  0  0  0  0  0  0  0  0  0  0  # atno 7974 bound_to 7965
  155.6088  140.0669  157.2712 H   0  0  0  0  0  0  0  0  0  0  0  0  # atno 8008 bound_to 7997
  154.4259  140.1805  156.1298 H   0  0  0  0  0  0  0  0  0  0  0  0  # atno 8009 bound_to 7997
  156.0101  140.3327  155.6936 H   0  0  0  0  0  0  0  0  0  0  0  0  # atno 8010 bound_to 7997
  140.1949  143.3863  152.1177 H   0  0  0  0  0  0  0  0  0  0  0  0  # atno 10167 bound_to 10162
  155.9985  130.4800  150.4867 H   0  0  0  0  0  0  0  0  0  0  0  0  # atno 10718 bound_to 10713
  154.4550  135.2766  155.1754 H   0  0  0  0  0  0  0  0  0  0  0  0  # atno 10763 bound_to 10752
  154.3565  135.6138  153.5672 H   0  0  0  0  0  0  0  0  0  0  0  0  # atno 10764 bound_to 10752
  152.9850  135.5824  154.4901 H   0  0  0  0  0  0  0  0  0  0  0  0  # atno 10765 bound_to 10752
  141.1612  133.6853  156.7092 H   0  0  0  0  0  0  0  0  0  0  0  0  # atno 11005 bound_to 11000
  144.7471  140.5096  143.6828 LP  0  0  0  0  0  0  0  0  0  0  0  0  # atno 17320 bound_to 7965
  145.5760  139.1486  143.3262 LP  0  0  0  0  0  0  0  0  0  0  0  0  # atno 17321 bound_to 7965
  139.5241  144.7079  151.5297 LP  0  0  0  0  0  0  0  0  0  0  0  0  # atno 17342 bound_to 10162
  140.6430  143.8850  150.6710 LP  0  0  0  0  0  0  0  0  0  0  0  0  # atno 17343 bound_to 10162
  157.2866  131.0618  151.2162 LP  0  0  0  0  0  0  0  0  0  0  0  0  # atno 17370 bound_to 10713
  157.3189  130.6927  149.6258 LP  0  0  0  0  0  0  0  0  0  0  0  0  # atno 17371 bound_to 10713
  140.2900  134.8248  157.4008 LP  0  0  0  0  0  0  0  0  0  0  0  0  # atno 17394 bound_to 11000
  140.1355  134.5039  155.8071 LP  0  0  0  0  0  0  0  0  0  0  0  0  # atno 17395 bound_to 11000

$$$$
