#       Name:                AV-unprocessed.smi:1140
#       Creating user name   scv26
#       Creation time:       Fri Mar 27 03:44:21 2020


#       File generated by GOLD software.
#

@<TRIPOS>MOLECULE
AV-unprocessed.smi:1140
    55    57     1
SMALL
NO_CHARGES


@<TRIPOS>ATOM
      1 ****        -3.2747   5.3323  -0.4787 C.3            1 S1                 0.0000
      2 ****        -1.7928   5.7101  -0.4164 C.3            1 S1                 0.0000
      3 ****        -1.0153   4.5167  -0.4407 O.3            1 S1                 0.0000
      4 ****         0.3626   4.6214  -0.4138 C.ar           1 S1                 0.0000
      5 ****         0.9150   5.8594  -0.3543 N.ar           1 S1                 0.0000
      6 ****         2.2594   5.9631  -0.3238 C.ar           1 S1                 0.0000
      7 ****         3.1184   4.8494  -0.3443 C.ar           1 S1                 0.0000
      8 ****         2.5484   3.5646  -0.4056 C.ar           1 S1                 0.0000
      9 ****         1.1386   3.4395  -0.4530 C.ar           1 S1                 0.0000
     10 ****         0.4622   2.1892  -0.4919 N.am           1 S1                 0.0000
     11 ****         0.9239   1.0024  -0.9207 C.2            1 S1                 0.0000
     12 ****         2.0272   0.8115  -1.4321 O.2            1 S1                 0.0000
     13 ****         0.0146   0.0341  -0.7398 N.am           1 S1                 0.0000
     14 ****         0.1938  -1.3687  -1.1027 C.3            1 S1                 0.0000
     15 ****        -1.1851  -2.0515  -1.2251 C.3            1 S1                 0.0000
     16 ****        -1.0413  -3.5713  -1.4237 C.3            1 S1                 0.0000
     17 ****        -0.2574  -4.1250  -0.3127 N.am           1 S1                 0.0000
     18 ****        -0.8184  -4.8694   0.6731 C.2            1 S1                 0.0000
     19 ****        -2.0194  -5.1437   0.6874 O.2            1 S1                 0.0000
     20 ****         0.0930  -5.3745   1.7485 C.3            1 S1                 0.0000
     21 ****        -0.5270  -5.8544   3.0485 C.3            1 S1                 0.0000
     22 ****         0.2011  -4.5367   3.0054 C.3            1 S1                 0.0000
     23 ****         1.1206  -3.6131  -0.3269 C.3            1 S1                 0.0000
     24 ****         1.0890  -2.0955  -0.0717 C.3            1 S1                 0.0000
     25 ****        -3.9043   6.2222  -0.4687 H              1 S1                 0.0000
     26 ****        -3.5578   4.7127   0.3724 H              1 S1                 0.0000
     27 ****        -3.4982   4.7752  -1.3888 H              1 S1                 0.0000
     28 ****        -1.5428   6.3457  -1.2674 H              1 S1                 0.0000
     29 ****        -1.5961   6.2743   0.4967 H              1 S1                 0.0000
     30 ****         2.6632   6.9635  -0.2747 H              1 S1                 0.0000
     31 ****         4.1902   4.9770  -0.3077 H              1 S1                 0.0000
     32 ****         3.2005   2.7050  -0.3979 H              1 S1                 0.0000
     33 ****        -0.5029   2.2121  -0.1961 H              1 S1                 0.0000
     34 ****        -0.8688   0.2847  -0.3204 H              1 S1                 0.0000
     35 ****         0.6779  -1.4218  -2.0799 H              1 S1                 0.0000
     36 ****        -1.7737  -1.8642  -0.3253 H              1 S1                 0.0000
     37 ****        -1.7444  -1.6198  -2.0557 H              1 S1                 0.0000
     38 ****        -2.0269  -4.0295  -1.5156 H              1 S1                 0.0000
     39 ****        -0.5316  -3.7802  -2.3655 H              1 S1                 0.0000
     40 ****         0.9749  -5.9210   1.4189 H              1 S1                 0.0000
     41 ****        -1.6083  -5.8175   3.1674 H              1 S1                 0.0000
     42 ****        -0.0400  -6.6894   3.5481 H              1 S1                 0.0000
     43 ****         1.1812  -4.4750   3.4736 H              1 S1                 0.0000
     44 ****        -0.3988  -3.6304   3.0700 H              1 S1                 0.0000
     45 ****         1.7791  -4.0872   0.3988 H              1 S1                 0.0000
     46 ****         1.5692  -3.8171  -1.3003 H              1 S1                 0.0000
     47 ****         2.1034  -1.6965  -0.1032 H              1 S1                 0.0000
     48 ****         0.7164  -1.9108   0.9372 H              1 S1                 0.0000
     49 ****        -1.2568   4.0250  -1.2774 LP             1 S1                 0.0000
     50 ****        -1.2847   3.9736   0.3546 LP             1 S1                 0.0000
     51 ****         0.3385   6.6762  -0.3336 LP             1 S1                 0.0000
     52 ****         2.6600   1.5759  -1.5558 LP             1 S1                 0.0000
     53 ****         2.2908  -0.1080  -1.7238 LP             1 S1                 0.0000
     54 ****        -2.6161  -4.8149  -0.0446 LP             1 S1                 0.0000
     55 ****        -2.3974  -5.6953   1.4309 LP             1 S1                 0.0000
@<TRIPOS>BOND
    1    1    2 1     
    2    1   25 1     
    3    1   26 1     
    4    1   27 1     
    5    2    3 1     
    6    2   28 1     
    7    2   29 1     
    8    3    4 1     
    9    4    9 ar    
   10    4    5 ar    
   11    5    6 ar    
   12    6    7 ar    
   13    6   30 1     
   14    7    8 ar    
   15    7   31 1     
   16    8    9 ar    
   17    8   32 1     
   18    9   10 1     
   19   10   11 am    
   20   10   33 1     
   21   11   12 2     
   22   11   13 am    
   23   13   14 1     
   24   13   34 1     
   25   14   24 1     
   26   14   15 1     
   27   14   35 1     
   28   15   16 1     
   29   15   36 1     
   30   15   37 1     
   31   16   17 1     
   32   16   38 1     
   33   16   39 1     
   34   17   18 am    
   35   17   23 1     
   36   18   19 2     
   37   18   20 1     
   38   20   22 1     
   39   20   21 1     
   40   20   40 1     
   41   21   22 1     
   42   21   41 1     
   43   21   42 1     
   44   22   43 1     
   45   22   44 1     
   46   23   24 1     
   47   23   45 1     
   48   23   46 1     
   49   24   47 1     
   50   24   48 1     
   51    3   49 1     
   52    3   50 1     
   53    5   51 1     
   54   12   52 1     
   55   12   53 1     
   56   19   54 1     
   57   19   55 1     
@<TRIPOS>SUBSTRUCTURE
      1 S1             1
@<TRIPOS>SET
LONE_PAIRS      STATIC     ATOMS    <user>   **** ""
7 49 50 51 52 53 54 55
DONOR_HYDROGENS      STATIC     ATOMS    <user>   **** ""
2 33 34
ATOM$BLUE        STATIC     ATOMS    COLORGROUP SYSTEM
7 49 50 51 52 53 54 55
ATOM$RED        STATIC     ATOMS    COLORGROUP SYSTEM
2 33 34
