AV-unprocessed.smi:2832|AV-procd|sdf|10913|dock4
  -GOLD-   2272015363D 1   1.00000     0.00000
 Structure written by MMmdl.
 33 33  0  0  0  0  0  0  0  0  2 V2000
  147.9657  140.7008  154.3957 C   0  0  0  0  0  0  0  0  0  0  0  0
  148.0558  139.1908  154.6418 C   0  0  0  0  0  0  0  0  0  0  0  0
  149.5081  138.6686  154.5608 C   0  0  0  0  0  0  0  0  0  0  0  0
  150.4071  138.9262  155.8057 C   0  0  2  0  0  0  0  0  0  0  0  0
  149.8342  138.1380  157.0107 C   0  0  0  0  0  0  0  0  0  0  0  0
  150.5004  140.3802  156.0258 N   0  0  0  0  0  0  0  0  0  0  0  0
  151.0040  141.1036  157.0429 C   0  0  0  0  0  0  0  0  0  0  0  0
  151.4047  140.6415  158.1101 O   0  0  0  0  0  0  0  0  0  0  0  0
  151.0603  142.6138  156.8083 C   0  0  0  0  0  0  0  0  0  0  0  0
  151.5256  143.3131  157.9950 N   0  0  0  0  0  0  0  0  0  0  0  0
  150.9787  144.4206  158.6127 C   0  0  0  0  0  0  0  0  0  0  0  0
  151.7579  144.7098  159.6958 C   0  0  0  0  0  0  0  0  0  0  0  0
  152.7676  143.7081  159.6624 C   0  0  0  0  0  0  0  0  0  0  0  0
  152.6231  142.8710  158.6479 N   0  0  0  0  0  0  0  0  0  0  0  0
  151.8538  138.4099  155.6050 C   0  0  0  0  0  0  0  0  0  0  0  0
  152.0290  137.1969  155.3530 O   0  0  0  0  0  0  0  0  0  0  0  0
  152.7804  139.2432  155.7281 O   0  5  0  0  0  0  0  0  0  0  0  0
  146.9316  141.0415  154.4499 H   0  0  0  0  0  0  0  0  0  0  0  0
  148.3519  140.9629  153.4104 H   0  0  0  0  0  0  0  0  0  0  0  0
  148.5380  141.2549  155.1402 H   0  0  0  0  0  0  0  0  0  0  0  0
  147.6208  138.9689  155.6157 H   0  0  0  0  0  0  0  0  0  0  0  0
  147.4333  138.6811  153.9061 H   0  0  0  0  0  0  0  0  0  0  0  0
  149.4658  137.5933  154.3826 H   0  0  0  0  0  0  0  0  0  0  0  0
  149.9874  139.0826  153.6722 H   0  0  0  0  0  0  0  0  0  0  0  0
  149.8921  137.0618  156.8411 H   0  0  0  0  0  0  0  0  0  0  0  0
  148.7822  138.3677  157.1815 H   0  0  0  0  0  0  0  0  0  0  0  0
  150.3769  138.3480  157.9338 H   0  0  0  0  0  0  0  0  0  0  0  0
  150.2030  140.9226  155.2281 H   0  0  0  0  0  0  0  0  0  0  0  0
  151.7334  142.8429  155.9809 H   0  0  0  0  0  0  0  0  0  0  0  0
  150.0716  142.9814  156.5279 H   0  0  0  0  0  0  0  0  0  0  0  0
  150.0935  144.9087  158.2310 H   0  0  0  0  0  0  0  0  0  0  0  0
  151.6264  145.5154  160.4029 H   0  0  0  0  0  0  0  0  0  0  0  0
  153.5947  143.5644  160.3420 H   0  0  0  0  0  0  0  0  0  0  0  0
  1  2  1  0  0  0  0
  1 18  1  0  0  0  0
  1 19  1  0  0  0  0
  1 20  1  0  0  0  0
  2  3  1  0  0  0  0
  2 21  1  0  0  0  0
  2 22  1  0  0  0  0
  3  4  1  0  0  0  0
  3 23  1  0  0  0  0
  3 24  1  0  0  0  0
  4  5  1  0  0  0  0
  4  6  1  0  0  0  0
  4 15  1  0  0  0  0
  5 25  1  0  0  0  0
  5 26  1  0  0  0  0
  5 27  1  0  0  0  0
  6  7  1  0  0  0  0
  6 28  1  0  0  0  0
  7  8  2  0  0  0  0
  7  9  1  0  0  0  0
  9 10  1  0  0  0  0
  9 29  1  0  0  0  0
  9 30  1  0  0  0  0
 10 14  1  0  0  0  0
 10 11  1  0  0  0  0
 11 12  2  0  0  0  0
 11 31  1  0  0  0  0
 12 13  1  0  0  0  0
 12 32  1  0  0  0  0
 13 14  2  0  0  0  0
 13 33  1  0  0  0  0
 15 16  2  0  0  0  0
 15 17  1  0  0  0  0
M  CHG  1  17  -1
M  END
> <s_m_source_file>
AV-unprocessed.smi

> <i_m_source_file_index>
2832

> <i_lp_mmshare_version>
43012

> <i_f3d_flags>
0

> <s_epik_input>
W0NIM11bQ0gyXVtDSDJdW0NAXShbQ0gzXSkoQyg9TylbT0hdKVtOSF1DKD1PKVtDSDJdbjFbY0hdW2NIXVtjSF1uMQ==

> <s_epik_cmdline>
J2VwaWtfcHl0aG9uJywgJy1waCcsICc3LjAnLCAnLXRuJywgJzgnLCAnLW1hJywgJzIwMCcsICctbWV0YWxfYmluZGluZycsICctaW1hZScsICc8aW5maWxlLm1hZT4nLCAnLW9tYWUnLCAnPG91dGZpbGUubWFlPic=

> <r_lp_tautomer_probability>
1

> <r_epik_Ionization_Penalty>
0.000287256

> <r_epik_Ionization_Penalty_Charging>
0.00026921

> <r_epik_Ionization_Penalty_Neutral>
1.80463e-05

> <r_epik_State_Penalty>
-0

> <r_epik_Charging_Adjusted_Penalty>
0.00026921

> <i_epik_Tot_Q>
-1

> <i_epik_Tot_abs_Q>
1

> <r_epik_Metal_State_Penalty>
-0

> <b_epik_Metal_Only>
0

> <s_lp_Force_Field>
OPLS_2005

> <r_lp_Energy>
2.74442

> <b_lp_Chiralities_Consistent>
1

> <s_lp_Variant>
AV-unprocessed.smi:2832-2

> <Gold.Version>
5.8.1

> <Gold.Id.Protein>
6NUR|6NUR_protein|mol2

> <Gold.PLP.Fitness>
46.1687

> <Gold.PLP.PLP>
-32.5948

> <Gold.PLP.part.hbond>
-2.0000

> <Gold.PLP.part.metal>
0.0000

> <Gold.PLP.part.buried>
-4.4121

> <Gold.PLP.part.nonpolar>
-27.3756

> <Gold.PLP.part.repulsive>
0.1961

> <Gold.PLP.ligand.clash>
0.0000

> <Gold.PLP.ligand.torsion>
0.3845

> <Gold.PLP.Chemscore.Hbond>
3.7280

> <Gold.PLP.Chemscore.CHOScore>
1.0166

> <Gold.PLP.Chemscore.Metal>
0.0000

> <Gold.Chemscore.Hbonds>
donor molecule, donor type, donor heavy atom, donor atom, acceptor molecule, acceptor atom, score
      P1  H  7997  8009       L1    17  2.00
      P1  H 10752 10765       L1    16  1.73
      L1  C    11    31       P1  8028  0.13
      L1  C    11    31       P1  8029  0.74

> <Gold.PLP.Chemscore.Internal.Correction>
0.1091

> <Gold.Rescore>
     Score         DG    S(hbond)    S(metal)    S(lipo)     H(rot)  DE(clash)    DE(int)     intcor
     10.79     -14.00       1.91        0.00      72.27       2.47       0.09       3.11       ----

> <Gold.Chemscore.Fitness>
10.7912

> <Gold.Chemscore.DG>
-13.9961

> <Gold.Chemscore.ZeroCoef>
-5.4800

> <Gold.Chemscore.Hbond>
1.9131

> <Gold.Chemscore.Metal>
0.0000

> <Gold.Chemscore.Lipo>
72.2742

> <Gold.Chemscore.Internal_Hbond>
0.0000

> <Gold.Chemscore.DEClash>
0.0936

> <Gold.Chemscore.DEInternal>
3.1113

> <Gold.Chemscore.Rot>
2.4726

> <Gold.Chemscore.Internal.Correction>
   9.000000E+99

> <Gold.Chemscore.Hbonds>
donor molecule, donor type, donor heavy atom, donor atom, acceptor molecule, acceptor atom, score
      P1  H  7997  8009       L1    17  1.00
      P1  H 10752 10765       L1    16  0.82

> <Gold.Chemscore.Hbond.Weighted>
-6.3897

> <Gold.Chemscore.Metal.Weighted>
-0.0000

> <Gold.Chemscore.Lipo.Weighted>
-8.4561

> <Gold.Chemscore.Internal_Hbond.Weighted>
0.0000

> <Gold.Chemscore.DEClash.Weighted>
0.0936

> <Gold.Chemscore.DEInternal.Weighted>
3.1113

> <Gold.Chemscore.Rot.Weighted>
6.3297

> <Gold.Chemscore.Internal.Correction.Weighted>
   9.000000E+99

> <Gold.Protein.RotatedTorsions>
[ 6907 6896 6895 6894 ] final -156.13 input  -60.11 | X-H torsion
[ 7974 7965 7964 7962 ] final  170.14 input  175.53 | X-H torsion
[ 8008 7997 7996 7995 ] final -157.75 input   59.86 | X-H torsion
[ 10167 10162 10161 10158 ] final  -50.80 input  -65.29 | X-H torsion
[ 10718 10713 10712 10709 ] final   92.37 input   66.30 | X-H torsion
[ 10763 10752 10751 10750 ] final  175.13 input  -60.55 | X-H torsion
[ 11005 11000 10999 10996 ] final  123.62 input  -57.11 | X-H torsion

> <Gold.Protein.ActiveResidues>
 VAL166  LYS551  ARG553  GLY616  TRP617  ASP618  TYR619  PRO620  LYS621  CYS622 
 ASP623  PHE694  ASN695  SER759  ASP760  ASP761  ALA762  ILE779  LEU786  VAL792 
 PHE793  MET794  SER795  GLU796  ALA797  LYS798  CYS799  TRP800  GLU811  SER814 

> <Gold.Protein.RotatedAtoms>
  151.2830  133.4200  159.2627 H   0  0  0  0  0  0  0  0  0  0  0  0  # atno 6907 bound_to 6896
  151.0344  134.9562  159.8138 H   0  0  0  0  0  0  0  0  0  0  0  0  # atno 6908 bound_to 6896
  152.5352  134.2790  159.9053 H   0  0  0  0  0  0  0  0  0  0  0  0  # atno 6909 bound_to 6896
  144.7333  139.9158  143.6417 H   0  0  0  0  0  0  0  0  0  0  0  0  # atno 7974 bound_to 7965
  155.7372  140.0809  157.2262 H   0  0  0  0  0  0  0  0  0  0  0  0  # atno 8008 bound_to 7997
  154.4026  140.1584  156.2630 H   0  0  0  0  0  0  0  0  0  0  0  0  # atno 8009 bound_to 7997
  155.9054  140.3407  155.6061 H   0  0  0  0  0  0  0  0  0  0  0  0  # atno 8010 bound_to 7997
  140.6620  143.2644  151.4411 H   0  0  0  0  0  0  0  0  0  0  0  0  # atno 10167 bound_to 10162
  157.6959  131.0440  150.3871 H   0  0  0  0  0  0  0  0  0  0  0  0  # atno 10718 bound_to 10713
  154.4634  135.2768  155.1696 H   0  0  0  0  0  0  0  0  0  0  0  0  # atno 10763 bound_to 10752
  154.3474  135.6157  153.5629 H   0  0  0  0  0  0  0  0  0  0  0  0  # atno 10764 bound_to 10752
  152.9857  135.5803  154.5001 H   0  0  0  0  0  0  0  0  0  0  0  0  # atno 10765 bound_to 10752
  139.9321  134.9641  156.8287 H   0  0  0  0  0  0  0  0  0  0  0  0  # atno 11005 bound_to 11000
  146.0966  139.3959  143.0372 LP  0  0  0  0  0  0  0  0  0  0  0  0  # atno 17320 bound_to 7965
  145.7637  140.9925  143.1186 LP  0  0  0  0  0  0  0  0  0  0  0  0  # atno 17321 bound_to 7965
  139.5857  144.1610  152.2025 LP  0  0  0  0  0  0  0  0  0  0  0  0  # atno 17342 bound_to 10162
  140.0949  144.5589  150.7029 LP  0  0  0  0  0  0  0  0  0  0  0  0  # atno 17343 bound_to 10162
  156.4278  130.3966  149.6781 LP  0  0  0  0  0  0  0  0  0  0  0  0  # atno 17370 bound_to 10713
  156.4009  130.7674  151.2682 LP  0  0  0  0  0  0  0  0  0  0  0  0  # atno 17371 bound_to 10713
  140.6174  134.0026  155.7603 LP  0  0  0  0  0  0  0  0  0  0  0  0  # atno 17394 bound_to 11000
  141.0915  133.9909  157.3229 LP  0  0  0  0  0  0  0  0  0  0  0  0  # atno 17395 bound_to 11000

$$$$
