#       Name:                AV-unprocessed.smi:2881
#       Creating user name   scv26
#       Creation time:       Fri Mar 27 15:52:55 2020


#       File generated by GOLD software.
#

@<TRIPOS>MOLECULE
AV-unprocessed.smi:2881
    45    47     1
SMALL
NO_CHARGES


@<TRIPOS>ATOM
      1 ****        -3.5488   2.7730  -1.2547 C.3            1 S1                 0.0000
      2 ****        -2.9408   2.2692   0.0103 C.2            1 S1                 0.0000
      3 ****        -2.8297   1.0044   0.5146 C.2            1 S1                 0.0000
      4 ****        -2.1399   1.1757   1.7517 C.2            1 S1                 0.0000
      5 ****        -1.7147   0.1112   2.7298 C.3            1 S1                 0.0000
      6 ****        -0.2822  -0.3351   2.4305 C.2            1 S1                 0.0000
      7 ****         0.6070  -0.1576   3.2624 O.2            1 S1                 0.0000
      8 ****        -0.0722  -0.8930   1.2276 N.am           1 S1                 0.0000
      9 ****         1.2267  -1.2778   0.6785 C.3            1 S1                 0.0000
     10 ****         1.0599  -2.4700  -0.2880 C.3            1 S1                 0.0000
     11 ****         2.4412  -3.0890  -0.5687 C.3            1 S1                 0.0000
     12 ****         3.1073  -2.0269  -1.4642 C.3            1 S1                 0.0000
     13 ****         2.0199  -0.9397  -1.5748 C.3            1 S1                 0.0000
     14 ****         0.7523  -1.7837  -1.6135 C.3            1 S1                 0.0000
     15 ****         1.8975  -0.1950  -0.2223 C.3            1 S1                 0.0000
     16 ****         1.1544   1.1575  -0.3340 C.3            1 S1                 0.0000
     17 ****         1.9028   2.0715  -1.1074 O.3            1 S1                 0.0000
     18 ****        -1.8557   2.4473   1.9979 N.2            1 S1                 0.0000
     19 ****        -2.3461   3.1024   0.9297 N.pl3          1 S1                 0.0000
     20 ****        -2.2704   4.1060   0.8433 H              1 S1                 0.0000
     21 ****        -3.0232   2.3701  -2.1205 H              1 S1                 0.0000
     22 ****        -3.5046   3.8611  -1.3103 H              1 S1                 0.0000
     23 ****        -4.5949   2.4745  -1.3255 H              1 S1                 0.0000
     24 ****        -3.1800   0.0881   0.0627 H              1 S1                 0.0000
     25 ****        -1.7784   0.4795   3.7547 H              1 S1                 0.0000
     26 ****        -2.3769  -0.7528   2.6669 H              1 S1                 0.0000
     27 ****        -0.8692  -1.0043   0.6175 H              1 S1                 0.0000
     28 ****         1.8915  -1.5588   1.4978 H              1 S1                 0.0000
     29 ****         0.3195  -3.2034   0.0344 H              1 S1                 0.0000
     30 ****         3.0063  -3.2805   0.3440 H              1 S1                 0.0000
     31 ****         2.3418  -4.0337  -1.1045 H              1 S1                 0.0000
     32 ****         4.0365  -1.6457  -1.0396 H              1 S1                 0.0000
     33 ****         3.3374  -2.4452  -2.4449 H              1 S1                 0.0000
     34 ****         2.1586  -0.2847  -2.4353 H              1 S1                 0.0000
     35 ****         0.7169  -2.4728  -2.4590 H              1 S1                 0.0000
     36 ****        -0.1662  -1.1953  -1.5970 H              1 S1                 0.0000
     37 ****         2.8944   0.0167   0.1680 H              1 S1                 0.0000
     38 ****         0.1665   1.0395  -0.7797 H              1 S1                 0.0000
     39 ****         1.0149   1.6010   0.6521 H              1 S1                 0.0000
     40 ****         1.4391   2.8947  -1.1304 H              1 S1                 0.0000
     41 ****         0.3941   0.2793   4.1364 LP             1 S1                 0.0000
     42 ****         1.5426  -0.4501   3.0645 LP             1 S1                 0.0000
     43 ****         2.0099   1.7186  -2.0369 LP             1 S1                 0.0000
     44 ****         2.8043   2.2035  -0.6951 LP             1 S1                 0.0000
     45 ****        -1.3858   2.8306   2.7931 LP             1 S1                 0.0000
@<TRIPOS>BOND
    1    1    2 1     
    2    1   21 1     
    3    1   22 1     
    4    1   23 1     
    5    2   19 1     
    6    2    3 2     
    7    3    4 1     
    8    3   24 1     
    9    4    5 1     
   10    4   18 2     
   11    5    6 1     
   12    5   25 1     
   13    5   26 1     
   14    6    7 2     
   15    6    8 am    
   16    8    9 1     
   17    8   27 1     
   18    9   15 1     
   19    9   10 1     
   20    9   28 1     
   21   10   14 1     
   22   10   11 1     
   23   10   29 1     
   24   11   12 1     
   25   11   30 1     
   26   11   31 1     
   27   12   13 1     
   28   12   32 1     
   29   12   33 1     
   30   13   14 1     
   31   13   15 1     
   32   13   34 1     
   33   14   35 1     
   34   14   36 1     
   35   15   16 1     
   36   15   37 1     
   37   16   17 1     
   38   16   38 1     
   39   16   39 1     
   40   17   40 1     
   41   18   19 1     
   42   19   20 1     
   43    7   41 1     
   44    7   42 1     
   45   17   43 1     
   46   17   44 1     
   47   18   45 1     
@<TRIPOS>SUBSTRUCTURE
      1 S1             1
@<TRIPOS>SET
LONE_PAIRS      STATIC     ATOMS    <user>   **** ""
5 41 42 43 44 45
DONOR_HYDROGENS      STATIC     ATOMS    <user>   **** ""
3 27 40 20
ATOM$BLUE        STATIC     ATOMS    COLORGROUP SYSTEM
5 41 42 43 44 45
ATOM$RED        STATIC     ATOMS    COLORGROUP SYSTEM
3 27 40 20
