AV-unprocessed.smi:313|AV-procd|sdf|2309|dock5
  -GOLD-   2262022203D 1   1.00000     0.00000
 Structure written by MMmdl.
 50 51  0  0  0  0  0  0  0  0  1 V2000
  144.3616  135.2007  150.7146 C   0  0  0  0  0  0  0  0  0  0  0  0
  145.7549  135.1397  151.3577 C   0  0  0  0  0  0  0  0  0  0  0  0
  145.7340  135.2640  152.8928 C   0  0  2  0  0  0  0  0  0  0  0  0
  145.0666  136.5722  153.3457 C   0  0  0  0  0  0  0  0  0  0  0  0
  147.0931  135.1864  153.4227 N   0  0  0  0  0  0  0  0  0  0  0  0
  147.4281  135.2238  154.7216 C   0  0  0  0  0  0  0  0  0  0  0  0
  146.6026  135.3285  155.6305 O   0  0  0  0  0  0  0  0  0  0  0  0
  148.9286  135.1057  155.0341 C   0  0  2  0  0  0  0  0  0  0  0  0
  149.1132  133.9776  156.0623 C   0  0  0  0  0  0  0  0  0  0  0  0
  149.4357  136.3430  155.6253 N   0  0  0  0  0  0  0  0  0  0  0  0
  150.6387  136.8869  155.3746 C   0  0  0  0  0  0  0  0  0  0  0  0
  151.4550  136.3998  154.5920 O   0  0  0  0  0  0  0  0  0  0  0  0
  150.9190  138.1885  156.0681 C   0  0  0  0  0  0  0  0  0  0  0  0
  149.9746  138.7914  156.9273 C   0  0  0  0  0  0  0  0  0  0  0  0
  150.3060  139.9987  157.5714 C   0  0  0  0  0  0  0  0  0  0  0  0
  151.5795  140.5742  157.3498 C   0  0  0  0  0  0  0  0  0  0  0  0
  151.9343  141.7815  157.9900 N   0  0  0  0  0  0  0  0  0  0  0  0
  151.2263  142.9725  157.5262 C   0  0  0  0  0  0  0  0  0  0  0  0
  151.9003  144.2439  158.0704 C   0  0  0  0  0  0  0  0  0  0  0  0
  151.9909  144.1721  159.4893 O   0  0  0  0  0  0  0  0  0  0  0  0
  152.7816  143.0671  159.9137 C   0  0  0  0  0  0  0  0  0  0  0  0
  152.1349  141.7554  159.4378 C   0  0  0  0  0  0  0  0  0  0  0  0
  152.4854  139.9921  156.5260 N   0  0  0  0  0  0  0  0  0  0  0  0
  152.1645  138.8332  155.9124 C   0  0  0  0  0  0  0  0  0  0  0  0
  144.4355  135.1570  149.6279 H   0  0  0  0  0  0  0  0  0  0  0  0
  143.8492  136.1271  150.9751 H   0  0  0  0  0  0  0  0  0  0  0  0
  143.7338  134.3688  151.0348 H   0  0  0  0  0  0  0  0  0  0  0  0
  146.2447  134.2091  151.0680 H   0  0  0  0  0  0  0  0  0  0  0  0
  146.3641  135.9437  150.9426 H   0  0  0  0  0  0  0  0  0  0  0  0
  145.1487  134.4303  153.2856 H   0  0  0  0  0  0  0  0  0  0  0  0
  144.0442  136.6403  152.9736 H   0  0  0  0  0  0  0  0  0  0  0  0
  145.6118  137.4433  152.9810 H   0  0  0  0  0  0  0  0  0  0  0  0
  145.0231  136.6382  154.4334 H   0  0  0  0  0  0  0  0  0  0  0  0
  147.8379  135.0944  152.7472 H   0  0  0  0  0  0  0  0  0  0  0  0
  149.4876  134.8697  154.1264 H   0  0  0  0  0  0  0  0  0  0  0  0
  148.7583  133.0230  155.6712 H   0  0  0  0  0  0  0  0  0  0  0  0
  148.5735  134.1791  156.9891 H   0  0  0  0  0  0  0  0  0  0  0  0
  150.1663  133.8519  156.3158 H   0  0  0  0  0  0  0  0  0  0  0  0
  148.8168  136.8311  156.2560 H   0  0  0  0  0  0  0  0  0  0  0  0
  149.0067  138.3436  157.0997 H   0  0  0  0  0  0  0  0  0  0  0  0
  149.5797  140.4712  158.2155 H   0  0  0  0  0  0  0  0  0  0  0  0
  151.1957  143.0271  156.4391 H   0  0  0  0  0  0  0  0  0  0  0  0
  150.1924  142.9223  157.8703 H   0  0  0  0  0  0  0  0  0  0  0  0
  152.8935  144.3729  157.6375 H   0  0  0  0  0  0  0  0  0  0  0  0
  151.3175  145.1233  157.7966 H   0  0  0  0  0  0  0  0  0  0  0  0
  153.7976  143.1628  159.5274 H   0  0  0  0  0  0  0  0  0  0  0  0
  152.8521  143.0777  161.0013 H   0  0  0  0  0  0  0  0  0  0  0  0
  151.1736  141.6129  159.9333 H   0  0  0  0  0  0  0  0  0  0  0  0
  152.7739  140.9162  159.7156 H   0  0  0  0  0  0  0  0  0  0  0  0
  152.9300  138.4152  155.2750 H   0  0  0  0  0  0  0  0  0  0  0  0
  1  2  1  0  0  0  0
  1 25  1  0  0  0  0
  1 26  1  0  0  0  0
  1 27  1  0  0  0  0
  2  3  1  0  0  0  0
  2 28  1  0  0  0  0
  2 29  1  0  0  0  0
  3  4  1  0  0  0  0
  3  5  1  0  0  0  0
  3 30  1  0  0  0  0
  4 31  1  0  0  0  0
  4 32  1  0  0  0  0
  4 33  1  0  0  0  0
  5  6  1  0  0  0  0
  5 34  1  0  0  0  0
  6  7  2  0  0  0  0
  6  8  1  0  0  0  0
  8  9  1  0  0  0  0
  8 10  1  0  0  0  0
  8 35  1  0  0  0  0
  9 36  1  0  0  0  0
  9 37  1  0  0  0  0
  9 38  1  0  0  0  0
 10 11  1  0  0  0  0
 10 39  1  0  0  0  0
 11 12  2  0  0  0  0
 11 13  1  0  0  0  0
 13 24  1  0  0  0  0
 13 14  2  0  0  0  0
 14 15  1  0  0  0  0
 14 40  1  0  0  0  0
 15 16  2  0  0  0  0
 15 41  1  0  0  0  0
 16 17  1  0  0  0  0
 16 23  1  0  0  0  0
 17 22  1  0  0  0  0
 17 18  1  0  0  0  0
 18 19  1  0  0  0  0
 18 42  1  0  0  0  0
 18 43  1  0  0  0  0
 19 20  1  0  0  0  0
 19 44  1  0  0  0  0
 19 45  1  0  0  0  0
 20 21  1  0  0  0  0
 21 22  1  0  0  0  0
 21 46  1  0  0  0  0
 21 47  1  0  0  0  0
 22 48  1  0  0  0  0
 22 49  1  0  0  0  0
 23 24  2  0  0  0  0
 24 50  1  0  0  0  0
M  END
> <s_m_source_file>
AV-unprocessed.smi

> <i_m_source_file_index>
313

> <i_lp_mmshare_version>
43012

> <i_f3d_flags>
0

> <s_epik_input>
W0NIM11bQ0gyXVtDQEhdKFtDSDNdKVtOSF1DKD1PKVtDQEhdKFtDSDNdKVtOSF1DKD1PKWMxW2NIXVtjSF1jKG5bY0hdMSlOMltDSDJdW0NIMl1PW0NIMl1bQ0gyXTI=

> <s_epik_cmdline>
J2VwaWtfcHl0aG9uJywgJy1waCcsICc3LjAnLCAnLXRuJywgJzgnLCAnLW1hJywgJzIwMCcsICctbWV0YWxfYmluZGluZycsICctaW1hZScsICc8aW5maWxlLm1hZT4nLCAnLW9tYWUnLCAnPG91dGZpbGUubWFlPic=

> <r_lp_tautomer_probability>
1

> <r_epik_Ionization_Penalty>
9.96442e-06

> <r_epik_Ionization_Penalty_Charging>
0

> <r_epik_Ionization_Penalty_Neutral>
9.96442e-06

> <r_epik_State_Penalty>
-0

> <r_epik_Charging_Adjusted_Penalty>
0

> <i_epik_Tot_Q>
0

> <i_epik_Tot_abs_Q>
0

> <r_epik_Metal_State_Penalty>
-0

> <b_epik_Metal_Only>
0

> <s_lp_Force_Field>
OPLS_2005

> <r_lp_Energy>
19.8546

> <b_lp_Chiralities_Consistent>
1

> <s_lp_Variant>
AV-unprocessed.smi:313-1

> <Gold.Version>
5.8.1

> <Gold.Id.Protein>
6NUR|6NUR_protein|mol2

> <Gold.PLP.Fitness>
42.2490

> <Gold.PLP.PLP>
-34.7168

> <Gold.PLP.part.hbond>
-2.9516

> <Gold.PLP.part.metal>
0.0000

> <Gold.PLP.part.buried>
-4.9234

> <Gold.PLP.part.nonpolar>
-27.3015

> <Gold.PLP.part.repulsive>
0.2232

> <Gold.PLP.ligand.clash>
0.0000

> <Gold.PLP.ligand.torsion>
0.5642

> <Gold.PLP.Chemscore.Hbond>
2.7520

> <Gold.PLP.Chemscore.CHOScore>
0.0000

> <Gold.PLP.Chemscore.Metal>
0.0000

> <Gold.Chemscore.Hbonds>
donor molecule, donor type, donor heavy atom, donor atom, acceptor molecule, acceptor atom, score
      L1  H     5    34       P1  7948  0.75
      P1  H  7997  8010       L1    23  1.00
      P1  H 10752 10764       L1    12  1.00

> <Gold.PLP.Chemscore.Internal.Correction>
0.4046

> <Gold.Rescore>
     Score         DG    S(hbond)    S(metal)    S(lipo)     H(rot)  DE(clash)    DE(int)     intcor
     19.53     -20.21       2.81        0.00      84.89       1.79       0.05       0.63       ----

> <Gold.Chemscore.Fitness>
19.5349

> <Gold.Chemscore.DG>
-20.2086

> <Gold.Chemscore.ZeroCoef>
-5.4800

> <Gold.Chemscore.Hbond>
2.8070

> <Gold.Chemscore.Metal>
0.0000

> <Gold.Chemscore.Lipo>
84.8918

> <Gold.Chemscore.Internal_Hbond>
0.0000

> <Gold.Chemscore.DEClash>
0.0485

> <Gold.Chemscore.DEInternal>
0.6252

> <Gold.Chemscore.Rot>
1.7888

> <Gold.Chemscore.Internal.Correction>
   9.000000E+99

> <Gold.Chemscore.Hbonds>
donor molecule, donor type, donor heavy atom, donor atom, acceptor molecule, acceptor atom, score
      L1  H     5    34       P1  7948  0.75
      P1  H  7997  8010       L1    23  0.60
      P1  H 10752 10764       L1    12  1.00

> <Gold.Chemscore.Hbond.Weighted>
-9.3755

> <Gold.Chemscore.Metal.Weighted>
-0.0000

> <Gold.Chemscore.Lipo.Weighted>
-9.9323

> <Gold.Chemscore.Internal_Hbond.Weighted>
0.0000

> <Gold.Chemscore.DEClash.Weighted>
0.0485

> <Gold.Chemscore.DEInternal.Weighted>
0.6252

> <Gold.Chemscore.Rot.Weighted>
4.5793

> <Gold.Chemscore.Internal.Correction.Weighted>
   9.000000E+99

> <Gold.Protein.RotatedTorsions>
[ 6907 6896 6895 6894 ] final -157.45 input  -60.11 | X-H torsion
[ 7974 7965 7964 7962 ] final  -38.01 input  175.53 | X-H torsion
[ 8008 7997 7996 7995 ] final   65.16 input   59.86 | X-H torsion
[ 10167 10162 10161 10158 ] final -174.97 input  -65.29 | X-H torsion
[ 10718 10713 10712 10709 ] final  -38.38 input   66.30 | X-H torsion
[ 10763 10752 10751 10750 ] final  -77.09 input  -60.55 | X-H torsion
[ 11005 11000 10999 10996 ] final -166.29 input  -57.11 | X-H torsion

> <Gold.Protein.ActiveResidues>
 VAL166  LYS551  ARG553  GLY616  TRP617  ASP618  TYR619  PRO620  LYS621  CYS622 
 ASP623  PHE694  ASN695  SER759  ASP760  ASP761  ALA762  ILE779  LEU786  VAL792 
 PHE793  MET794  SER795  GLU796  ALA797  LYS798  CYS799  TRP800  GLU811  SER814 

> <Gold.Protein.RotatedAtoms>
  151.3031  133.4113  159.2640 H   0  0  0  0  0  0  0  0  0  0  0  0  # atno 6907 bound_to 6896
  151.0178  134.9447  159.8053 H   0  0  0  0  0  0  0  0  0  0  0  0  # atno 6908 bound_to 6896
  152.5317  134.2995  159.9125 H   0  0  0  0  0  0  0  0  0  0  0  0  # atno 6909 bound_to 6896
  146.0524  140.6463  142.9035 H   0  0  0  0  0  0  0  0  0  0  0  0  # atno 7974 bound_to 7965
  155.6574  140.3497  155.4770 H   0  0  0  0  0  0  0  0  0  0  0  0  # atno 8008 bound_to 7997
  155.9797  140.1172  157.0761 H   0  0  0  0  0  0  0  0  0  0  0  0  # atno 8009 bound_to 7997
  154.4188  140.1140  156.5404 H   0  0  0  0  0  0  0  0  0  0  0  0  # atno 8010 bound_to 7997
  139.5606  144.1880  152.1232 H   0  0  0  0  0  0  0  0  0  0  0  0  # atno 10167 bound_to 10162
  156.3044  130.4244  149.8111 H   0  0  0  0  0  0  0  0  0  0  0  0  # atno 10718 bound_to 10713
  154.5084  135.5776  153.6585 H   0  0  0  0  0  0  0  0  0  0  0  0  # atno 10763 bound_to 10752
  152.9892  135.6152  154.2912 H   0  0  0  0  0  0  0  0  0  0  0  0  # atno 10764 bound_to 10752
  154.2824  135.2850  155.2670 H   0  0  0  0  0  0  0  0  0  0  0  0  # atno 10765 bound_to 10752
  140.5662  134.5284  157.5153 H   0  0  0  0  0  0  0  0  0  0  0  0  # atno 11005 bound_to 11000
  144.7130  140.4107  143.7066 LP  0  0  0  0  0  0  0  0  0  0  0  0  # atno 17320 bound_to 7965
  145.6702  139.1597  143.2759 LP  0  0  0  0  0  0  0  0  0  0  0  0  # atno 17321 bound_to 7965
  140.1393  144.5217  150.6754 LP  0  0  0  0  0  0  0  0  0  0  0  0  # atno 17342 bound_to 10162
  140.6885  143.2363  151.5196 LP  0  0  0  0  0  0  0  0  0  0  0  0  # atno 17343 bound_to 10162
  156.5477  130.8328  151.3289 LP  0  0  0  0  0  0  0  0  0  0  0  0  # atno 17370 bound_to 10713
  157.7376  130.9798  150.2202 LP  0  0  0  0  0  0  0  0  0  0  0  0  # atno 17371 bound_to 10713
  139.9384  134.7833  156.0742 LP  0  0  0  0  0  0  0  0  0  0  0  0  # atno 17394 bound_to 11000
  141.1084  133.6651  156.2920 LP  0  0  0  0  0  0  0  0  0  0  0  0  # atno 17395 bound_to 11000

$$$$
