AV-unprocessed.smi:502|AV-procd|sdf|2744|dock6
  -GOLD-   2262023203D 1   1.00000     0.00000
 Structure written by MMmdl.
 48 50  0  0  0  0  0  0  0  0  1 V2000
  154.1386  134.9435  158.6466 C   0  0  0  0  0  0  0  0  0  0  0  0
  153.5028  136.0479  159.4830 C   0  0  0  0  0  0  0  0  0  0  0  0
  153.0152  135.7880  160.5824 O   0  0  0  0  0  0  0  0  0  0  0  0
  153.5049  137.2758  158.9442 N   0  0  0  0  0  0  0  0  0  0  0  0
  152.9391  138.4657  159.5721 C   0  0  0  0  0  0  0  0  0  0  0  0
  152.0639  139.2895  158.6082 C   0  0  0  0  0  0  0  0  0  0  0  0
  151.9297  140.7346  158.9968 C   0  0  0  0  0  0  0  0  0  0  0  0
  152.6425  141.2507  159.9992 N   0  0  0  0  0  0  0  0  0  0  0  0
  152.2190  142.5643  160.0323 C   0  0  0  0  0  0  0  0  0  0  0  0
  152.5967  143.6301  160.8801 C   0  0  0  0  0  0  0  0  0  0  0  0
  152.0126  144.9047  160.7282 C   0  0  0  0  0  0  0  0  0  0  0  0
  151.0456  145.1318  159.7276 C   0  0  0  0  0  0  0  0  0  0  0  0
  150.6572  144.0840  158.8710 C   0  0  0  0  0  0  0  0  0  0  0  0
  151.2435  142.8133  159.0267 C   0  0  0  0  0  0  0  0  0  0  0  0
  151.0840  141.5949  158.3727 N   0  0  0  0  0  0  0  0  0  0  0  0
  150.1708  141.3352  157.2684 C   0  0  0  0  0  0  0  0  0  0  0  0
  150.8173  141.6299  155.9076 C   0  0  0  0  0  0  0  0  0  0  0  0
  150.4070  140.6372  154.9771 O   0  0  0  0  0  0  0  0  0  0  0  0
  149.1476  140.7288  154.4248 C   0  0  0  0  0  0  0  0  0  0  0  0
  148.4719  141.9561  154.2061 C   0  0  0  0  0  0  0  0  0  0  0  0
  147.1828  141.9711  153.6401 C   0  0  0  0  0  0  0  0  0  0  0  0
  146.5532  140.7642  153.2869 C   0  0  0  0  0  0  0  0  0  0  0  0
  147.2145  139.5410  153.4992 C   0  0  0  0  0  0  0  0  0  0  0  0
  148.5065  139.5203  154.0653 C   0  0  0  0  0  0  0  0  0  0  0  0
  149.2110  138.1937  154.2816 C   0  0  0  0  0  0  0  0  0  0  0  0
  155.2006  135.1416  158.4989 H   0  0  0  0  0  0  0  0  0  0  0  0
  153.6579  134.8819  157.6698 H   0  0  0  0  0  0  0  0  0  0  0  0
  154.0360  133.9760  159.1392 H   0  0  0  0  0  0  0  0  0  0  0  0
  153.9235  137.3955  158.0329 H   0  0  0  0  0  0  0  0  0  0  0  0
  152.3666  138.1912  160.4595 H   0  0  0  0  0  0  0  0  0  0  0  0
  153.7691  139.0786  159.9241 H   0  0  0  0  0  0  0  0  0  0  0  0
  152.4479  139.2021  157.5930 H   0  0  0  0  0  0  0  0  0  0  0  0
  151.0640  138.8552  158.5757 H   0  0  0  0  0  0  0  0  0  0  0  0
  153.3351  143.4658  161.6508 H   0  0  0  0  0  0  0  0  0  0  0  0
  152.3066  145.7118  161.3830 H   0  0  0  0  0  0  0  0  0  0  0  0
  150.6011  146.1102  159.6189 H   0  0  0  0  0  0  0  0  0  0  0  0
  149.9120  144.2536  158.1081 H   0  0  0  0  0  0  0  0  0  0  0  0
  149.8638  140.2898  157.3127 H   0  0  0  0  0  0  0  0  0  0  0  0
  149.2617  141.9197  157.3965 H   0  0  0  0  0  0  0  0  0  0  0  0
  150.5139  142.6202  155.5656 H   0  0  0  0  0  0  0  0  0  0  0  0
  151.9037  141.6246  156.0077 H   0  0  0  0  0  0  0  0  0  0  0  0
  148.9206  142.9020  154.4677 H   0  0  0  0  0  0  0  0  0  0  0  0
  146.6763  142.9112  153.4780 H   0  0  0  0  0  0  0  0  0  0  0  0
  145.5640  140.7770  152.8534 H   0  0  0  0  0  0  0  0  0  0  0  0
  146.7255  138.6178  153.2241 H   0  0  0  0  0  0  0  0  0  0  0  0
  148.6038  137.3569  153.9350 H   0  0  0  0  0  0  0  0  0  0  0  0
  149.4216  138.0449  155.3409 H   0  0  0  0  0  0  0  0  0  0  0  0
  150.1562  138.1734  153.7380 H   0  0  0  0  0  0  0  0  0  0  0  0
  1  2  1  0  0  0  0
  1 26  1  0  0  0  0
  1 27  1  0  0  0  0
  1 28  1  0  0  0  0
  2  3  2  0  0  0  0
  2  4  1  0  0  0  0
  4  5  1  0  0  0  0
  4 29  1  0  0  0  0
  5  6  1  0  0  0  0
  5 30  1  0  0  0  0
  5 31  1  0  0  0  0
  6  7  1  0  0  0  0
  6 32  1  0  0  0  0
  6 33  1  0  0  0  0
  7 15  1  0  0  0  0
  7  8  2  0  0  0  0
  8  9  1  0  0  0  0
  9 14  2  0  0  0  0
  9 10  1  0  0  0  0
 10 11  2  0  0  0  0
 10 34  1  0  0  0  0
 11 12  1  0  0  0  0
 11 35  1  0  0  0  0
 12 13  2  0  0  0  0
 12 36  1  0  0  0  0
 13 14  1  0  0  0  0
 13 37  1  0  0  0  0
 14 15  1  0  0  0  0
 15 16  1  0  0  0  0
 16 17  1  0  0  0  0
 16 38  1  0  0  0  0
 16 39  1  0  0  0  0
 17 18  1  0  0  0  0
 17 40  1  0  0  0  0
 17 41  1  0  0  0  0
 18 19  1  0  0  0  0
 19 24  1  0  0  0  0
 19 20  2  0  0  0  0
 20 21  1  0  0  0  0
 20 42  1  0  0  0  0
 21 22  2  0  0  0  0
 21 43  1  0  0  0  0
 22 23  1  0  0  0  0
 22 44  1  0  0  0  0
 23 24  2  0  0  0  0
 23 45  1  0  0  0  0
 24 25  1  0  0  0  0
 25 46  1  0  0  0  0
 25 47  1  0  0  0  0
 25 48  1  0  0  0  0
M  END
> <s_m_source_file>
AV-unprocessed.smi

> <i_m_source_file_index>
502

> <i_lp_mmshare_version>
43012

> <i_f3d_flags>
0

> <s_epik_input>
W0NIM11DKD1PKVtOSF1bQ0gyXVtDSDJdYyhuMSluKGMoYzEyKVtjSF1bY0hdW2NIXVtjSF0yKVtDSDJdW0NIMl1PYzNbY0hdW2NIXVtjSF1bY0hdYzNbQ0gzXQ==

> <s_epik_cmdline>
J2VwaWtfcHl0aG9uJywgJy1waCcsICc3LjAnLCAnLXRuJywgJzgnLCAnLW1hJywgJzIwMCcsICctbWV0YWxfYmluZGluZycsICctaW1hZScsICc8aW5maWxlLm1hZT4nLCAnLW9tYWUnLCAnPG91dGZpbGUubWFlPic=

> <r_lp_tautomer_probability>
1

> <r_epik_Ionization_Penalty>
0.0991824

> <r_epik_Ionization_Penalty_Charging>
0

> <r_epik_Ionization_Penalty_Neutral>
0.0991824

> <r_epik_State_Penalty>
0.0892428

> <r_epik_Charging_Adjusted_Penalty>
0.0892428

> <i_epik_Tot_Q>
0

> <i_epik_Tot_abs_Q>
0

> <r_epik_Metal_State_Penalty>
0.076345

> <b_epik_Metal_Only>
0

> <s_lp_Force_Field>
OPLS_2005

> <r_lp_Energy>
12.9543

> <b_lp_Chiralities_Consistent>
1

> <s_lp_Variant>
AV-unprocessed.smi:502-1

> <Gold.Version>
5.8.1

> <Gold.Id.Protein>
6NUR|6NUR_protein|mol2

> <Gold.PLP.Fitness>
51.4653

> <Gold.PLP.PLP>
-48.0247

> <Gold.PLP.part.hbond>
-1.9829

> <Gold.PLP.part.metal>
0.0000

> <Gold.PLP.part.buried>
-3.9990

> <Gold.PLP.part.nonpolar>
-40.4924

> <Gold.PLP.part.repulsive>
0.1488

> <Gold.PLP.ligand.clash>
0.0000

> <Gold.PLP.ligand.torsion>
1.3534

> <Gold.PLP.Chemscore.Hbond>
1.9913

> <Gold.PLP.Chemscore.CHOScore>
0.0000

> <Gold.PLP.Chemscore.Metal>
0.0000

> <Gold.Chemscore.Hbonds>
donor molecule, donor type, donor heavy atom, donor atom, acceptor molecule, acceptor atom, score
      P1  H  6896  6909       L1     3  0.22
      P1  H  7989  7998       L1    18  0.91

> <Gold.PLP.Chemscore.Internal.Correction>
0.1736

> <Gold.Rescore>
     Score         DG    S(hbond)    S(metal)    S(lipo)     H(rot)  DE(clash)    DE(int)     intcor
     17.07     -18.65       1.06        0.00     128.54       2.11       0.40       1.19       ----

> <Gold.Chemscore.Fitness>
17.0663

> <Gold.Chemscore.DG>
-18.6495

> <Gold.Chemscore.ZeroCoef>
-5.4800

> <Gold.Chemscore.Hbond>
1.0557

> <Gold.Chemscore.Metal>
0.0000

> <Gold.Chemscore.Lipo>
128.5439

> <Gold.Chemscore.Internal_Hbond>
0.0000

> <Gold.Chemscore.DEClash>
0.3956

> <Gold.Chemscore.DEInternal>
1.1876

> <Gold.Chemscore.Rot>
2.1078

> <Gold.Chemscore.Internal.Correction>
   9.000000E+99

> <Gold.Chemscore.Hbonds>
donor molecule, donor type, donor heavy atom, donor atom, acceptor molecule, acceptor atom, score
      P1  H  6896  6909       L1     3  0.01
      P1  H  7989  7998       L1    18  0.18

> <Gold.Chemscore.Hbond.Weighted>
-3.5260

> <Gold.Chemscore.Metal.Weighted>
-0.0000

> <Gold.Chemscore.Lipo.Weighted>
-15.0396

> <Gold.Chemscore.Internal_Hbond.Weighted>
0.0000

> <Gold.Chemscore.DEClash.Weighted>
0.3956

> <Gold.Chemscore.DEInternal.Weighted>
1.1876

> <Gold.Chemscore.Rot.Weighted>
5.3961

> <Gold.Chemscore.Internal.Correction.Weighted>
   9.000000E+99

> <Gold.Protein.RotatedTorsions>
[ 6907 6896 6895 6894 ] final  170.46 input  -60.11 | X-H torsion
[ 7974 7965 7964 7962 ] final  -24.79 input  175.53 | X-H torsion
[ 8008 7997 7996 7995 ] final  153.07 input   59.86 | X-H torsion
[ 10167 10162 10161 10158 ] final   11.17 input  -65.29 | X-H torsion
[ 10718 10713 10712 10709 ] final   13.28 input   66.30 | X-H torsion
[ 10763 10752 10751 10750 ] final -110.83 input  -60.55 | X-H torsion
[ 11005 11000 10999 10996 ] final  134.97 input  -57.11 | X-H torsion

> <Gold.Protein.ActiveResidues>
 VAL166  LYS551  ARG553  GLY616  TRP617  ASP618  TYR619  PRO620  LYS621  CYS622 
 ASP623  PHE694  ASN695  SER759  ASP760  ASP761  ALA762  ILE779  LEU786  VAL792 
 PHE793  MET794  SER795  GLU796  ALA797  LYS798  CYS799  TRP800  GLU811  SER814 

> <Gold.Protein.RotatedAtoms>
  151.8158  133.3388  159.3568 H   0  0  0  0  0  0  0  0  0  0  0  0  # atno 6907 bound_to 6896
  150.7311  134.5621  159.5857 H   0  0  0  0  0  0  0  0  0  0  0  0  # atno 6908 bound_to 6896
  152.3042  134.7576  160.0402 H   0  0  0  0  0  0  0  0  0  0  0  0  # atno 6909 bound_to 6896
  146.1532  140.4799  142.8602 H   0  0  0  0  0  0  0  0  0  0  0  0  # atno 7974 bound_to 7965
  156.2599  140.2003  156.6433 H   0  0  0  0  0  0  0  0  0  0  0  0  # atno 8008 bound_to 7997
  154.6592  140.0563  157.0068 H   0  0  0  0  0  0  0  0  0  0  0  0  # atno 8009 bound_to 7997
  155.1301  140.3233  155.4479 H   0  0  0  0  0  0  0  0  0  0  0  0  # atno 8010 bound_to 7997
  140.6148  143.8330  150.7106 H   0  0  0  0  0  0  0  0  0  0  0  0  # atno 10167 bound_to 10162
  157.0224  130.6160  149.5723 H   0  0  0  0  0  0  0  0  0  0  0  0  # atno 10718 bound_to 10713
  154.8268  135.4550  154.0945 H   0  0  0  0  0  0  0  0  0  0  0  0  # atno 10763 bound_to 10752
  153.2252  135.6899  153.7960 H   0  0  0  0  0  0  0  0  0  0  0  0  # atno 10764 bound_to 10752
  153.7363  135.3319  155.3272 H   0  0  0  0  0  0  0  0  0  0  0  0  # atno 10765 bound_to 10752
  139.9949  134.9501  156.9941 H   0  0  0  0  0  0  0  0  0  0  0  0  # atno 11005 bound_to 11000
  144.7930  140.6069  143.6528 LP  0  0  0  0  0  0  0  0  0  0  0  0  # atno 17320 bound_to 7965
  145.4772  139.1498  143.3782 LP  0  0  0  0  0  0  0  0  0  0  0  0  # atno 17321 bound_to 7965
  140.1907  143.4039  152.1865 LP  0  0  0  0  0  0  0  0  0  0  0  0  # atno 17342 bound_to 10162
  139.5390  144.7238  151.4796 LP  0  0  0  0  0  0  0  0  0  0  0  0  # atno 17343 bound_to 10162
  156.0097  130.5188  150.7949 LP  0  0  0  0  0  0  0  0  0  0  0  0  # atno 17370 bound_to 10713
  157.5239  131.0933  151.0043 LP  0  0  0  0  0  0  0  0  0  0  0  0  # atno 17371 bound_to 10713
  140.4837  134.1263  155.7221 LP  0  0  0  0  0  0  0  0  0  0  0  0  # atno 17394 bound_to 11000
  141.1596  133.8817  157.1884 LP  0  0  0  0  0  0  0  0  0  0  0  0  # atno 17395 bound_to 11000

$$$$
