#       Name:                AV-unprocessed.smi:500
#       Creating user name   scv26
#       Creation time:       Thu Mar 26 23:18:55 2020


#       File generated by GOLD software.
#

@<TRIPOS>MOLECULE
AV-unprocessed.smi:500
    52    54     1
SMALL
NO_CHARGES


@<TRIPOS>ATOM
      1 ****        -4.4734  -1.4438  -3.2047 C.3            1 S1                 0.0000
      2 ****        -3.3410  -1.0862  -2.2394 C.3            1 S1                 0.0000
      3 ****        -2.4385  -0.2101  -2.8982 O.3            1 S1                 0.0000
      4 ****        -1.3475   0.2089  -2.0916 C.3            1 S1                 0.0000
      5 ****        -0.2370  -0.8543  -2.0504 C.3            1 S1                 0.0000
      6 ****         0.9040  -0.4027  -1.2701 N.pl3          1 S1                 0.0000
      7 ****         1.1174  -0.5293   0.0653 C.2            1 S1                 0.0000
      8 ****         0.1249  -1.2066   0.9787 C.3            1 S1                 0.0000
      9 ****         0.5237  -2.6564   1.2833 C.3            1 S1                 0.0000
     10 ****         0.0289  -0.4420   2.2211 N.am           1 S1                 0.0000
     11 ****        -0.7441   0.6393   2.4124 C.2            1 S1                 0.0000
     12 ****        -1.5036   1.0920   1.5562 O.2            1 S1                 0.0000
     13 ****        -0.6431   1.2721   3.7407 C.2            1 S1                 0.0000
     14 ****         0.2096   1.0461   4.7895 C.2            1 S1                 0.0000
     15 ****        -0.1468   1.9703   5.8102 C.2            1 S1                 0.0000
     16 ****        -1.1880   2.6986   5.3106 C.2            1 S1                 0.0000
     17 ****        -1.4990   2.2891   4.0508 O.3            1 S1                 0.0000
     18 ****         2.2785  -0.0384   0.5091 N.2            1 S1                 0.0000
     19 ****         2.8526   0.4785  -0.6346 C.ar           1 S1                 0.0000
     20 ****         4.0838   1.1461  -0.8229 C.ar           1 S1                 0.0000
     21 ****         4.4641   1.5937  -2.1050 C.ar           1 S1                 0.0000
     22 ****         3.6210   1.3797  -3.2147 C.ar           1 S1                 0.0000
     23 ****         2.3910   0.7143  -3.0489 C.ar           1 S1                 0.0000
     24 ****         2.0161   0.2697  -1.7667 C.ar           1 S1                 0.0000
     25 ****        -5.1925  -2.1121  -2.7307 H              1 S1                 0.0000
     26 ****        -4.0871  -1.9441  -4.0931 H              1 S1                 0.0000
     27 ****        -5.0089  -0.5506  -3.5279 H              1 S1                 0.0000
     28 ****        -3.7516  -0.6034  -1.3513 H              1 S1                 0.0000
     29 ****        -2.8354  -1.9959  -1.9155 H              1 S1                 0.0000
     30 ****        -0.9469   1.1220  -2.5330 H              1 S1                 0.0000
     31 ****        -1.6855   0.4757  -1.0898 H              1 S1                 0.0000
     32 ****        -0.5934  -1.7994  -1.6432 H              1 S1                 0.0000
     33 ****         0.1002  -1.0745  -3.0635 H              1 S1                 0.0000
     34 ****        -0.8609  -1.2195   0.5138 H              1 S1                 0.0000
     35 ****         0.5819  -3.2446   0.3672 H              1 S1                 0.0000
     36 ****        -0.2057  -3.1355   1.9371 H              1 S1                 0.0000
     37 ****         1.4967  -2.7076   1.7734 H              1 S1                 0.0000
     38 ****         0.6225  -0.7380   2.9824 H              1 S1                 0.0000
     39 ****         0.9969   0.3072   4.8200 H              1 S1                 0.0000
     40 ****         0.3031   2.0892   6.7847 H              1 S1                 0.0000
     41 ****        -1.7922   3.5069   5.6957 H              1 S1                 0.0000
     42 ****         4.7359   1.3160   0.0210 H              1 S1                 0.0000
     43 ****         5.4065   2.1045  -2.2375 H              1 S1                 0.0000
     44 ****         3.9192   1.7271  -4.1931 H              1 S1                 0.0000
     45 ****         1.7427   0.5500  -3.8967 H              1 S1                 0.0000
     46 ****        -2.9444   0.6018  -3.1892 LP             1 S1                 0.0000
     47 ****        -2.0732  -0.6808  -3.7014 LP             1 S1                 0.0000
     48 ****        -1.5682   0.6504   0.6613 LP             1 S1                 0.0000
     49 ****        -2.0561   1.9013   1.7554 LP             1 S1                 0.0000
     50 ****        -2.4443   1.9646   4.0184 LP             1 S1                 0.0000
     51 ****        -1.3835   3.0443   3.4056 LP             1 S1                 0.0000
     52 ****         2.6420  -0.0442   1.4407 LP             1 S1                 0.0000
@<TRIPOS>BOND
    1    1    2 1     
    2    1   25 1     
    3    1   26 1     
    4    1   27 1     
    5    2    3 1     
    6    2   28 1     
    7    2   29 1     
    8    3    4 1     
    9    4    5 1     
   10    4   30 1     
   11    4   31 1     
   12    5    6 1     
   13    5   32 1     
   14    5   33 1     
   15    6   24 1     
   16    6    7 1     
   17    7    8 1     
   18    7   18 2     
   19    8    9 1     
   20    8   10 1     
   21    8   34 1     
   22    9   35 1     
   23    9   36 1     
   24    9   37 1     
   25   10   11 am    
   26   10   38 1     
   27   11   12 2     
   28   11   13 1     
   29   13   17 1     
   30   13   14 2     
   31   14   15 1     
   32   14   39 1     
   33   15   16 2     
   34   15   40 1     
   35   16   17 1     
   36   16   41 1     
   37   18   19 1     
   38   19   24 ar    
   39   19   20 ar    
   40   20   21 ar    
   41   20   42 1     
   42   21   22 ar    
   43   21   43 1     
   44   22   23 ar    
   45   22   44 1     
   46   23   24 ar    
   47   23   45 1     
   48    3   46 1     
   49    3   47 1     
   50   12   48 1     
   51   12   49 1     
   52   17   50 1     
   53   17   51 1     
   54   18   52 1     
@<TRIPOS>SUBSTRUCTURE
      1 S1             1
@<TRIPOS>SET
LONE_PAIRS      STATIC     ATOMS    <user>   **** ""
7 46 47 48 49 50 51 52
DONOR_HYDROGENS      STATIC     ATOMS    <user>   **** ""
1 38
ATOM$BLUE        STATIC     ATOMS    COLORGROUP SYSTEM
7 46 47 48 49 50 51 52
ATOM$RED        STATIC     ATOMS    COLORGROUP SYSTEM
1 38
