AV-unprocessed.smi:2454|AV-procd|sdf|9698|dock5
  -GOLD-   2272013333D 1   1.00000     0.00000
 Structure written by MMmdl.
 42 43  0  0  0  0  0  0  0  0  1 V2000
  143.9799  135.0908  162.4542 C   0  0  0  0  0  0  0  0  0  0  0  0
  145.1611  135.5452  161.8175 O   0  0  0  0  0  0  0  0  0  0  0  0
  146.2980  134.7729  162.1652 C   0  0  0  0  0  0  0  0  0  0  0  0
  147.3894  134.9007  161.1230 C   0  0  0  0  0  0  0  0  0  0  0  0
  148.0011  136.1428  160.8508 C   0  0  0  0  0  0  0  0  0  0  0  0
  149.0023  136.1694  159.8535 C   0  0  0  0  0  0  0  0  0  0  0  0
  149.5833  137.4490  159.6110 N   0  0  0  0  0  0  0  0  0  0  0  0
  150.6667  137.8144  158.8925 C   0  0  0  0  0  0  0  0  0  0  0  0
  151.3479  136.9789  158.3006 O   0  0  0  0  0  0  0  0  0  0  0  0
  150.9450  139.1278  158.8687 N   0  0  0  0  0  0  0  0  0  0  0  0
  152.0747  139.7580  158.1898 C   0  0  1  0  0  0  0  0  0  0  0  0
  151.5718  140.6143  157.0126 C   0  0  0  0  0  0  0  0  0  0  0  0
  150.8246  141.8708  157.4898 C   0  0  0  0  0  0  0  0  0  0  0  0
  151.6880  142.7024  158.4511 C   0  0  0  0  0  0  0  0  0  0  0  0
  152.1647  141.8681  159.6588 C   0  0  2  0  0  0  0  0  0  0  0  0
  153.0180  142.7024  160.6361 C   0  0  0  0  0  0  0  0  0  0  0  0
  153.6083  141.9192  161.5395 F   0  0  0  0  0  0  0  0  0  0  0  0
  153.9570  143.3709  159.9665 F   0  0  0  0  0  0  0  0  0  0  0  0
  152.2502  143.5887  161.2699 F   0  0  0  0  0  0  0  0  0  0  0  0
  152.9130  140.6064  159.1706 C   0  0  0  0  0  0  0  0  0  0  0  0
  149.3321  135.0237  159.2032 N   0  0  0  0  0  0  0  0  0  0  0  0
  148.6900  133.9020  159.5372 C   0  0  0  0  0  0  0  0  0  0  0  0
  147.7372  133.7767  160.4613 N   0  0  0  0  0  0  0  0  0  0  0  0
  143.1392  135.7181  162.1580 H   0  0  0  0  0  0  0  0  0  0  0  0
  144.0718  135.1416  163.5398 H   0  0  0  0  0  0  0  0  0  0  0  0
  143.7489  134.0634  162.1700 H   0  0  0  0  0  0  0  0  0  0  0  0
  146.6877  135.0988  163.1310 H   0  0  0  0  0  0  0  0  0  0  0  0
  146.0206  133.7223  162.2702 H   0  0  0  0  0  0  0  0  0  0  0  0
  147.7091  137.0364  161.3836 H   0  0  0  0  0  0  0  0  0  0  0  0
  149.0761  138.2200  160.0201 H   0  0  0  0  0  0  0  0  0  0  0  0
  150.3285  139.7415  159.3834 H   0  0  0  0  0  0  0  0  0  0  0  0
  152.7088  138.9693  157.7811 H   0  0  0  0  0  0  0  0  0  0  0  0
  152.4233  140.9181  156.4022 H   0  0  0  0  0  0  0  0  0  0  0  0
  150.9283  140.0216  156.3611 H   0  0  0  0  0  0  0  0  0  0  0  0
  150.5379  142.4776  156.6307 H   0  0  0  0  0  0  0  0  0  0  0  0
  149.8961  141.5849  157.9859 H   0  0  0  0  0  0  0  0  0  0  0  0
  152.5499  143.0984  157.9127 H   0  0  0  0  0  0  0  0  0  0  0  0
  151.1163  143.5653  158.7935 H   0  0  0  0  0  0  0  0  0  0  0  0
  151.2783  141.5416  160.2054 H   0  0  0  0  0  0  0  0  0  0  0  0
  153.2178  139.9960  160.0215 H   0  0  0  0  0  0  0  0  0  0  0  0
  153.8363  140.9069  158.6740 H   0  0  0  0  0  0  0  0  0  0  0  0
  148.9716  133.0056  159.0050 H   0  0  0  0  0  0  0  0  0  0  0  0
  1  2  1  0  0  0  0
  1 24  1  0  0  0  0
  1 25  1  0  0  0  0
  1 26  1  0  0  0  0
  2  3  1  0  0  0  0
  3  4  1  0  0  0  0
  3 27  1  0  0  0  0
  3 28  1  0  0  0  0
  4 23  1  0  0  0  0
  4  5  2  0  0  0  0
  5  6  1  0  0  0  0
  5 29  1  0  0  0  0
  6  7  1  0  0  0  0
  6 21  2  0  0  0  0
  7  8  1  0  0  0  0
  7 30  1  0  0  0  0
  8  9  2  0  0  0  0
  8 10  1  0  0  0  0
 10 11  1  0  0  0  0
 10 31  1  0  0  0  0
 11 20  1  0  0  0  0
 11 12  1  0  0  0  0
 11 32  1  0  0  0  0
 12 13  1  0  0  0  0
 12 33  1  0  0  0  0
 12 34  1  0  0  0  0
 13 14  1  0  0  0  0
 13 35  1  0  0  0  0
 13 36  1  0  0  0  0
 14 15  1  0  0  0  0
 14 37  1  0  0  0  0
 14 38  1  0  0  0  0
 15 16  1  0  0  0  0
 15 20  1  0  0  0  0
 15 39  1  0  0  0  0
 16 17  1  0  0  0  0
 16 18  1  0  0  0  0
 16 19  1  0  0  0  0
 20 40  1  0  0  0  0
 20 41  1  0  0  0  0
 21 22  1  0  0  0  0
 22 23  2  0  0  0  0
 22 42  1  0  0  0  0
M  END
> <s_m_source_file>
AV-unprocessed.smi

> <i_m_source_file_index>
2454

> <i_lp_mmshare_version>
43012

> <i_f3d_flags>
0

> <s_epik_input>
W0NIM11PW0NIMl1jMVtjSF1jKG5bY0hdbjEpW05IXUMoPU8pW05IXVtDQEBIXTJbQ0gyXVtDSDJdW0NIMl1bQ0BASF0oQyhGKShGKUYpW0NIMl0y

> <s_epik_cmdline>
J2VwaWtfcHl0aG9uJywgJy1waCcsICc3LjAnLCAnLXRuJywgJzgnLCAnLW1hJywgJzIwMCcsICctbWV0YWxfYmluZGluZycsICctaW1hZScsICc8aW5maWxlLm1hZT4nLCAnLW9tYWUnLCAnPG91dGZpbGUubWFlPic=

> <r_lp_tautomer_probability>
1

> <r_epik_Ionization_Penalty>
3.01554e-05

> <r_epik_Ionization_Penalty_Charging>
0

> <r_epik_Ionization_Penalty_Neutral>
3.01554e-05

> <r_epik_State_Penalty>
-0

> <r_epik_Charging_Adjusted_Penalty>
0

> <i_epik_Tot_Q>
0

> <i_epik_Tot_abs_Q>
0

> <r_epik_Metal_State_Penalty>
-0

> <b_epik_Metal_Only>
0

> <s_lp_Force_Field>
OPLS_2005

> <r_lp_Energy>
13.7545

> <b_lp_Chiralities_Consistent>
1

> <s_lp_Variant>
AV-unprocessed.smi:2454-4

> <Gold.Version>
5.8.1

> <Gold.Id.Protein>
6NUR|6NUR_protein|mol2

> <Gold.PLP.Fitness>
44.4398

> <Gold.PLP.PLP>
-42.2642

> <Gold.PLP.part.hbond>
-1.9082

> <Gold.PLP.part.metal>
0.0000

> <Gold.PLP.part.buried>
-7.1449

> <Gold.PLP.part.nonpolar>
-34.9493

> <Gold.PLP.part.repulsive>
1.0238

> <Gold.PLP.ligand.clash>
0.0000

> <Gold.PLP.ligand.torsion>
0.4356

> <Gold.PLP.Chemscore.Hbond>
1.0000

> <Gold.PLP.Chemscore.CHOScore>
0.0000

> <Gold.PLP.Chemscore.Metal>
0.0000

> <Gold.Chemscore.Hbonds>
donor molecule, donor type, donor heavy atom, donor atom, acceptor molecule, acceptor atom, score
      P1  H  6896  6909       L1    21  0.37

> <Gold.PLP.Chemscore.Internal.Correction>
0.0467

> <Gold.Rescore>
     Score         DG    S(hbond)    S(metal)    S(lipo)     H(rot)  DE(clash)    DE(int)     intcor
     10.95     -12.40       0.71        0.00      74.00       1.60       0.14       1.31       ----

> <Gold.Chemscore.Fitness>
10.9473

> <Gold.Chemscore.DG>
-12.3985

> <Gold.Chemscore.ZeroCoef>
-5.4800

> <Gold.Chemscore.Hbond>
0.7081

> <Gold.Chemscore.Metal>
0.0000

> <Gold.Chemscore.Lipo>
74.0049

> <Gold.Chemscore.Internal_Hbond>
0.0000

> <Gold.Chemscore.DEClash>
0.1377

> <Gold.Chemscore.DEInternal>
1.3135

> <Gold.Chemscore.Rot>
1.6035

> <Gold.Chemscore.Internal.Correction>
   9.000000E+99

> <Gold.Chemscore.Hbonds>
donor molecule, donor type, donor heavy atom, donor atom, acceptor molecule, acceptor atom, score
      P1  H  6896  6909       L1    21  0.01

> <Gold.Chemscore.Hbond.Weighted>
-2.3649

> <Gold.Chemscore.Metal.Weighted>
-0.0000

> <Gold.Chemscore.Lipo.Weighted>
-8.6586

> <Gold.Chemscore.Internal_Hbond.Weighted>
0.0000

> <Gold.Chemscore.DEClash.Weighted>
0.1377

> <Gold.Chemscore.DEInternal.Weighted>
1.3135

> <Gold.Chemscore.Rot.Weighted>
4.1050

> <Gold.Chemscore.Internal.Correction.Weighted>
   9.000000E+99

> <Gold.Protein.RotatedTorsions>
[ 6907 6896 6895 6894 ] final   31.36 input  -60.11 | X-H torsion
[ 7974 7965 7964 7962 ] final -177.86 input  175.53 | X-H torsion
[ 8008 7997 7996 7995 ] final   97.17 input   59.86 | X-H torsion
[ 10167 10162 10161 10158 ] final   -9.37 input  -65.29 | X-H torsion
[ 10718 10713 10712 10709 ] final   75.54 input   66.30 | X-H torsion
[ 10763 10752 10751 10750 ] final   76.54 input  -60.55 | X-H torsion
[ 11005 11000 10999 10996 ] final   69.23 input  -57.11 | X-H torsion

> <Gold.Protein.ActiveResidues>
 VAL166  LYS551  ARG553  GLY616  TRP617  ASP618  TYR619  PRO620  LYS621  CYS622 
 ASP623  PHE694  ASN695  SER759  ASP760  ASP761  ALA762  ILE779  LEU786  VAL792 
 PHE793  MET794  SER795  GLU796  ALA797  LYS798  CYS799  TRP800  GLU811  SER814 

> <Gold.Protein.RotatedAtoms>
  152.0592  134.9605  160.0574 H   0  0  0  0  0  0  0  0  0  0  0  0  # atno 6907 bound_to 6896
  152.0975  133.4227  159.4580 H   0  0  0  0  0  0  0  0  0  0  0  0  # atno 6908 bound_to 6896
  150.6838  134.2719  159.4635 H   0  0  0  0  0  0  0  0  0  0  0  0  # atno 6909 bound_to 6896
  144.7129  140.0955  143.6419 H   0  0  0  0  0  0  0  0  0  0  0  0  # atno 7974 bound_to 7965
  156.0873  140.3262  155.7770 H   0  0  0  0  0  0  0  0  0  0  0  0  # atno 8008 bound_to 7997
  155.5055  140.0572  157.2949 H   0  0  0  0  0  0  0  0  0  0  0  0  # atno 8009 bound_to 7997
  154.4617  140.1969  156.0244 H   0  0  0  0  0  0  0  0  0  0  0  0  # atno 8010 bound_to 7997
  140.7085  143.5865  150.8937 H   0  0  0  0  0  0  0  0  0  0  0  0  # atno 10167 bound_to 10162
  157.6638  130.9731  150.1367 H   0  0  0  0  0  0  0  0  0  0  0  0  # atno 10718 bound_to 10713
  153.0733  135.4947  154.8351 H   0  0  0  0  0  0  0  0  0  0  0  0  # atno 10763 bound_to 10752
  154.7053  135.3009  154.9283 H   0  0  0  0  0  0  0  0  0  0  0  0  # atno 10764 bound_to 10752
  153.9994  135.6768  153.4811 H   0  0  0  0  0  0  0  0  0  0  0  0  # atno 10765 bound_to 10752
  139.9666  134.6971  156.0533 H   0  0  0  0  0  0  0  0  0  0  0  0  # atno 11005 bound_to 11000
  145.9583  139.2782  143.1171 LP  0  0  0  0  0  0  0  0  0  0  0  0  # atno 17320 bound_to 7965
  145.9248  140.9090  143.0386 LP  0  0  0  0  0  0  0  0  0  0  0  0  # atno 17321 bound_to 7965
  139.9591  143.6184  152.3007 LP  0  0  0  0  0  0  0  0  0  0  0  0  # atno 17342 bound_to 10162
  139.6730  144.7660  151.1747 LP  0  0  0  0  0  0  0  0  0  0  0  0  # atno 17343 bound_to 10162
  156.2200  130.3673  149.8567 LP  0  0  0  0  0  0  0  0  0  0  0  0  # atno 17370 bound_to 10713
  156.6422  130.8709  151.3516 LP  0  0  0  0  0  0  0  0  0  0  0  0  # atno 17371 bound_to 10713
  141.1345  133.6578  156.3556 LP  0  0  0  0  0  0  0  0  0  0  0  0  # atno 17394 bound_to 11000
  140.5384  134.6144  157.5372 LP  0  0  0  0  0  0  0  0  0  0  0  0  # atno 17395 bound_to 11000

$$$$
