AV-unprocessed.smi:2468|AV-procd|sdf|9730|dock4
  -GOLD-   2272013373D 1   1.00000     0.00000
 Structure written by MMmdl.
 32 33  0  0  0  0  0  0  0  0  1 V2000
  151.9184  145.0282  161.2391 C   0  0  0  0  0  0  0  0  0  0  0  0
  152.3062  143.6407  160.7631 C   0  0  0  0  0  0  0  0  0  0  0  0
  153.1122  142.9422  161.5922 N   0  0  0  0  0  0  0  0  0  0  0  0
  153.4802  141.6991  161.2206 C   0  0  0  0  0  0  0  0  0  0  0  0
  153.0722  141.0982  160.0147 C   0  0  0  0  0  0  0  0  0  0  0  0
  152.2413  141.8334  159.1352 C   0  0  0  0  0  0  0  0  0  0  0  0
  151.7528  141.3177  157.9024 N   0  0  0  0  0  0  0  0  0  0  0  0
  152.0516  140.1567  157.2912 C   0  0  0  0  0  0  0  0  0  0  0  0
  152.8722  139.3388  157.7076 O   0  0  0  0  0  0  0  0  0  0  0  0
  151.3221  139.9018  155.9609 C   0  0  1  0  0  0  0  0  0  0  0  0
  152.3130  139.6164  154.9717 O   0  0  0  0  0  0  0  0  0  0  0  0
  152.1696  138.2882  154.4735 C   0  0  0  0  0  0  0  0  0  0  0  0
  151.2955  137.5589  155.4877 C   0  0  0  0  0  0  0  0  0  0  0  0
  150.3820  138.6772  155.9460 C   0  0  1  0  0  0  0  0  0  0  0  0
  149.5995  138.3747  157.2369 C   0  0  0  0  0  0  0  0  0  0  0  0
  151.8394  143.1317  159.5285 C   0  0  0  0  0  0  0  0  0  0  0  0
  150.8012  144.0817  158.5183 Cl  0  0  0  0  0  0  0  0  0  0  0  0
  152.2542  145.7809  160.5254 H   0  0  0  0  0  0  0  0  0  0  0  0
  152.3629  145.2600  162.2078 H   0  0  0  0  0  0  0  0  0  0  0  0
  150.8353  145.1054  161.3383 H   0  0  0  0  0  0  0  0  0  0  0  0
  154.1143  141.1622  161.9104 H   0  0  0  0  0  0  0  0  0  0  0  0
  153.3918  140.0905  159.7993 H   0  0  0  0  0  0  0  0  0  0  0  0
  151.1383  141.9362  157.3926 H   0  0  0  0  0  0  0  0  0  0  0  0
  150.7726  140.7977  155.6675 H   0  0  0  0  0  0  0  0  0  0  0  0
  151.6700  138.3327  153.5051 H   0  0  0  0  0  0  0  0  0  0  0  0
  153.1380  137.8077  154.3336 H   0  0  0  0  0  0  0  0  0  0  0  0
  150.7564  136.7168  155.0530 H   0  0  0  0  0  0  0  0  0  0  0  0
  151.9011  137.1865  156.3149 H   0  0  0  0  0  0  0  0  0  0  0  0
  149.6477  138.8471  155.1566 H   0  0  0  0  0  0  0  0  0  0  0  0
  150.2577  138.1050  158.0631 H   0  0  0  0  0  0  0  0  0  0  0  0
  148.9133  137.5414  157.0845 H   0  0  0  0  0  0  0  0  0  0  0  0
  149.0078  139.2369  157.5458 H   0  0  0  0  0  0  0  0  0  0  0  0
  1  2  1  0  0  0  0
  1 18  1  0  0  0  0
  1 19  1  0  0  0  0
  1 20  1  0  0  0  0
  2 16  1  0  0  0  0
  2  3  2  0  0  0  0
  3  4  1  0  0  0  0
  4  5  2  0  0  0  0
  4 21  1  0  0  0  0
  5  6  1  0  0  0  0
  5 22  1  0  0  0  0
  6  7  1  0  0  0  0
  6 16  2  0  0  0  0
  7  8  1  0  0  0  0
  7 23  1  0  0  0  0
  8  9  2  0  0  0  0
  8 10  1  0  0  0  0
 10 14  1  0  0  0  0
 10 11  1  0  0  0  0
 10 24  1  0  0  0  0
 11 12  1  0  0  0  0
 12 13  1  0  0  0  0
 12 25  1  0  0  0  0
 12 26  1  0  0  0  0
 13 14  1  0  0  0  0
 13 27  1  0  0  0  0
 13 28  1  0  0  0  0
 14 15  1  0  0  0  0
 14 29  1  0  0  0  0
 15 30  1  0  0  0  0
 15 31  1  0  0  0  0
 15 32  1  0  0  0  0
 16 17  1  0  0  0  0
M  END
> <s_m_source_file>
AV-unprocessed.smi

> <i_m_source_file_index>
2468

> <i_lp_mmshare_version>
43012

> <i_f3d_flags>
0

> <s_epik_input>
W0NIM11jMW5bY0hdW2NIXWMoYzFDbClbTkhdQyg9TylbQ0BASF0yT1tDSDJdW0NIMl1bQ0BIXTJbQ0gzXQ==

> <s_epik_cmdline>
J2VwaWtfcHl0aG9uJywgJy1waCcsICc3LjAnLCAnLXRuJywgJzgnLCAnLW1hJywgJzIwMCcsICctbWV0YWxfYmluZGluZycsICctaW1hZScsICc8aW5maWxlLm1hZT4nLCAnLW9tYWUnLCAnPG91dGZpbGUubWFlPic=

> <r_epik_Ionization_Penalty>
0.000361027

> <r_epik_Ionization_Penalty_Charging>
0

> <r_epik_Ionization_Penalty_Neutral>
0.000361027

> <r_epik_State_Penalty>
0.000217849

> <r_epik_Charging_Adjusted_Penalty>
0.000217849

> <i_epik_Tot_Q>
0

> <i_epik_Tot_abs_Q>
0

> <r_epik_Metal_State_Penalty>
-0

> <b_epik_Metal_Only>
0

> <s_lp_Force_Field>
OPLS_2005

> <r_lp_Energy>
25.7151

> <b_lp_Chiralities_Consistent>
1

> <s_lp_Variant>
AV-unprocessed.smi:2468-2

> <Gold.Version>
5.8.1

> <Gold.Id.Protein>
6NUR|6NUR_protein|mol2

> <Gold.PLP.Fitness>
37.6091

> <Gold.PLP.PLP>
-32.4905

> <Gold.PLP.part.hbond>
-2.0000

> <Gold.PLP.part.metal>
0.0000

> <Gold.PLP.part.buried>
-2.9727

> <Gold.PLP.part.nonpolar>
-28.5904

> <Gold.PLP.part.repulsive>
0.1650

> <Gold.PLP.ligand.clash>
0.0000

> <Gold.PLP.ligand.torsion>
0.0765

> <Gold.PLP.Chemscore.Hbond>
1.7520

> <Gold.PLP.Chemscore.CHOScore>
0.0000

> <Gold.PLP.Chemscore.Metal>
0.0000

> <Gold.Chemscore.Hbonds>
donor molecule, donor type, donor heavy atom, donor atom, acceptor molecule, acceptor atom, score
      P1  H  7989  7998       L1    11  0.75
      P1  H  7997  8010       L1     9  0.95

> <Gold.PLP.Chemscore.Internal.Correction>
0.0155

> <Gold.Rescore>
     Score         DG    S(hbond)    S(metal)    S(lipo)     H(rot)  DE(clash)    DE(int)     intcor
     17.43     -20.50       1.90        0.00      96.07       1.00       1.72       1.35       ----

> <Gold.Chemscore.Fitness>
17.4298

> <Gold.Chemscore.DG>
-20.4960

> <Gold.Chemscore.ZeroCoef>
-5.4800

> <Gold.Chemscore.Hbond>
1.8968

> <Gold.Chemscore.Metal>
0.0000

> <Gold.Chemscore.Lipo>
96.0742

> <Gold.Chemscore.Internal_Hbond>
0.0000

> <Gold.Chemscore.DEClash>
1.7180

> <Gold.Chemscore.DEInternal>
1.3481

> <Gold.Chemscore.Rot>
1.0000

> <Gold.Chemscore.Internal.Correction>
   9.000000E+99

> <Gold.Chemscore.Hbonds>
donor molecule, donor type, donor heavy atom, donor atom, acceptor molecule, acceptor atom, score
      P1  H  7989  7998       L1    11  0.11
      P1  H  7997  8010       L1     9  0.21

> <Gold.Chemscore.Hbond.Weighted>
-6.3353

> <Gold.Chemscore.Metal.Weighted>
-0.0000

> <Gold.Chemscore.Lipo.Weighted>
-11.2407

> <Gold.Chemscore.Internal_Hbond.Weighted>
0.0000

> <Gold.Chemscore.DEClash.Weighted>
1.7180

> <Gold.Chemscore.DEInternal.Weighted>
1.3481

> <Gold.Chemscore.Rot.Weighted>
2.5600

> <Gold.Chemscore.Internal.Correction.Weighted>
   9.000000E+99

> <Gold.Protein.RotatedTorsions>
[ 6907 6896 6895 6894 ] final -169.87 input  -60.11 | X-H torsion
[ 7974 7965 7964 7962 ] final -159.28 input  175.53 | X-H torsion
[ 8008 7997 7996 7995 ] final   47.73 input   59.86 | X-H torsion
[ 10167 10162 10161 10158 ] final  116.82 input  -65.29 | X-H torsion
[ 10718 10713 10712 10709 ] final   71.98 input   66.30 | X-H torsion
[ 10763 10752 10751 10750 ] final  116.10 input  -60.55 | X-H torsion
[ 11005 11000 10999 10996 ] final   19.64 input  -57.11 | X-H torsion

> <Gold.Protein.ActiveResidues>
 VAL166  LYS551  ARG553  GLY616  TRP617  ASP618  TYR619  PRO620  LYS621  CYS622 
 ASP623  PHE694  ASN695  SER759  ASP760  ASP761  ALA762  ILE779  LEU786  VAL792 
 PHE793  MET794  SER795  GLU796  ALA797  LYS798  CYS799  TRP800  GLU811  SER814 

> <Gold.Protein.RotatedAtoms>
  151.4985  133.3509  159.2864 H   0  0  0  0  0  0  0  0  0  0  0  0  # atno 6907 bound_to 6896
  150.8788  134.8178  159.7221 H   0  0  0  0  0  0  0  0  0  0  0  0  # atno 6908 bound_to 6896
  152.4749  134.4880  159.9738 H   0  0  0  0  0  0  0  0  0  0  0  0  # atno 6909 bound_to 6896
  144.7471  140.3708  143.6076 H   0  0  0  0  0  0  0  0  0  0  0  0  # atno 7974 bound_to 7965
  155.3739  140.3425  155.4244 H   0  0  0  0  0  0  0  0  0  0  0  0  # atno 8008 bound_to 7997
  156.1647  140.1612  156.8585 H   0  0  0  0  0  0  0  0  0  0  0  0  # atno 8009 bound_to 7997
  154.5174  140.0775  156.8089 H   0  0  0  0  0  0  0  0  0  0  0  0  # atno 8010 bound_to 7997
  139.6220  144.7102  151.2613 H   0  0  0  0  0  0  0  0  0  0  0  0  # atno 10167 bound_to 10162
  157.6478  130.9555  150.0864 H   0  0  0  0  0  0  0  0  0  0  0  0  # atno 10718 bound_to 10713
  153.5321  135.3576  155.2680 H   0  0  0  0  0  0  0  0  0  0  0  0  # atno 10763 bound_to 10752
  154.8726  135.4071  154.3139 H   0  0  0  0  0  0  0  0  0  0  0  0  # atno 10764 bound_to 10752
  153.3830  135.7069  153.6619 H   0  0  0  0  0  0  0  0  0  0  0  0  # atno 10765 bound_to 10752
  140.4115  134.1614  155.7667 H   0  0  0  0  0  0  0  0  0  0  0  0  # atno 11005 bound_to 11000
  145.7080  139.1677  143.2555 LP  0  0  0  0  0  0  0  0  0  0  0  0  # atno 17320 bound_to 7965
  146.1368  140.7112  142.9386 LP  0  0  0  0  0  0  0  0  0  0  0  0  # atno 17321 bound_to 7965
  140.7388  143.6637  150.8142 LP  0  0  0  0  0  0  0  0  0  0  0  0  # atno 17342 bound_to 10162
  140.0249  143.5503  152.2785 LP  0  0  0  0  0  0  0  0  0  0  0  0  # atno 17343 bound_to 10162
  156.1826  130.3651  149.9015 LP  0  0  0  0  0  0  0  0  0  0  0  0  # atno 17370 bound_to 10713
  156.6964  130.8916  151.3594 LP  0  0  0  0  0  0  0  0  0  0  0  0  # atno 17371 bound_to 10713
  141.1819  133.8395  157.1226 LP  0  0  0  0  0  0  0  0  0  0  0  0  # atno 17394 bound_to 11000
  140.0264  134.9922  157.0695 LP  0  0  0  0  0  0  0  0  0  0  0  0  # atno 17395 bound_to 11000

$$$$
