AV-unprocessed.smi:1718|AV-procd|sdf|6926|dock6
  -GOLD-   22720 8133D 1   1.00000     0.00000
 Structure written by MMmdl.
 39 40  0  0  0  0  0  0  0  0  2 V2000
  149.1501  140.0088  154.4027 C   0  0  0  0  0  0  0  0  0  0  0  0
  150.3241  139.0862  154.7644 C   0  0  2  0  0  0  0  0  0  0  0  0
  149.7777  137.9068  155.3492 O   0  0  0  0  0  0  0  0  0  0  0  0
  150.6930  136.8314  155.5367 C   0  0  0  0  0  0  0  0  0  0  0  0
  149.9254  135.5721  155.9610 C   0  0  2  0  0  0  0  0  0  0  0  0
  150.7920  134.4389  156.5317 C   0  0  0  0  0  0  0  0  0  0  0  0
  150.3380  133.2058  155.7657 C   0  0  0  0  0  0  0  0  0  0  0  0
  149.0177  133.6406  155.1399 C   0  0  0  0  0  0  0  0  0  0  0  0
  149.2377  135.0104  154.8506 O   0  0  0  0  0  0  0  0  0  0  0  0
  151.2995  139.7669  155.7392 C   0  0  0  0  0  0  0  0  0  0  0  0
  152.4776  139.9108  155.4139 O   0  0  0  0  0  0  0  0  0  0  0  0
  150.7505  140.1903  156.8949 N   0  0  0  0  0  0  0  0  0  0  0  0
  151.3353  140.8676  157.9789 C   0  0  0  0  0  0  0  0  0  0  0  0
  151.1967  142.1974  158.2394 C   0  0  0  0  0  0  0  0  0  0  0  0
  151.8351  142.8392  159.3819 C   0  0  0  0  0  0  0  0  0  0  0  0
  151.6199  144.2937  159.7611 C   0  0  0  0  0  0  0  0  0  0  0  0
  152.2117  145.1095  158.8882 F   0  0  0  0  0  0  0  0  0  0  0  0
  150.3170  144.5715  159.7715 F   0  0  0  0  0  0  0  0  0  0  0  0
  152.1095  144.5496  160.9744 F   0  0  0  0  0  0  0  0  0  0  0  0
  152.5671  141.9484  160.1425 C   0  0  0  0  0  0  0  0  0  0  0  0
  152.7784  140.6296  159.9396 N   0  5  0  0  0  0  0  0  0  0  0  0
  152.1751  140.0395  158.8696 C   0  0  0  0  0  0  0  0  0  0  0  0
  152.3165  138.8391  158.6322 O   0  0  0  0  0  0  0  0  0  0  0  0
  149.5008  140.9449  153.9661 H   0  0  0  0  0  0  0  0  0  0  0  0
  148.5447  140.2511  155.2770 H   0  0  0  0  0  0  0  0  0  0  0  0
  148.4958  139.5306  153.6736 H   0  0  0  0  0  0  0  0  0  0  0  0
  150.8455  138.8231  153.8419 H   0  0  0  0  0  0  0  0  0  0  0  0
  151.2275  136.6366  154.6062 H   0  0  0  0  0  0  0  0  0  0  0  0
  151.4375  137.0731  156.2958 H   0  0  0  0  0  0  0  0  0  0  0  0
  149.1722  135.8458  156.7017 H   0  0  0  0  0  0  0  0  0  0  0  0
  151.8601  134.6098  156.3935 H   0  0  0  0  0  0  0  0  0  0  0  0
  150.6120  134.3265  157.6015 H   0  0  0  0  0  0  0  0  0  0  0  0
  151.0583  132.9764  154.9794 H   0  0  0  0  0  0  0  0  0  0  0  0
  150.2354  132.3238  156.3986 H   0  0  0  0  0  0  0  0  0  0  0  0
  148.7685  133.0733  154.2427 H   0  0  0  0  0  0  0  0  0  0  0  0
  148.1960  133.5431  155.8513 H   0  0  0  0  0  0  0  0  0  0  0  0
  149.7566  140.0413  156.9926 H   0  0  0  0  0  0  0  0  0  0  0  0
  150.6148  142.8333  157.5940 H   0  0  0  0  0  0  0  0  0  0  0  0
  153.0512  142.3559  161.0556 H   0  0  0  0  0  0  0  0  0  0  0  0
  1  2  1  0  0  0  0
  1 24  1  0  0  0  0
  1 25  1  0  0  0  0
  1 26  1  0  0  0  0
  2  3  1  0  0  0  0
  2 10  1  0  0  0  0
  2 27  1  0  0  0  0
  3  4  1  0  0  0  0
  4  5  1  0  0  0  0
  4 28  1  0  0  0  0
  4 29  1  0  0  0  0
  5  9  1  0  0  0  0
  5  6  1  0  0  0  0
  5 30  1  0  0  0  0
  6  7  1  0  0  0  0
  6 31  1  0  0  0  0
  6 32  1  0  0  0  0
  7  8  1  0  0  0  0
  7 33  1  0  0  0  0
  7 34  1  0  0  0  0
  8  9  1  0  0  0  0
  8 35  1  0  0  0  0
  8 36  1  0  0  0  0
 10 11  2  0  0  0  0
 10 12  1  0  0  0  0
 12 13  1  0  0  0  0
 12 37  1  0  0  0  0
 13 22  1  0  0  0  0
 13 14  2  0  0  0  0
 14 15  1  0  0  0  0
 14 38  1  0  0  0  0
 15 16  1  0  0  0  0
 15 20  2  0  0  0  0
 16 17  1  0  0  0  0
 16 18  1  0  0  0  0
 16 19  1  0  0  0  0
 20 21  1  0  0  0  0
 20 39  1  0  0  0  0
 21 22  1  0  0  0  0
 22 23  2  0  0  0  0
M  CHG  1  21  -1
M  END
> <s_m_source_file>
AV-unprocessed.smi

> <i_m_source_file_index>
1718

> <i_lp_mmshare_version>
43012

> <i_f3d_flags>
0

> <s_epik_input>
TzFbQ0gyXVtDSDJdW0NIMl1bQ0BIXTFbQ0gyXU9bQ0BASF0oW0NIM10pQyg9TylbTkhdYzJbY0hdYyhDKEYpKEYpRilbY0hdW25IXWMyPU8=

> <s_epik_cmdline>
J2VwaWtfcHl0aG9uJywgJy1waCcsICc3LjAnLCAnLXRuJywgJzgnLCAnLW1hJywgJzIwMCcsICctbWV0YWxfYmluZGluZycsICctaW1hZScsICc8aW5maWxlLm1hZT4nLCAnLW9tYWUnLCAnPG91dGZpbGUubWFlPic=

> <r_epik_Ionization_Penalty>
2.5466

> <r_epik_Ionization_Penalty_Charging>
0.0575837

> <r_epik_Ionization_Penalty_Neutral>
2.48901

> <r_epik_State_Penalty>
2.6532

> <r_epik_Charging_Adjusted_Penalty>
2.71078

> <i_epik_Tot_Q>
-1

> <i_epik_Tot_abs_Q>
1

> <r_epik_Metal_State_Penalty>
0.516196

> <b_epik_Metal_Only>
0

> <s_lp_Force_Field>
OPLS_2005

> <r_lp_Energy>
37.3435

> <b_lp_Chiralities_Consistent>
1

> <s_lp_Variant>
AV-unprocessed.smi:1718-5

> <Gold.Version>
5.8.1

> <Gold.Id.Protein>
6NUR|6NUR_protein|mol2

> <Gold.PLP.Fitness>
47.7192

> <Gold.PLP.PLP>
-46.4363

> <Gold.PLP.part.hbond>
-2.0000

> <Gold.PLP.part.metal>
0.0000

> <Gold.PLP.part.buried>
-6.4899

> <Gold.PLP.part.nonpolar>
-38.3889

> <Gold.PLP.part.repulsive>
0.4104

> <Gold.PLP.ligand.clash>
0.0000

> <Gold.PLP.ligand.torsion>
1.1252

> <Gold.PLP.Chemscore.Hbond>
1.1338

> <Gold.PLP.Chemscore.CHOScore>
0.0000

> <Gold.PLP.Chemscore.Metal>
0.0000

> <Gold.Chemscore.Hbonds>
donor molecule, donor type, donor heavy atom, donor atom, acceptor molecule, acceptor atom, score
      P1  H  7989  7998       L1    11  0.08
      P1  H  7997  8010       L1    11  0.98

> <Gold.PLP.Chemscore.Internal.Correction>
0.1319

> <Gold.Rescore>
     Score         DG    S(hbond)    S(metal)    S(lipo)     H(rot)  DE(clash)    DE(int)     intcor
     12.69     -13.93       1.00        0.00      84.19       1.85       0.34       0.90       ----

> <Gold.Chemscore.Fitness>
12.6860

> <Gold.Chemscore.DG>
-13.9333

> <Gold.Chemscore.ZeroCoef>
-5.4800

> <Gold.Chemscore.Hbond>
0.9964

> <Gold.Chemscore.Metal>
0.0000

> <Gold.Chemscore.Lipo>
84.1877

> <Gold.Chemscore.Internal_Hbond>
0.0000

> <Gold.Chemscore.DEClash>
0.3435

> <Gold.Chemscore.DEInternal>
0.9038

> <Gold.Chemscore.Rot>
1.8455

> <Gold.Chemscore.Internal.Correction>
   9.000000E+99

> <Gold.Chemscore.Hbonds>
donor molecule, donor type, donor heavy atom, donor atom, acceptor molecule, acceptor atom, score
      P1  H  7997  8010       L1    11  0.92

> <Gold.Chemscore.Hbond.Weighted>
-3.3278

> <Gold.Chemscore.Metal.Weighted>
-0.0000

> <Gold.Chemscore.Lipo.Weighted>
-9.8500

> <Gold.Chemscore.Internal_Hbond.Weighted>
0.0000

> <Gold.Chemscore.DEClash.Weighted>
0.3435

> <Gold.Chemscore.DEInternal.Weighted>
0.9038

> <Gold.Chemscore.Rot.Weighted>
4.7245

> <Gold.Chemscore.Internal.Correction.Weighted>
   9.000000E+99

> <Gold.Protein.RotatedTorsions>
[ 6907 6896 6895 6894 ] final -145.56 input  -60.11 | X-H torsion
[ 7974 7965 7964 7962 ] final  -45.24 input  175.53 | X-H torsion
[ 8008 7997 7996 7995 ] final  102.29 input   59.86 | X-H torsion
[ 10167 10162 10161 10158 ] final  149.71 input  -65.29 | X-H torsion
[ 10718 10713 10712 10709 ] final  146.96 input   66.30 | X-H torsion
[ 10763 10752 10751 10750 ] final -150.06 input  -60.55 | X-H torsion
[ 11005 11000 10999 10996 ] final   88.17 input  -57.11 | X-H torsion

> <Gold.Protein.ActiveResidues>
 VAL166  LYS551  ARG553  GLY616  TRP617  ASP618  TYR619  PRO620  LYS621  CYS622 
 ASP623  PHE694  ASN695  SER759  ASP760  ASP761  ALA762  ILE779  LEU786  VAL792 
 PHE793  MET794  SER795  GLU796  ALA797  LYS798  CYS799  TRP800  GLU811  SER814 

> <Gold.Protein.RotatedAtoms>
  151.1295  133.5047  159.2599 H   0  0  0  0  0  0  0  0  0  0  0  0  # atno 6907 bound_to 6896
  151.1773  135.0345  159.8787 H   0  0  0  0  0  0  0  0  0  0  0  0  # atno 6908 bound_to 6896
  152.5459  134.1151  159.8428 H   0  0  0  0  0  0  0  0  0  0  0  0  # atno 6909 bound_to 6896
  145.9840  140.7252  142.9349 H   0  0  0  0  0  0  0  0  0  0  0  0  # atno 7974 bound_to 7965
  156.1379  140.3184  155.8449 H   0  0  0  0  0  0  0  0  0  0  0  0  # atno 8008 bound_to 7997
  155.4210  140.0512  157.3042 H   0  0  0  0  0  0  0  0  0  0  0  0  # atno 8009 bound_to 7997
  154.4952  140.2108  155.9476 H   0  0  0  0  0  0  0  0  0  0  0  0  # atno 8010 bound_to 7997
  139.4858  144.5580  151.7283 H   0  0  0  0  0  0  0  0  0  0  0  0  # atno 10167 bound_to 10162
  157.3268  131.0913  151.1195 H   0  0  0  0  0  0  0  0  0  0  0  0  # atno 10718 bound_to 10713
  154.8141  135.3293  154.7225 H   0  0  0  0  0  0  0  0  0  0  0  0  # atno 10763 bound_to 10752
  153.7869  135.6914  153.4883 H   0  0  0  0  0  0  0  0  0  0  0  0  # atno 10764 bound_to 10752
  153.1943  135.4539  155.0135 H   0  0  0  0  0  0  0  0  0  0  0  0  # atno 10765 bound_to 10752
  139.8902  134.8470  156.2963 H   0  0  0  0  0  0  0  0  0  0  0  0  # atno 11005 bound_to 11000
  144.6869  140.2957  143.7271 LP  0  0  0  0  0  0  0  0  0  0  0  0  # atno 17320 bound_to 7965
  145.7727  139.1863  143.2203 LP  0  0  0  0  0  0  0  0  0  0  0  0  # atno 17321 bound_to 7965
  140.5145  144.0974  150.6004 LP  0  0  0  0  0  0  0  0  0  0  0  0  # atno 17342 bound_to 10162
  140.3911  143.2752  152.0059 LP  0  0  0  0  0  0  0  0  0  0  0  0  # atno 17343 bound_to 10162
  157.2459  130.6591  149.5910 LP  0  0  0  0  0  0  0  0  0  0  0  0  # atno 17370 bound_to 10713
  155.9691  130.4553  150.5884 LP  0  0  0  0  0  0  0  0  0  0  0  0  # atno 17371 bound_to 10713
  140.9943  133.7189  156.0862 LP  0  0  0  0  0  0  0  0  0  0  0  0  # atno 17394 bound_to 11000
  140.7583  134.3968  157.5530 LP  0  0  0  0  0  0  0  0  0  0  0  0  # atno 17395 bound_to 11000

$$$$
