AV-unprocessed.smi:3185|AV-procd|sdf|12171|dock2
  -GOLD-   2272018 03D 1   1.00000     0.00000
 Structure written by MMmdl.
 37 38  0  0  0  0  0  0  0  0  1 V2000
  152.5035  136.4880  157.1288 N   0  0  0  0  0  0  0  0  0  0  0  0
  152.7378  136.7974  158.2185 C   0  0  0  0  0  0  0  0  0  0  0  0
  153.0354  137.1909  159.6037 C   0  0  0  0  0  0  0  0  0  0  0  0
  152.1457  138.3372  160.0961 C   0  0  0  0  0  0  0  0  0  0  0  0
  152.7038  139.7090  159.7013 C   0  0  0  0  0  0  0  0  0  0  0  0
  152.7652  139.8071  158.2510 N   0  0  0  0  0  0  0  0  0  0  0  0
  151.4434  139.9155  157.6402 C   0  0  2  0  0  0  0  0  0  0  0  0
  151.6218  139.9924  156.1107 C   0  0  0  0  0  0  0  0  0  0  0  0
  150.2649  140.0936  155.3983 C   0  0  0  0  0  0  0  0  0  0  0  0
  149.4575  141.3021  155.8941 C   0  0  0  0  0  0  0  0  0  0  0  0
  149.2844  141.2750  157.4245 C   0  0  0  0  0  0  0  0  0  0  0  0
  150.6099  141.1040  158.2053 C   0  0  2  0  0  0  0  0  0  0  0  0
  151.3614  142.3555  158.3323 N   0  0  0  0  0  0  0  0  0  0  0  0
  151.4860  143.3546  157.3871 C   0  0  0  0  0  0  0  0  0  0  0  0
  152.2554  144.3447  157.9266 C   0  0  0  0  0  0  0  0  0  0  0  0
  152.5614  143.8601  159.2274 C   0  0  0  0  0  0  0  0  0  0  0  0
  152.0241  142.6760  159.4668 N   0  0  0  0  0  0  0  0  0  0  0  0
  152.9082  136.3112  160.2353 H   0  0  0  0  0  0  0  0  0  0  0  0
  154.0865  137.4763  159.6513 H   0  0  0  0  0  0  0  0  0  0  0  0
  151.1420  138.2158  159.6864 H   0  0  0  0  0  0  0  0  0  0  0  0
  152.0483  138.2775  161.1813 H   0  0  0  0  0  0  0  0  0  0  0  0
  152.0665  140.5008  160.0970 H   0  0  0  0  0  0  0  0  0  0  0  0
  153.6955  139.8373  160.1340 H   0  0  0  0  0  0  0  0  0  0  0  0
  153.3341  140.5950  157.9740 H   0  0  0  0  0  0  0  0  0  0  0  0
  150.9020  138.9911  157.8477 H   0  0  0  0  0  0  0  0  0  0  0  0
  152.2478  140.8408  155.8338 H   0  0  0  0  0  0  0  0  0  0  0  0
  152.1462  139.1043  155.7561 H   0  0  0  0  0  0  0  0  0  0  0  0
  150.4156  140.1649  154.3208 H   0  0  0  0  0  0  0  0  0  0  0  0
  149.6950  139.1796  155.5704 H   0  0  0  0  0  0  0  0  0  0  0  0
  149.9444  142.2243  155.5797 H   0  0  0  0  0  0  0  0  0  0  0  0
  148.4775  141.3076  155.4163 H   0  0  0  0  0  0  0  0  0  0  0  0
  148.7644  142.1741  157.7570 H   0  0  0  0  0  0  0  0  0  0  0  0
  148.6272  140.4416  157.6758 H   0  0  0  0  0  0  0  0  0  0  0  0
  150.3157  140.8373  159.2210 H   0  0  0  0  0  0  0  0  0  0  0  0
  151.0173  143.2805  156.4170 H   0  0  0  0  0  0  0  0  0  0  0  0
  152.5524  145.2736  157.4632 H   0  0  0  0  0  0  0  0  0  0  0  0
  153.1514  144.3304  160.0000 H   0  0  0  0  0  0  0  0  0  0  0  0
  1  2  3  0  0  0  0
  2  3  1  0  0  0  0
  3  4  1  0  0  0  0
  3 18  1  0  0  0  0
  3 19  1  0  0  0  0
  4  5  1  0  0  0  0
  4 20  1  0  0  0  0
  4 21  1  0  0  0  0
  5  6  1  0  0  0  0
  5 22  1  0  0  0  0
  5 23  1  0  0  0  0
  6  7  1  0  0  0  0
  6 24  1  0  0  0  0
  7 12  1  0  0  0  0
  7  8  1  0  0  0  0
  7 25  1  0  0  0  0
  8  9  1  0  0  0  0
  8 26  1  0  0  0  0
  8 27  1  0  0  0  0
  9 10  1  0  0  0  0
  9 28  1  0  0  0  0
  9 29  1  0  0  0  0
 10 11  1  0  0  0  0
 10 30  1  0  0  0  0
 10 31  1  0  0  0  0
 11 12  1  0  0  0  0
 11 32  1  0  0  0  0
 11 33  1  0  0  0  0
 12 13  1  0  0  0  0
 12 34  1  0  0  0  0
 13 17  1  0  0  0  0
 13 14  1  0  0  0  0
 14 15  2  0  0  0  0
 14 35  1  0  0  0  0
 15 16  1  0  0  0  0
 15 36  1  0  0  0  0
 16 17  2  0  0  0  0
 16 37  1  0  0  0  0
M  END
> <s_m_source_file>
AV-unprocessed.smi

> <i_m_source_file_index>
3185

> <i_lp_mmshare_version>
43012

> <i_f3d_flags>
0

> <s_epik_input>
TiNDW0NIMl1bQ0gyXVtDSDJdW05IXVtDQEBIXTFbQ0gyXVtDSDJdW0NIMl1bQ0gyXVtDQEhdMW4yW2NIXVtjSF1bY0hdbjI=

> <s_epik_cmdline>
J2VwaWtfcHl0aG9uJywgJy1waCcsICc3LjAnLCAnLXRuJywgJzgnLCAnLW1hJywgJzIwMCcsICctbWV0YWxfYmluZGluZycsICctaW1hZScsICc8aW5maWxlLm1hZT4nLCAnLW9tYWUnLCAnPG91dGZpbGUubWFlPic=

> <r_lp_tautomer_probability>
1

> <r_epik_Ionization_Penalty>
2.21326

> <r_epik_Ionization_Penalty_Charging>
0

> <r_epik_Ionization_Penalty_Neutral>
2.21326

> <r_epik_State_Penalty>
2.35651

> <r_epik_Charging_Adjusted_Penalty>
2.35651

> <i_epik_Tot_Q>
0

> <i_epik_Tot_abs_Q>
0

> <r_epik_Metal_State_Penalty>
2.3555

> <b_epik_Metal_Only>
0

> <s_lp_Force_Field>
OPLS_2005

> <r_lp_Energy>
17.6064

> <b_lp_Chiralities_Consistent>
1

> <s_lp_Variant>
AV-unprocessed.smi:3185-7

> <Gold.Version>
5.8.1

> <Gold.Id.Protein>
6NUR|6NUR_protein|mol2

> <Gold.PLP.Fitness>
37.6064

> <Gold.PLP.PLP>
-33.2203

> <Gold.PLP.part.hbond>
-2.0000

> <Gold.PLP.part.metal>
0.0000

> <Gold.PLP.part.buried>
-4.2333

> <Gold.PLP.part.nonpolar>
-27.4626

> <Gold.PLP.part.repulsive>
0.0000

> <Gold.PLP.ligand.clash>
0.0000

> <Gold.PLP.ligand.torsion>
0.8611

> <Gold.PLP.Chemscore.Hbond>
1.0000

> <Gold.PLP.Chemscore.CHOScore>
1.0000

> <Gold.PLP.Chemscore.Metal>
0.0000

> <Gold.Chemscore.Hbonds>
donor molecule, donor type, donor heavy atom, donor atom, acceptor molecule, acceptor atom, score
      P1  H 10752 10764       L1     1  0.21
      L1  C    14    35       P1  8028  0.57

> <Gold.PLP.Chemscore.Internal.Correction>
0.1083

> <Gold.Rescore>
     Score         DG    S(hbond)    S(metal)    S(lipo)     H(rot)  DE(clash)    DE(int)     intcor
     13.76     -14.55       0.99        0.00      88.84       1.81       0.20       0.60       ----

> <Gold.Chemscore.Fitness>
13.7572

> <Gold.Chemscore.DG>
-14.5540

> <Gold.Chemscore.ZeroCoef>
-5.4800

> <Gold.Chemscore.Hbond>
0.9930

> <Gold.Chemscore.Metal>
0.0000

> <Gold.Chemscore.Lipo>
88.8351

> <Gold.Chemscore.Internal_Hbond>
0.0000

> <Gold.Chemscore.DEClash>
0.1972

> <Gold.Chemscore.DEInternal>
0.5995

> <Gold.Chemscore.Rot>
1.8110

> <Gold.Chemscore.Internal.Correction>
   9.000000E+99

> <Gold.Chemscore.Hbonds>
donor molecule, donor type, donor heavy atom, donor atom, acceptor molecule, acceptor atom, score
      P1  H 10752 10764       L1     1  0.21

> <Gold.Chemscore.Hbond.Weighted>
-3.3165

> <Gold.Chemscore.Metal.Weighted>
-0.0000

> <Gold.Chemscore.Lipo.Weighted>
-10.3937

> <Gold.Chemscore.Internal_Hbond.Weighted>
0.0000

> <Gold.Chemscore.DEClash.Weighted>
0.1972

> <Gold.Chemscore.DEInternal.Weighted>
0.5995

> <Gold.Chemscore.Rot.Weighted>
4.6362

> <Gold.Chemscore.Internal.Correction.Weighted>
   9.000000E+99

> <Gold.Protein.RotatedTorsions>
[ 6907 6896 6895 6894 ] final  104.36 input  -60.11 | X-H torsion
[ 7974 7965 7964 7962 ] final  -57.35 input  175.53 | X-H torsion
[ 8008 7997 7996 7995 ] final   10.75 input   59.86 | X-H torsion
[ 10167 10162 10161 10158 ] final  -52.46 input  -65.29 | X-H torsion
[ 10718 10713 10712 10709 ] final   87.46 input   66.30 | X-H torsion
[ 10763 10752 10751 10750 ] final  -22.02 input  -60.55 | X-H torsion
[ 11005 11000 10999 10996 ] final  152.60 input  -57.11 | X-H torsion

> <Gold.Protein.ActiveResidues>
 VAL166  LYS551  ARG553  GLY616  TRP617  ASP618  TYR619  PRO620  LYS621  CYS622 
 ASP623  PHE694  ASN695  SER759  ASP760  ASP761  ALA762  ILE779  LEU786  VAL792 
 PHE793  MET794  SER795  GLU796  ALA797  LYS798  CYS799  TRP800  GLU811  SER814 

> <Gold.Protein.RotatedAtoms>
  152.5266  133.9688  159.7751 H   0  0  0  0  0  0  0  0  0  0  0  0  # atno 6907 bound_to 6896
  150.9964  133.6091  159.2708 H   0  0  0  0  0  0  0  0  0  0  0  0  # atno 6908 bound_to 6896
  151.3216  135.0826  159.9361 H   0  0  0  0  0  0  0  0  0  0  0  0  # atno 6909 bound_to 6896
  145.8520  140.8345  142.9980 H   0  0  0  0  0  0  0  0  0  0  0  0  # atno 7974 bound_to 7965
  154.7976  140.2846  155.5945 H   0  0  0  0  0  0  0  0  0  0  0  0  # atno 8008 bound_to 7997
  156.2973  140.2592  156.2766 H   0  0  0  0  0  0  0  0  0  0  0  0  # atno 8009 bound_to 7997
  154.9596  140.0378  157.2173 H   0  0  0  0  0  0  0  0  0  0  0  0  # atno 8010 bound_to 7997
  140.6536  143.2583  151.4651 H   0  0  0  0  0  0  0  0  0  0  0  0  # atno 10167 bound_to 10162
  157.6940  131.0256  150.3126 H   0  0  0  0  0  0  0  0  0  0  0  0  # atno 10718 bound_to 10713
  153.6453  135.6983  153.5227 H   0  0  0  0  0  0  0  0  0  0  0  0  # atno 10763 bound_to 10752
  153.2750  135.4203  155.1023 H   0  0  0  0  0  0  0  0  0  0  0  0  # atno 10764 bound_to 10752
  154.8490  135.3588  154.5997 H   0  0  0  0  0  0  0  0  0  0  0  0  # atno 10765 bound_to 10752
  140.1322  134.8794  157.2219 H   0  0  0  0  0  0  0  0  0  0  0  0  # atno 11005 bound_to 11000
  144.6729  140.0968  143.7462 LP  0  0  0  0  0  0  0  0  0  0  0  0  # atno 17320 bound_to 7965
  145.9346  139.2629  143.1305 LP  0  0  0  0  0  0  0  0  0  0  0  0  # atno 17321 bound_to 7965
  139.5755  144.1829  152.1897 LP  0  0  0  0  0  0  0  0  0  0  0  0  # atno 17342 bound_to 10162
  140.1139  144.5433  150.6907 LP  0  0  0  0  0  0  0  0  0  0  0  0  # atno 17343 bound_to 10162
  156.3625  130.3849  149.7239 LP  0  0  0  0  0  0  0  0  0  0  0  0  # atno 17370 bound_to 10713
  156.4681  130.7983  151.3002 LP  0  0  0  0  0  0  0  0  0  0  0  0  # atno 17371 bound_to 10713
  140.2827  134.3331  155.7338 LP  0  0  0  0  0  0  0  0  0  0  0  0  # atno 17394 bound_to 11000
  141.2172  133.7488  156.9388 LP  0  0  0  0  0  0  0  0  0  0  0  0  # atno 17395 bound_to 11000

$$$$
