AV-unprocessed.smi:373|AV-procd|sdf|2450|dock3
  -GOLD-   2262022393D 1   1.00000     0.00000
 Structure written by MMmdl.
 40 41  0  0  0  0  0  0  0  0  1 V2000
  152.9234  142.5758  160.8323 C   0  0  0  0  0  0  0  0  0  0  0  0
  153.0441  143.4567  159.5830 C   0  0  0  0  0  0  0  0  0  0  0  0
  151.8493  143.3148  158.6317 C   0  0  0  0  0  0  0  0  0  0  0  0
  151.7393  141.9593  158.2207 O   0  0  0  0  0  0  0  0  0  0  0  0
  150.9953  141.7619  157.0258 C   0  0  1  0  0  0  0  0  0  0  0  0
  151.3302  140.3550  156.5011 C   0  0  0  0  0  0  0  0  0  0  0  0
  150.4880  140.0301  155.2575 C   0  0  0  0  0  0  0  0  0  0  0  0
  148.9890  140.2054  155.5498 C   0  0  0  0  0  0  0  0  0  0  0  0
  148.7180  141.5386  156.0821 N   0  0  0  0  0  0  0  0  0  0  0  0
  147.3489  141.8627  156.0887 C   0  0  0  0  0  0  0  0  0  0  0  0
  146.7838  142.1876  157.2769 N   0  0  0  0  0  0  0  0  0  0  0  0
  145.4663  142.4771  157.3131 C   0  0  0  0  0  0  0  0  0  0  0  0
  144.6313  142.4523  156.1738 C   0  0  0  0  0  0  0  0  0  0  0  0
  143.1738  142.8032  156.2531 C   0  0  0  0  0  0  0  0  0  0  0  0
  142.4836  142.7232  155.1113 N   0  0  0  0  0  0  0  0  0  0  0  0
  142.6675  143.1946  157.3030 O   0  0  0  0  0  0  0  0  0  0  0  0
  145.2253  142.1305  154.9351 C   0  0  0  0  0  0  0  0  0  0  0  0
  146.5998  141.8262  154.8864 C   0  0  0  0  0  0  0  0  0  0  0  0
  147.3297  141.4448  153.3653 Cl  0  0  0  0  0  0  0  0  0  0  0  0
  149.4781  141.8878  157.2822 C   0  0  0  0  0  0  0  0  0  0  0  0
  153.7832  142.7142  161.4882 H   0  0  0  0  0  0  0  0  0  0  0  0
  152.8748  141.5192  160.5681 H   0  0  0  0  0  0  0  0  0  0  0  0
  152.0269  142.8207  161.4024 H   0  0  0  0  0  0  0  0  0  0  0  0
  153.1314  144.4986  159.8925 H   0  0  0  0  0  0  0  0  0  0  0  0
  153.9660  143.2168  159.0518 H   0  0  0  0  0  0  0  0  0  0  0  0
  150.9373  143.6506  159.1257 H   0  0  0  0  0  0  0  0  0  0  0  0
  152.0030  143.9532  157.7606 H   0  0  0  0  0  0  0  0  0  0  0  0
  151.3040  142.4904  156.2737 H   0  0  0  0  0  0  0  0  0  0  0  0
  152.3923  140.2842  156.2638 H   0  0  0  0  0  0  0  0  0  0  0  0
  151.1334  139.6148  157.2781 H   0  0  0  0  0  0  0  0  0  0  0  0
  150.7783  140.6875  154.4368 H   0  0  0  0  0  0  0  0  0  0  0  0
  150.6871  139.0112  154.9250 H   0  0  0  0  0  0  0  0  0  0  0  0
  148.4138  140.0284  154.6406 H   0  0  0  0  0  0  0  0  0  0  0  0
  148.6623  139.4619  156.2781 H   0  0  0  0  0  0  0  0  0  0  0  0
  145.0761  142.7370  158.2865 H   0  0  0  0  0  0  0  0  0  0  0  0
  141.4978  142.9408  155.0986 H   0  0  0  0  0  0  0  0  0  0  0  0
  142.9524  142.4386  154.2633 H   0  0  0  0  0  0  0  0  0  0  0  0
  144.6383  142.1131  154.0280 H   0  0  0  0  0  0  0  0  0  0  0  0
  149.1869  141.2285  158.1014 H   0  0  0  0  0  0  0  0  0  0  0  0
  149.2249  142.9053  157.5807 H   0  0  0  0  0  0  0  0  0  0  0  0
  1  2  1  0  0  0  0
  1 21  1  0  0  0  0
  1 22  1  0  0  0  0
  1 23  1  0  0  0  0
  2  3  1  0  0  0  0
  2 24  1  0  0  0  0
  2 25  1  0  0  0  0
  3  4  1  0  0  0  0
  3 26  1  0  0  0  0
  3 27  1  0  0  0  0
  4  5  1  0  0  0  0
  5 20  1  0  0  0  0
  5  6  1  0  0  0  0
  5 28  1  0  0  0  0
  6  7  1  0  0  0  0
  6 29  1  0  0  0  0
  6 30  1  0  0  0  0
  7  8  1  0  0  0  0
  7 31  1  0  0  0  0
  7 32  1  0  0  0  0
  8  9  1  0  0  0  0
  8 33  1  0  0  0  0
  8 34  1  0  0  0  0
  9 10  1  0  0  0  0
  9 20  1  0  0  0  0
 10 18  1  0  0  0  0
 10 11  2  0  0  0  0
 11 12  1  0  0  0  0
 12 13  2  0  0  0  0
 12 35  1  0  0  0  0
 13 14  1  0  0  0  0
 13 17  1  0  0  0  0
 14 15  1  0  0  0  0
 14 16  2  0  0  0  0
 15 36  1  0  0  0  0
 15 37  1  0  0  0  0
 17 18  2  0  0  0  0
 17 38  1  0  0  0  0
 18 19  1  0  0  0  0
 20 39  1  0  0  0  0
 20 40  1  0  0  0  0
M  END
> <s_m_source_file>
AV-unprocessed.smi

> <i_m_source_file_index>
373

> <i_lp_mmshare_version>
43012

> <i_f3d_flags>
0

> <s_epik_input>
W0NIM11bQ0gyXVtDSDJdT1tDQEBIXTFbQ0gyXVtDSDJdW0NIMl1OKFtDSDJdMSljMm5bY0hdYyhDKD1PKVtOSDJdKVtjSF1jMkNs

> <s_epik_cmdline>
J2VwaWtfcHl0aG9uJywgJy1waCcsICc3LjAnLCAnLXRuJywgJzgnLCAnLW1hJywgJzIwMCcsICctbWV0YWxfYmluZGluZycsICctaW1hZScsICc8aW5maWxlLm1hZT4nLCAnLW9tYWUnLCAnPG91dGZpbGUubWFlPic=

> <r_lp_tautomer_probability>
1

> <r_epik_Ionization_Penalty>
3.23666e-05

> <r_epik_Ionization_Penalty_Charging>
0

> <r_epik_Ionization_Penalty_Neutral>
3.23666e-05

> <r_epik_State_Penalty>
-0

> <r_epik_Charging_Adjusted_Penalty>
0

> <i_epik_Tot_Q>
0

> <i_epik_Tot_abs_Q>
0

> <r_epik_Metal_State_Penalty>
-0

> <b_epik_Metal_Only>
0

> <s_lp_Force_Field>
OPLS_2005

> <r_lp_Energy>
19.6268

> <b_lp_Chiralities_Consistent>
1

> <s_lp_Variant>
AV-unprocessed.smi:373-2

> <Gold.Version>
5.8.1

> <Gold.Id.Protein>
6NUR|6NUR_protein|mol2

> <Gold.PLP.Fitness>
32.3988

> <Gold.PLP.PLP>
-30.5341

> <Gold.PLP.part.hbond>
-1.0000

> <Gold.PLP.part.metal>
0.0000

> <Gold.PLP.part.buried>
-3.6735

> <Gold.PLP.part.nonpolar>
-26.8105

> <Gold.PLP.part.repulsive>
0.4857

> <Gold.PLP.ligand.clash>
0.0000

> <Gold.PLP.ligand.torsion>
0.4088

> <Gold.PLP.Chemscore.Hbond>
0.8000

> <Gold.PLP.Chemscore.CHOScore>
0.0000

> <Gold.PLP.Chemscore.Metal>
0.0000

> <Gold.Chemscore.Hbonds>
donor molecule, donor type, donor heavy atom, donor atom, acceptor molecule, acceptor atom, score
      L1  H    15    37       P1 10174  0.57

> <Gold.PLP.Chemscore.Internal.Correction>
0.2823

> <Gold.Rescore>
     Score         DG    S(hbond)    S(metal)    S(lipo)     H(rot)  DE(clash)    DE(int)     intcor
     12.22     -13.83       0.69        0.00      85.93       1.57       0.10       1.51       ----

> <Gold.Chemscore.Fitness>
12.2161

> <Gold.Chemscore.DG>
-13.8275

> <Gold.Chemscore.ZeroCoef>
-5.4800

> <Gold.Chemscore.Hbond>
0.6914

> <Gold.Chemscore.Metal>
0.0000

> <Gold.Chemscore.Lipo>
85.9310

> <Gold.Chemscore.Internal_Hbond>
0.0000

> <Gold.Chemscore.DEClash>
0.0971

> <Gold.Chemscore.DEInternal>
1.5144

> <Gold.Chemscore.Rot>
1.5687

> <Gold.Chemscore.Internal.Correction>
   9.000000E+99

> <Gold.Chemscore.Hbonds>
donor molecule, donor type, donor heavy atom, donor atom, acceptor molecule, acceptor atom, score
      L1  H    15    37       P1 10174  0.17

> <Gold.Chemscore.Hbond.Weighted>
-2.3094

> <Gold.Chemscore.Metal.Weighted>
-0.0000

> <Gold.Chemscore.Lipo.Weighted>
-10.0539

> <Gold.Chemscore.Internal_Hbond.Weighted>
0.0000

> <Gold.Chemscore.DEClash.Weighted>
0.0971

> <Gold.Chemscore.DEInternal.Weighted>
1.5144

> <Gold.Chemscore.Rot.Weighted>
4.0158

> <Gold.Chemscore.Internal.Correction.Weighted>
   9.000000E+99

> <Gold.Protein.RotatedTorsions>
[ 6907 6896 6895 6894 ] final  112.37 input  -60.11 | X-H torsion
[ 7974 7965 7964 7962 ] final  164.14 input  175.53 | X-H torsion
[ 8008 7997 7996 7995 ] final  153.09 input   59.86 | X-H torsion
[ 10167 10162 10161 10158 ] final    2.43 input  -65.29 | X-H torsion
[ 10718 10713 10712 10709 ] final  -49.24 input   66.30 | X-H torsion
[ 10763 10752 10751 10750 ] final   77.40 input  -60.55 | X-H torsion
[ 11005 11000 10999 10996 ] final -115.66 input  -57.11 | X-H torsion

> <Gold.Protein.ActiveResidues>
 VAL166  LYS551  ARG553  GLY616  TRP617  ASP618  TYR619  PRO620  LYS621  CYS622 
 ASP623  PHE694  ASN695  SER759  ASP760  ASP761  ALA762  ILE779  LEU786  VAL792 
 PHE793  MET794  SER795  GLU796  ALA797  LYS798  CYS799  TRP800  GLU811  SER814 

> <Gold.Protein.RotatedAtoms>
  152.4920  133.8525  159.7208 H   0  0  0  0  0  0  0  0  0  0  0  0  # atno 6907 bound_to 6896
  150.9058  133.7050  159.2874 H   0  0  0  0  0  0  0  0  0  0  0  0  # atno 6908 bound_to 6896
  151.4476  135.1031  159.9741 H   0  0  0  0  0  0  0  0  0  0  0  0  # atno 6909 bound_to 6896
  144.7558  139.8283  143.6350 H   0  0  0  0  0  0  0  0  0  0  0  0  # atno 7974 bound_to 7965
  156.2598  140.2003  156.6436 H   0  0  0  0  0  0  0  0  0  0  0  0  # atno 8008 bound_to 7997
  154.6590  140.0563  157.0066 H   0  0  0  0  0  0  0  0  0  0  0  0  # atno 8009 bound_to 7997
  155.1304  140.3233  155.4478 H   0  0  0  0  0  0  0  0  0  0  0  0  # atno 8010 bound_to 7997
  140.6635  143.7240  150.7784 H   0  0  0  0  0  0  0  0  0  0  0  0  # atno 10167 bound_to 10162
  156.1912  130.4153  149.9369 H   0  0  0  0  0  0  0  0  0  0  0  0  # atno 10718 bound_to 10713
  153.0796  135.4916  154.8475 H   0  0  0  0  0  0  0  0  0  0  0  0  # atno 10763 bound_to 10752
  154.7133  135.3024  154.9166 H   0  0  0  0  0  0  0  0  0  0  0  0  # atno 10764 bound_to 10752
  153.9853  135.6785  153.4804 H   0  0  0  0  0  0  0  0  0  0  0  0  # atno 10765 bound_to 10752
  141.0473  133.9743  157.2896 H   0  0  0  0  0  0  0  0  0  0  0  0  # atno 11005 bound_to 11000
  146.1567  139.4667  143.0014 LP  0  0  0  0  0  0  0  0  0  0  0  0  # atno 17320 bound_to 7965
  145.6783  141.0198  143.1620 LP  0  0  0  0  0  0  0  0  0  0  0  0  # atno 17321 bound_to 7965
  140.0913  143.4875  152.2477 LP  0  0  0  0  0  0  0  0  0  0  0  0  # atno 17342 bound_to 10162
  139.5877  144.7537  151.3479 LP  0  0  0  0  0  0  0  0  0  0  0  0  # atno 17343 bound_to 10162
  156.7109  130.8970  151.3609 LP  0  0  0  0  0  0  0  0  0  0  0  0  # atno 17370 bound_to 10713
  157.6930  130.9253  150.0565 LP  0  0  0  0  0  0  0  0  0  0  0  0  # atno 17371 bound_to 10713
  139.9322  135.0199  156.8437 LP  0  0  0  0  0  0  0  0  0  0  0  0  # atno 17394 bound_to 11000
  140.6123  134.0071  155.7582 LP  0  0  0  0  0  0  0  0  0  0  0  0  # atno 17395 bound_to 11000

$$$$
