AV-unprocessed.smi:1413|AV-procd|sdf|5751|dock10
  -GOLD-   22720 5393D 1   1.00000     0.00000
 Structure written by MMmdl.
 53 55  0  0  0  0  0  0  0  0  1 V2000
  151.1258  144.8661  158.4611 C   0  0  0  0  0  0  0  0  0  0  0  0
  151.7772  143.5423  158.0478 C   0  0  2  0  0  0  0  0  0  0  0  0
  150.7429  142.5312  157.5176 C   0  0  0  0  0  0  0  0  0  0  0  0
  151.3772  141.2433  157.2517 N   0  0  0  0  0  0  0  0  0  0  0  0
  150.6009  140.3263  156.5110 C   0  0  0  0  0  0  0  0  0  0  0  0
  149.6719  139.4874  157.1704 C   0  0  0  0  0  0  0  0  0  0  0  0
  148.9043  138.5802  156.4148 C   0  0  0  0  0  0  0  0  0  0  0  0
  149.0791  138.5385  155.0125 C   0  0  0  0  0  0  0  0  0  0  0  0
  148.3797  137.6546  154.1480 N   0  0  0  0  0  0  0  0  0  0  0  0
  147.1058  137.2373  154.2407 C   0  0  0  0  0  0  0  0  0  0  0  0
  146.3102  137.5775  155.1160 O   0  0  0  0  0  0  0  0  0  0  0  0
  146.7971  136.4053  153.2355 N   0  0  0  0  0  0  0  0  0  0  0  0
  145.4902  135.7944  152.9914 C   0  0  1  0  0  0  0  0  0  0  0  0
  144.4119  136.8875  152.9981 C   0  0  0  0  0  0  0  0  0  0  0  0
  145.4866  134.9943  151.6719 C   0  0  2  0  0  0  0  0  0  0  0  0
  144.1864  134.2423  151.3502 C   0  0  0  0  0  0  0  0  0  0  0  0
  144.6520  132.9431  150.7063 C   0  0  0  0  0  0  0  0  0  0  0  0
  146.1693  133.0906  150.6203 C   0  0  0  0  0  0  0  0  0  0  0  0
  146.4806  133.9784  151.6805 O   0  0  0  0  0  0  0  0  0  0  0  0
  150.0376  139.4025  154.4473 C   0  0  0  0  0  0  0  0  0  0  0  0
  150.7716  140.2764  155.1671 N   0  0  0  0  0  0  0  0  0  0  0  0
  152.1435  140.7320  158.3859 C   0  0  0  0  0  0  0  0  0  0  0  0
  153.1413  141.7946  158.8830 C   0  0  2  0  0  0  0  0  0  0  0  0
  153.8862  141.3412  160.1427 C   0  0  0  0  0  0  0  0  0  0  0  0
  152.4325  142.9926  159.1878 O   0  0  0  0  0  0  0  0  0  0  0  0
  150.6176  145.3333  157.6174 H   0  0  0  0  0  0  0  0  0  0  0  0
  151.8724  145.5695  158.8306 H   0  0  0  0  0  0  0  0  0  0  0  0
  150.3913  144.7137  159.2524 H   0  0  0  0  0  0  0  0  0  0  0  0
  152.5189  143.7481  157.2738 H   0  0  0  0  0  0  0  0  0  0  0  0
  149.9501  142.3843  158.2524 H   0  0  0  0  0  0  0  0  0  0  0  0
  150.2729  142.9375  156.6230 H   0  0  0  0  0  0  0  0  0  0  0  0
  149.5319  139.5369  158.2400 H   0  0  0  0  0  0  0  0  0  0  0  0
  148.2089  137.9308  156.9237 H   0  0  0  0  0  0  0  0  0  0  0  0
  148.8847  137.3622  153.3242 H   0  0  0  0  0  0  0  0  0  0  0  0
  147.5239  136.1808  152.5719 H   0  0  0  0  0  0  0  0  0  0  0  0
  145.2449  135.1018  153.7983 H   0  0  0  0  0  0  0  0  0  0  0  0
  143.4198  136.4600  152.8505 H   0  0  0  0  0  0  0  0  0  0  0  0
  144.5801  137.6184  152.2063 H   0  0  0  0  0  0  0  0  0  0  0  0
  144.4005  137.4228  153.9480 H   0  0  0  0  0  0  0  0  0  0  0  0
  145.7077  135.6674  150.8411 H   0  0  0  0  0  0  0  0  0  0  0  0
  143.6026  134.0202  152.2430 H   0  0  0  0  0  0  0  0  0  0  0  0
  143.5510  134.8264  150.6837 H   0  0  0  0  0  0  0  0  0  0  0  0
  144.3936  132.1003  151.3486 H   0  0  0  0  0  0  0  0  0  0  0  0
  144.2007  132.7711  149.7288 H   0  0  0  0  0  0  0  0  0  0  0  0
  146.6921  132.1397  150.7246 H   0  0  0  0  0  0  0  0  0  0  0  0
  146.4626  133.5413  149.6708 H   0  0  0  0  0  0  0  0  0  0  0  0
  150.2179  139.4001  153.3822 H   0  0  0  0  0  0  0  0  0  0  0  0
  151.4581  140.4542  159.1880 H   0  0  0  0  0  0  0  0  0  0  0  0
  152.6871  139.8322  158.0944 H   0  0  0  0  0  0  0  0  0  0  0  0
  153.8760  142.0023  158.1028 H   0  0  0  0  0  0  0  0  0  0  0  0
  154.4535  140.4292  159.9553 H   0  0  0  0  0  0  0  0  0  0  0  0
  153.1939  141.1429  160.9614 H   0  0  0  0  0  0  0  0  0  0  0  0
  154.5876  142.1061  160.4770 H   0  0  0  0  0  0  0  0  0  0  0  0
  1  2  1  0  0  0  0
  1 26  1  0  0  0  0
  1 27  1  0  0  0  0
  1 28  1  0  0  0  0
  2 25  1  0  0  0  0
  2  3  1  0  0  0  0
  2 29  1  0  0  0  0
  3  4  1  0  0  0  0
  3 30  1  0  0  0  0
  3 31  1  0  0  0  0
  4  5  1  0  0  0  0
  4 22  1  0  0  0  0
  5 21  1  0  0  0  0
  5  6  2  0  0  0  0
  6  7  1  0  0  0  0
  6 32  1  0  0  0  0
  7  8  2  0  0  0  0
  7 33  1  0  0  0  0
  8  9  1  0  0  0  0
  8 20  1  0  0  0  0
  9 10  1  0  0  0  0
  9 34  1  0  0  0  0
 10 11  2  0  0  0  0
 10 12  1  0  0  0  0
 12 13  1  0  0  0  0
 12 35  1  0  0  0  0
 13 14  1  0  0  0  0
 13 15  1  0  0  0  0
 13 36  1  0  0  0  0
 14 37  1  0  0  0  0
 14 38  1  0  0  0  0
 14 39  1  0  0  0  0
 15 19  1  0  0  0  0
 15 16  1  0  0  0  0
 15 40  1  0  0  0  0
 16 17  1  0  0  0  0
 16 41  1  0  0  0  0
 16 42  1  0  0  0  0
 17 18  1  0  0  0  0
 17 43  1  0  0  0  0
 17 44  1  0  0  0  0
 18 19  1  0  0  0  0
 18 45  1  0  0  0  0
 18 46  1  0  0  0  0
 20 21  2  0  0  0  0
 20 47  1  0  0  0  0
 22 23  1  0  0  0  0
 22 48  1  0  0  0  0
 22 49  1  0  0  0  0
 23 24  1  0  0  0  0
 23 25  1  0  0  0  0
 23 50  1  0  0  0  0
 24 51  1  0  0  0  0
 24 52  1  0  0  0  0
 24 53  1  0  0  0  0
M  END
> <s_m_source_file>
AV-unprocessed.smi

> <i_m_source_file_index>
1413

> <i_lp_mmshare_version>
43012

> <i_f3d_flags>
0

> <s_epik_input>
W0NIM11bQ0BASF0xW0NIMl1OKFtDSDJdW0NASF0oTzEpW0NIM10pYzJbY0hdW2NIXWMoW2NIXW4yKVtOSF1DKD1PKVtOSF1bQ0BIXShbQ0gzXSlbQ0BASF0zW0NIMl1bQ0gyXVtDSDJdTzM=

> <s_epik_cmdline>
J2VwaWtfcHl0aG9uJywgJy1waCcsICc3LjAnLCAnLXRuJywgJzgnLCAnLW1hJywgJzIwMCcsICctbWV0YWxfYmluZGluZycsICctaW1hZScsICc8aW5maWxlLm1hZT4nLCAnLW9tYWUnLCAnPG91dGZpbGUubWFlPic=

> <r_lp_tautomer_probability>
1

> <r_epik_Ionization_Penalty>
0.00271172

> <r_epik_Ionization_Penalty_Charging>
0

> <r_epik_Ionization_Penalty_Neutral>
0.00271172

> <r_epik_State_Penalty>
0.00186503

> <r_epik_Charging_Adjusted_Penalty>
0.00186503

> <i_epik_Tot_Q>
0

> <i_epik_Tot_abs_Q>
0

> <r_epik_Metal_State_Penalty>
-0

> <b_epik_Metal_Only>
0

> <s_lp_Force_Field>
OPLS_2005

> <r_lp_Energy>
35.2684

> <b_lp_Chiralities_Consistent>
1

> <s_lp_Variant>
AV-unprocessed.smi:1413-4

> <Gold.Version>
5.8.1

> <Gold.Id.Protein>
6NUR|6NUR_protein|mol2

> <Gold.PLP.Fitness>
49.5593

> <Gold.PLP.PLP>
-40.3064

> <Gold.PLP.part.hbond>
-3.0000

> <Gold.PLP.part.metal>
0.0000

> <Gold.PLP.part.buried>
-7.1826

> <Gold.PLP.part.nonpolar>
-30.3364

> <Gold.PLP.part.repulsive>
0.3110

> <Gold.PLP.ligand.clash>
0.0000

> <Gold.PLP.ligand.torsion>
0.7070

> <Gold.PLP.Chemscore.Hbond>
2.4420

> <Gold.PLP.Chemscore.CHOScore>
1.0000

> <Gold.PLP.Chemscore.Metal>
0.0000

> <Gold.Chemscore.Hbonds>
donor molecule, donor type, donor heavy atom, donor atom, acceptor molecule, acceptor atom, score
      L1  H     9    34       P1  7948  0.98
      L1  H    12    35       P1  7948  1.00
      P1  H  7989  7998       L1    21  0.45
      L1  C    20    47       P1  7957  1.00

> <Gold.PLP.Chemscore.Internal.Correction>
0.3410

> <Gold.Rescore>
     Score         DG    S(hbond)    S(metal)    S(lipo)     H(rot)  DE(clash)    DE(int)     intcor
     18.60     -20.96       1.97        0.00     105.43       1.35       0.04       2.32       ----

> <Gold.Chemscore.Fitness>
18.6025

> <Gold.Chemscore.DG>
-20.9618

> <Gold.Chemscore.ZeroCoef>
-5.4800

> <Gold.Chemscore.Hbond>
1.9744

> <Gold.Chemscore.Metal>
0.0000

> <Gold.Chemscore.Lipo>
105.4346

> <Gold.Chemscore.Internal_Hbond>
0.0000

> <Gold.Chemscore.DEClash>
0.0427

> <Gold.Chemscore.DEInternal>
2.3166

> <Gold.Chemscore.Rot>
1.3471

> <Gold.Chemscore.Internal.Correction>
   9.000000E+99

> <Gold.Chemscore.Hbonds>
donor molecule, donor type, donor heavy atom, donor atom, acceptor molecule, acceptor atom, score
      L1  H     9    34       P1  7948  0.93
      L1  H    12    35       P1  7948  0.97
      P1  H  7989  7998       L1    21  0.02

> <Gold.Chemscore.Hbond.Weighted>
-6.5945

> <Gold.Chemscore.Metal.Weighted>
-0.0000

> <Gold.Chemscore.Lipo.Weighted>
-12.3359

> <Gold.Chemscore.Internal_Hbond.Weighted>
0.0000

> <Gold.Chemscore.DEClash.Weighted>
0.0427

> <Gold.Chemscore.DEInternal.Weighted>
2.3166

> <Gold.Chemscore.Rot.Weighted>
3.4485

> <Gold.Chemscore.Internal.Correction.Weighted>
   9.000000E+99

> <Gold.Protein.RotatedTorsions>
[ 6907 6896 6895 6894 ] final  100.58 input  -60.11 | X-H torsion
[ 7974 7965 7964 7962 ] final  163.69 input  175.53 | X-H torsion
[ 8008 7997 7996 7995 ] final  172.64 input   59.86 | X-H torsion
[ 10167 10162 10161 10158 ] final  -93.03 input  -65.29 | X-H torsion
[ 10718 10713 10712 10709 ] final  -92.99 input   66.30 | X-H torsion
[ 10763 10752 10751 10750 ] final  101.04 input  -60.55 | X-H torsion
[ 11005 11000 10999 10996 ] final   53.76 input  -57.11 | X-H torsion

> <Gold.Protein.ActiveResidues>
 VAL166  LYS551  ARG553  GLY616  TRP617  ASP618  TYR619  PRO620  LYS621  CYS622 
 ASP623  PHE694  ASN695  SER759  ASP760  ASP761  ALA762  ILE779  LEU786  VAL792 
 PHE793  MET794  SER795  GLU796  ALA797  LYS798  CYS799  TRP800  GLU811  SER814 

> <Gold.Protein.RotatedAtoms>
  152.5369  134.0255  159.8000 H   0  0  0  0  0  0  0  0  0  0  0  0  # atno 6907 bound_to 6896
  151.0434  133.5679  159.2656 H   0  0  0  0  0  0  0  0  0  0  0  0  # atno 6908 bound_to 6896
  151.2640  135.0670  159.9162 H   0  0  0  0  0  0  0  0  0  0  0  0  # atno 6909 bound_to 6896
  144.7578  139.8218  143.6343 H   0  0  0  0  0  0  0  0  0  0  0  0  # atno 7974 bound_to 7965
  156.1154  140.1480  156.9279 H   0  0  0  0  0  0  0  0  0  0  0  0  # atno 8008 bound_to 7997
  154.4797  140.0883  156.7390 H   0  0  0  0  0  0  0  0  0  0  0  0  # atno 8009 bound_to 7997
  155.4522  140.3435  155.4304 H   0  0  0  0  0  0  0  0  0  0  0  0  # atno 8010 bound_to 7997
  140.3287  143.3007  151.9965 H   0  0  0  0  0  0  0  0  0  0  0  0  # atno 10167 bound_to 10162
  156.0008  130.5009  150.5709 H   0  0  0  0  0  0  0  0  0  0  0  0  # atno 10718 bound_to 10713
  153.3216  135.4058  155.1421 H   0  0  0  0  0  0  0  0  0  0  0  0  # atno 10763 bound_to 10752
  154.8602  135.3589  154.5589 H   0  0  0  0  0  0  0  0  0  0  0  0  # atno 10764 bound_to 10752
  153.6022  135.7070  153.5439 H   0  0  0  0  0  0  0  0  0  0  0  0  # atno 10765 bound_to 10752
  140.0741  134.5428  155.9015 H   0  0  0  0  0  0  0  0  0  0  0  0  # atno 11005 bound_to 11000
  146.1609  139.4723  142.9989 LP  0  0  0  0  0  0  0  0  0  0  0  0  # atno 17320 bound_to 7965
  145.6719  141.0214  143.1653 LP  0  0  0  0  0  0  0  0  0  0  0  0  # atno 17321 bound_to 7965
  139.4860  144.6252  151.7178 LP  0  0  0  0  0  0  0  0  0  0  0  0  # atno 17342 bound_to 10162
  140.5417  144.0569  150.6091 LP  0  0  0  0  0  0  0  0  0  0  0  0  # atno 17343 bound_to 10162
  157.3604  131.0749  151.1641 LP  0  0  0  0  0  0  0  0  0  0  0  0  # atno 17370 bound_to 10713
  157.2428  130.6577  149.5897 LP  0  0  0  0  0  0  0  0  0  0  0  0  # atno 17371 bound_to 10713
  141.2023  133.6624  156.5998 LP  0  0  0  0  0  0  0  0  0  0  0  0  # atno 17394 bound_to 11000
  140.3583  134.7709  157.4516 LP  0  0  0  0  0  0  0  0  0  0  0  0  # atno 17395 bound_to 11000

$$$$
