#       Name:                AV-unprocessed.smi:1430
#       Creating user name   scv26
#       Creation time:       Fri Mar 27 05:47:56 2020


#       File generated by GOLD software.
#

@<TRIPOS>MOLECULE
AV-unprocessed.smi:1430
    54    55     1
SMALL
NO_CHARGES


@<TRIPOS>ATOM
      1 ****        -6.8516   4.6470   2.1512 C.3            1 S1                 0.0000
      2 ****        -7.1718   3.2994   1.8229 O.3            1 S1                 0.0000
      3 ****        -6.1386   2.4344   1.5257 C.ar           1 S1                 0.0000
      4 ****        -6.4493   1.0989   1.2029 C.ar           1 S1                 0.0000
      5 ****        -5.3983   0.2118   0.9033 C.ar           1 S1                 0.0000
      6 ****        -4.0694   0.6798   0.9416 C.ar           1 S1                 0.0000
      7 ****        -3.0335  -0.2393   0.6210 N.am           1 S1                 0.0000
      8 ****        -1.7187  -0.1530   0.8876 C.2            1 S1                 0.0000
      9 ****        -1.1702   0.7716   1.4864 O.2            1 S1                 0.0000
     10 ****        -1.0619  -1.2272   0.4279 N.am           1 S1                 0.0000
     11 ****         0.3712  -1.4562   0.5656 C.3            1 S1                 0.0000
     12 ****         1.1640  -0.7039  -0.5194 C.3            1 S1                 0.0000
     13 ****         2.6174  -0.8291  -0.4212 N.3            1 S1                 0.0000
     14 ****         3.0848  -2.1869  -0.6905 C.3            1 S1                 0.0000
     15 ****         4.6200  -2.2964  -0.6116 C.3            1 S1                 0.0000
     16 ****         5.1200  -3.6970  -0.9804 C.3            1 S1                 0.0000
     17 ****         5.2034  -1.3606  -1.5141 O.3            1 S1                 0.0000
     18 ****         4.8151  -0.0142  -1.2561 C.3            1 S1                 0.0000
     19 ****         5.5143   0.8934  -2.2737 C.3            1 S1                 0.0000
     20 ****         3.2803   0.0889  -1.3406 C.3            1 S1                 0.0000
     21 ****        -3.8612   2.0434   1.2642 C.ar           1 S1                 0.0000
     22 ****        -4.8653   2.8993   1.5517 N.ar           1 S1                 0.0000
     23 ****        -7.7702   5.1947   2.3607 H              1 S1                 0.0000
     24 ****        -6.3482   5.1501   1.3244 H              1 S1                 0.0000
     25 ****        -6.2228   4.7032   3.0410 H              1 S1                 0.0000
     26 ****        -7.4751   0.7613   1.1851 H              1 S1                 0.0000
     27 ****        -5.6134  -0.8166   0.6515 H              1 S1                 0.0000
     28 ****        -3.3389  -1.0956   0.1824 H              1 S1                 0.0000
     29 ****        -1.5920  -1.9411  -0.0500 H              1 S1                 0.0000
     30 ****         0.7070  -1.1587   1.5605 H              1 S1                 0.0000
     31 ****         0.5331  -2.5309   0.4895 H              1 S1                 0.0000
     32 ****         0.8324  -1.0303  -1.5063 H              1 S1                 0.0000
     33 ****         0.9019   0.3529  -0.4509 H              1 S1                 0.0000
     34 ****         2.6511  -2.8841   0.0255 H              1 S1                 0.0000
     35 ****         2.7481  -2.5028  -1.6792 H              1 S1                 0.0000
     36 ****         4.9508  -2.0625   0.4017 H              1 S1                 0.0000
     37 ****         4.7091  -4.4498  -0.3072 H              1 S1                 0.0000
     38 ****         6.2071  -3.7524  -0.9167 H              1 S1                 0.0000
     39 ****         4.8316  -3.9636  -1.9976 H              1 S1                 0.0000
     40 ****         5.1457   0.2636  -0.2537 H              1 S1                 0.0000
     41 ****         5.2553   1.9395  -2.1091 H              1 S1                 0.0000
     42 ****         5.2302   0.6347  -3.2943 H              1 S1                 0.0000
     43 ****         6.5981   0.8029  -2.1961 H              1 S1                 0.0000
     44 ****         2.9587  -0.1183  -2.3627 H              1 S1                 0.0000
     45 ****         2.9762   1.1130  -1.1207 H              1 S1                 0.0000
     46 ****        -2.8783   2.4869   1.2797 H              1 S1                 0.0000
     47 ****        -7.7753   3.3244   1.0259 LP             1 S1                 0.0000
     48 ****        -7.6652   2.9141   2.6027 LP             1 S1                 0.0000
     49 ****        -1.7123   1.5431   1.8193 LP             1 S1                 0.0000
     50 ****        -0.1822   0.7515   1.6400 LP             1 S1                 0.0000
     51 ****         2.8527  -0.5996   0.5232 LP             1 S1                 0.0000
     52 ****         4.9238  -1.5993  -2.4441 LP             1 S1                 0.0000
     53 ****         6.1985  -1.4243  -1.4386 LP             1 S1                 0.0000
     54 ****        -4.6740   3.8543   1.7786 LP             1 S1                 0.0000
@<TRIPOS>BOND
    1    1    2 1     
    2    1   23 1     
    3    1   24 1     
    4    1   25 1     
    5    2    3 1     
    6    3   22 ar    
    7    3    4 ar    
    8    4    5 ar    
    9    4   26 1     
   10    5    6 ar    
   11    5   27 1     
   12    6    7 1     
   13    6   21 ar    
   14    7    8 am    
   15    7   28 1     
   16    8    9 2     
   17    8   10 am    
   18   10   11 1     
   19   10   29 1     
   20   11   12 1     
   21   11   30 1     
   22   11   31 1     
   23   12   13 1     
   24   12   32 1     
   25   12   33 1     
   26   13   20 1     
   27   13   14 1     
   28   14   15 1     
   29   14   34 1     
   30   14   35 1     
   31   15   16 1     
   32   15   17 1     
   33   15   36 1     
   34   16   37 1     
   35   16   38 1     
   36   16   39 1     
   37   17   18 1     
   38   18   19 1     
   39   18   20 1     
   40   18   40 1     
   41   19   41 1     
   42   19   42 1     
   43   19   43 1     
   44   20   44 1     
   45   20   45 1     
   46   21   22 ar    
   47   21   46 1     
   48    2   47 1     
   49    2   48 1     
   50    9   49 1     
   51    9   50 1     
   52   13   51 1     
   53   17   52 1     
   54   17   53 1     
   55   22   54 1     
@<TRIPOS>SUBSTRUCTURE
      1 S1             1
@<TRIPOS>SET
LONE_PAIRS      STATIC     ATOMS    <user>   **** ""
8 47 48 49 50 51 52 53 54
DONOR_HYDROGENS      STATIC     ATOMS    <user>   **** ""
2 28 29
ATOM$BLUE        STATIC     ATOMS    COLORGROUP SYSTEM
8 47 48 49 50 51 52 53 54
ATOM$RED        STATIC     ATOMS    COLORGROUP SYSTEM
2 28 29
