AV-unprocessed.smi:164|AV-procd|sdf|1384|dock3
  -GOLD-   2262019113D 1   1.00000     0.00000
 Structure written by MMmdl.
 53 55  0  0  0  0  0  0  0  0  1 V2000
  151.8477  144.5090  159.9330 C   0  0  0  0  0  0  0  0  0  0  0  0
  151.8948  143.0288  159.5949 C   0  0  0  0  0  0  0  0  0  0  0  0
  152.9011  142.2286  160.1733 C   0  0  0  0  0  0  0  0  0  0  0  0
  152.9773  140.8564  159.8781 C   0  0  0  0  0  0  0  0  0  0  0  0
  152.0399  140.2666  159.0083 C   0  0  0  0  0  0  0  0  0  0  0  0
  152.1389  138.7861  158.6911 C   0  0  0  0  0  0  0  0  0  0  0  0
  151.0154  141.0565  158.4378 C   0  0  0  0  0  0  0  0  0  0  0  0
  150.0999  140.4668  157.6046 O   0  0  0  0  0  0  0  0  0  0  0  0
  150.2488  140.8435  156.2426 C   0  0  0  0  0  0  0  0  0  0  0  0
  149.6172  139.7647  155.3511 C   0  0  2  0  0  0  0  0  0  0  0  0
  149.8200  140.1617  154.0101 O   0  0  0  0  0  0  0  0  0  0  0  0
  148.1011  139.6177  155.6104 C   0  0  0  0  0  0  0  0  0  0  0  0
  147.5650  138.3345  155.1875 N   0  0  0  0  0  0  0  0  0  0  0  0
  147.9551  137.1796  155.9076 C   0  0  0  0  0  0  0  0  0  0  0  0
  148.7461  137.2277  156.8512 O   0  0  0  0  0  0  0  0  0  0  0  0
  147.3299  135.9446  155.4498 C   0  0  0  0  0  0  0  0  0  0  0  0
  147.5995  134.7899  156.0820 F   0  0  0  0  0  0  0  0  0  0  0  0
  146.4682  135.9412  154.4099 C   0  0  0  0  0  0  0  0  0  0  0  0
  146.1288  137.0827  153.6977 N   0  0  0  0  0  0  0  0  0  0  0  0
  145.0909  137.0790  152.5849 C   0  0  1  0  0  0  0  0  0  0  0  0
  145.4019  136.1146  151.4327 C   0  0  0  0  0  0  0  0  0  0  0  0
  144.5941  134.8694  151.7891 C   0  0  0  0  0  0  0  0  0  0  0  0
  143.8664  135.2333  153.0879 C   0  0  0  0  0  0  0  0  0  0  0  0
  143.8766  136.6540  153.1156 O   0  0  0  0  0  0  0  0  0  0  0  0
  146.6453  138.3312  154.1119 C   0  0  0  0  0  0  0  0  0  0  0  0
  146.2989  139.3764  153.5556 O   0  0  0  0  0  0  0  0  0  0  0  0
  150.9512  142.4460  158.7121 C   0  0  0  0  0  0  0  0  0  0  0  0
  149.8753  143.3065  158.0631 C   0  0  0  0  0  0  0  0  0  0  0  0
  152.5364  144.7534  160.7424 H   0  0  0  0  0  0  0  0  0  0  0  0
  150.8464  144.8015  160.2502 H   0  0  0  0  0  0  0  0  0  0  0  0
  152.1257  145.1056  159.0640 H   0  0  0  0  0  0  0  0  0  0  0  0
  153.6254  142.6661  160.8446 H   0  0  0  0  0  0  0  0  0  0  0  0
  153.7592  140.2589  160.3236 H   0  0  0  0  0  0  0  0  0  0  0  0
  152.0932  138.6226  157.6142 H   0  0  0  0  0  0  0  0  0  0  0  0
  151.3185  138.2409  159.1576 H   0  0  0  0  0  0  0  0  0  0  0  0
  153.0765  138.3645  159.0539 H   0  0  0  0  0  0  0  0  0  0  0  0
  149.7852  141.8130  156.0519 H   0  0  0  0  0  0  0  0  0  0  0  0
  151.3107  140.9442  156.0131 H   0  0  0  0  0  0  0  0  0  0  0  0
  150.1387  138.8211  155.5162 H   0  0  0  0  0  0  0  0  0  0  0  0
  149.4082  139.5276  153.4432 H   0  0  0  0  0  0  0  0  0  0  0  0
  147.8720  139.6996  156.6740 H   0  0  0  0  0  0  0  0  0  0  0  0
  147.5196  140.4195  155.1526 H   0  0  0  0  0  0  0  0  0  0  0  0
  146.0259  134.9928  154.1501 H   0  0  0  0  0  0  0  0  0  0  0  0
  145.0379  138.1114  152.2352 H   0  0  0  0  0  0  0  0  0  0  0  0
  145.0127  136.5504  150.5118 H   0  0  0  0  0  0  0  0  0  0  0  0
  146.4705  135.9521  151.2934 H   0  0  0  0  0  0  0  0  0  0  0  0
  143.8780  134.6491  150.9965 H   0  0  0  0  0  0  0  0  0  0  0  0
  145.2251  133.9900  151.9205 H   0  0  0  0  0  0  0  0  0  0  0  0
  142.8488  134.8442  153.1194 H   0  0  0  0  0  0  0  0  0  0  0  0
  144.4002  134.8448  153.9561 H   0  0  0  0  0  0  0  0  0  0  0  0
  149.4040  142.8079  157.2165 H   0  0  0  0  0  0  0  0  0  0  0  0
  150.2960  144.2391  157.6872 H   0  0  0  0  0  0  0  0  0  0  0  0
  149.0991  143.5474  158.7895 H   0  0  0  0  0  0  0  0  0  0  0  0
  1  2  1  0  0  0  0
  1 29  1  0  0  0  0
  1 30  1  0  0  0  0
  1 31  1  0  0  0  0
  2 27  1  0  0  0  0
  2  3  2  0  0  0  0
  3  4  1  0  0  0  0
  3 32  1  0  0  0  0
  4  5  2  0  0  0  0
  4 33  1  0  0  0  0
  5  6  1  0  0  0  0
  5  7  1  0  0  0  0
  6 34  1  0  0  0  0
  6 35  1  0  0  0  0
  6 36  1  0  0  0  0
  7  8  1  0  0  0  0
  7 27  2  0  0  0  0
  8  9  1  0  0  0  0
  9 10  1  0  0  0  0
  9 37  1  0  0  0  0
  9 38  1  0  0  0  0
 10 11  1  0  0  0  0
 10 12  1  0  0  0  0
 10 39  1  0  0  0  0
 11 40  1  0  0  0  0
 12 13  1  0  0  0  0
 12 41  1  0  0  0  0
 12 42  1  0  0  0  0
 13 25  1  0  0  0  0
 13 14  1  0  0  0  0
 14 15  2  0  0  0  0
 14 16  1  0  0  0  0
 16 17  1  0  0  0  0
 16 18  2  0  0  0  0
 18 19  1  0  0  0  0
 18 43  1  0  0  0  0
 19 20  1  0  0  0  0
 19 25  1  0  0  0  0
 20 24  1  0  0  0  0
 20 21  1  0  0  0  0
 20 44  1  0  0  0  0
 21 22  1  0  0  0  0
 21 45  1  0  0  0  0
 21 46  1  0  0  0  0
 22 23  1  0  0  0  0
 22 47  1  0  0  0  0
 22 48  1  0  0  0  0
 23 24  1  0  0  0  0
 23 49  1  0  0  0  0
 23 50  1  0  0  0  0
 25 26  2  0  0  0  0
 27 28  1  0  0  0  0
 28 51  1  0  0  0  0
 28 52  1  0  0  0  0
 28 53  1  0  0  0  0
M  END
> <s_m_source_file>
AV-unprocessed.smi

> <i_m_source_file_index>
164

> <i_lp_mmshare_version>
43012

> <i_f3d_flags>
0

> <s_epik_input>
W0NIM11jMVtjSF1bY0hdYyhbQ0gzXSljKGMxW0NIM10pT1tDSDJdW0NASF0oW09IXSlbQ0gyXW4yYyg9TyljKEYpW2NIXW4oYzI9TylbQ0BASF0zW0NIMl1bQ0gyXVtDSDJdTzM=

> <s_epik_cmdline>
J2VwaWtfcHl0aG9uJywgJy1waCcsICc3LjAnLCAnLXRuJywgJzgnLCAnLW1hJywgJzIwMCcsICctbWV0YWxfYmluZGluZycsICctaW1hZScsICc8aW5maWxlLm1hZT4nLCAnLW9tYWUnLCAnPG91dGZpbGUubWFlPic=

> <r_lp_tautomer_probability>
1

> <r_epik_Ionization_Penalty>
1.45842e-07

> <r_epik_Ionization_Penalty_Charging>
2.86622e-08

> <r_epik_Ionization_Penalty_Neutral>
1.1718e-07

> <r_epik_State_Penalty>
-0

> <r_epik_Charging_Adjusted_Penalty>
2.86622e-08

> <i_epik_Tot_Q>
0

> <i_epik_Tot_abs_Q>
0

> <r_epik_Metal_State_Penalty>
-0

> <b_epik_Metal_Only>
0

> <s_epik_Chemistry_Notes>
This compound contains an acetal/aminal-like group ( X-CH(R)-Y where X, Y are N, S, or O) that may be acid/base labile, releasing an aldehyde.

> <s_lp_Force_Field>
OPLS_2005

> <r_lp_Energy>
42.2677

> <b_lp_Chiralities_Consistent>
1

> <s_lp_Variant>
AV-unprocessed.smi:164-3

> <Gold.Version>
5.8.1

> <Gold.Id.Protein>
6NUR|6NUR_protein|mol2

> <Gold.PLP.Fitness>
41.5289

> <Gold.PLP.PLP>
-39.1048

> <Gold.PLP.part.hbond>
-1.9644

> <Gold.PLP.part.metal>
0.0000

> <Gold.PLP.part.buried>
-2.9608

> <Gold.PLP.part.nonpolar>
-34.2747

> <Gold.PLP.part.repulsive>
0.3655

> <Gold.PLP.ligand.clash>
0.0000

> <Gold.PLP.ligand.torsion>
0.5628

> <Gold.PLP.Chemscore.Hbond>
1.1022

> <Gold.PLP.Chemscore.CHOScore>
0.0000

> <Gold.PLP.Chemscore.Metal>
0.0000

> <Gold.Chemscore.Hbonds>
donor molecule, donor type, donor heavy atom, donor atom, acceptor molecule, acceptor atom, score
      L1  H    11    40       P1  7957  0.06
      P1  H  7989  7998       L1    11  0.82

> <Gold.PLP.Chemscore.Internal.Correction>
0.2429

> <Gold.Rescore>
     Score         DG    S(hbond)    S(metal)    S(lipo)     H(rot)  DE(clash)    DE(int)     intcor
     12.44     -14.27       0.90        0.00     109.31       2.73       0.02       1.81       ----

> <Gold.Chemscore.Fitness>
12.4368

> <Gold.Chemscore.DG>
-14.2718

> <Gold.Chemscore.ZeroCoef>
-5.4800

> <Gold.Chemscore.Hbond>
0.8967

> <Gold.Chemscore.Metal>
0.0000

> <Gold.Chemscore.Lipo>
109.3098

> <Gold.Chemscore.Internal_Hbond>
0.0000

> <Gold.Chemscore.DEClash>
0.0236

> <Gold.Chemscore.DEInternal>
1.8115

> <Gold.Chemscore.Rot>
2.7315

> <Gold.Chemscore.Internal.Correction>
   9.000000E+99

> <Gold.Chemscore.Hbonds>
donor molecule, donor type, donor heavy atom, donor atom, acceptor molecule, acceptor atom, score
      L1  H    11    40       P1  7957  0.06
      P1  H  7989  7998       L1    11  0.73

> <Gold.Chemscore.Hbond.Weighted>
-2.9951

> <Gold.Chemscore.Metal.Weighted>
-0.0000

> <Gold.Chemscore.Lipo.Weighted>
-12.7892

> <Gold.Chemscore.Internal_Hbond.Weighted>
0.0000

> <Gold.Chemscore.DEClash.Weighted>
0.0236

> <Gold.Chemscore.DEInternal.Weighted>
1.8115

> <Gold.Chemscore.Rot.Weighted>
6.9925

> <Gold.Chemscore.Internal.Correction.Weighted>
   9.000000E+99

> <Gold.Protein.RotatedTorsions>
[ 6907 6896 6895 6894 ] final -144.05 input  -60.11 | X-H torsion
[ 7974 7965 7964 7962 ] final -131.85 input  175.53 | X-H torsion
[ 8008 7997 7996 7995 ] final  -22.56 input   59.86 | X-H torsion
[ 10167 10162 10161 10158 ] final  -70.02 input  -65.29 | X-H torsion
[ 10718 10713 10712 10709 ] final  -68.96 input   66.30 | X-H torsion
[ 10763 10752 10751 10750 ] final -160.49 input  -60.55 | X-H torsion
[ 11005 11000 10999 10996 ] final -113.07 input  -57.11 | X-H torsion

> <Gold.Protein.ActiveResidues>
 VAL166  LYS551  ARG553  GLY616  TRP617  ASP618  TYR619  PRO620  LYS621  CYS622 
 ASP623  PHE694  ASN695  SER759  ASP760  ASP761  ALA762  ILE779  LEU786  VAL792 
 PHE793  MET794  SER795  GLU796  ALA797  LYS798  CYS799  TRP800  GLU811  SER814 

> <Gold.Protein.RotatedAtoms>
  151.1088  133.5188  159.2606 H   0  0  0  0  0  0  0  0  0  0  0  0  # atno 6907 bound_to 6896
  151.1991  135.0434  159.8874 H   0  0  0  0  0  0  0  0  0  0  0  0  # atno 6908 bound_to 6896
  152.5448  134.0918  159.8333 H   0  0  0  0  0  0  0  0  0  0  0  0  # atno 6909 bound_to 6896
  144.9340  140.7162  143.4888 H   0  0  0  0  0  0  0  0  0  0  0  0  # atno 7974 bound_to 7965
  154.4637  140.2004  156.0176 H   0  0  0  0  0  0  0  0  0  0  0  0  # atno 8008 bound_to 7997
  156.0887  140.3261  155.7759 H   0  0  0  0  0  0  0  0  0  0  0  0  # atno 8009 bound_to 7997
  155.4992  140.0552  157.2932 H   0  0  0  0  0  0  0  0  0  0  0  0  # atno 8010 bound_to 7997
  140.5385  143.2316  151.7133 H   0  0  0  0  0  0  0  0  0  0  0  0  # atno 10167 bound_to 10162
  156.0479  130.4304  150.2078 H   0  0  0  0  0  0  0  0  0  0  0  0  # atno 10718 bound_to 10713
  154.7386  135.3063  154.8768 H   0  0  0  0  0  0  0  0  0  0  0  0  # atno 10763 bound_to 10752
  153.9590  135.6755  153.4749 H   0  0  0  0  0  0  0  0  0  0  0  0  # atno 10764 bound_to 10752
  153.0986  135.4923  154.8749 H   0  0  0  0  0  0  0  0  0  0  0  0  # atno 10765 bound_to 10752
  141.0636  133.9494  157.2620 H   0  0  0  0  0  0  0  0  0  0  0  0  # atno 11005 bound_to 11000
  145.3096  139.1823  143.4646 LP  0  0  0  0  0  0  0  0  0  0  0  0  # atno 17320 bound_to 7965
  146.3259  140.3098  142.8626 LP  0  0  0  0  0  0  0  0  0  0  0  0  # atno 17321 bound_to 7965
  139.4980  144.4005  152.0186 LP  0  0  0  0  0  0  0  0  0  0  0  0  # atno 17342 bound_to 10162
  140.3113  144.3535  150.6033 LP  0  0  0  0  0  0  0  0  0  0  0  0  # atno 17343 bound_to 10162
  157.0165  130.9966  151.3351 LP  0  0  0  0  0  0  0  0  0  0  0  0  # atno 17370 bound_to 10713
  157.5374  130.8097  149.7988 LP  0  0  0  0  0  0  0  0  0  0  0  0  # atno 17371 bound_to 10713
  139.9456  135.0184  156.8841 LP  0  0  0  0  0  0  0  0  0  0  0  0  # atno 17394 bound_to 11000
  140.5818  134.0345  155.7467 LP  0  0  0  0  0  0  0  0  0  0  0  0  # atno 17395 bound_to 11000

$$$$
