AV-unprocessed.smi:2018|AV-procd|sdf|8169|dock4
  -GOLD-   2272010413D 1   1.00000     0.00000
 Structure written by MMmdl.
 35 36  0  0  0  0  0  0  0  0  1 V2000
  152.1042  144.9635  158.7835 C   0  0  0  0  0  0  0  0  0  0  0  0
  152.1787  143.4826  158.9325 C   0  0  0  0  0  0  0  0  0  0  0  0
  151.4038  142.6319  158.2547 N   0  0  0  0  0  0  0  0  0  0  0  0
  151.6658  141.2952  158.5722 C   0  0  0  0  0  0  0  0  0  0  0  0
  150.8878  140.2009  157.9075 C   0  0  0  0  0  0  0  0  0  0  0  0
  151.3226  138.8050  158.3839 C   0  0  0  0  0  0  0  0  0  0  0  0
  150.2966  138.1762  159.2075 N   0  0  0  0  0  0  0  0  0  0  0  0
  149.9510  136.8767  159.1565 C   0  0  0  0  0  0  0  0  0  0  0  0
  150.4891  136.0712  158.3963 O   0  0  0  0  0  0  0  0  0  0  0  0
  148.8603  136.4542  160.0759 C   0  0  0  0  0  0  0  0  0  0  0  0
  148.8957  136.7968  161.3258 N   0  0  0  0  0  0  0  0  0  0  0  0
  147.8978  136.4438  162.2114 N   0  0  0  0  0  0  0  0  0  0  0  0
  147.9504  137.1303  163.5007 C   0  0  0  0  0  0  0  0  0  0  0  0
  146.9375  135.5188  161.9627 C   0  0  0  0  0  0  0  0  0  0  0  0
  146.0439  135.2293  162.7583 O   0  0  0  0  0  0  0  0  0  0  0  0
  147.0209  134.7928  160.6170 C   0  0  0  0  0  0  0  0  0  0  0  0
  147.6948  135.6531  159.5295 C   0  0  0  0  0  0  0  0  0  0  0  0
  152.6569  141.1462  159.5099 C   0  0  0  0  0  0  0  0  0  0  0  0
  153.2986  142.6810  160.0272 S   0  0  0  0  0  0  0  0  0  0  0  0
  151.5207  145.2319  157.9023 H   0  0  0  0  0  0  0  0  0  0  0  0
  153.1064  145.3791  158.6777 H   0  0  0  0  0  0  0  0  0  0  0  0
  151.6330  145.4025  159.6629 H   0  0  0  0  0  0  0  0  0  0  0  0
  149.8224  140.3346  158.0997 H   0  0  0  0  0  0  0  0  0  0  0  0
  151.0056  140.2727  156.8254 H   0  0  0  0  0  0  0  0  0  0  0  0
  151.5621  138.1670  157.5315 H   0  0  0  0  0  0  0  0  0  0  0  0
  152.2328  138.8813  158.9797 H   0  0  0  0  0  0  0  0  0  0  0  0
  149.8057  138.7708  159.8600 H   0  0  0  0  0  0  0  0  0  0  0  0
  148.0612  136.4133  164.3156 H   0  0  0  0  0  0  0  0  0  0  0  0
  147.0349  137.6994  163.6689 H   0  0  0  0  0  0  0  0  0  0  0  0
  148.7872  137.8285  163.5596 H   0  0  0  0  0  0  0  0  0  0  0  0
  147.5979  133.8804  160.7728 H   0  0  0  0  0  0  0  0  0  0  0  0
  146.0259  134.4842  160.2944 H   0  0  0  0  0  0  0  0  0  0  0  0
  146.9657  136.3349  159.0898 H   0  0  0  0  0  0  0  0  0  0  0  0
  148.0231  134.9941  158.7248 H   0  0  0  0  0  0  0  0  0  0  0  0
  153.0461  140.2290  159.9267 H   0  0  0  0  0  0  0  0  0  0  0  0
  1  2  1  0  0  0  0
  1 20  1  0  0  0  0
  1 21  1  0  0  0  0
  1 22  1  0  0  0  0
  2 19  1  0  0  0  0
  2  3  2  0  0  0  0
  3  4  1  0  0  0  0
  4  5  1  0  0  0  0
  4 18  2  0  0  0  0
  5  6  1  0  0  0  0
  5 23  1  0  0  0  0
  5 24  1  0  0  0  0
  6  7  1  0  0  0  0
  6 25  1  0  0  0  0
  6 26  1  0  0  0  0
  7  8  1  0  0  0  0
  7 27  1  0  0  0  0
  8  9  2  0  0  0  0
  8 10  1  0  0  0  0
 10 17  1  0  0  0  0
 10 11  2  0  0  0  0
 11 12  1  0  0  0  0
 12 13  1  0  0  0  0
 12 14  1  0  0  0  0
 13 28  1  0  0  0  0
 13 29  1  0  0  0  0
 13 30  1  0  0  0  0
 14 15  2  0  0  0  0
 14 16  1  0  0  0  0
 16 17  1  0  0  0  0
 16 31  1  0  0  0  0
 16 32  1  0  0  0  0
 17 33  1  0  0  0  0
 17 34  1  0  0  0  0
 18 19  1  0  0  0  0
 18 35  1  0  0  0  0
M  END
> <s_m_source_file>
AV-unprocessed.smi

> <i_m_source_file_index>
2018

> <i_lp_mmshare_version>
43012

> <i_f3d_flags>
0

> <s_epik_input>
W0NIM11jMW5jKFtjSF1zMSlbQ0gyXVtDSDJdW05IXUMoPU8pQzI9Tk4oW0NIM10pQyg9TylbQ0gyXVtDSDJdMg==

> <s_epik_cmdline>
J2VwaWtfcHl0aG9uJywgJy1waCcsICc3LjAnLCAnLXRuJywgJzgnLCAnLW1hJywgJzIwMCcsICctbWV0YWxfYmluZGluZycsICctaW1hZScsICc8aW5maWxlLm1hZT4nLCAnLW9tYWUnLCAnPG91dGZpbGUubWFlPic=

> <r_epik_Ionization_Penalty>
0.000694267

> <r_epik_Ionization_Penalty_Charging>
0

> <r_epik_Ionization_Penalty_Neutral>
0.000694267

> <r_epik_State_Penalty>
0.000389372

> <r_epik_Charging_Adjusted_Penalty>
0.000389372

> <i_epik_Tot_Q>
0

> <i_epik_Tot_abs_Q>
0

> <r_epik_Metal_State_Penalty>
0.0645979

> <b_epik_Metal_Only>
0

> <s_epik_Chemistry_Notes>
This compound has an imine and may undergo hydrolysis.

> <s_lp_Force_Field>
OPLS_2005

> <r_lp_Energy>
11.1599

> <b_lp_Chiralities_Consistent>
1

> <s_lp_Variant>
AV-unprocessed.smi:2018-1

> <Gold.Version>
5.8.1

> <Gold.Id.Protein>
6NUR|6NUR_protein|mol2

> <Gold.PLP.Fitness>
39.2405

> <Gold.PLP.PLP>
-36.2196

> <Gold.PLP.part.hbond>
-2.1383

> <Gold.PLP.part.metal>
0.0000

> <Gold.PLP.part.buried>
-3.7776

> <Gold.PLP.part.nonpolar>
-31.9876

> <Gold.PLP.part.repulsive>
0.9644

> <Gold.PLP.ligand.clash>
0.0000

> <Gold.PLP.ligand.torsion>
1.3379

> <Gold.PLP.Chemscore.Hbond>
1.8960

> <Gold.PLP.Chemscore.CHOScore>
0.0000

> <Gold.PLP.Chemscore.Metal>
0.0000

> <Gold.Chemscore.Hbonds>
donor molecule, donor type, donor heavy atom, donor atom, acceptor molecule, acceptor atom, score
      P1  H  6896  6909       L1     9  0.67
      P1  H  6931  6943       L1    11  0.70

> <Gold.PLP.Chemscore.Internal.Correction>
0.0087

> <Gold.Rescore>
     Score         DG    S(hbond)    S(metal)    S(lipo)     H(rot)  DE(clash)    DE(int)     intcor
     14.61     -17.25       1.68        0.00      84.45       1.45       1.35       1.30       ----

> <Gold.Chemscore.Fitness>
14.6096

> <Gold.Chemscore.DG>
-17.2513

> <Gold.Chemscore.ZeroCoef>
-5.4800

> <Gold.Chemscore.Hbond>
1.6759

> <Gold.Chemscore.Metal>
0.0000

> <Gold.Chemscore.Lipo>
84.4500

> <Gold.Chemscore.Internal_Hbond>
0.0000

> <Gold.Chemscore.DEClash>
1.3456

> <Gold.Chemscore.DEInternal>
1.2961

> <Gold.Chemscore.Rot>
1.4480

> <Gold.Chemscore.Internal.Correction>
   9.000000E+99

> <Gold.Chemscore.Hbonds>
donor molecule, donor type, donor heavy atom, donor atom, acceptor molecule, acceptor atom, score
      P1  H  6896  6909       L1     9  0.10
      P1  H  6931  6943       L1    11  0.07

> <Gold.Chemscore.Hbond.Weighted>
-5.5977

> <Gold.Chemscore.Metal.Weighted>
-0.0000

> <Gold.Chemscore.Lipo.Weighted>
-9.8806

> <Gold.Chemscore.Internal_Hbond.Weighted>
0.0000

> <Gold.Chemscore.DEClash.Weighted>
1.3456

> <Gold.Chemscore.DEInternal.Weighted>
1.2961

> <Gold.Chemscore.Rot.Weighted>
3.7070

> <Gold.Chemscore.Internal.Correction.Weighted>
   9.000000E+99

> <Gold.Protein.RotatedTorsions>
[ 6907 6896 6895 6894 ] final   67.80 input  -60.11 | X-H torsion
[ 7974 7965 7964 7962 ] final  159.00 input  175.53 | X-H torsion
[ 8008 7997 7996 7995 ] final -116.46 input   59.86 | X-H torsion
[ 10167 10162 10161 10158 ] final   78.49 input  -65.29 | X-H torsion
[ 10718 10713 10712 10709 ] final  138.16 input   66.30 | X-H torsion
[ 10763 10752 10751 10750 ] final   80.17 input  -60.55 | X-H torsion
[ 11005 11000 10999 10996 ] final -104.59 input  -57.11 | X-H torsion

> <Gold.Protein.ActiveResidues>
 VAL166  LYS551  ARG553  GLY616  TRP617  ASP618  TYR619  PRO620  LYS621  CYS622 
 ASP623  PHE694  ASN695  SER759  ASP760  ASP761  ALA762  ILE779  LEU786  VAL792 
 PHE793  MET794  SER795  GLU796  ALA797  LYS798  CYS799  TRP800  GLU811  SER814 

> <Gold.Protein.RotatedAtoms>
  152.4577  134.5255  159.9795 H   0  0  0  0  0  0  0  0  0  0  0  0  # atno 6907 bound_to 6896
  151.5312  133.3443  159.2926 H   0  0  0  0  0  0  0  0  0  0  0  0  # atno 6908 bound_to 6896
  150.8527  134.7887  159.7084 H   0  0  0  0  0  0  0  0  0  0  0  0  # atno 6909 bound_to 6896
  144.7814  139.7556  143.6258 H   0  0  0  0  0  0  0  0  0  0  0  0  # atno 7974 bound_to 7965
  155.0682  140.0393  157.2599 H   0  0  0  0  0  0  0  0  0  0  0  0  # atno 8008 bound_to 7997
  154.7004  140.2672  155.6700 H   0  0  0  0  0  0  0  0  0  0  0  0  # atno 8009 bound_to 7997
  156.2758  140.2741  156.1613 H   0  0  0  0  0  0  0  0  0  0  0  0  # atno 8010 bound_to 7997
  139.9704  144.5898  150.7990 H   0  0  0  0  0  0  0  0  0  0  0  0  # atno 10167 bound_to 10162
  157.4283  131.1046  151.0278 H   0  0  0  0  0  0  0  0  0  0  0  0  # atno 10718 bound_to 10713
  153.1012  135.4812  154.8869 H   0  0  0  0  0  0  0  0  0  0  0  0  # atno 10763 bound_to 10752
  154.7380  135.3075  154.8780 H   0  0  0  0  0  0  0  0  0  0  0  0  # atno 10764 bound_to 10752
  153.9396  135.6835  153.4798 H   0  0  0  0  0  0  0  0  0  0  0  0  # atno 10765 bound_to 10752
  141.1093  133.8736  157.1630 H   0  0  0  0  0  0  0  0  0  0  0  0  # atno 11005 bound_to 11000
  146.2024  139.5327  142.9734 LP  0  0  0  0  0  0  0  0  0  0  0  0  # atno 17320 bound_to 7965
  145.6040  141.0351  143.2003 LP  0  0  0  0  0  0  0  0  0  0  0  0  # atno 17321 bound_to 7965
  140.7524  143.2989  151.3132 LP  0  0  0  0  0  0  0  0  0  0  0  0  # atno 17342 bound_to 10162
  139.6485  144.0406  152.2609 LP  0  0  0  0  0  0  0  0  0  0  0  0  # atno 17343 bound_to 10162
  157.1184  130.6051  149.5499 LP  0  0  0  0  0  0  0  0  0  0  0  0  # atno 17370 bound_to 10713
  155.9904  130.4955  150.7256 LP  0  0  0  0  0  0  0  0  0  0  0  0  # atno 17371 bound_to 10713
  139.9979  135.0039  157.0124 LP  0  0  0  0  0  0  0  0  0  0  0  0  # atno 17394 bound_to 11000
  140.4818  134.1282  155.7218 LP  0  0  0  0  0  0  0  0  0  0  0  0  # atno 17395 bound_to 11000

$$$$
