AV-unprocessed.smi:614|AV-procd|sdf|3068|dock2
  -GOLD-   2262023593D 1   1.00000     0.00000
 Structure written by MMmdl.
 44 45  0  0  0  0  0  0  0  0  1 V2000
  144.5922  132.1354  149.9622 C   0  0  0  0  0  0  0  0  0  0  0  0
  144.6678  133.3168  150.7946 N   0  0  0  0  0  0  0  0  0  0  0  0
  143.6373  134.0295  151.3738 C   0  0  0  0  0  0  0  0  0  0  0  0
  144.1962  135.0622  152.0724 C   0  0  0  0  0  0  0  0  0  0  0  0
  145.5909  134.8885  151.8539 C   0  0  0  0  0  0  0  0  0  0  0  0
  146.5308  135.7786  152.4337 N   0  0  0  0  0  0  0  0  0  0  0  0
  146.2895  136.7724  153.3060 C   0  0  0  0  0  0  0  0  0  0  0  0
  145.1856  137.0422  153.7792 O   0  0  0  0  0  0  0  0  0  0  0  0
  147.4194  137.4383  153.5985 N   0  0  0  0  0  0  0  0  0  0  0  0
  147.6079  138.5949  154.4883 C   0  0  1  0  0  0  0  0  0  0  0  0
  146.7475  139.7857  153.9928 C   0  0  0  0  0  0  0  0  0  0  0  0
  147.1465  138.2160  155.9264 C   0  0  0  0  0  0  0  0  0  0  0  0
  145.7460  138.0448  156.0130 O   0  0  0  0  0  0  0  0  0  0  0  0
  149.1315  138.9727  154.4477 C   0  0  0  0  0  0  0  0  0  0  0  0
  150.0765  137.7642  154.6922 C   0  0  0  0  0  0  0  0  0  0  0  0
  151.5597  138.1537  154.5890 C   0  0  0  0  0  0  0  0  0  0  0  0
  151.9066  139.2879  155.5608 C   0  0  0  0  0  0  0  0  0  0  0  0
  150.9979  140.5002  155.3237 C   0  0  0  0  0  0  0  0  0  0  0  0
  149.5132  140.1157  155.4267 C   0  0  0  0  0  0  0  0  0  0  0  0
  145.8750  133.8435  151.0886 N   0  0  0  0  0  0  0  0  0  0  0  0
  143.5563  131.9379  149.6854 H   0  0  0  0  0  0  0  0  0  0  0  0
  144.9847  131.2767  150.5075 H   0  0  0  0  0  0  0  0  0  0  0  0
  145.1788  132.2822  149.0546 H   0  0  0  0  0  0  0  0  0  0  0  0
  142.6035  133.7453  151.2431 H   0  0  0  0  0  0  0  0  0  0  0  0
  143.6857  135.8193  152.6494 H   0  0  0  0  0  0  0  0  0  0  0  0
  147.4882  135.6572  152.1384 H   0  0  0  0  0  0  0  0  0  0  0  0
  148.2595  137.1132  153.1437 H   0  0  0  0  0  0  0  0  0  0  0  0
  147.0241  140.7106  154.4997 H   0  0  0  0  0  0  0  0  0  0  0  0
  145.6856  139.6280  154.1818 H   0  0  0  0  0  0  0  0  0  0  0  0
  146.8522  139.9517  152.9210 H   0  0  0  0  0  0  0  0  0  0  0  0
  147.6091  137.2856  156.2556 H   0  0  0  0  0  0  0  0  0  0  0  0
  147.4489  138.9708  156.6523 H   0  0  0  0  0  0  0  0  0  0  0  0
  145.5664  137.1359  156.1992 H   0  0  0  0  0  0  0  0  0  0  0  0
  149.3515  139.3330  153.4416 H   0  0  0  0  0  0  0  0  0  0  0  0
  149.8916  137.3310  155.6758 H   0  0  0  0  0  0  0  0  0  0  0  0
  149.8891  136.9728  153.9680 H   0  0  0  0  0  0  0  0  0  0  0  0
  152.1865  137.2857  154.7947 H   0  0  0  0  0  0  0  0  0  0  0  0
  151.7861  138.4631  153.5678 H   0  0  0  0  0  0  0  0  0  0  0  0
  151.7944  138.9395  156.5883 H   0  0  0  0  0  0  0  0  0  0  0  0
  152.9517  139.5752  155.4422 H   0  0  0  0  0  0  0  0  0  0  0  0
  151.2296  141.2833  156.0463 H   0  0  0  0  0  0  0  0  0  0  0  0
  151.1985  140.9210  154.3375 H   0  0  0  0  0  0  0  0  0  0  0  0
  148.9238  141.0095  155.2268 H   0  0  0  0  0  0  0  0  0  0  0  0
  149.2909  139.8235  156.4535 H   0  0  0  0  0  0  0  0  0  0  0  0
  1  2  1  0  0  0  0
  1 21  1  0  0  0  0
  1 22  1  0  0  0  0
  1 23  1  0  0  0  0
  2 20  1  0  0  0  0
  2  3  1  0  0  0  0
  3  4  2  0  0  0  0
  3 24  1  0  0  0  0
  4  5  1  0  0  0  0
  4 25  1  0  0  0  0
  5  6  1  0  0  0  0
  5 20  2  0  0  0  0
  6  7  1  0  0  0  0
  6 26  1  0  0  0  0
  7  8  2  0  0  0  0
  7  9  1  0  0  0  0
  9 10  1  0  0  0  0
  9 27  1  0  0  0  0
 10 11  1  0  0  0  0
 10 12  1  0  0  0  0
 10 14  1  0  0  0  0
 11 28  1  0  0  0  0
 11 29  1  0  0  0  0
 11 30  1  0  0  0  0
 12 13  1  0  0  0  0
 12 31  1  0  0  0  0
 12 32  1  0  0  0  0
 13 33  1  0  0  0  0
 14 19  1  0  0  0  0
 14 15  1  0  0  0  0
 14 34  1  0  0  0  0
 15 16  1  0  0  0  0
 15 35  1  0  0  0  0
 15 36  1  0  0  0  0
 16 17  1  0  0  0  0
 16 37  1  0  0  0  0
 16 38  1  0  0  0  0
 17 18  1  0  0  0  0
 17 39  1  0  0  0  0
 17 40  1  0  0  0  0
 18 19  1  0  0  0  0
 18 41  1  0  0  0  0
 18 42  1  0  0  0  0
 19 43  1  0  0  0  0
 19 44  1  0  0  0  0
M  END
> <s_m_source_file>
AV-unprocessed.smi

> <i_m_source_file_index>
614

> <i_lp_mmshare_version>
43012

> <i_f3d_flags>
0

> <s_epik_input>
W0NIM11uMVtjSF1bY0hdYyhuMSlbTkhdQyg9TylbTkhdW0NAQF0oW0NIM10pKFtDSDJdW09IXSlbQ0hdMltDSDJdW0NIMl1bQ0gyXVtDSDJdW0NIMl0y

> <s_epik_cmdline>
J2VwaWtfcHl0aG9uJywgJy1waCcsICc3LjAnLCAnLXRuJywgJzgnLCAnLW1hJywgJzIwMCcsICctbWV0YWxfYmluZGluZycsICctaW1hZScsICc8aW5maWxlLm1hZT4nLCAnLW9tYWUnLCAnPG91dGZpbGUubWFlPic=

> <r_lp_tautomer_probability>
1

> <r_epik_Ionization_Penalty>
3.66621e-05

> <r_epik_Ionization_Penalty_Charging>
0

> <r_epik_Ionization_Penalty_Neutral>
3.66621e-05

> <r_epik_State_Penalty>
-0

> <r_epik_Charging_Adjusted_Penalty>
0

> <i_epik_Tot_Q>
0

> <i_epik_Tot_abs_Q>
0

> <r_epik_Metal_State_Penalty>
-0

> <b_epik_Metal_Only>
0

> <s_lp_Force_Field>
OPLS_2005

> <r_lp_Energy>
18.5246

> <b_lp_Chiralities_Consistent>
1

> <s_lp_Variant>
AV-unprocessed.smi:614-1

> <Gold.Version>
5.8.1

> <Gold.Id.Protein>
6NUR|6NUR_protein|mol2

> <Gold.PLP.Fitness>
36.6912

> <Gold.PLP.PLP>
-28.0327

> <Gold.PLP.part.hbond>
-1.9366

> <Gold.PLP.part.metal>
0.0000

> <Gold.PLP.part.buried>
-1.9012

> <Gold.PLP.part.nonpolar>
-25.0196

> <Gold.PLP.part.repulsive>
0.3059

> <Gold.PLP.ligand.clash>
0.0000

> <Gold.PLP.ligand.torsion>
0.1546

> <Gold.PLP.Chemscore.Hbond>
1.9760

> <Gold.PLP.Chemscore.CHOScore>
0.9929

> <Gold.PLP.Chemscore.Metal>
0.0000

> <Gold.Chemscore.Hbonds>
donor molecule, donor type, donor heavy atom, donor atom, acceptor molecule, acceptor atom, score
      L1  H     6    26       P1  7948  1.00
      L1  H     9    27       P1  7948  0.96
      L1  C     3    24       P1 10186  1.00

> <Gold.PLP.Chemscore.Internal.Correction>
0.0609

> <Gold.Rescore>
     Score         DG    S(hbond)    S(metal)    S(lipo)     H(rot)  DE(clash)    DE(int)     intcor
     11.66     -13.98       1.92        0.00      63.25       2.07       0.00       2.31       ----

> <Gold.Chemscore.Fitness>
11.6601

> <Gold.Chemscore.DG>
-13.9753

> <Gold.Chemscore.ZeroCoef>
-5.4800

> <Gold.Chemscore.Hbond>
1.9150

> <Gold.Chemscore.Metal>
0.0000

> <Gold.Chemscore.Lipo>
63.2546

> <Gold.Chemscore.Internal_Hbond>
0.0000

> <Gold.Chemscore.DEClash>
0.0048

> <Gold.Chemscore.DEInternal>
2.3104

> <Gold.Chemscore.Rot>
2.0710

> <Gold.Chemscore.Internal.Correction>
   9.000000E+99

> <Gold.Chemscore.Hbonds>
donor molecule, donor type, donor heavy atom, donor atom, acceptor molecule, acceptor atom, score
      L1  H     6    26       P1  7948  0.94
      L1  H     9    27       P1  7948  0.92

> <Gold.Chemscore.Hbond.Weighted>
-6.3962

> <Gold.Chemscore.Metal.Weighted>
-0.0000

> <Gold.Chemscore.Lipo.Weighted>
-7.4008

> <Gold.Chemscore.Internal_Hbond.Weighted>
0.0000

> <Gold.Chemscore.DEClash.Weighted>
0.0048

> <Gold.Chemscore.DEInternal.Weighted>
2.3104

> <Gold.Chemscore.Rot.Weighted>
5.3017

> <Gold.Chemscore.Internal.Correction.Weighted>
   9.000000E+99

> <Gold.Protein.RotatedTorsions>
[ 6907 6896 6895 6894 ] final  -13.03 input  -60.11 | X-H torsion
[ 7974 7965 7964 7962 ] final   -2.86 input  175.53 | X-H torsion
[ 8008 7997 7996 7995 ] final  -79.35 input   59.86 | X-H torsion
[ 10167 10162 10161 10158 ] final -152.60 input  -65.29 | X-H torsion
[ 10718 10713 10712 10709 ] final  -31.26 input   66.30 | X-H torsion
[ 10763 10752 10751 10750 ] final  123.00 input  -60.55 | X-H torsion
[ 11005 11000 10999 10996 ] final  151.65 input  -57.11 | X-H torsion

> <Gold.Protein.ActiveResidues>
 VAL166  LYS551  ARG553  GLY616  TRP617  ASP618  TYR619  PRO620  LYS621  CYS622 
 ASP623  PHE694  ASN695  SER759  ASP760  ASP761  ALA762  ILE779  LEU786  VAL792 
 PHE793  MET794  SER795  GLU796  ALA797  LYS798  CYS799  TRP800  GLU811  SER814 

> <Gold.Protein.RotatedAtoms>
  151.3613  135.0904  159.9434 H   0  0  0  0  0  0  0  0  0  0  0  0  # atno 6907 bound_to 6896
  152.5161  133.9256  159.7566 H   0  0  0  0  0  0  0  0  0  0  0  0  # atno 6908 bound_to 6896
  150.9651  133.6350  159.2777 H   0  0  0  0  0  0  0  0  0  0  0  0  # atno 6909 bound_to 6896
  146.2398  140.1634  142.8332 H   0  0  0  0  0  0  0  0  0  0  0  0  # atno 7974 bound_to 7965
  154.5776  140.0680  156.9057 H   0  0  0  0  0  0  0  0  0  0  0  0  # atno 8008 bound_to 7997
  155.2520  140.3352  155.4263 H   0  0  0  0  0  0  0  0  0  0  0  0  # atno 8009 bound_to 7997
  156.2166  140.1781  156.7560 H   0  0  0  0  0  0  0  0  0  0  0  0  # atno 8010 bound_to 7997
  139.7168  143.9021  152.2489 H   0  0  0  0  0  0  0  0  0  0  0  0  # atno 10167 bound_to 10162
  156.3895  130.4370  149.7406 H   0  0  0  0  0  0  0  0  0  0  0  0  # atno 10718 bound_to 10713
  153.6387  135.3383  155.3064 H   0  0  0  0  0  0  0  0  0  0  0  0  # atno 10763 bound_to 10752
  154.8564  135.4313  154.2028 H   0  0  0  0  0  0  0  0  0  0  0  0  # atno 10764 bound_to 10752
  153.2942  135.7019  153.7338 H   0  0  0  0  0  0  0  0  0  0  0  0  # atno 10765 bound_to 10752
  140.1237  134.8847  157.2108 H   0  0  0  0  0  0  0  0  0  0  0  0  # atno 11005 bound_to 11000
  145.0071  140.8682  143.5247 LP  0  0  0  0  0  0  0  0  0  0  0  0  # atno 17320 bound_to 7965
  145.1662  139.2430  143.5366 LP  0  0  0  0  0  0  0  0  0  0  0  0  # atno 17321 bound_to 7965
  139.8906  144.6968  150.8775 LP  0  0  0  0  0  0  0  0  0  0  0  0  # atno 17342 bound_to 10162
  140.7745  143.3590  151.1866 LP  0  0  0  0  0  0  0  0  0  0  0  0  # atno 17343 bound_to 10162
  156.4465  130.7886  151.2907 LP  0  0  0  0  0  0  0  0  0  0  0  0  # atno 17370 bound_to 10713
  157.7498  131.0108  150.3323 LP  0  0  0  0  0  0  0  0  0  0  0  0  # atno 17371 bound_to 10713
  140.2931  134.3217  155.7310 LP  0  0  0  0  0  0  0  0  0  0  0  0  # atno 17394 bound_to 11000
  141.2157  133.7546  156.9532 LP  0  0  0  0  0  0  0  0  0  0  0  0  # atno 17395 bound_to 11000

$$$$
