AV-unprocessed.smi:1774|AV-procd|sdf|7168|dock4
  -GOLD-   22720 8403D 1   1.00000     0.00000
 Structure written by MMmdl.
 46 47  0  0  0  0  0  0  0  0  2 V2000
  151.5351  137.8155  154.9422 C   0  0  0  0  0  0  0  0  0  0  0  0
  150.9576  139.0770  155.5636 C   0  0  0  0  0  0  0  0  0  0  0  0
  151.6650  139.7219  156.6004 C   0  0  0  0  0  0  0  0  0  0  0  0
  151.1294  140.8874  157.1744 C   0  0  0  0  0  0  0  0  0  0  0  0
  149.9004  141.3615  156.6846 C   0  0  0  0  0  0  0  0  0  0  0  0
  149.2177  140.7521  155.6938 N   0  0  0  0  0  0  0  0  0  0  0  0
  149.7218  139.6265  155.1281 C   0  0  0  0  0  0  0  0  0  0  0  0
  149.0560  138.9305  154.0795 N   0  0  0  0  0  0  0  0  0  0  0  0
  147.8187  139.1350  153.5944 C   0  0  0  0  0  0  0  0  0  0  0  0
  147.0263  139.9896  153.9921 O   0  0  0  0  0  0  0  0  0  0  0  0
  147.5379  138.2792  152.6009 N   0  0  0  0  0  0  0  0  0  0  0  0
  146.2822  138.2512  151.8599 C   0  0  0  0  0  0  0  0  0  0  0  0
  146.2316  137.0661  150.8769 C   0  0  0  0  0  0  0  0  0  0  0  0
  146.1102  135.7628  151.5753 N   0  3  1  0  0  0  0  0  0  0  0  0
  145.3013  135.8569  152.8137 C   0  0  0  0  0  0  0  0  0  0  0  0
  145.2472  134.5026  153.5484 C   0  0  2  0  0  0  0  0  0  0  0  0
  146.5628  134.1337  154.2571 C   0  0  0  0  0  0  0  0  0  0  0  0
  144.8075  133.4765  152.6586 O   0  0  0  0  0  0  0  0  0  0  0  0
  145.5847  133.3387  151.4717 C   0  0  1  0  0  0  0  0  0  0  0  0
  144.9749  132.2059  150.6387 C   0  0  0  0  0  0  0  0  0  0  0  0
  145.5960  134.6753  150.7083 C   0  0  0  0  0  0  0  0  0  0  0  0
  152.5078  137.5713  155.3705 H   0  0  0  0  0  0  0  0  0  0  0  0
  151.6666  137.9433  153.8674 H   0  0  0  0  0  0  0  0  0  0  0  0
  150.8703  136.9680  155.1126 H   0  0  0  0  0  0  0  0  0  0  0  0
  152.6076  139.3309  156.9544 H   0  0  0  0  0  0  0  0  0  0  0  0
  151.6468  141.4044  157.9690 H   0  0  0  0  0  0  0  0  0  0  0  0
  149.4534  142.2535  157.0982 H   0  0  0  0  0  0  0  0  0  0  0  0
  149.5917  138.1943  153.6445 H   0  0  0  0  0  0  0  0  0  0  0  0
  148.2439  137.6088  152.3331 H   0  0  0  0  0  0  0  0  0  0  0  0
  145.4519  138.2217  152.5658 H   0  0  0  0  0  0  0  0  0  0  0  0
  146.1907  139.1902  151.3134 H   0  0  0  0  0  0  0  0  0  0  0  0
  145.3677  137.2071  150.2255 H   0  0  0  0  0  0  0  0  0  0  0  0
  147.1077  137.0521  150.2265 H   0  0  0  0  0  0  0  0  0  0  0  0
  145.7109  136.6212  153.4756 H   0  0  0  0  0  0  0  0  0  0  0  0
  144.2904  136.1745  152.5528 H   0  0  0  0  0  0  0  0  0  0  0  0
  144.4834  134.5763  154.3231 H   0  0  0  0  0  0  0  0  0  0  0  0
  146.8005  134.8613  155.0338 H   0  0  0  0  0  0  0  0  0  0  0  0
  147.4094  134.1050  153.5717 H   0  0  0  0  0  0  0  0  0  0  0  0
  146.4861  133.1568  154.7350 H   0  0  0  0  0  0  0  0  0  0  0  0
  146.6053  133.0549  151.7294 H   0  0  0  0  0  0  0  0  0  0  0  0
  145.5387  132.0463  149.7191 H   0  0  0  0  0  0  0  0  0  0  0  0
  143.9431  132.4276  150.3643 H   0  0  0  0  0  0  0  0  0  0  0  0
  144.9765  131.2685  151.1957 H   0  0  0  0  0  0  0  0  0  0  0  0
  144.5891  134.9249  150.3692 H   0  0  0  0  0  0  0  0  0  0  0  0
  146.2147  134.5745  149.8171 H   0  0  0  0  0  0  0  0  0  0  0  0
  147.0420  135.5009  151.8638 H   0  0  0  0  0  0  0  0  0  0  0  0
  1  2  1  0  0  0  0
  1 22  1  0  0  0  0
  1 23  1  0  0  0  0
  1 24  1  0  0  0  0
  2  7  1  0  0  0  0
  2  3  2  0  0  0  0
  3  4  1  0  0  0  0
  3 25  1  0  0  0  0
  4  5  2  0  0  0  0
  4 26  1  0  0  0  0
  5  6  1  0  0  0  0
  5 27  1  0  0  0  0
  6  7  2  0  0  0  0
  7  8  1  0  0  0  0
  8  9  1  0  0  0  0
  8 28  1  0  0  0  0
  9 10  2  0  0  0  0
  9 11  1  0  0  0  0
 11 12  1  0  0  0  0
 11 29  1  0  0  0  0
 12 13  1  0  0  0  0
 12 30  1  0  0  0  0
 12 31  1  0  0  0  0
 13 14  1  0  0  0  0
 13 32  1  0  0  0  0
 13 33  1  0  0  0  0
 14 21  1  0  0  0  0
 14 15  1  0  0  0  0
 14 46  1  0  0  0  0
 15 16  1  0  0  0  0
 15 34  1  0  0  0  0
 15 35  1  0  0  0  0
 16 17  1  0  0  0  0
 16 18  1  0  0  0  0
 16 36  1  0  0  0  0
 17 37  1  0  0  0  0
 17 38  1  0  0  0  0
 17 39  1  0  0  0  0
 18 19  1  0  0  0  0
 19 20  1  0  0  0  0
 19 21  1  0  0  0  0
 19 40  1  0  0  0  0
 20 41  1  0  0  0  0
 20 42  1  0  0  0  0
 20 43  1  0  0  0  0
 21 44  1  0  0  0  0
 21 45  1  0  0  0  0
M  CHG  1  14   1
M  END
> <s_m_source_file>
AV-unprocessed.smi

> <i_m_source_file_index>
1774

> <i_lp_mmshare_version>
43012

> <i_f3d_flags>
0

> <s_epik_input>
W0NIM11jMVtjSF1bY0hdW2NIXW5jMVtOSF1DKD1PKVtOSF1bQ0gyXVtDSDJdTjJbQ0gyXVtDQEBIXShbQ0gzXSlPW0NAQEhdKFtDSDNdKVtDSDJdMg==

> <s_epik_cmdline>
J2VwaWtfcHl0aG9uJywgJy1waCcsICc3LjAnLCAnLXRuJywgJzgnLCAnLW1hJywgJzIwMCcsICctbWV0YWxfYmluZGluZycsICctaW1hZScsICc8aW5maWxlLm1hZT4nLCAnLW9tYWUnLCAnPG91dGZpbGUubWFlPic=

> <r_epik_Ionization_Penalty>
0.602573

> <r_epik_Ionization_Penalty_Charging>
0.602531

> <r_epik_Ionization_Penalty_Neutral>
4.21996e-05

> <r_epik_State_Penalty>
0.617039

> <r_epik_Charging_Adjusted_Penalty>
1.21957

> <i_epik_Tot_Q>
1

> <i_epik_Tot_abs_Q>
1

> <r_epik_Metal_State_Penalty>
0.617042

> <b_epik_Metal_Only>
0

> <s_lp_Force_Field>
OPLS_2005

> <r_lp_Energy>
18.8628

> <b_lp_Chiralities_Consistent>
1

> <s_lp_Variant>
AV-unprocessed.smi:1774-5

> <Gold.Version>
5.8.1

> <Gold.Id.Protein>
6NUR|6NUR_protein|mol2

> <Gold.PLP.Fitness>
45.8174

> <Gold.PLP.PLP>
-34.6073

> <Gold.PLP.part.hbond>
-4.0000

> <Gold.PLP.part.metal>
0.0000

> <Gold.PLP.part.buried>
2.6741

> <Gold.PLP.part.nonpolar>
-32.6893

> <Gold.PLP.part.repulsive>
0.5891

> <Gold.PLP.ligand.clash>
0.0000

> <Gold.PLP.ligand.torsion>
0.3009

> <Gold.PLP.Chemscore.Hbond>
2.9200

> <Gold.PLP.Chemscore.CHOScore>
1.0000

> <Gold.PLP.Chemscore.Metal>
0.0000

> <Gold.Chemscore.Hbonds>
donor molecule, donor type, donor heavy atom, donor atom, acceptor molecule, acceptor atom, score
      L1  H    11    29       P1  7948  1.00
      L1  H    14    46       P1  7948  1.60
      L1  C     5    27       P1  8028  0.05

> <Gold.PLP.Chemscore.Internal.Correction>
0.0518

> <Gold.Rescore>
     Score         DG    S(hbond)    S(metal)    S(lipo)     H(rot)  DE(clash)    DE(int)     intcor
     14.36     -17.47       1.88        0.00      81.65       1.49       1.59       1.52       ----

> <Gold.Chemscore.Fitness>
14.3641

> <Gold.Chemscore.DG>
-17.4719

> <Gold.Chemscore.ZeroCoef>
-5.4800

> <Gold.Chemscore.Hbond>
1.8758

> <Gold.Chemscore.Metal>
0.0000

> <Gold.Chemscore.Lipo>
81.6484

> <Gold.Chemscore.Internal_Hbond>
0.0000

> <Gold.Chemscore.DEClash>
1.5869

> <Gold.Chemscore.DEInternal>
1.5209

> <Gold.Chemscore.Rot>
1.4946

> <Gold.Chemscore.Internal.Correction>
   9.000000E+99

> <Gold.Chemscore.Hbonds>
donor molecule, donor type, donor heavy atom, donor atom, acceptor molecule, acceptor atom, score
      L1  H    11    29       P1  7948  0.98
      L1  H    14    46       P1  7948  0.76

> <Gold.Chemscore.Hbond.Weighted>
-6.2651

> <Gold.Chemscore.Metal.Weighted>
-0.0000

> <Gold.Chemscore.Lipo.Weighted>
-9.5529

> <Gold.Chemscore.Internal_Hbond.Weighted>
0.0000

> <Gold.Chemscore.DEClash.Weighted>
1.5869

> <Gold.Chemscore.DEInternal.Weighted>
1.5209

> <Gold.Chemscore.Rot.Weighted>
3.8261

> <Gold.Chemscore.Internal.Correction.Weighted>
   9.000000E+99

> <Gold.Protein.RotatedTorsions>
[ 6907 6896 6895 6894 ] final  138.52 input  -60.11 | X-H torsion
[ 7974 7965 7964 7962 ] final  -49.19 input  175.53 | X-H torsion
[ 8008 7997 7996 7995 ] final -148.43 input   59.86 | X-H torsion
[ 10167 10162 10161 10158 ] final  -60.67 input  -65.29 | X-H torsion
[ 10718 10713 10712 10709 ] final -104.36 input   66.30 | X-H torsion
[ 10763 10752 10751 10750 ] final  -11.01 input  -60.55 | X-H torsion
[ 11005 11000 10999 10996 ] final -155.60 input  -57.11 | X-H torsion

> <Gold.Protein.ActiveResidues>
 VAL166  LYS551  ARG553  GLY616  TRP617  ASP618  TYR619  PRO620  LYS621  CYS622 
 ASP623  PHE694  ASN695  SER759  ASP760  ASP761  ALA762  ILE779  LEU786  VAL792 
 PHE793  MET794  SER795  GLU796  ALA797  LYS798  CYS799  TRP800  GLU811  SER814 

> <Gold.Protein.RotatedAtoms>
  152.2657  133.5337  159.5408 H   0  0  0  0  0  0  0  0  0  0  0  0  # atno 6907 bound_to 6896
  150.7141  134.0768  159.3893 H   0  0  0  0  0  0  0  0  0  0  0  0  # atno 6908 bound_to 6896
  151.8684  135.0498  160.0527 H   0  0  0  0  0  0  0  0  0  0  0  0  # atno 6909 bound_to 6896
  145.9432  140.7642  142.9541 H   0  0  0  0  0  0  0  0  0  0  0  0  # atno 7974 bound_to 7965
  155.5916  140.0653  157.2757 H   0  0  0  0  0  0  0  0  0  0  0  0  # atno 8008 bound_to 7997
  154.4304  140.1834  156.1127 H   0  0  0  0  0  0  0  0  0  0  0  0  # atno 8009 bound_to 7997
  156.0228  140.3315  155.7061 H   0  0  0  0  0  0  0  0  0  0  0  0  # atno 8010 bound_to 7997
  140.6056  143.2372  151.5828 H   0  0  0  0  0  0  0  0  0  0  0  0  # atno 10167 bound_to 10162
  156.0301  130.5511  150.7385 H   0  0  0  0  0  0  0  0  0  0  0  0  # atno 10718 bound_to 10713
  153.4775  135.7017  153.5957 H   0  0  0  0  0  0  0  0  0  0  0  0  # atno 10763 bound_to 10752
  153.4185  135.3831  155.2096 H   0  0  0  0  0  0  0  0  0  0  0  0  # atno 10764 bound_to 10752
  154.8723  135.3922  154.4220 H   0  0  0  0  0  0  0  0  0  0  0  0  # atno 10765 bound_to 10752
  140.6847  134.4107  157.5224 H   0  0  0  0  0  0  0  0  0  0  0  0  # atno 11005 bound_to 11000
  144.6782  140.2314  143.7355 LP  0  0  0  0  0  0  0  0  0  0  0  0  # atno 17320 bound_to 7965
  145.8271  139.2069  143.1904 LP  0  0  0  0  0  0  0  0  0  0  0  0  # atno 17321 bound_to 7965
  139.5322  144.2882  152.1174 LP  0  0  0  0  0  0  0  0  0  0  0  0  # atno 17342 bound_to 10162
  140.2071  144.4600  150.6403 LP  0  0  0  0  0  0  0  0  0  0  0  0  # atno 17343 bound_to 10162
  157.4960  131.0915  151.0371 LP  0  0  0  0  0  0  0  0  0  0  0  0  # atno 17370 bound_to 10713
  157.0765  130.5885  149.5412 LP  0  0  0  0  0  0  0  0  0  0  0  0  # atno 17371 bound_to 10713
  139.8941  134.8714  156.2192 LP  0  0  0  0  0  0  0  0  0  0  0  0  # atno 17394 bound_to 11000
  141.0290  133.6999  156.1397 LP  0  0  0  0  0  0  0  0  0  0  0  0  # atno 17395 bound_to 11000

$$$$
