AV-unprocessed.smi:1308|AV-procd|sdf|5439|dock1
  -GOLD-   22720 5 03D 1   1.00000     0.00000
 Structure written by MMmdl.
 45 45  0  0  0  0  0  0  0  0  1 V2000
  146.5888  138.6427  151.3816 C   0  0  0  0  0  0  0  0  0  0  0  0
  147.4231  139.4759  152.3316 C   0  0  0  0  0  0  0  0  0  0  0  0
  147.1343  140.6893  152.6703 N   0  0  0  0  0  0  0  0  0  0  0  0
  147.9849  141.3624  153.5582 C   0  0  0  0  0  0  0  0  0  0  0  0
  147.5772  142.7837  153.9055 C   0  0  0  0  0  0  0  0  0  0  0  0
  149.1041  140.7681  154.0671 C   0  0  0  0  0  0  0  0  0  0  0  0
  150.0543  141.4768  155.0320 C   0  0  0  0  0  0  0  0  0  0  0  0
  150.0384  140.9595  156.4712 C   0  0  0  0  0  0  0  0  0  0  0  0
  148.9648  140.7397  157.0309 O   0  0  0  0  0  0  0  0  0  0  0  0
  151.2376  140.7730  157.0494 N   0  0  0  0  0  0  0  0  0  0  0  0
  151.5079  140.3317  158.4199 C   0  0  1  0  0  0  0  0  0  0  0  0
  152.1866  138.9505  158.4433 C   0  0  0  0  0  0  0  0  0  0  0  0
  152.2794  141.3814  159.2505 C   0  0  0  0  0  0  0  0  0  0  0  0
  151.6761  142.7980  159.1770 C   0  0  0  0  0  0  0  0  0  0  0  0
  152.3383  143.8173  160.1269 C   0  0  0  0  0  0  0  0  0  0  0  0
  152.3505  143.3431  161.5903 C   0  0  0  0  0  0  0  0  0  0  0  0
  151.6501  145.1863  160.0159 C   0  0  0  0  0  0  0  0  0  0  0  0
  149.4257  139.3833  153.6707 C   0  0  0  0  0  0  0  0  0  0  0  0
  150.4132  138.7595  154.0565 O   0  0  0  0  0  0  0  0  0  0  0  0
  148.5483  138.8111  152.8161 N   0  0  0  0  0  0  0  0  0  0  0  0
  148.7243  137.8635  152.5156 H   0  0  0  0  0  0  0  0  0  0  0  0
  146.5452  139.1214  150.4030 H   0  0  0  0  0  0  0  0  0  0  0  0
  145.5713  138.5465  151.7613 H   0  0  0  0  0  0  0  0  0  0  0  0
  147.0020  137.6411  151.2537 H   0  0  0  0  0  0  0  0  0  0  0  0
  147.3964  142.8809  154.9760 H   0  0  0  0  0  0  0  0  0  0  0  0
  146.6626  143.0716  153.3857 H   0  0  0  0  0  0  0  0  0  0  0  0
  148.3575  143.4887  153.6190 H   0  0  0  0  0  0  0  0  0  0  0  0
  151.0706  141.3921  154.6462 H   0  0  0  0  0  0  0  0  0  0  0  0
  149.8580  142.5494  155.0512 H   0  0  0  0  0  0  0  0  0  0  0  0
  152.0505  140.9738  156.4846 H   0  0  0  0  0  0  0  0  0  0  0  0
  150.5278  140.2086  158.8817 H   0  0  0  0  0  0  0  0  0  0  0  0
  152.2521  138.5666  159.4616 H   0  0  0  0  0  0  0  0  0  0  0  0
  153.2000  138.9890  158.0437 H   0  0  0  0  0  0  0  0  0  0  0  0
  151.6232  138.2254  157.8554 H   0  0  0  0  0  0  0  0  0  0  0  0
  152.2889  141.0500  160.2884 H   0  0  0  0  0  0  0  0  0  0  0  0
  153.3240  141.4124  158.9399 H   0  0  0  0  0  0  0  0  0  0  0  0
  151.7734  143.1677  158.1556 H   0  0  0  0  0  0  0  0  0  0  0  0
  150.6052  142.7508  159.3783 H   0  0  0  0  0  0  0  0  0  0  0  0
  153.3735  143.9506  159.8098 H   0  0  0  0  0  0  0  0  0  0  0  0
  151.3416  143.1390  161.9501 H   0  0  0  0  0  0  0  0  0  0  0  0
  152.7872  144.1001  162.2421 H   0  0  0  0  0  0  0  0  0  0  0  0
  152.9414  142.4364  161.7167 H   0  0  0  0  0  0  0  0  0  0  0  0
  150.6029  145.1288  160.3147 H   0  0  0  0  0  0  0  0  0  0  0  0
  151.6839  145.5631  158.9933 H   0  0  0  0  0  0  0  0  0  0  0  0
  152.1379  145.9254  160.6520 H   0  0  0  0  0  0  0  0  0  0  0  0
  1  2  1  0  0  0  0
  1 22  1  0  0  0  0
  1 23  1  0  0  0  0
  1 24  1  0  0  0  0
  2 20  1  0  0  0  0
  2  3  2  0  0  0  0
  3  4  1  0  0  0  0
  4  5  1  0  0  0  0
  4  6  2  0  0  0  0
  5 25  1  0  0  0  0
  5 26  1  0  0  0  0
  5 27  1  0  0  0  0
  6  7  1  0  0  0  0
  6 18  1  0  0  0  0
  7  8  1  0  0  0  0
  7 28  1  0  0  0  0
  7 29  1  0  0  0  0
  8  9  2  0  0  0  0
  8 10  1  0  0  0  0
 10 11  1  0  0  0  0
 10 30  1  0  0  0  0
 11 12  1  0  0  0  0
 11 13  1  0  0  0  0
 11 31  1  0  0  0  0
 12 32  1  0  0  0  0
 12 33  1  0  0  0  0
 12 34  1  0  0  0  0
 13 14  1  0  0  0  0
 13 35  1  0  0  0  0
 13 36  1  0  0  0  0
 14 15  1  0  0  0  0
 14 37  1  0  0  0  0
 14 38  1  0  0  0  0
 15 16  1  0  0  0  0
 15 17  1  0  0  0  0
 15 39  1  0  0  0  0
 16 40  1  0  0  0  0
 16 41  1  0  0  0  0
 16 42  1  0  0  0  0
 17 43  1  0  0  0  0
 17 44  1  0  0  0  0
 17 45  1  0  0  0  0
 18 19  2  0  0  0  0
 18 20  1  0  0  0  0
 20 21  1  0  0  0  0
M  END
> <s_m_source_file>
AV-unprocessed.smi

> <i_m_source_file_index>
1308

> <i_lp_mmshare_version>
43012

> <i_f3d_flags>
0

> <s_epik_input>
W0NIM11jMW5jKFtDSDNdKWMoYyg9TylbbkhdMSlbQ0gyXUMoPU8pW05IXVtDQEhdKFtDSDNdKVtDSDJdW0NIMl1bQ0hdKFtDSDNdKVtDSDNd

> <s_epik_cmdline>
J2VwaWtfcHl0aG9uJywgJy1waCcsICc3LjAnLCAnLXRuJywgJzgnLCAnLW1hJywgJzIwMCcsICctbWV0YWxfYmluZGluZycsICctaW1hZScsICc8aW5maWxlLm1hZT4nLCAnLW9tYWUnLCAnPG91dGZpbGUubWFlPic=

> <r_lp_tautomer_probability>
0.839158

> <r_epik_Ionization_Penalty>
0.000390633

> <r_epik_Ionization_Penalty_Charging>
0.00035831

> <r_epik_Ionization_Penalty_Neutral>
3.23235e-05

> <r_epik_State_Penalty>
0.0470222

> <r_epik_Charging_Adjusted_Penalty>
0.0473805

> <i_epik_Tot_Q>
0

> <i_epik_Tot_abs_Q>
0

> <r_epik_Metal_State_Penalty>
0.223807

> <b_epik_Metal_Only>
0

> <s_lp_Force_Field>
OPLS_2005

> <r_lp_Energy>
7.09032

> <b_lp_Chiralities_Consistent>
1

> <s_lp_Variant>
AV-unprocessed.smi:1308-2

> <Gold.Version>
5.8.1

> <Gold.Id.Protein>
6NUR|6NUR_protein|mol2

> <Gold.PLP.Fitness>
45.1592

> <Gold.PLP.PLP>
-42.6596

> <Gold.PLP.part.hbond>
-2.0000

> <Gold.PLP.part.metal>
0.0000

> <Gold.PLP.part.buried>
-3.7698

> <Gold.PLP.part.nonpolar>
-38.4092

> <Gold.PLP.part.repulsive>
0.5443

> <Gold.PLP.ligand.clash>
0.0000

> <Gold.PLP.ligand.torsion>
0.3607

> <Gold.PLP.Chemscore.Hbond>
0.9920

> <Gold.PLP.Chemscore.CHOScore>
0.0000

> <Gold.PLP.Chemscore.Metal>
0.0000

> <Gold.Chemscore.Hbonds>
donor molecule, donor type, donor heavy atom, donor atom, acceptor molecule, acceptor atom, score
      L1  H    20    21       P1  7948  1.00

> <Gold.PLP.Chemscore.Internal.Correction>
0.2450

> <Gold.Rescore>
     Score         DG    S(hbond)    S(metal)    S(lipo)     H(rot)  DE(clash)    DE(int)     intcor
     14.45     -15.57       0.99        0.00     101.27       1.98       0.51       0.60       ----

> <Gold.Chemscore.Fitness>
14.4545

> <Gold.Chemscore.DG>
-15.5687

> <Gold.Chemscore.ZeroCoef>
-5.4800

> <Gold.Chemscore.Hbond>
0.9934

> <Gold.Chemscore.Metal>
0.0000

> <Gold.Chemscore.Lipo>
101.2694

> <Gold.Chemscore.Internal_Hbond>
0.0000

> <Gold.Chemscore.DEClash>
0.5114

> <Gold.Chemscore.DEInternal>
0.6029

> <Gold.Chemscore.Rot>
1.9835

> <Gold.Chemscore.Internal.Correction>
   9.000000E+99

> <Gold.Chemscore.Hbonds>
donor molecule, donor type, donor heavy atom, donor atom, acceptor molecule, acceptor atom, score
      L1  H    20    21       P1  7948  1.00

> <Gold.Chemscore.Hbond.Weighted>
-3.3180

> <Gold.Chemscore.Metal.Weighted>
-0.0000

> <Gold.Chemscore.Lipo.Weighted>
-11.8485

> <Gold.Chemscore.Internal_Hbond.Weighted>
0.0000

> <Gold.Chemscore.DEClash.Weighted>
0.5114

> <Gold.Chemscore.DEInternal.Weighted>
0.6029

> <Gold.Chemscore.Rot.Weighted>
5.0778

> <Gold.Chemscore.Internal.Correction.Weighted>
   9.000000E+99

> <Gold.Protein.RotatedTorsions>
[ 6907 6896 6895 6894 ] final  -82.21 input  -60.11 | X-H torsion
[ 7974 7965 7964 7962 ] final -176.41 input  175.53 | X-H torsion
[ 8008 7997 7996 7995 ] final  116.15 input   59.86 | X-H torsion
[ 10167 10162 10161 10158 ] final -173.82 input  -65.29 | X-H torsion
[ 10718 10713 10712 10709 ] final  147.98 input   66.30 | X-H torsion
[ 10763 10752 10751 10750 ] final   96.06 input  -60.55 | X-H torsion
[ 11005 11000 10999 10996 ] final   52.14 input  -57.11 | X-H torsion

> <Gold.Protein.ActiveResidues>
 VAL166  LYS551  ARG553  GLY616  TRP617  ASP618  TYR619  PRO620  LYS621  CYS622 
 ASP623  PHE694  ASN695  SER759  ASP760  ASP761  ALA762  ILE779  LEU786  VAL792 
 PHE793  MET794  SER795  GLU796  ALA797  LYS798  CYS799  TRP800  GLU811  SER814 

> <Gold.Protein.RotatedAtoms>
  150.6900  134.3700  159.4987 H   0  0  0  0  0  0  0  0  0  0  0  0  # atno 6907 bound_to 6896
  152.1517  134.8980  160.0557 H   0  0  0  0  0  0  0  0  0  0  0  0  # atno 6908 bound_to 6896
  152.0076  133.3814  159.4243 H   0  0  0  0  0  0  0  0  0  0  0  0  # atno 6909 bound_to 6896
  144.7127  140.1175  143.6407 H   0  0  0  0  0  0  0  0  0  0  0  0  # atno 7974 bound_to 7965
  156.2422  140.2923  156.0478 H   0  0  0  0  0  0  0  0  0  0  0  0  # atno 8008 bound_to 7997
  155.1915  140.0407  157.2918 H   0  0  0  0  0  0  0  0  0  0  0  0  # atno 8009 bound_to 7997
  154.6191  140.2471  155.7579 H   0  0  0  0  0  0  0  0  0  0  0  0  # atno 8010 bound_to 7997
  139.5667  144.1737  152.1324 H   0  0  0  0  0  0  0  0  0  0  0  0  # atno 10167 bound_to 10162
  157.3143  131.0893  151.1291 H   0  0  0  0  0  0  0  0  0  0  0  0  # atno 10718 bound_to 10713
  153.2605  135.4232  155.0889 H   0  0  0  0  0  0  0  0  0  0  0  0  # atno 10763 bound_to 10752
  154.8418  135.3448  154.6384 H   0  0  0  0  0  0  0  0  0  0  0  0  # atno 10764 bound_to 10752
  153.6805  135.7039  153.5176 H   0  0  0  0  0  0  0  0  0  0  0  0  # atno 10765 bound_to 10752
  140.0874  134.5255  155.8885 H   0  0  0  0  0  0  0  0  0  0  0  0  # atno 11005 bound_to 11000
  145.9400  139.2663  143.1274 LP  0  0  0  0  0  0  0  0  0  0  0  0  # atno 17320 bound_to 7965
  145.9433  140.8963  143.0296 LP  0  0  0  0  0  0  0  0  0  0  0  0  # atno 17321 bound_to 7965
  140.1262  144.5329  150.6831 LP  0  0  0  0  0  0  0  0  0  0  0  0  # atno 17342 bound_to 10162
  140.6951  143.2399  151.5023 LP  0  0  0  0  0  0  0  0  0  0  0  0  # atno 17343 bound_to 10162
  157.2601  130.6655  149.5971 LP  0  0  0  0  0  0  0  0  0  0  0  0  # atno 17370 bound_to 10713
  155.9680  130.4511  150.5723 LP  0  0  0  0  0  0  0  0  0  0  0  0  # atno 17371 bound_to 10713
  141.2067  133.6657  156.6259 LP  0  0  0  0  0  0  0  0  0  0  0  0  # atno 17394 bound_to 11000
  140.3400  134.7857  157.4391 LP  0  0  0  0  0  0  0  0  0  0  0  0  # atno 17395 bound_to 11000

$$$$
