AV-unprocessed.smi:1191|AV-procd|sdf|4986|dock10
  -GOLD-   22720 3583D 1   1.00000     0.00000
 Structure written by MMmdl.
 47 48  0  0  0  0  0  0  0  0  2 V2000
  151.8786  138.6680  159.1163 C   0  0  0  0  0  0  0  0  0  0  0  0
  151.3088  139.2136  157.8401 C   0  0  0  0  0  0  0  0  0  0  0  0
  151.0993  140.5736  157.4781 C   0  0  0  0  0  0  0  0  0  0  0  0
  150.5644  140.5106  156.2222 C   0  0  0  0  0  0  0  0  0  0  0  0
  150.1309  141.6055  155.3035 C   0  0  0  0  0  0  0  0  0  0  0  0
  150.4735  139.1700  155.8918 N   0  0  0  0  0  0  0  0  0  0  0  0
  149.9818  138.5571  154.6675 C   0  0  0  0  0  0  0  0  0  0  0  0
  148.5917  139.0823  154.3064 C   0  0  0  0  0  0  0  0  0  0  0  0
  148.0133  139.8661  155.0588 O   0  0  0  0  0  0  0  0  0  0  0  0
  148.0685  138.6473  153.1497 N   0  0  0  0  0  0  0  0  0  0  0  0
  146.7736  139.0465  152.6140 C   0  0  0  0  0  0  0  0  0  0  0  0
  146.3816  138.1897  151.3952 C   0  0  0  0  0  0  0  0  0  0  0  0
  146.0386  136.7971  151.7767 N   0  3  1  0  0  0  0  0  0  0  0  0
  145.2021  136.7366  153.0029 C   0  0  0  0  0  0  0  0  0  0  0  0
  145.0018  135.2843  153.4639 C   0  0  0  0  0  0  0  0  0  0  0  0
  144.4002  134.4263  152.3419 C   0  0  0  0  0  0  0  0  0  0  0  0
  145.2269  134.5376  151.0471 C   0  0  2  0  0  0  0  0  0  0  0  0
  146.5562  133.7659  151.1185 C   0  0  0  0  0  0  0  0  0  0  0  0
  145.4334  136.0172  150.6629 C   0  0  0  0  0  0  0  0  0  0  0  0
  150.9341  138.3782  156.8854 N   0  0  0  0  0  0  0  0  0  0  0  0
  152.0705  139.4648  159.8350 H   0  0  0  0  0  0  0  0  0  0  0  0
  152.8211  138.1509  158.9351 H   0  0  0  0  0  0  0  0  0  0  0  0
  151.1929  137.9599  159.5824 H   0  0  0  0  0  0  0  0  0  0  0  0
  151.3101  141.4625  158.0542 H   0  0  0  0  0  0  0  0  0  0  0  0
  150.2950  142.5828  155.7580 H   0  0  0  0  0  0  0  0  0  0  0  0
  149.0696  141.5198  155.0692 H   0  0  0  0  0  0  0  0  0  0  0  0
  150.6899  141.5735  154.3682 H   0  0  0  0  0  0  0  0  0  0  0  0
  150.6787  138.7608  153.8527 H   0  0  0  0  0  0  0  0  0  0  0  0
  149.9537  137.4746  154.7957 H   0  0  0  0  0  0  0  0  0  0  0  0
  148.6172  138.0045  152.5960 H   0  0  0  0  0  0  0  0  0  0  0  0
  146.0452  138.9398  153.4167 H   0  0  0  0  0  0  0  0  0  0  0  0
  146.7907  140.1051  152.3485 H   0  0  0  0  0  0  0  0  0  0  0  0
  145.5162  138.6509  150.9174 H   0  0  0  0  0  0  0  0  0  0  0  0
  147.1770  138.1862  150.6482 H   0  0  0  0  0  0  0  0  0  0  0  0
  145.6794  137.2993  153.8063 H   0  0  0  0  0  0  0  0  0  0  0  0
  144.2378  137.2102  152.8118 H   0  0  0  0  0  0  0  0  0  0  0  0
  145.9563  134.8649  153.7836 H   0  0  0  0  0  0  0  0  0  0  0  0
  144.3504  135.2596  154.3379 H   0  0  0  0  0  0  0  0  0  0  0  0
  144.3226  133.3860  152.6598 H   0  0  0  0  0  0  0  0  0  0  0  0
  143.3809  134.7623  152.1463 H   0  0  0  0  0  0  0  0  0  0  0  0
  144.6448  134.0719  150.2506 H   0  0  0  0  0  0  0  0  0  0  0  0
  147.2258  134.1748  151.8751 H   0  0  0  0  0  0  0  0  0  0  0  0
  147.0803  133.8019  150.1629 H   0  0  0  0  0  0  0  0  0  0  0  0
  146.3868  132.7156  151.3579 H   0  0  0  0  0  0  0  0  0  0  0  0
  144.4745  136.4652  150.3968 H   0  0  0  0  0  0  0  0  0  0  0  0
  146.0562  136.0730  149.7707 H   0  0  0  0  0  0  0  0  0  0  0  0
  146.9110  136.3459  152.0128 H   0  0  0  0  0  0  0  0  0  0  0  0
  1  2  1  0  0  0  0
  1 21  1  0  0  0  0
  1 22  1  0  0  0  0
  1 23  1  0  0  0  0
  2 20  2  0  0  0  0
  2  3  1  0  0  0  0
  3  4  2  0  0  0  0
  3 24  1  0  0  0  0
  4  5  1  0  0  0  0
  4  6  1  0  0  0  0
  5 25  1  0  0  0  0
  5 26  1  0  0  0  0
  5 27  1  0  0  0  0
  6  7  1  0  0  0  0
  6 20  1  0  0  0  0
  7  8  1  0  0  0  0
  7 28  1  0  0  0  0
  7 29  1  0  0  0  0
  8  9  2  0  0  0  0
  8 10  1  0  0  0  0
 10 11  1  0  0  0  0
 10 30  1  0  0  0  0
 11 12  1  0  0  0  0
 11 31  1  0  0  0  0
 11 32  1  0  0  0  0
 12 13  1  0  0  0  0
 12 33  1  0  0  0  0
 12 34  1  0  0  0  0
 13 19  1  0  0  0  0
 13 14  1  0  0  0  0
 13 47  1  0  0  0  0
 14 15  1  0  0  0  0
 14 35  1  0  0  0  0
 14 36  1  0  0  0  0
 15 16  1  0  0  0  0
 15 37  1  0  0  0  0
 15 38  1  0  0  0  0
 16 17  1  0  0  0  0
 16 39  1  0  0  0  0
 16 40  1  0  0  0  0
 17 18  1  0  0  0  0
 17 19  1  0  0  0  0
 17 41  1  0  0  0  0
 18 42  1  0  0  0  0
 18 43  1  0  0  0  0
 18 44  1  0  0  0  0
 19 45  1  0  0  0  0
 19 46  1  0  0  0  0
M  CHG  1  13   1
M  END
> <s_m_source_file>
AV-unprocessed.smi

> <i_m_source_file_index>
1191

> <i_lp_mmshare_version>
43012

> <i_f3d_flags>
0

> <s_epik_input>
W0NIM11jMVtjSF1jKFtDSDNdKW4objEpW0NIMl1DKD1PKVtOSF1bQ0gyXVtDSDJdTjJbQ0gyXVtDSDJdW0NIMl1bQ0BASF0oW0NIM10pW0NIMl0y

> <s_epik_cmdline>
J2VwaWtfcHl0aG9uJywgJy1waCcsICc3LjAnLCAnLXRuJywgJzgnLCAnLW1hJywgJzIwMCcsICctbWV0YWxfYmluZGluZycsICctaW1hZScsICc8aW5maWxlLm1hZT4nLCAnLW9tYWUnLCAnPG91dGZpbGUubWFlPic=

> <r_lp_tautomer_probability>
1

> <r_epik_Ionization_Penalty>
0.00249932

> <r_epik_Ionization_Penalty_Charging>
0.00230623

> <r_epik_Ionization_Penalty_Neutral>
0.000193092

> <r_epik_State_Penalty>
-0

> <r_epik_Charging_Adjusted_Penalty>
0.00230623

> <i_epik_Tot_Q>
1

> <i_epik_Tot_abs_Q>
1

> <r_epik_Metal_State_Penalty>
-0

> <b_epik_Metal_Only>
0

> <s_lp_Force_Field>
OPLS_2005

> <r_lp_Energy>
16.3649

> <b_lp_Chiralities_Consistent>
1

> <s_lp_Variant>
AV-unprocessed.smi:1191-3

> <Gold.Version>
5.8.1

> <Gold.Id.Protein>
6NUR|6NUR_protein|mol2

> <Gold.PLP.Fitness>
40.0888

> <Gold.PLP.PLP>
-31.5595

> <Gold.PLP.part.hbond>
-3.0000

> <Gold.PLP.part.metal>
0.0000

> <Gold.PLP.part.buried>
-1.5808

> <Gold.PLP.part.nonpolar>
-27.2744

> <Gold.PLP.part.repulsive>
0.1396

> <Gold.PLP.ligand.clash>
0.0000

> <Gold.PLP.ligand.torsion>
0.2496

> <Gold.PLP.Chemscore.Hbond>
3.0000

> <Gold.PLP.Chemscore.CHOScore>
0.0000

> <Gold.PLP.Chemscore.Metal>
0.0000

> <Gold.Chemscore.Hbonds>
donor molecule, donor type, donor heavy atom, donor atom, acceptor molecule, acceptor atom, score
      L1  H    10    30       P1  7948  1.00
      L1  H    13    47       P1  7948  1.98

> <Gold.PLP.Chemscore.Internal.Correction>
0.0285

> <Gold.Rescore>
     Score         DG    S(hbond)    S(metal)    S(lipo)     H(rot)  DE(clash)    DE(int)     intcor
     14.07     -16.85       1.80        0.00      82.36       1.67       0.52       2.27       ----

> <Gold.Chemscore.Fitness>
14.0660

> <Gold.Chemscore.DG>
-16.8546

> <Gold.Chemscore.ZeroCoef>
-5.4800

> <Gold.Chemscore.Hbond>
1.7971

> <Gold.Chemscore.Metal>
0.0000

> <Gold.Chemscore.Lipo>
82.3617

> <Gold.Chemscore.Internal_Hbond>
0.0000

> <Gold.Chemscore.DEClash>
0.5229

> <Gold.Chemscore.DEInternal>
2.2658

> <Gold.Chemscore.Rot>
1.6657

> <Gold.Chemscore.Internal.Correction>
   9.000000E+99

> <Gold.Chemscore.Hbonds>
donor molecule, donor type, donor heavy atom, donor atom, acceptor molecule, acceptor atom, score
      L1  H    10    30       P1  7948  0.96
      L1  H    13    47       P1  7948  0.88

> <Gold.Chemscore.Hbond.Weighted>
-6.0024

> <Gold.Chemscore.Metal.Weighted>
-0.0000

> <Gold.Chemscore.Lipo.Weighted>
-9.6363

> <Gold.Chemscore.Internal_Hbond.Weighted>
0.0000

> <Gold.Chemscore.DEClash.Weighted>
0.5229

> <Gold.Chemscore.DEInternal.Weighted>
2.2658

> <Gold.Chemscore.Rot.Weighted>
4.2641

> <Gold.Chemscore.Internal.Correction.Weighted>
   9.000000E+99

> <Gold.Protein.RotatedTorsions>
[ 6907 6896 6895 6894 ] final -121.14 input  -60.11 | X-H torsion
[ 7974 7965 7964 7962 ] final -164.77 input  175.53 | X-H torsion
[ 8008 7997 7996 7995 ] final -100.00 input   59.86 | X-H torsion
[ 10167 10162 10161 10158 ] final  -12.87 input  -65.29 | X-H torsion
[ 10718 10713 10712 10709 ] final -157.44 input   66.30 | X-H torsion
[ 10763 10752 10751 10750 ] final   18.05 input  -60.55 | X-H torsion
[ 11005 11000 10999 10996 ] final -163.61 input  -57.11 | X-H torsion

> <Gold.Protein.ActiveResidues>
 VAL166  LYS551  ARG553  GLY616  TRP617  ASP618  TYR619  PRO620  LYS621  CYS622 
 ASP623  PHE694  ASN695  SER759  ASP760  ASP761  ALA762  ILE779  LEU786  VAL792 
 PHE793  MET794  SER795  GLU796  ALA797  LYS798  CYS799  TRP800  GLU811  SER814 

> <Gold.Protein.RotatedAtoms>
  150.8457  133.7866  159.3043 H   0  0  0  0  0  0  0  0  0  0  0  0  # atno 6907 bound_to 6896
  151.5553  135.1065  159.9969 H   0  0  0  0  0  0  0  0  0  0  0  0  # atno 6908 bound_to 6896
  152.4511  133.7588  159.6791 H   0  0  0  0  0  0  0  0  0  0  0  0  # atno 6909 bound_to 6896
  144.7287  140.2911  143.6220 H   0  0  0  0  0  0  0  0  0  0  0  0  # atno 7974 bound_to 7965
  154.8226  140.0444  157.1421 H   0  0  0  0  0  0  0  0  0  0  0  0  # atno 8008 bound_to 7997
  154.9243  140.3031  155.5180 H   0  0  0  0  0  0  0  0  0  0  0  0  # atno 8009 bound_to 7997
  156.2981  140.2335  156.4296 H   0  0  0  0  0  0  0  0  0  0  0  0  # atno 8010 bound_to 7997
  140.7170  143.5486  150.9327 H   0  0  0  0  0  0  0  0  0  0  0  0  # atno 10167 bound_to 10162
  156.5404  130.8560  151.2747 H   0  0  0  0  0  0  0  0  0  0  0  0  # atno 10718 bound_to 10713
  153.1283  135.6734  153.9220 H   0  0  0  0  0  0  0  0  0  0  0  0  # atno 10763 bound_to 10752
  153.8714  135.3069  155.3443 H   0  0  0  0  0  0  0  0  0  0  0  0  # atno 10764 bound_to 10752
  154.7685  135.4952  153.9682 H   0  0  0  0  0  0  0  0  0  0  0  0  # atno 10765 bound_to 10752
  140.5962  134.4994  157.5199 H   0  0  0  0  0  0  0  0  0  0  0  0  # atno 11005 bound_to 11000
  145.7854  139.1907  143.2134 LP  0  0  0  0  0  0  0  0  0  0  0  0  # atno 17320 bound_to 7965
  146.0800  140.7775  142.9646 LP  0  0  0  0  0  0  0  0  0  0  0  0  # atno 17321 bound_to 7965
  139.9210  143.6606  152.3097 LP  0  0  0  0  0  0  0  0  0  0  0  0  # atno 17342 bound_to 10162
  139.7023  144.7633  151.1252 LP  0  0  0  0  0  0  0  0  0  0  0  0  # atno 17343 bound_to 10162
  157.7406  130.9854  150.2390 LP  0  0  0  0  0  0  0  0  0  0  0  0  # atno 17370 bound_to 10713
  156.2977  130.3754  149.7780 LP  0  0  0  0  0  0  0  0  0  0  0  0  # atno 17371 bound_to 10713
  139.9252  134.8070  156.1090 LP  0  0  0  0  0  0  0  0  0  0  0  0  # atno 17394 bound_to 11000
  141.0902  133.6717  156.2524 LP  0  0  0  0  0  0  0  0  0  0  0  0  # atno 17395 bound_to 11000

$$$$
