AV-unprocessed.smi:1983|AV-procd|sdf|8031|dock2
  -GOLD-   2272010223D 1   1.00000     0.00000
 Structure written by MMmdl.
 49 50  0  0  0  0  0  0  0  0  1 V2000
  144.6161  134.6427  150.6032 C   0  0  0  0  0  0  0  0  0  0  0  0
  145.5138  134.5388  151.8454 C   0  0  1  0  0  0  0  0  0  0  0  0
  146.3780  133.2616  151.8362 C   0  0  0  0  0  0  0  0  0  0  0  0
  146.8843  133.0161  150.5413 O   0  0  0  0  0  0  0  0  0  0  0  0
  146.3600  135.7266  151.9226 N   0  0  0  0  0  0  0  0  0  0  0  0
  145.9201  136.9800  152.1043 C   0  0  0  0  0  0  0  0  0  0  0  0
  144.7336  137.2840  152.2303 O   0  0  0  0  0  0  0  0  0  0  0  0
  146.9286  137.8621  152.1442 N   0  0  0  0  0  0  0  0  0  0  0  0
  146.7675  139.2931  152.3731 C   0  0  0  0  0  0  0  0  0  0  0  0
  147.6120  139.8014  153.5282 C   0  0  0  0  0  0  0  0  0  0  0  0
  147.3462  141.0483  154.1274 C   0  0  0  0  0  0  0  0  0  0  0  0
  148.1643  141.4832  155.1873 C   0  0  0  0  0  0  0  0  0  0  0  0
  149.2307  140.6588  155.6176 C   0  0  0  0  0  0  0  0  0  0  0  0
  150.0633  141.0809  156.6749 N   0  0  0  0  0  0  0  0  0  0  0  0
  150.7398  140.0575  157.4661 C   0  0  0  0  0  0  0  0  0  0  0  0
  151.8437  140.6937  158.3289 C   0  0  2  0  0  0  0  0  0  0  0  0
  152.4953  139.6737  159.2681 C   0  0  0  0  0  0  0  0  0  0  0  0
  151.2842  141.7365  159.1266 O   0  0  0  0  0  0  0  0  0  0  0  0
  150.6337  142.7734  158.3875 C   0  0  1  0  0  0  0  0  0  0  0  0
  151.6345  143.6651  157.6313 C   0  0  0  0  0  0  0  0  0  0  0  0
  149.5373  142.1774  157.4821 C   0  0  0  0  0  0  0  0  0  0  0  0
  149.4853  139.4610  155.0348 N   0  0  0  0  0  0  0  0  0  0  0  0
  148.6951  139.0468  154.0219 C   0  0  0  0  0  0  0  0  0  0  0  0
  143.9348  133.7943  150.5360 H   0  0  0  0  0  0  0  0  0  0  0  0
  145.2069  134.6677  149.6871 H   0  0  0  0  0  0  0  0  0  0  0  0
  144.0079  135.5473  150.6329 H   0  0  0  0  0  0  0  0  0  0  0  0
  144.8698  134.5235  152.7270 H   0  0  0  0  0  0  0  0  0  0  0  0
  147.2039  133.3402  152.5439 H   0  0  0  0  0  0  0  0  0  0  0  0
  145.7880  132.3918  152.1272 H   0  0  0  0  0  0  0  0  0  0  0  0
  147.7757  133.3275  150.5039 H   0  0  0  0  0  0  0  0  0  0  0  0
  147.3548  135.5805  151.8331 H   0  0  0  0  0  0  0  0  0  0  0  0
  147.8708  137.5194  152.0266 H   0  0  0  0  0  0  0  0  0  0  0  0
  147.0655  139.8208  151.4668 H   0  0  0  0  0  0  0  0  0  0  0  0
  145.7151  139.5322  152.5363 H   0  0  0  0  0  0  0  0  0  0  0  0
  146.5312  141.6653  153.7787 H   0  0  0  0  0  0  0  0  0  0  0  0
  147.9781  142.4432  155.6456 H   0  0  0  0  0  0  0  0  0  0  0  0
  150.0092  139.5523  158.0993 H   0  0  0  0  0  0  0  0  0  0  0  0
  151.1798  139.3046  156.8107 H   0  0  0  0  0  0  0  0  0  0  0  0
  152.6222  141.1017  157.6838 H   0  0  0  0  0  0  0  0  0  0  0  0
  152.9534  138.8599  158.7056 H   0  0  0  0  0  0  0  0  0  0  0  0
  151.7634  139.2399  159.9499 H   0  0  0  0  0  0  0  0  0  0  0  0
  153.2748  140.1414  159.8702 H   0  0  0  0  0  0  0  0  0  0  0  0
  150.1432  143.4086  159.1254 H   0  0  0  0  0  0  0  0  0  0  0  0
  151.1276  144.5213  157.1858 H   0  0  0  0  0  0  0  0  0  0  0  0
  152.1370  143.1324  156.8243 H   0  0  0  0  0  0  0  0  0  0  0  0
  152.3991  144.0496  158.3066 H   0  0  0  0  0  0  0  0  0  0  0  0
  149.1045  142.9652  156.8663 H   0  0  0  0  0  0  0  0  0  0  0  0
  148.7281  141.7852  158.0995 H   0  0  0  0  0  0  0  0  0  0  0  0
  148.9418  138.0881  153.5898 H   0  0  0  0  0  0  0  0  0  0  0  0
  1  2  1  0  0  0  0
  1 24  1  0  0  0  0
  1 25  1  0  0  0  0
  1 26  1  0  0  0  0
  2  3  1  0  0  0  0
  2  5  1  0  0  0  0
  2 27  1  0  0  0  0
  3  4  1  0  0  0  0
  3 28  1  0  0  0  0
  3 29  1  0  0  0  0
  4 30  1  0  0  0  0
  5  6  1  0  0  0  0
  5 31  1  0  0  0  0
  6  7  2  0  0  0  0
  6  8  1  0  0  0  0
  8  9  1  0  0  0  0
  8 32  1  0  0  0  0
  9 10  1  0  0  0  0
  9 33  1  0  0  0  0
  9 34  1  0  0  0  0
 10 23  1  0  0  0  0
 10 11  2  0  0  0  0
 11 12  1  0  0  0  0
 11 35  1  0  0  0  0
 12 13  2  0  0  0  0
 12 36  1  0  0  0  0
 13 14  1  0  0  0  0
 13 22  1  0  0  0  0
 14 21  1  0  0  0  0
 14 15  1  0  0  0  0
 15 16  1  0  0  0  0
 15 37  1  0  0  0  0
 15 38  1  0  0  0  0
 16 17  1  0  0  0  0
 16 18  1  0  0  0  0
 16 39  1  0  0  0  0
 17 40  1  0  0  0  0
 17 41  1  0  0  0  0
 17 42  1  0  0  0  0
 18 19  1  0  0  0  0
 19 20  1  0  0  0  0
 19 21  1  0  0  0  0
 19 43  1  0  0  0  0
 20 44  1  0  0  0  0
 20 45  1  0  0  0  0
 20 46  1  0  0  0  0
 21 47  1  0  0  0  0
 21 48  1  0  0  0  0
 22 23  2  0  0  0  0
 23 49  1  0  0  0  0
M  END
> <s_m_source_file>
AV-unprocessed.smi

> <i_m_source_file_index>
1983

> <i_lp_mmshare_version>
43012

> <i_f3d_flags>
0

> <s_epik_input>
W09IXVtDSDJdW0NAQEhdKFtDSDNdKVtOSF1DKD1PKVtOSF1bQ0gyXWMxW2NIXVtjSF1jKG5bY0hdMSlOMltDSDJdW0NAQEhdKFtDSDNdKU9bQ0BASF0oW0NIM10pW0NIMl0y

> <s_epik_cmdline>
J2VwaWtfcHl0aG9uJywgJy1waCcsICc3LjAnLCAnLXRuJywgJzgnLCAnLW1hJywgJzIwMCcsICctbWV0YWxfYmluZGluZycsICctaW1hZScsICc8aW5maWxlLm1hZT4nLCAnLW9tYWUnLCAnPG91dGZpbGUubWFlPic=

> <r_lp_tautomer_probability>
1

> <r_epik_Ionization_Penalty>
0.00801967

> <r_epik_Ionization_Penalty_Charging>
0

> <r_epik_Ionization_Penalty_Neutral>
0.00801967

> <r_epik_State_Penalty>
0.00598289

> <r_epik_Charging_Adjusted_Penalty>
0.00598289

> <i_epik_Tot_Q>
0

> <i_epik_Tot_abs_Q>
0

> <r_epik_Metal_State_Penalty>
0.00590297

> <b_epik_Metal_Only>
0

> <s_lp_Force_Field>
OPLS_2005

> <r_lp_Energy>
16.1949

> <b_lp_Chiralities_Consistent>
1

> <s_lp_Variant>
AV-unprocessed.smi:1983-4

> <Gold.Version>
5.8.1

> <Gold.Id.Protein>
6NUR|6NUR_protein|mol2

> <Gold.PLP.Fitness>
42.5888

> <Gold.PLP.PLP>
-35.2645

> <Gold.PLP.part.hbond>
-3.0198

> <Gold.PLP.part.metal>
0.0000

> <Gold.PLP.part.buried>
-3.5777

> <Gold.PLP.part.nonpolar>
-29.6440

> <Gold.PLP.part.repulsive>
1.4458

> <Gold.PLP.ligand.clash>
0.0000

> <Gold.PLP.ligand.torsion>
1.0359

> <Gold.PLP.Chemscore.Hbond>
1.9920

> <Gold.PLP.Chemscore.CHOScore>
1.0000

> <Gold.PLP.Chemscore.Metal>
0.0000

> <Gold.Chemscore.Hbonds>
donor molecule, donor type, donor heavy atom, donor atom, acceptor molecule, acceptor atom, score
      L1  H     5    31       P1  7948  1.00
      L1  H     8    32       P1  7948  1.00
      L1  C    23    49       P1  7948  1.00

> <Gold.PLP.Chemscore.Internal.Correction>
0.4202

> <Gold.Rescore>
     Score         DG    S(hbond)    S(metal)    S(lipo)     H(rot)  DE(clash)    DE(int)     intcor
     14.66     -15.66       1.92        0.00      89.22       2.61       0.11       0.89       ----

> <Gold.Chemscore.Fitness>
14.6634

> <Gold.Chemscore.DG>
-15.6642

> <Gold.Chemscore.ZeroCoef>
-5.4800

> <Gold.Chemscore.Hbond>
1.9240

> <Gold.Chemscore.Metal>
0.0000

> <Gold.Chemscore.Lipo>
89.2224

> <Gold.Chemscore.Internal_Hbond>
0.0000

> <Gold.Chemscore.DEClash>
0.1081

> <Gold.Chemscore.DEInternal>
0.8927

> <Gold.Chemscore.Rot>
2.6097

> <Gold.Chemscore.Internal.Correction>
   9.000000E+99

> <Gold.Chemscore.Hbonds>
donor molecule, donor type, donor heavy atom, donor atom, acceptor molecule, acceptor atom, score
      L1  H     5    31       P1  7948  0.94
      L1  H     8    32       P1  7948  0.95

> <Gold.Chemscore.Hbond.Weighted>
-6.4261

> <Gold.Chemscore.Metal.Weighted>
-0.0000

> <Gold.Chemscore.Lipo.Weighted>
-10.4390

> <Gold.Chemscore.Internal_Hbond.Weighted>
0.0000

> <Gold.Chemscore.DEClash.Weighted>
0.1081

> <Gold.Chemscore.DEInternal.Weighted>
0.8927

> <Gold.Chemscore.Rot.Weighted>
6.6809

> <Gold.Chemscore.Internal.Correction.Weighted>
   9.000000E+99

> <Gold.Protein.RotatedTorsions>
[ 6907 6896 6895 6894 ] final  142.83 input  -60.11 | X-H torsion
[ 7974 7965 7964 7962 ] final  141.45 input  175.53 | X-H torsion
[ 8008 7997 7996 7995 ] final   60.66 input   59.86 | X-H torsion
[ 10167 10162 10161 10158 ] final  -75.68 input  -65.29 | X-H torsion
[ 10718 10713 10712 10709 ] final -116.28 input   66.30 | X-H torsion
[ 10763 10752 10751 10750 ] final   20.56 input  -60.55 | X-H torsion
[ 11005 11000 10999 10996 ] final  -43.50 input  -57.11 | X-H torsion

> <Gold.Protein.ActiveResidues>
 VAL166  LYS551  ARG553  GLY616  TRP617  ASP618  TYR619  PRO620  LYS621  CYS622 
 ASP623  PHE694  ASN695  SER759  ASP760  ASP761  ALA762  ILE779  LEU786  VAL792 
 PHE793  MET794  SER795  GLU796  ALA797  LYS798  CYS799  TRP800  GLU811  SER814 

> <Gold.Protein.RotatedAtoms>
  152.2139  133.4932  159.5124 H   0  0  0  0  0  0  0  0  0  0  0  0  # atno 6907 bound_to 6896
  150.6996  134.1431  159.4121 H   0  0  0  0  0  0  0  0  0  0  0  0  # atno 6908 bound_to 6896
  151.9351  135.0239  160.0582 H   0  0  0  0  0  0  0  0  0  0  0  0  # atno 6909 bound_to 6896
  144.9095  139.5312  143.5715 H   0  0  0  0  0  0  0  0  0  0  0  0  # atno 7974 bound_to 7965
  155.5858  140.3492  155.4553 H   0  0  0  0  0  0  0  0  0  0  0  0  # atno 8008 bound_to 7997
  156.0338  140.1280  157.0254 H   0  0  0  0  0  0  0  0  0  0  0  0  # atno 8009 bound_to 7997
  154.4363  140.1038  156.6124 H   0  0  0  0  0  0  0  0  0  0  0  0  # atno 8010 bound_to 7997
  140.4922  143.2378  151.7889 H   0  0  0  0  0  0  0  0  0  0  0  0  # atno 10167 bound_to 10162
  156.0953  130.6127  150.9016 H   0  0  0  0  0  0  0  0  0  0  0  0  # atno 10718 bound_to 10713
  153.1067  135.6686  153.9574 H   0  0  0  0  0  0  0  0  0  0  0  0  # atno 10763 bound_to 10752
  153.9129  135.3023  155.3450 H   0  0  0  0  0  0  0  0  0  0  0  0  # atno 10764 bound_to 10752
  154.7488  135.5045  153.9328 H   0  0  0  0  0  0  0  0  0  0  0  0  # atno 10765 bound_to 10752
  141.0388  133.6789  156.2741 H   0  0  0  0  0  0  0  0  0  0  0  0  # atno 11005 bound_to 11000
  146.3151  139.7890  142.8989 LP  0  0  0  0  0  0  0  0  0  0  0  0  # atno 17320 bound_to 7965
  145.3478  141.0301  143.3356 LP  0  0  0  0  0  0  0  0  0  0  0  0  # atno 17321 bound_to 7965
  139.4853  144.4634  151.9513 LP  0  0  0  0  0  0  0  0  0  0  0  0  # atno 17342 bound_to 10162
  140.3721  144.2842  150.5918 LP  0  0  0  0  0  0  0  0  0  0  0  0  # atno 17343 bound_to 10162
  157.6112  131.0936  150.8791 LP  0  0  0  0  0  0  0  0  0  0  0  0  # atno 17370 bound_to 10713
  156.8930  130.5219  149.5285 LP  0  0  0  0  0  0  0  0  0  0  0  0  # atno 17371 bound_to 10713
  140.6273  134.5300  157.5555 LP  0  0  0  0  0  0  0  0  0  0  0  0  # atno 17394 bound_to 11000
  139.9260  134.8055  156.1068 LP  0  0  0  0  0  0  0  0  0  0  0  0  # atno 17395 bound_to 11000

$$$$
