#       Name:                AV-unprocessed.smi:1041
#       Creating user name   scv26
#       Creation time:       Fri Mar 27 02:55:35 2020


#       File generated by GOLD software.
#

@<TRIPOS>MOLECULE
AV-unprocessed.smi:1041
    60    61     1
SMALL
NO_CHARGES


@<TRIPOS>ATOM
      1 ****        -4.8587  -5.6828   0.0874 C.3            1 S1                 0.0000
      2 ****        -4.4838  -4.5626   0.8693 O.3            1 S1                 0.0000
      3 ****        -5.1500  -3.3750   0.4724 C.3            1 S1                 0.0000
      4 ****        -4.7042  -2.2124   1.3745 C.3            1 S1                 0.0000
      5 ****        -3.2665  -1.9388   1.3840 N.3            1 S1                 0.0000
      6 ****        -2.9309  -0.9880   2.4433 C.3            1 S1                 0.0000
      7 ****        -1.4194  -0.7278   2.5475 C.3            1 S1                 0.0000
      8 ****        -0.8593  -0.2062   1.2118 C.3            1 S1                 0.0000
      9 ****         0.6637   0.0185   1.2958 C.3            1 S1                 0.0000
     10 ****         1.1862   0.6568   0.0922 N.am           1 S1                 0.0000
     11 ****         1.9032   0.0540  -0.8690 C.2            1 S1                 0.0000
     12 ****         2.2155  -1.1358  -0.8416 O.2            1 S1                 0.0000
     13 ****         2.3151   0.9258  -2.0565 C.3            1 S1                 0.0000
     14 ****         3.1454   2.1626  -1.7158 C.2            1 S1                 0.0000
     15 ****         4.4965   2.1197  -1.5252 C.2            1 S1                 0.0000
     16 ****         5.3021   0.8364  -1.6307 C.3            1 S1                 0.0000
     17 ****         5.2323   3.2728  -1.2182 N.2            1 S1                 0.0000
     18 ****         4.6078   4.3996  -1.1151 C.2            1 S1                 0.0000
     19 ****         5.2847   5.7139  -0.7884 C.3            1 S1                 0.0000
     20 ****         3.2303   4.5115  -1.2950 N.am           1 S1                 0.0000
     21 ****         2.4415   3.4536  -1.5881 C.2            1 S1                 0.0000
     22 ****         1.2274   3.6014  -1.7193 O.2            1 S1                 0.0000
     23 ****        -1.2692  -1.1786   0.0860 C.3            1 S1                 0.0000
     24 ****        -2.7869  -1.4299   0.0965 C.3            1 S1                 0.0000
     25 ****         2.7959   5.4177  -1.1984 H              1 S1                 0.0000
     26 ****        -4.3229  -6.5668   0.4332 H              1 S1                 0.0000
     27 ****        -4.6125  -5.5298  -0.9641 H              1 S1                 0.0000
     28 ****        -5.9276  -5.8829   0.1713 H              1 S1                 0.0000
     29 ****        -4.9523  -3.1580  -0.5777 H              1 S1                 0.0000
     30 ****        -6.2282  -3.5109   0.5681 H              1 S1                 0.0000
     31 ****        -5.2483  -1.3094   1.0940 H              1 S1                 0.0000
     32 ****        -5.0248  -2.4497   2.3897 H              1 S1                 0.0000
     33 ****        -3.4523  -0.0446   2.2734 H              1 S1                 0.0000
     34 ****        -3.2860  -1.3672   3.4024 H              1 S1                 0.0000
     35 ****        -1.2243  -0.0080   3.3431 H              1 S1                 0.0000
     36 ****        -0.9099  -1.6500   2.8307 H              1 S1                 0.0000
     37 ****        -1.3297   0.7579   1.0099 H              1 S1                 0.0000
     38 ****         0.8903   0.6770   2.1347 H              1 S1                 0.0000
     39 ****         1.1770  -0.9221   1.5028 H              1 S1                 0.0000
     40 ****         0.9741   1.6370  -0.0270 H              1 S1                 0.0000
     41 ****         2.8764   0.3088  -2.7587 H              1 S1                 0.0000
     42 ****         1.4144   1.2083  -2.6027 H              1 S1                 0.0000
     43 ****         5.2380   0.4246  -2.6379 H              1 S1                 0.0000
     44 ****         4.9324   0.0917  -0.9256 H              1 S1                 0.0000
     45 ****         6.3556   1.0106  -1.4083 H              1 S1                 0.0000
     46 ****         5.8018   5.6416   0.1688 H              1 S1                 0.0000
     47 ****         4.5666   6.5329  -0.7266 H              1 S1                 0.0000
     48 ****         6.0176   5.9599  -1.5571 H              1 S1                 0.0000
     49 ****        -0.9787  -0.7822  -0.8868 H              1 S1                 0.0000
     50 ****        -0.7420  -2.1265   0.2048 H              1 S1                 0.0000
     51 ****        -3.0152  -2.1401  -0.6971 H              1 S1                 0.0000
     52 ****        -3.3104  -0.5062  -0.1551 H              1 S1                 0.0000
     53 ****        -3.4978  -4.4231   0.7775 LP             1 S1                 0.0000
     54 ****        -4.7062  -4.7506   1.8259 LP             1 S1                 0.0000
     55 ****        -2.8086  -2.8109   1.5571 LP             1 S1                 0.0000
     56 ****         1.9330  -1.7094  -0.0727 LP             1 S1                 0.0000
     57 ****         2.7519  -1.5293  -1.5883 LP             1 S1                 0.0000
     58 ****         6.2218   3.2243  -1.0816 LP             1 S1                 0.0000
     59 ****         0.6474   2.8137  -1.9271 LP             1 S1                 0.0000
     60 ****         0.8204   4.5092  -1.6182 LP             1 S1                 0.0000
@<TRIPOS>BOND
    1    1    2 1     
    2    1   26 1     
    3    1   27 1     
    4    1   28 1     
    5    2    3 1     
    6    3    4 1     
    7    3   29 1     
    8    3   30 1     
    9    4    5 1     
   10    4   31 1     
   11    4   32 1     
   12    5   24 1     
   13    5    6 1     
   14    6    7 1     
   15    6   33 1     
   16    6   34 1     
   17    7    8 1     
   18    7   35 1     
   19    7   36 1     
   20    8    9 1     
   21    8   23 1     
   22    8   37 1     
   23    9   10 1     
   24    9   38 1     
   25    9   39 1     
   26   10   11 am    
   27   10   40 1     
   28   11   12 2     
   29   11   13 1     
   30   13   14 1     
   31   13   41 1     
   32   13   42 1     
   33   14   21 1     
   34   14   15 2     
   35   15   16 1     
   36   15   17 1     
   37   16   43 1     
   38   16   44 1     
   39   16   45 1     
   40   17   18 2     
   41   18   19 1     
   42   18   20 1     
   43   19   46 1     
   44   19   47 1     
   45   19   48 1     
   46   20   25 1     
   47   20   21 am    
   48   21   22 2     
   49   23   24 1     
   50   23   49 1     
   51   23   50 1     
   52   24   51 1     
   53   24   52 1     
   54    2   53 1     
   55    2   54 1     
   56    5   55 1     
   57   12   56 1     
   58   12   57 1     
   59   17   58 1     
   60   22   59 1     
   61   22   60 1     
@<TRIPOS>SUBSTRUCTURE
      1 S1             1
@<TRIPOS>SET
LONE_PAIRS      STATIC     ATOMS    <user>   **** ""
8 53 54 55 56 57 58 59 60
DONOR_HYDROGENS      STATIC     ATOMS    <user>   **** ""
2 40 25
ATOM$BLUE        STATIC     ATOMS    COLORGROUP SYSTEM
8 53 54 55 56 57 58 59 60
ATOM$RED        STATIC     ATOMS    COLORGROUP SYSTEM
2 40 25
