AV-unprocessed.smi:15|AV-procd|sdf|79|dock5
  -GOLD-   2262015203D 1   1.00000     0.00000
 Structure written by MMmdl.
 53 56  0  0  0  0  0  0  0  0  1 V2000
  153.7682  139.0022  160.7174 C   0  0  0  0  0  0  0  0  0  0  0  0
  153.8258  139.4114  159.2370 C   0  0  0  0  0  0  0  0  0  0  0  0
  152.6956  140.2411  158.8188 N   0  0  0  0  0  0  0  0  0  0  0  0
  152.7623  141.6611  159.1548 C   0  0  0  0  0  0  0  0  0  0  0  0
  152.5377  141.9139  160.6536 C   0  0  2  0  0  0  0  0  0  0  0  0
  152.2047  143.3655  161.0006 C   0  0  0  0  0  0  0  0  0  0  0  0
  152.7309  143.5317  162.4188 C   0  0  0  0  0  0  0  0  0  0  0  0
  153.5653  142.2711  162.6605 C   0  0  0  0  0  0  0  0  0  0  0  0
  153.7401  141.6971  161.3734 O   0  0  0  0  0  0  0  0  0  0  0  0
  152.2903  140.0397  157.5464 C   0  0  0  0  0  0  0  0  0  0  0  0
  153.0448  139.2194  156.7751 N   0  0  0  0  0  0  0  0  0  0  0  0
  152.6874  138.9807  155.5094 C   0  0  0  0  0  0  0  0  0  0  0  0
  151.6313  139.4456  154.8377 N   0  0  0  0  0  0  0  0  0  0  0  0
  150.8679  140.2650  155.6165 C   0  0  0  0  0  0  0  0  0  0  0  0
  151.1237  140.6160  156.9712 C   0  0  0  0  0  0  0  0  0  0  0  0
  150.1323  141.4704  157.4371 N   0  0  0  0  0  0  0  0  0  0  0  0
  149.3348  141.6167  156.4145 C   0  0  0  0  0  0  0  0  0  0  0  0
  149.6945  140.9187  155.2829 N   0  0  0  0  0  0  0  0  0  0  0  0
  148.9842  140.8913  154.0130 C   0  0  0  0  0  0  0  0  0  0  0  0
  147.6194  140.1571  154.0875 C   0  0  1  0  0  0  0  0  0  0  0  0
  147.4225  139.4723  152.8620 O   0  0  0  0  0  0  0  0  0  0  0  0
  147.5415  139.1294  155.2150 C   0  0  0  0  0  0  0  0  0  0  0  0
  146.0637  139.1224  155.5744 C   0  0  0  0  0  0  0  0  0  0  0  0
  145.7255  140.4945  155.4826 O   0  0  0  0  0  0  0  0  0  0  0  0
  146.3670  141.0457  154.3358 C   0  0  1  0  0  0  0  0  0  0  0  0
  146.6144  142.5381  154.6056 C   0  0  0  0  0  0  0  0  0  0  0  0
  154.6594  138.4391  160.9945 H   0  0  0  0  0  0  0  0  0  0  0  0
  152.9046  138.3718  160.9311 H   0  0  0  0  0  0  0  0  0  0  0  0
  153.7147  139.8782  161.3645 H   0  0  0  0  0  0  0  0  0  0  0  0
  154.7506  139.9609  159.0630 H   0  0  0  0  0  0  0  0  0  0  0  0
  153.8806  138.5213  158.6096 H   0  0  0  0  0  0  0  0  0  0  0  0
  153.7418  142.0430  158.8649 H   0  0  0  0  0  0  0  0  0  0  0  0
  152.0291  142.2307  158.5803 H   0  0  0  0  0  0  0  0  0  0  0  0
  151.7746  141.2451  161.0548 H   0  0  0  0  0  0  0  0  0  0  0  0
  152.7361  144.0461  160.3338 H   0  0  0  0  0  0  0  0  0  0  0  0
  151.1390  143.5792  160.9139 H   0  0  0  0  0  0  0  0  0  0  0  0
  153.3405  144.4324  162.4972 H   0  0  0  0  0  0  0  0  0  0  0  0
  151.9225  143.6092  163.1468 H   0  0  0  0  0  0  0  0  0  0  0  0
  154.5240  142.4857  163.1330 H   0  0  0  0  0  0  0  0  0  0  0  0
  153.0230  141.5684  163.2948 H   0  0  0  0  0  0  0  0  0  0  0  0
  153.3404  138.3218  154.9563 H   0  0  0  0  0  0  0  0  0  0  0  0
  148.4510  142.2363  156.4610 H   0  0  0  0  0  0  0  0  0  0  0  0
  148.8440  141.9249  153.6953 H   0  0  0  0  0  0  0  0  0  0  0  0
  149.6304  140.4237  153.2689 H   0  0  0  0  0  0  0  0  0  0  0  0
  148.0411  139.8046  152.2295 H   0  0  0  0  0  0  0  0  0  0  0  0
  147.9234  138.1438  154.9444 H   0  0  0  0  0  0  0  0  0  0  0  0
  148.1071  139.4781  156.0799 H   0  0  0  0  0  0  0  0  0  0  0  0
  145.4833  138.5469  154.8517 H   0  0  0  0  0  0  0  0  0  0  0  0
  145.8726  138.7254  156.5715 H   0  0  0  0  0  0  0  0  0  0  0  0
  145.6698  140.9601  153.4999 H   0  0  0  0  0  0  0  0  0  0  0  0
  147.0993  143.0212  153.7576 H   0  0  0  0  0  0  0  0  0  0  0  0
  147.2361  142.6889  155.4883 H   0  0  0  0  0  0  0  0  0  0  0  0
  145.6715  143.0570  154.7802 H   0  0  0  0  0  0  0  0  0  0  0  0
  1  2  1  0  0  0  0
  1 27  1  0  0  0  0
  1 28  1  0  0  0  0
  1 29  1  0  0  0  0
  2  3  1  0  0  0  0
  2 30  1  0  0  0  0
  2 31  1  0  0  0  0
  3  4  1  0  0  0  0
  3 10  1  0  0  0  0
  4  5  1  0  0  0  0
  4 32  1  0  0  0  0
  4 33  1  0  0  0  0
  5  9  1  0  0  0  0
  5  6  1  0  0  0  0
  5 34  1  0  0  0  0
  6  7  1  0  0  0  0
  6 35  1  0  0  0  0
  6 36  1  0  0  0  0
  7  8  1  0  0  0  0
  7 37  1  0  0  0  0
  7 38  1  0  0  0  0
  8  9  1  0  0  0  0
  8 39  1  0  0  0  0
  8 40  1  0  0  0  0
 10 15  1  0  0  0  0
 10 11  2  0  0  0  0
 11 12  1  0  0  0  0
 12 13  2  0  0  0  0
 12 41  1  0  0  0  0
 13 14  1  0  0  0  0
 14 18  1  0  0  0  0
 14 15  2  0  0  0  0
 15 16  1  0  0  0  0
 16 17  2  0  0  0  0
 17 18  1  0  0  0  0
 17 42  1  0  0  0  0
 18 19  1  0  0  0  0
 19 20  1  0  0  0  0
 19 43  1  0  0  0  0
 19 44  1  0  0  0  0
 20 25  1  0  0  0  0
 20 21  1  0  0  0  0
 20 22  1  0  0  0  0
 21 45  1  0  0  0  0
 22 23  1  0  0  0  0
 22 46  1  0  0  0  0
 22 47  1  0  0  0  0
 23 24  1  0  0  0  0
 23 48  1  0  0  0  0
 23 49  1  0  0  0  0
 24 25  1  0  0  0  0
 25 26  1  0  0  0  0
 25 50  1  0  0  0  0
 26 51  1  0  0  0  0
 26 52  1  0  0  0  0
 26 53  1  0  0  0  0
M  END
> <s_m_source_file>
AV-unprocessed.smi

> <i_m_source_file_index>
15

> <i_lp_mmshare_version>
43012

> <i_f3d_flags>
0

> <s_epik_input>
TzFbQ0gyXVtDSDJdW0NIMl1bQ0BIXTFbQ0gyXU4oW0NIMl1bQ0gzXSljKG5bY0hdbjIpYyhjMjMpbltjSF1uM1tDSDJdW0NAQF00KFtPSF0pW0NIMl1bQ0gyXU9bQ0BIXTRbQ0gzXQ==

> <s_epik_cmdline>
J2VwaWtfcHl0aG9uJywgJy1waCcsICc3LjAnLCAnLXRuJywgJzgnLCAnLW1hJywgJzIwMCcsICctbWV0YWxfYmluZGluZycsICctaW1hZScsICc8aW5maWxlLm1hZT4nLCAnLW9tYWUnLCAnPG91dGZpbGUubWFlPic=

> <r_lp_tautomer_probability>
1

> <r_epik_Ionization_Penalty>
0.00360814

> <r_epik_Ionization_Penalty_Charging>
0

> <r_epik_Ionization_Penalty_Neutral>
0.00360814

> <r_epik_State_Penalty>
0.00237482

> <r_epik_Charging_Adjusted_Penalty>
0.00237482

> <i_epik_Tot_Q>
0

> <i_epik_Tot_abs_Q>
0

> <r_epik_Metal_State_Penalty>
-0

> <b_epik_Metal_Only>
0

> <s_lp_Force_Field>
OPLS_2005

> <r_lp_Energy>
46.4206

> <b_lp_Chiralities_Consistent>
1

> <s_lp_Variant>
AV-unprocessed.smi:15-1

> <Gold.Version>
5.8.1

> <Gold.Id.Protein>
6NUR|6NUR_protein|mol2

> <Gold.PLP.Fitness>
51.5964

> <Gold.PLP.PLP>
-45.1679

> <Gold.PLP.part.hbond>
-3.0000

> <Gold.PLP.part.metal>
0.0000

> <Gold.PLP.part.buried>
-1.0300

> <Gold.PLP.part.nonpolar>
-40.4921

> <Gold.PLP.part.repulsive>
0.2038

> <Gold.PLP.ligand.clash>
0.0000

> <Gold.PLP.ligand.torsion>
1.6155

> <Gold.PLP.Chemscore.Hbond>
2.2500

> <Gold.PLP.Chemscore.CHOScore>
0.7493

> <Gold.PLP.Chemscore.Metal>
0.0000

> <Gold.Chemscore.Hbonds>
donor molecule, donor type, donor heavy atom, donor atom, acceptor molecule, acceptor atom, score
      L1  H    21    45       P1  7957  1.00
      P1  H  7989  7998       L1    13  0.40
      P1  H  7997  8010       L1    11  0.90
      L1  C    17    42       P1  8028  0.49

> <Gold.PLP.Chemscore.Internal.Correction>
0.6614

> <Gold.Rescore>
     Score         DG    S(hbond)    S(metal)    S(lipo)     H(rot)  DE(clash)    DE(int)     intcor
     11.34     -13.86       1.07        0.00     100.49       2.71       0.81       1.71       ----

> <Gold.Chemscore.Fitness>
11.3439

> <Gold.Chemscore.DG>
-13.8633

> <Gold.Chemscore.ZeroCoef>
-5.4800

> <Gold.Chemscore.Hbond>
1.0650

> <Gold.Chemscore.Metal>
0.0000

> <Gold.Chemscore.Lipo>
100.4866

> <Gold.Chemscore.Internal_Hbond>
0.0000

> <Gold.Chemscore.DEClash>
0.8127

> <Gold.Chemscore.DEInternal>
1.7067

> <Gold.Chemscore.Rot>
2.7074

> <Gold.Chemscore.Internal.Correction>
   9.000000E+99

> <Gold.Chemscore.Hbonds>
donor molecule, donor type, donor heavy atom, donor atom, acceptor molecule, acceptor atom, score
      L1  H    21    45       P1  7957  1.00
      P1  H  7989  7998       L1    13  0.01
      P1  H  7997  8010       L1    11  0.08

> <Gold.Chemscore.Hbond.Weighted>
-3.5571

> <Gold.Chemscore.Metal.Weighted>
-0.0000

> <Gold.Chemscore.Lipo.Weighted>
-11.7569

> <Gold.Chemscore.Internal_Hbond.Weighted>
0.0000

> <Gold.Chemscore.DEClash.Weighted>
0.8127

> <Gold.Chemscore.DEInternal.Weighted>
1.7067

> <Gold.Chemscore.Rot.Weighted>
6.9308

> <Gold.Chemscore.Internal.Correction.Weighted>
   9.000000E+99

> <Gold.Protein.RotatedTorsions>
[ 6907 6896 6895 6894 ] final  154.22 input  -60.11 | X-H torsion
[ 7974 7965 7964 7962 ] final  176.56 input  175.53 | X-H torsion
[ 8008 7997 7996 7995 ] final   70.64 input   59.86 | X-H torsion
[ 10167 10162 10161 10158 ] final  -39.37 input  -65.29 | X-H torsion
[ 10718 10713 10712 10709 ] final    7.47 input   66.30 | X-H torsion
[ 10763 10752 10751 10750 ] final   -8.10 input  -60.55 | X-H torsion
[ 11005 11000 10999 10996 ] final  -75.84 input  -57.11 | X-H torsion

> <Gold.Protein.ActiveResidues>
 VAL166  LYS551  ARG553  GLY616  TRP617  ASP618  TYR619  PRO620  LYS621  CYS622 
 ASP623  PHE694  ASN695  SER759  ASP760  ASP761  ALA762  ILE779  LEU786  VAL792 
 PHE793  MET794  SER795  GLU796  ALA797  LYS798  CYS799  TRP800  GLU811  SER814 

> <Gold.Protein.RotatedAtoms>
  152.0616  133.4064  159.4419 H   0  0  0  0  0  0  0  0  0  0  0  0  # atno 6907 bound_to 6896
  150.6866  134.3194  159.4789 H   0  0  0  0  0  0  0  0  0  0  0  0  # atno 6908 bound_to 6896
  152.1015  134.9337  160.0620 H   0  0  0  0  0  0  0  0  0  0  0  0  # atno 6909 bound_to 6896
  144.7182  140.0115  143.6440 H   0  0  0  0  0  0  0  0  0  0  0  0  # atno 7974 bound_to 7965
  155.7419  140.3490  155.5108 H   0  0  0  0  0  0  0  0  0  0  0  0  # atno 8008 bound_to 7997
  155.9086  140.1046  157.1318 H   0  0  0  0  0  0  0  0  0  0  0  0  # atno 8009 bound_to 7997
  154.4053  140.1272  156.4515 H   0  0  0  0  0  0  0  0  0  0  0  0  # atno 8010 bound_to 7997
  140.7066  143.3218  151.2773 H   0  0  0  0  0  0  0  0  0  0  0  0  # atno 10167 bound_to 10162
  156.9375  130.5849  149.5651 H   0  0  0  0  0  0  0  0  0  0  0  0  # atno 10718 bound_to 10713
  153.4358  135.7013  153.6201 H   0  0  0  0  0  0  0  0  0  0  0  0  # atno 10763 bound_to 10752
  153.4597  135.3739  155.2331 H   0  0  0  0  0  0  0  0  0  0  0  0  # atno 10764 bound_to 10752
  154.8726  135.4017  154.3748 H   0  0  0  0  0  0  0  0  0  0  0  0  # atno 10765 bound_to 10752
  141.1649  133.6961  156.7578 H   0  0  0  0  0  0  0  0  0  0  0  0  # atno 11005 bound_to 11000
  146.0254  139.3288  143.0787 LP  0  0  0  0  0  0  0  0  0  0  0  0  # atno 17320 bound_to 7965
  145.8517  140.9525  143.0746 LP  0  0  0  0  0  0  0  0  0  0  0  0  # atno 17321 bound_to 7965
  139.6674  144.0080  152.2732 LP  0  0  0  0  0  0  0  0  0  0  0  0  # atno 17342 bound_to 10162
  139.9667  144.6521  150.8027 LP  0  0  0  0  0  0  0  0  0  0  0  0  # atno 17343 bound_to 10162
  156.0419  130.5501  150.8791 LP  0  0  0  0  0  0  0  0  0  0  0  0  # atno 17370 bound_to 10713
  157.5807  131.0946  150.9276 LP  0  0  0  0  0  0  0  0  0  0  0  0  # atno 17371 bound_to 10713
  140.2556  134.8507  157.3709 LP  0  0  0  0  0  0  0  0  0  0  0  0  # atno 17394 bound_to 11000
  140.1660  134.4668  155.7862 LP  0  0  0  0  0  0  0  0  0  0  0  0  # atno 17395 bound_to 11000

$$$$
