AV-unprocessed.smi:745|AV-procd|sdf|3574|dock5
  -GOLD-   22720 0563D 1   1.00000     0.00000
 Structure written by MMmdl.
 42 43  0  0  0  0  0  0  0  0  2 V2000
  148.8765  139.5120  155.0033 C   0  0  0  0  0  0  0  0  0  0  0  0
  149.0139  140.8474  154.2519 C   0  0  2  0  0  0  0  0  0  0  0  0
  149.4044  141.8674  155.2262 N   0  0  0  0  0  0  0  0  0  0  0  0
  150.3048  141.7138  156.2099 C   0  0  0  0  0  0  0  0  0  0  0  0
  150.9503  140.6799  156.3864 O   0  0  0  0  0  0  0  0  0  0  0  0
  150.4028  142.8273  156.9571 N   0  0  0  0  0  0  0  0  0  0  0  0
  151.2344  143.0560  158.0860 C   0  0  0  0  0  0  0  0  0  0  0  0
  151.4018  144.4136  158.4414 C   0  0  0  0  0  0  0  0  0  0  0  0
  152.2073  144.7458  159.5481 C   0  0  0  0  0  0  0  0  0  0  0  0
  152.8260  143.7105  160.2713 C   0  0  0  0  0  0  0  0  0  0  0  0
  152.6088  142.3857  159.8498 C   0  0  0  0  0  0  0  0  0  0  0  0
  151.8377  142.0651  158.7894 N   0  0  0  0  0  0  0  0  0  0  0  0
  147.7155  141.2653  153.4999 C   0  0  2  0  0  0  0  0  0  0  0  0
  146.5040  141.4979  154.4306 C   0  0  0  0  0  0  0  0  0  0  0  0
  145.9512  140.1810  155.0076 C   0  0  0  0  0  0  0  0  0  0  0  0
  145.5864  139.2335  153.9249 N   0  3  2  0  0  0  0  0  0  0  0  0
  144.9752  137.9913  154.4449 C   0  0  0  0  0  0  0  0  0  0  0  0
  146.7197  138.9616  153.0069 C   0  0  0  0  0  0  0  0  0  0  0  0
  147.2689  140.2677  152.4061 C   0  0  0  0  0  0  0  0  0  0  0  0
  148.7303  138.6743  154.3227 H   0  0  0  0  0  0  0  0  0  0  0  0
  148.0376  139.5304  155.7001 H   0  0  0  0  0  0  0  0  0  0  0  0
  149.7778  139.2945  155.5779 H   0  0  0  0  0  0  0  0  0  0  0  0
  149.8176  140.7184  153.5269 H   0  0  0  0  0  0  0  0  0  0  0  0
  148.9303  142.7563  155.1588 H   0  0  0  0  0  0  0  0  0  0  0  0
  149.8060  143.5981  156.6958 H   0  0  0  0  0  0  0  0  0  0  0  0
  150.9183  145.1966  157.8755 H   0  0  0  0  0  0  0  0  0  0  0  0
  152.3468  145.7772  159.8365 H   0  0  0  0  0  0  0  0  0  0  0  0
  153.4505  143.9255  161.1258 H   0  0  0  0  0  0  0  0  0  0  0  0
  153.0663  141.5617  160.3771 H   0  0  0  0  0  0  0  0  0  0  0  0
  147.9311  142.2120  153.0020 H   0  0  0  0  0  0  0  0  0  0  0  0
  146.7470  142.1893  155.2362 H   0  0  0  0  0  0  0  0  0  0  0  0
  145.7121  141.9879  153.8624 H   0  0  0  0  0  0  0  0  0  0  0  0
  146.6783  139.7177  155.6756 H   0  0  0  0  0  0  0  0  0  0  0  0
  145.0677  140.3947  155.6106 H   0  0  0  0  0  0  0  0  0  0  0  0
  145.6871  137.4288  155.0506 H   0  0  0  0  0  0  0  0  0  0  0  0
  144.6445  137.3533  153.6248 H   0  0  0  0  0  0  0  0  0  0  0  0
  144.1046  138.2182  155.0610 H   0  0  0  0  0  0  0  0  0  0  0  0
  147.5038  138.4236  153.5405 H   0  0  0  0  0  0  0  0  0  0  0  0
  146.3841  138.3068  152.2018 H   0  0  0  0  0  0  0  0  0  0  0  0
  146.4873  140.7306  151.8021 H   0  0  0  0  0  0  0  0  0  0  0  0
  148.0776  140.0499  151.7090 H   0  0  0  0  0  0  0  0  0  0  0  0
  144.8758  139.6919  153.3725 H   0  0  0  0  0  0  0  0  0  0  0  0
  1  2  1  0  0  0  0
  1 20  1  0  0  0  0
  1 21  1  0  0  0  0
  1 22  1  0  0  0  0
  2  3  1  0  0  0  0
  2 13  1  0  0  0  0
  2 23  1  0  0  0  0
  3  4  1  0  0  0  0
  3 24  1  0  0  0  0
  4  5  2  0  0  0  0
  4  6  1  0  0  0  0
  6  7  1  0  0  0  0
  6 25  1  0  0  0  0
  7 12  1  0  0  0  0
  7  8  2  0  0  0  0
  8  9  1  0  0  0  0
  8 26  1  0  0  0  0
  9 10  2  0  0  0  0
  9 27  1  0  0  0  0
 10 11  1  0  0  0  0
 10 28  1  0  0  0  0
 11 12  2  0  0  0  0
 11 29  1  0  0  0  0
 13 19  1  0  0  0  0
 13 14  1  0  0  0  0
 13 30  1  0  0  0  0
 14 15  1  0  0  0  0
 14 31  1  0  0  0  0
 14 32  1  0  0  0  0
 15 16  1  0  0  0  0
 15 33  1  0  0  0  0
 15 34  1  0  0  0  0
 16 17  1  0  0  0  0
 16 18  1  0  0  0  0
 16 42  1  0  0  0  0
 17 35  1  0  0  0  0
 17 36  1  0  0  0  0
 17 37  1  0  0  0  0
 18 19  1  0  0  0  0
 18 38  1  0  0  0  0
 18 39  1  0  0  0  0
 19 40  1  0  0  0  0
 19 41  1  0  0  0  0
M  CHG  1  16   1
M  END
> <s_m_source_file>
AV-unprocessed.smi

> <i_m_source_file_index>
745

> <i_lp_mmshare_version>
43012

> <i_f3d_flags>
0

> <s_epik_input>
W0NIMl0xW0NIMl1OKFtDSDNdKVtDSDJdW0NIMl1bQ0hdMVtDQEhdKFtDSDNdKVtOSF1DKD1PKVtOSF1jMltjSF1bY0hdW2NIXVtjSF1uMg==

> <s_epik_cmdline>
J2VwaWtfcHl0aG9uJywgJy1waCcsICc3LjAnLCAnLXRuJywgJzgnLCAnLW1hJywgJzIwMCcsICctbWV0YWxfYmluZGluZycsICctaW1hZScsICc8aW5maWxlLm1hZT4nLCAnLW9tYWUnLCAnPG91dGZpbGUubWFlPic=

> <r_epik_Ionization_Penalty>
0.0011087

> <r_epik_Ionization_Penalty_Charging>
0.00106265

> <r_epik_Ionization_Penalty_Neutral>
4.60506e-05

> <r_epik_State_Penalty>
0.000695551

> <r_epik_Charging_Adjusted_Penalty>
0.0017582

> <i_epik_Tot_Q>
1

> <i_epik_Tot_abs_Q>
1

> <r_epik_Metal_State_Penalty>
-0

> <b_epik_Metal_Only>
0

> <s_lp_Force_Field>
OPLS_2005

> <r_lp_Energy>
21.1146

> <b_lp_Chiralities_Consistent>
1

> <s_lp_Variant>
AV-unprocessed.smi:745-3

> <Gold.Version>
5.8.1

> <Gold.Id.Protein>
6NUR|6NUR_protein|mol2

> <Gold.PLP.Fitness>
48.3056

> <Gold.PLP.PLP>
-37.2366

> <Gold.PLP.part.hbond>
-3.0000

> <Gold.PLP.part.metal>
0.0000

> <Gold.PLP.part.buried>
-2.6509

> <Gold.PLP.part.nonpolar>
-32.1217

> <Gold.PLP.part.repulsive>
0.2259

> <Gold.PLP.ligand.clash>
0.3287

> <Gold.PLP.ligand.torsion>
0.2745

> <Gold.PLP.Chemscore.Hbond>
3.9760

> <Gold.PLP.Chemscore.CHOScore>
0.0000

> <Gold.PLP.Chemscore.Metal>
0.0000

> <Gold.Chemscore.Hbonds>
donor molecule, donor type, donor heavy atom, donor atom, acceptor molecule, acceptor atom, score
      L1  H     3    24       P1  8028  0.98
      L1  H     6    25       P1  8028  1.00
      L1  H    16    42       P1 10175  2.00

> <Gold.PLP.Chemscore.Internal.Correction>
0.0187

> <Gold.Rescore>
     Score         DG    S(hbond)    S(metal)    S(lipo)     H(rot)  DE(clash)    DE(int)     intcor
     18.31     -22.90       2.93        0.00      92.80       1.26       0.27       4.32       ----

> <Gold.Chemscore.Fitness>
18.3080

> <Gold.Chemscore.DG>
-22.8966

> <Gold.Chemscore.ZeroCoef>
-5.4800

> <Gold.Chemscore.Hbond>
2.9297

> <Gold.Chemscore.Metal>
0.0000

> <Gold.Chemscore.Lipo>
92.7985

> <Gold.Chemscore.Internal_Hbond>
0.0000

> <Gold.Chemscore.DEClash>
0.2707

> <Gold.Chemscore.DEInternal>
4.3178

> <Gold.Chemscore.Rot>
1.2601

> <Gold.Chemscore.Internal.Correction>
   9.000000E+99

> <Gold.Chemscore.Hbonds>
donor molecule, donor type, donor heavy atom, donor atom, acceptor molecule, acceptor atom, score
      L1  H     3    24       P1  8028  0.88
      L1  H     6    25       P1  8028  0.99
      L1  H    16    42       P1 10175  1.00

> <Gold.Chemscore.Hbond.Weighted>
-9.7851

> <Gold.Chemscore.Metal.Weighted>
-0.0000

> <Gold.Chemscore.Lipo.Weighted>
-10.8574

> <Gold.Chemscore.Internal_Hbond.Weighted>
0.0000

> <Gold.Chemscore.DEClash.Weighted>
0.2707

> <Gold.Chemscore.DEInternal.Weighted>
4.3178

> <Gold.Chemscore.Rot.Weighted>
3.2260

> <Gold.Chemscore.Internal.Correction.Weighted>
   9.000000E+99

> <Gold.Protein.RotatedTorsions>
[ 6907 6896 6895 6894 ] final   92.17 input  -60.11 | X-H torsion
[ 7974 7965 7964 7962 ] final   45.73 input  175.53 | X-H torsion
[ 8008 7997 7996 7995 ] final  -65.06 input   59.86 | X-H torsion
[ 10167 10162 10161 10158 ] final  126.94 input  -65.29 | X-H torsion
[ 10718 10713 10712 10709 ] final  100.91 input   66.30 | X-H torsion
[ 10763 10752 10751 10750 ] final  -74.10 input  -60.55 | X-H torsion
[ 11005 11000 10999 10996 ] final -116.27 input  -57.11 | X-H torsion

> <Gold.Protein.ActiveResidues>
 VAL166  LYS551  ARG553  GLY616  TRP617  ASP618  TYR619  PRO620  LYS621  CYS622 
 ASP623  PHE694  ASN695  SER759  ASP760  ASP761  ALA762  ILE779  LEU786  VAL792 
 PHE793  MET794  SER795  GLU796  ALA797  LYS798  CYS799  TRP800  GLU811  SER814 

> <Gold.Protein.RotatedAtoms>
  152.5452  134.1543  159.8531 H   0  0  0  0  0  0  0  0  0  0  0  0  # atno 6907 bound_to 6896
  151.1567  133.4865  159.2602 H   0  0  0  0  0  0  0  0  0  0  0  0  # atno 6908 bound_to 6896
  151.1415  135.0193  159.8683 H   0  0  0  0  0  0  0  0  0  0  0  0  # atno 6909 bound_to 6896
  146.0454  139.4932  142.9752 H   0  0  0  0  0  0  0  0  0  0  0  0  # atno 7974 bound_to 7965
  154.4649  140.0941  156.6992 H   0  0  0  0  0  0  0  0  0  0  0  0  # atno 8008 bound_to 7997
  155.4888  140.3470  155.4333 H   0  0  0  0  0  0  0  0  0  0  0  0  # atno 8009 bound_to 7997
  156.0937  140.1404  156.9547 H   0  0  0  0  0  0  0  0  0  0  0  0  # atno 8010 bound_to 7997
  139.5604  144.6878  151.4059 H   0  0  0  0  0  0  0  0  0  0  0  0  # atno 10167 bound_to 10162
  157.6842  131.0711  150.5172 H   0  0  0  0  0  0  0  0  0  0  0  0  # atno 10718 bound_to 10713
  154.4685  135.5875  153.6305 H   0  0  0  0  0  0  0  0  0  0  0  0  # atno 10763 bound_to 10752
  152.9831  135.6061  154.3397 H   0  0  0  0  0  0  0  0  0  0  0  0  # atno 10764 bound_to 10752
  154.3276  135.2843  155.2467 H   0  0  0  0  0  0  0  0  0  0  0  0  # atno 10765 bound_to 10752
  141.0433  133.9802  157.2959 H   0  0  0  0  0  0  0  0  0  0  0  0  # atno 11005 bound_to 11000
  145.6815  141.0189  143.1604 LP  0  0  0  0  0  0  0  0  0  0  0  0  # atno 17320 bound_to 7965
  144.7095  139.8427  143.7419 LP  0  0  0  0  0  0  0  0  0  0  0  0  # atno 17321 bound_to 7965
  140.6883  143.7922  150.7218 LP  0  0  0  0  0  0  0  0  0  0  0  0  # atno 17342 bound_to 10162
  140.1396  143.4453  152.2202 LP  0  0  0  0  0  0  0  0  0  0  0  0  # atno 17343 bound_to 10162
  156.5487  130.4226  149.6118 LP  0  0  0  0  0  0  0  0  0  0  0  0  # atno 17370 bound_to 10713
  156.2922  130.7130  151.1982 LP  0  0  0  0  0  0  0  0  0  0  0  0  # atno 17371 bound_to 10713
  139.9292  135.0200  156.8342 LP  0  0  0  0  0  0  0  0  0  0  0  0  # atno 17394 bound_to 11000
  140.6194  134.0008  155.7611 LP  0  0  0  0  0  0  0  0  0  0  0  0  # atno 17395 bound_to 11000

$$$$
