AV-unprocessed.smi:2568|AV-procd|sdf|10101|dock3
  -GOLD-   2272014113D 1   1.00000     0.00000
 Structure written by MMmdl.
 23 24  0  0  0  0  0  0  0  0  2 V2000
  153.0336  141.4792  159.8292 C   0  0  0  0  0  0  0  0  0  0  0  0
  152.4630  141.1069  158.4803 C   0  0  0  0  0  0  0  0  0  0  0  0
  152.8207  140.0443  157.7380 N   0  5  0  0  0  0  0  0  0  0  0  0
  152.1226  140.0270  156.6207 N   0  0  0  0  0  0  0  0  0  0  0  0
  151.3285  141.1077  156.6774 C   0  0  0  0  0  0  0  0  0  0  0  0
  150.3146  141.4822  155.6141 C   0  0  1  0  0  0  0  0  0  0  0  0
  150.4069  140.5342  154.4013 C   0  0  0  0  0  0  0  0  0  0  0  0
  149.4194  140.8980  153.3847 N   0  0  0  0  0  0  0  0  0  0  0  0
  148.0713  140.9403  153.9468 C   0  0  0  0  0  0  0  0  0  0  0  0
  148.0311  141.8784  155.1650 C   0  0  0  0  0  0  0  0  0  0  0  0
  148.9845  141.4449  156.1282 O   0  0  0  0  0  0  0  0  0  0  0  0
  151.5199  141.7756  157.8251 N   0  0  0  0  0  0  0  0  0  0  0  0
  153.7555  140.7330  160.1617 H   0  0  0  0  0  0  0  0  0  0  0  0
  152.2379  141.5455  160.5712 H   0  0  0  0  0  0  0  0  0  0  0  0
  153.5357  142.4448  159.7716 H   0  0  0  0  0  0  0  0  0  0  0  0
  150.5406  142.5031  155.2997 H   0  0  0  0  0  0  0  0  0  0  0  0
  151.4093  140.5708  153.9742 H   0  0  0  0  0  0  0  0  0  0  0  0
  150.2425  139.5060  154.7264 H   0  0  0  0  0  0  0  0  0  0  0  0
  149.4512  140.2248  152.6261 H   0  0  0  0  0  0  0  0  0  0  0  0
  147.3612  141.2761  153.1910 H   0  0  0  0  0  0  0  0  0  0  0  0
  147.7618  139.9382  154.2463 H   0  0  0  0  0  0  0  0  0  0  0  0
  148.2302  142.9109  154.8729 H   0  0  0  0  0  0  0  0  0  0  0  0
  147.0399  141.8616  155.6183 H   0  0  0  0  0  0  0  0  0  0  0  0
  1 13  1  0  0  0  0
  1 14  1  0  0  0  0
  1 15  1  0  0  0  0
  1  2  1  0  0  0  0
  2 12  2  0  0  0  0
  2  3  1  0  0  0  0
  3  4  1  0  0  0  0
  4  5  2  0  0  0  0
  5 12  1  0  0  0  0
  5  6  1  0  0  0  0
  6 11  1  0  0  0  0
  6  7  1  0  0  0  0
  6 16  1  0  0  0  0
  7  8  1  0  0  0  0
  7 17  1  0  0  0  0
  7 18  1  0  0  0  0
  8  9  1  0  0  0  0
  8 19  1  0  0  0  0
  9 10  1  0  0  0  0
  9 20  1  0  0  0  0
  9 21  1  0  0  0  0
 10 11  1  0  0  0  0
 10 22  1  0  0  0  0
 10 23  1  0  0  0  0
M  CHG  1   3  -1
M  END
> <s_m_source_file>
AV-unprocessed.smi

> <i_m_source_file_index>
2568

> <i_lp_mmshare_version>
43012

> <i_f3d_flags>
0

> <s_epik_input>
W0NIM11jMW5bbkhdYyhuMSlbQ0BASF0yW0NIMl1bTkhdW0NIMl1bQ0gyXU8y

> <s_epik_cmdline>
J2VwaWtfcHl0aG9uJywgJy1waCcsICc3LjAnLCAnLXRuJywgJzgnLCAnLW1hJywgJzIwMCcsICctbWV0YWxfYmluZGluZycsICctaW1hZScsICc8aW5maWxlLm1hZT4nLCAnLW9tYWUnLCAnPG91dGZpbGUubWFlPic=

> <r_epik_Ionization_Penalty>
17.7898

> <r_epik_Ionization_Penalty_Charging>
16.2165

> <r_epik_Ionization_Penalty_Neutral>
1.5733

> <r_epik_State_Penalty>
6.78491

> <r_epik_Charging_Adjusted_Penalty>
23.0014

> <i_epik_Tot_Q>
-1

> <i_epik_Tot_abs_Q>
1

> <r_epik_Metal_State_Penalty>
3.02615

> <b_epik_Metal_Only>
1

> <s_lp_Force_Field>
OPLS_2005

> <r_lp_Energy>
14.4772

> <b_lp_Chiralities_Consistent>
1

> <s_lp_Variant>
AV-unprocessed.smi:2568-14

> <Gold.Version>
5.8.1

> <Gold.Id.Protein>
6NUR|6NUR_protein|mol2

> <Gold.PLP.Fitness>
30.6732

> <Gold.PLP.PLP>
-19.5035

> <Gold.PLP.part.hbond>
-3.8674

> <Gold.PLP.part.metal>
0.0000

> <Gold.PLP.part.buried>
2.6758

> <Gold.PLP.part.nonpolar>
-16.1967

> <Gold.PLP.part.repulsive>
0.1285

> <Gold.PLP.ligand.clash>
0.0000

> <Gold.PLP.ligand.torsion>
0.0243

> <Gold.PLP.Chemscore.Hbond>
3.7360

> <Gold.PLP.Chemscore.CHOScore>
0.0000

> <Gold.PLP.Chemscore.Metal>
0.0000

> <Gold.Chemscore.Hbonds>
donor molecule, donor type, donor heavy atom, donor atom, acceptor molecule, acceptor atom, score
      L1  H     8    19       P1  7957  0.80
      P1  H  7997  8009       L1     3  1.88
      P1  H  8011  8017       L1     8  0.80

> <Gold.PLP.Chemscore.Internal.Correction>
0.0103

> <Gold.Rescore>
     Score         DG    S(hbond)    S(metal)    S(lipo)     H(rot)  DE(clash)    DE(int)     intcor
     10.53     -12.28       1.49        0.00      37.55       1.00       1.75       0.01       ----

> <Gold.Chemscore.Fitness>
10.5252

> <Gold.Chemscore.DG>
-12.2798

> <Gold.Chemscore.ZeroCoef>
-5.4800

> <Gold.Chemscore.Hbond>
1.4869

> <Gold.Chemscore.Metal>
0.0000

> <Gold.Chemscore.Lipo>
37.5504

> <Gold.Chemscore.Internal_Hbond>
0.0000

> <Gold.Chemscore.DEClash>
1.7493

> <Gold.Chemscore.DEInternal>
0.0053

> <Gold.Chemscore.Rot>
1.0000

> <Gold.Chemscore.Internal.Correction>
   9.000000E+99

> <Gold.Chemscore.Hbonds>
donor molecule, donor type, donor heavy atom, donor atom, acceptor molecule, acceptor atom, score
      L1  H     8    19       P1  7957  0.75
      P1  H  7997  8009       L1     3  0.19
      P1  H  8011  8017       L1     8  0.09

> <Gold.Chemscore.Hbond.Weighted>
-4.9664

> <Gold.Chemscore.Metal.Weighted>
-0.0000

> <Gold.Chemscore.Lipo.Weighted>
-4.3934

> <Gold.Chemscore.Internal_Hbond.Weighted>
0.0000

> <Gold.Chemscore.DEClash.Weighted>
1.7493

> <Gold.Chemscore.DEInternal.Weighted>
0.0053

> <Gold.Chemscore.Rot.Weighted>
2.5600

> <Gold.Chemscore.Internal.Correction.Weighted>
   9.000000E+99

> <Gold.Protein.RotatedTorsions>
[ 6907 6896 6895 6894 ] final  -27.48 input  -60.11 | X-H torsion
[ 7974 7965 7964 7962 ] final  134.49 input  175.53 | X-H torsion
[ 8008 7997 7996 7995 ] final  156.14 input   59.86 | X-H torsion
[ 10167 10162 10161 10158 ] final  -70.04 input  -65.29 | X-H torsion
[ 10718 10713 10712 10709 ] final  134.27 input   66.30 | X-H torsion
[ 10763 10752 10751 10750 ] final    1.57 input  -60.55 | X-H torsion
[ 11005 11000 10999 10996 ] final  -74.69 input  -57.11 | X-H torsion

> <Gold.Protein.ActiveResidues>
 VAL166  LYS551  ARG553  GLY616  TRP617  ASP618  TYR619  PRO620  LYS621  CYS622 
 ASP623  PHE694  ASN695  SER759  ASP760  ASP761  ALA762  ILE779  LEU786  VAL792 
 PHE793  MET794  SER795  GLU796  ALA797  LYS798  CYS799  TRP800  GLU811  SER814 

> <Gold.Protein.RotatedAtoms>
  151.1463  135.0205  159.8647 H   0  0  0  0  0  0  0  0  0  0  0  0  # atno 6907 bound_to 6896
  152.5453  134.1441  159.8501 H   0  0  0  0  0  0  0  0  0  0  0  0  # atno 6908 bound_to 6896
  151.1521  133.4854  159.2628 H   0  0  0  0  0  0  0  0  0  0  0  0  # atno 6909 bound_to 6896
  144.9758  139.4557  143.5410 H   0  0  0  0  0  0  0  0  0  0  0  0  # atno 7974 bound_to 7965
  156.2439  140.1920  156.6909 H   0  0  0  0  0  0  0  0  0  0  0  0  # atno 8008 bound_to 7997
  154.6252  140.0603  156.9691 H   0  0  0  0  0  0  0  0  0  0  0  0  # atno 8009 bound_to 7997
  155.1798  140.3275  155.4380 H   0  0  0  0  0  0  0  0  0  0  0  0  # atno 8010 bound_to 7997
  140.5383  143.2316  151.7136 H   0  0  0  0  0  0  0  0  0  0  0  0  # atno 10167 bound_to 10162
  157.4689  131.1079  150.9827 H   0  0  0  0  0  0  0  0  0  0  0  0  # atno 10718 bound_to 10713
  153.3063  135.6959  153.7156 H   0  0  0  0  0  0  0  0  0  0  0  0  # atno 10763 bound_to 10752
  153.6051  135.3455  155.2960 H   0  0  0  0  0  0  0  0  0  0  0  0  # atno 10764 bound_to 10752
  154.8564  135.4350  154.2189 H   0  0  0  0  0  0  0  0  0  0  0  0  # atno 10765 bound_to 10752
  141.1638  133.6920  156.7403 H   0  0  0  0  0  0  0  0  0  0  0  0  # atno 11005 bound_to 11000
  146.3395  139.8999  142.8796 LP  0  0  0  0  0  0  0  0  0  0  0  0  # atno 17320 bound_to 7965
  145.2493  141.0038  143.3890 LP  0  0  0  0  0  0  0  0  0  0  0  0  # atno 17321 bound_to 7965
  139.4979  144.4008  152.0183 LP  0  0  0  0  0  0  0  0  0  0  0  0  # atno 17342 bound_to 10162
  140.3115  144.3532  150.6032 LP  0  0  0  0  0  0  0  0  0  0  0  0  # atno 17343 bound_to 10162
  157.0598  130.5821  149.5384 LP  0  0  0  0  0  0  0  0  0  0  0  0  # atno 17370 bound_to 10713
  156.0064  130.5151  150.7843 LP  0  0  0  0  0  0  0  0  0  0  0  0  # atno 17371 bound_to 10713
  140.2679  134.8415  157.3820 LP  0  0  0  0  0  0  0  0  0  0  0  0  # atno 17394 bound_to 11000
  140.1549  134.4802  155.7935 LP  0  0  0  0  0  0  0  0  0  0  0  0  # atno 17395 bound_to 11000

$$$$
