AV-unprocessed.smi:1208|AV-procd|sdf|5064|dock5
  -GOLD-   22720 4103D 1   1.00000     0.00000
 Structure written by MMmdl.
 35 36  0  0  0  0  0  0  0  0  2 V2000
  149.4476  140.1922  155.8739 C   0  0  0  0  0  0  0  0  0  0  0  0
  149.9043  140.3828  157.3294 C   0  0  1  0  0  0  0  0  0  0  0  0
  150.1248  139.0914  157.9714 N   0  0  0  0  0  0  0  0  0  0  0  0
  149.1882  138.2899  158.5025 C   0  0  0  0  0  0  0  0  0  0  0  0
  147.9827  138.5281  158.4334 O   0  0  0  0  0  0  0  0  0  0  0  0
  149.6740  137.0391  159.2559 C   0  0  0  0  0  0  0  0  0  0  0  0
  148.6025  136.2777  159.9217 N   0  0  0  0  0  0  0  0  0  0  0  0
  147.8479  137.0496  160.9049 N   0  5  0  0  0  0  0  0  0  0  0  0
  146.8034  136.4632  161.5478 C   0  0  0  0  0  0  0  0  0  0  0  0
  146.1113  137.0550  162.3726 O   0  0  0  0  0  0  0  0  0  0  0  0
  146.5011  135.0755  161.2383 C   0  0  0  0  0  0  0  0  0  0  0  0
  147.2222  134.3829  160.3349 C   0  0  0  0  0  0  0  0  0  0  0  0
  148.3401  134.9757  159.6109 C   0  0  0  0  0  0  0  0  0  0  0  0
  148.9910  134.3541  158.7714 O   0  0  0  0  0  0  0  0  0  0  0  0
  151.1816  141.2440  157.4327 C   0  0  1  0  0  0  0  0  0  0  0  0
  151.0365  142.6832  156.9069 C   0  0  0  0  0  0  0  0  0  0  0  0
  151.8151  143.4983  157.9171 C   0  0  0  0  0  0  0  0  0  0  0  0
  151.5583  142.7211  159.1996 C   0  0  0  0  0  0  0  0  0  0  0  0
  151.6040  141.3605  158.7930 O   0  0  0  0  0  0  0  0  0  0  0  0
  149.2734  141.1528  155.3892 H   0  0  0  0  0  0  0  0  0  0  0  0
  148.5169  139.6262  155.8231 H   0  0  0  0  0  0  0  0  0  0  0  0
  150.1952  139.6551  155.2893 H   0  0  0  0  0  0  0  0  0  0  0  0
  149.1118  140.9076  157.8657 H   0  0  0  0  0  0  0  0  0  0  0  0
  151.0867  138.7957  158.0652 H   0  0  0  0  0  0  0  0  0  0  0  0
  150.2079  136.3918  158.5581 H   0  0  0  0  0  0  0  0  0  0  0  0
  150.4206  137.3560  159.9859 H   0  0  0  0  0  0  0  0  0  0  0  0
  145.6807  134.5887  161.7445 H   0  0  0  0  0  0  0  0  0  0  0  0
  146.9624  133.3541  160.1362 H   0  0  0  0  0  0  0  0  0  0  0  0
  151.9919  140.7547  156.8904 H   0  0  0  0  0  0  0  0  0  0  0  0
  151.4160  142.7984  155.8915 H   0  0  0  0  0  0  0  0  0  0  0  0
  149.9961  143.0095  156.9067 H   0  0  0  0  0  0  0  0  0  0  0  0
  152.8787  143.4848  157.6754 H   0  0  0  0  0  0  0  0  0  0  0  0
  151.4859  144.5361  157.9756 H   0  0  0  0  0  0  0  0  0  0  0  0
  152.2888  142.9345  159.9796 H   0  0  0  0  0  0  0  0  0  0  0  0
  150.5649  142.9421  159.5905 H   0  0  0  0  0  0  0  0  0  0  0  0
  1  2  1  0  0  0  0
  1 20  1  0  0  0  0
  1 21  1  0  0  0  0
  1 22  1  0  0  0  0
  2  3  1  0  0  0  0
  2 15  1  0  0  0  0
  2 23  1  0  0  0  0
  3  4  1  0  0  0  0
  3 24  1  0  0  0  0
  4  5  2  0  0  0  0
  4  6  1  0  0  0  0
  6 25  1  0  0  0  0
  6 26  1  0  0  0  0
  6  7  1  0  0  0  0
  7  8  1  0  0  0  0
  7 13  1  0  0  0  0
  8  9  1  0  0  0  0
  9 10  2  0  0  0  0
  9 11  1  0  0  0  0
 11 27  1  0  0  0  0
 11 12  2  0  0  0  0
 12 28  1  0  0  0  0
 12 13  1  0  0  0  0
 13 14  2  0  0  0  0
 15 19  1  0  0  0  0
 15 16  1  0  0  0  0
 15 29  1  0  0  0  0
 16 17  1  0  0  0  0
 16 30  1  0  0  0  0
 16 31  1  0  0  0  0
 17 18  1  0  0  0  0
 17 32  1  0  0  0  0
 17 33  1  0  0  0  0
 18 19  1  0  0  0  0
 18 34  1  0  0  0  0
 18 35  1  0  0  0  0
M  CHG  1   8  -1
M  END
> <s_m_source_file>
AV-unprocessed.smi

> <i_m_source_file_index>
1208

> <i_lp_mmshare_version>
43012

> <i_f3d_flags>
0

> <s_epik_input>
TzFbQ0gyXVtDSDJdW0NIMl1bQ0BIXTFbQ0BIXShbQ0gzXSlbTkhdQyg9TylbQ0gyXW4yW25IXWMoPU8pW2NIXVtjSF1jMj1P

> <s_epik_cmdline>
J2VwaWtfcHl0aG9uJywgJy1waCcsICc3LjAnLCAnLXRuJywgJzgnLCAnLW1hJywgJzIwMCcsICctbWV0YWxfYmluZGluZycsICctaW1hZScsICc8aW5maWxlLm1hZT4nLCAnLW9tYWUnLCAnPG91dGZpbGUubWFlPic=

> <r_lp_tautomer_probability>
1

> <r_epik_Ionization_Penalty>
0.0975494

> <r_epik_Ionization_Penalty_Charging>
0.0975494

> <r_epik_Ionization_Penalty_Neutral>
2.30132e-08

> <r_epik_State_Penalty>
0.034345

> <r_epik_Charging_Adjusted_Penalty>
0.131894

> <i_epik_Tot_Q>
-1

> <i_epik_Tot_abs_Q>
1

> <r_epik_Metal_State_Penalty>
0.034345

> <b_epik_Metal_Only>
0

> <s_lp_Force_Field>
OPLS_2005

> <r_lp_Energy>
31.4648

> <b_lp_Chiralities_Consistent>
1

> <s_lp_Variant>
AV-unprocessed.smi:1208-4

> <Gold.Version>
5.8.1

> <Gold.Id.Protein>
6NUR|6NUR_protein|mol2

> <Gold.PLP.Fitness>
39.9219

> <Gold.PLP.PLP>
-26.8885

> <Gold.PLP.part.hbond>
-4.0000

> <Gold.PLP.part.metal>
0.0000

> <Gold.PLP.part.buried>
-4.4114

> <Gold.PLP.part.nonpolar>
-19.7354

> <Gold.PLP.part.repulsive>
0.1295

> <Gold.PLP.ligand.clash>
0.0000

> <Gold.PLP.ligand.torsion>
0.3688

> <Gold.PLP.Chemscore.Hbond>
4.5840

> <Gold.PLP.Chemscore.CHOScore>
0.0000

> <Gold.PLP.Chemscore.Metal>
0.0000

> <Gold.Chemscore.Hbonds>
donor molecule, donor type, donor heavy atom, donor atom, acceptor molecule, acceptor atom, score
      P1  H  6896  6908       L1    14  1.00
      P1  H  6931  6943       L1     8  1.89
      P1  H  6934  6947       L1     8  1.49

> <Gold.PLP.Chemscore.Internal.Correction>
0.0190

> <Gold.Rescore>
     Score         DG    S(hbond)    S(metal)    S(lipo)     H(rot)  DE(clash)    DE(int)     intcor
     11.82     -13.46       1.78        0.00      61.05       1.99       0.05       1.60       ----

> <Gold.Chemscore.Fitness>
11.8201

> <Gold.Chemscore.DG>
-13.4611

> <Gold.Chemscore.ZeroCoef>
-5.4800

> <Gold.Chemscore.Hbond>
1.7794

> <Gold.Chemscore.Metal>
0.0000

> <Gold.Chemscore.Lipo>
61.0476

> <Gold.Chemscore.Internal_Hbond>
0.0000

> <Gold.Chemscore.DEClash>
0.0460

> <Gold.Chemscore.DEInternal>
1.5950

> <Gold.Chemscore.Rot>
1.9940

> <Gold.Chemscore.Internal.Correction>
   9.000000E+99

> <Gold.Chemscore.Hbonds>
donor molecule, donor type, donor heavy atom, donor atom, acceptor molecule, acceptor atom, score
      P1  H  6896  6908       L1    14  0.65
      P1  H  6931  6943       L1     8  0.69
      P1  H  6934  6947       L1     8  0.18

> <Gold.Chemscore.Hbond.Weighted>
-5.9432

> <Gold.Chemscore.Metal.Weighted>
-0.0000

> <Gold.Chemscore.Lipo.Weighted>
-7.1426

> <Gold.Chemscore.Internal_Hbond.Weighted>
0.0000

> <Gold.Chemscore.DEClash.Weighted>
0.0460

> <Gold.Chemscore.DEInternal.Weighted>
1.5950

> <Gold.Chemscore.Rot.Weighted>
5.1047

> <Gold.Chemscore.Internal.Correction.Weighted>
   9.000000E+99

> <Gold.Protein.RotatedTorsions>
[ 6907 6896 6895 6894 ] final  142.45 input  -60.11 | X-H torsion
[ 7974 7965 7964 7962 ] final   70.22 input  175.53 | X-H torsion
[ 8008 7997 7996 7995 ] final   13.86 input   59.86 | X-H torsion
[ 10167 10162 10161 10158 ] final  -36.43 input  -65.29 | X-H torsion
[ 10718 10713 10712 10709 ] final   71.67 input   66.30 | X-H torsion
[ 10763 10752 10751 10750 ] final -176.18 input  -60.55 | X-H torsion
[ 11005 11000 10999 10996 ] final -110.89 input  -57.11 | X-H torsion

> <Gold.Protein.ActiveResidues>
 VAL166  LYS551  ARG553  GLY616  TRP617  ASP618  TYR619  PRO620  LYS621  CYS622 
 ASP623  PHE694  ASN695  SER759  ASP760  ASP761  ALA762  ILE779  LEU786  VAL792 
 PHE793  MET794  SER795  GLU796  ALA797  LYS798  CYS799  TRP800  GLU811  SER814 

> <Gold.Protein.RotatedAtoms>
  152.2185  133.4965  159.5149 H   0  0  0  0  0  0  0  0  0  0  0  0  # atno 6907 bound_to 6896
  150.7007  134.1373  159.4101 H   0  0  0  0  0  0  0  0  0  0  0  0  # atno 6908 bound_to 6896
  151.9294  135.0263  160.0579 H   0  0  0  0  0  0  0  0  0  0  0  0  # atno 6909 bound_to 6896
  145.7808  139.2886  143.1267 H   0  0  0  0  0  0  0  0  0  0  0  0  # atno 7974 bound_to 7965
  154.8403  140.2913  155.5664 H   0  0  0  0  0  0  0  0  0  0  0  0  # atno 8008 bound_to 7997
  156.3011  140.2515  156.3276 H   0  0  0  0  0  0  0  0  0  0  0  0  # atno 8009 bound_to 7997
  154.9133  140.0388  157.1947 H   0  0  0  0  0  0  0  0  0  0  0  0  # atno 8010 bound_to 7997
  140.7142  143.3409  151.2359 H   0  0  0  0  0  0  0  0  0  0  0  0  # atno 10167 bound_to 10162
  157.6463  130.9540  150.0821 H   0  0  0  0  0  0  0  0  0  0  0  0  # atno 10718 bound_to 10713
  154.5755  135.2831  155.0785 H   0  0  0  0  0  0  0  0  0  0  0  0  # atno 10763 bound_to 10752
  154.2141  135.6403  153.5128 H   0  0  0  0  0  0  0  0  0  0  0  0  # atno 10764 bound_to 10752
  153.0071  135.5498  154.6392 H   0  0  0  0  0  0  0  0  0  0  0  0  # atno 10765 bound_to 10752
  141.0766  133.9291  157.2377 H   0  0  0  0  0  0  0  0  0  0  0  0  # atno 11005 bound_to 11000
  146.0076  140.8464  142.9987 LP  0  0  0  0  0  0  0  0  0  0  0  0  # atno 17320 bound_to 7965
  144.6797  140.2443  143.7340 LP  0  0  0  0  0  0  0  0  0  0  0  0  # atno 17321 bound_to 7965
  139.6916  143.9682  152.2862 LP  0  0  0  0  0  0  0  0  0  0  0  0  # atno 17342 bound_to 10162
  139.9345  144.6720  150.8328 LP  0  0  0  0  0  0  0  0  0  0  0  0  # atno 17343 bound_to 10162
  156.1794  130.3649  149.9055 LP  0  0  0  0  0  0  0  0  0  0  0  0  # atno 17370 bound_to 10713
  156.7011  130.8933  151.3599 LP  0  0  0  0  0  0  0  0  0  0  0  0  # atno 17371 bound_to 10713
  139.9578  135.0161  156.9178 LP  0  0  0  0  0  0  0  0  0  0  0  0  # atno 17394 bound_to 11000
  140.5560  134.0581  155.7384 LP  0  0  0  0  0  0  0  0  0  0  0  0  # atno 17395 bound_to 11000

$$$$
