AV-unprocessed.smi:308|AV-procd|sdf|2286|dock1
  -GOLD-   2262022183D 1   1.00000     0.00000
 Structure written by MMmdl.
 51 52  0  0  0  0  0  0  0  0  3 V2000
  143.9466  133.2269  150.9383 C   0  0  0  0  0  0  0  0  0  0  0  0
  145.1859  134.0090  150.4679 C   0  0  2  0  0  0  0  0  0  0  0  0
  146.4951  133.4750  151.0763 C   0  0  0  0  0  0  0  0  0  0  0  0
  146.6444  133.8540  152.5607 C   0  0  0  0  0  0  0  0  0  0  0  0
  146.5393  135.3226  152.7579 N   0  3  2  0  0  0  0  0  0  0  0  0
  146.8027  135.7162  154.1663 C   0  0  0  0  0  0  0  0  0  0  0  0
  146.8577  137.2444  154.3803 C   0  0  0  0  0  0  0  0  0  0  0  0
  148.0054  137.6762  155.1752 N   0  0  0  0  0  0  0  0  0  0  0  0
  148.2467  138.9410  155.5498 C   0  0  0  0  0  0  0  0  0  0  0  0
  147.4840  139.8740  155.3026 O   0  0  0  0  0  0  0  0  0  0  0  0
  149.4164  139.0421  156.2052 N   0  0  0  0  0  0  0  0  0  0  0  0
  150.0451  140.2058  156.7286 C   0  0  0  0  0  0  0  0  0  0  0  0
  151.0035  140.0305  157.7489 C   0  0  0  0  0  0  0  0  0  0  0  0
  151.6504  141.1520  158.3067 C   0  0  0  0  0  0  0  0  0  0  0  0
  151.3302  142.4524  157.8456 C   0  0  0  0  0  0  0  0  0  0  0  0
  151.9352  143.6233  158.3518 N   0  0  0  0  0  0  0  0  0  0  0  0
  152.6421  143.5800  159.6252 C   0  0  0  0  0  0  0  0  0  0  0  0
  151.9499  144.8377  157.5437 C   0  0  0  0  0  0  0  0  0  0  0  0
  150.3936  142.5715  156.8730 N   0  3  0  0  0  0  0  0  0  0  0  0
  149.7510  141.5255  156.3100 C   0  0  0  0  0  0  0  0  0  0  0  0
  145.2555  135.8579  152.2325 C   0  0  0  0  0  0  0  0  0  0  0  0
  145.0763  135.5196  150.7414 C   0  0  0  0  0  0  0  0  0  0  0  0
  143.7957  133.3008  152.0150 H   0  0  0  0  0  0  0  0  0  0  0  0
  144.0362  132.1689  150.6907 H   0  0  0  0  0  0  0  0  0  0  0  0
  143.0437  133.5990  150.4532 H   0  0  0  0  0  0  0  0  0  0  0  0
  145.2443  133.8721  149.3871 H   0  0  0  0  0  0  0  0  0  0  0  0
  146.5532  132.3924  150.9582 H   0  0  0  0  0  0  0  0  0  0  0  0
  147.3400  133.8845  150.5205 H   0  0  0  0  0  0  0  0  0  0  0  0
  145.8891  133.3481  153.1634 H   0  0  0  0  0  0  0  0  0  0  0  0
  147.6143  133.5056  152.9184 H   0  0  0  0  0  0  0  0  0  0  0  0
  146.0563  135.2673  154.8233 H   0  0  0  0  0  0  0  0  0  0  0  0
  147.7624  135.2982  154.4738 H   0  0  0  0  0  0  0  0  0  0  0  0
  146.9054  137.7573  153.4202 H   0  0  0  0  0  0  0  0  0  0  0  0
  145.9349  137.5863  154.8521 H   0  0  0  0  0  0  0  0  0  0  0  0
  148.6870  136.9699  155.4125 H   0  0  0  0  0  0  0  0  0  0  0  0
  149.9543  138.1912  156.2813 H   0  0  0  0  0  0  0  0  0  0  0  0
  151.2504  139.0403  158.1033 H   0  0  0  0  0  0  0  0  0  0  0  0
  152.3844  140.9938  159.0826 H   0  0  0  0  0  0  0  0  0  0  0  0
  151.9593  143.3181  160.4340 H   0  0  0  0  0  0  0  0  0  0  0  0
  153.0863  144.5461  159.8652 H   0  0  0  0  0  0  0  0  0  0  0  0
  153.4452  142.8431  159.5936 H   0  0  0  0  0  0  0  0  0  0  0  0
  150.9335  145.1534  157.3059 H   0  0  0  0  0  0  0  0  0  0  0  0
  152.4891  144.6700  156.6106 H   0  0  0  0  0  0  0  0  0  0  0  0
  152.4379  145.6586  158.0695 H   0  0  0  0  0  0  0  0  0  0  0  0
  149.0266  141.7968  155.5574 H   0  0  0  0  0  0  0  0  0  0  0  0
  144.4251  135.4599  152.8172 H   0  0  0  0  0  0  0  0  0  0  0  0
  145.2263  136.9410  152.3477 H   0  0  0  0  0  0  0  0  0  0  0  0
  145.8412  136.0434  150.1663 H   0  0  0  0  0  0  0  0  0  0  0  0
  144.1183  135.8994  150.3845 H   0  0  0  0  0  0  0  0  0  0  0  0
  147.2777  135.7336  152.2050 H   0  0  0  0  0  0  0  0  0  0  0  0
  150.1583  143.5086  156.5455 H   0  0  0  0  0  0  0  0  0  0  0  0
  1  2  1  0  0  0  0
  1 23  1  0  0  0  0
  1 24  1  0  0  0  0
  1 25  1  0  0  0  0
  2 22  1  0  0  0  0
  2  3  1  0  0  0  0
  2 26  1  0  0  0  0
  3  4  1  0  0  0  0
  3 27  1  0  0  0  0
  3 28  1  0  0  0  0
  4  5  1  0  0  0  0
  4 29  1  0  0  0  0
  4 30  1  0  0  0  0
  5  6  1  0  0  0  0
  5 21  1  0  0  0  0
  5 50  1  0  0  0  0
  6  7  1  0  0  0  0
  6 31  1  0  0  0  0
  6 32  1  0  0  0  0
  7  8  1  0  0  0  0
  7 33  1  0  0  0  0
  7 34  1  0  0  0  0
  8  9  1  0  0  0  0
  8 35  1  0  0  0  0
  9 10  2  0  0  0  0
  9 11  1  0  0  0  0
 11 12  1  0  0  0  0
 11 36  1  0  0  0  0
 12 20  1  0  0  0  0
 12 13  2  0  0  0  0
 13 14  1  0  0  0  0
 13 37  1  0  0  0  0
 14 15  2  0  0  0  0
 14 38  1  0  0  0  0
 15 16  1  0  0  0  0
 15 19  1  0  0  0  0
 16 17  1  0  0  0  0
 16 18  1  0  0  0  0
 17 39  1  0  0  0  0
 17 40  1  0  0  0  0
 17 41  1  0  0  0  0
 18 42  1  0  0  0  0
 18 43  1  0  0  0  0
 18 44  1  0  0  0  0
 19 20  2  0  0  0  0
 19 51  1  0  0  0  0
 20 45  1  0  0  0  0
 21 22  1  0  0  0  0
 21 46  1  0  0  0  0
 21 47  1  0  0  0  0
 22 48  1  0  0  0  0
 22 49  1  0  0  0  0
M  CHG  1   5   1
M  CHG  1  19   1
M  END
> <s_m_source_file>
AV-unprocessed.smi

> <i_m_source_file_index>
308

> <i_lp_mmshare_version>
43012

> <i_f3d_flags>
0

> <s_epik_input>
W0NIM11bQ0hdMVtDSDJdW0NIMl1OKFtDSDJdW0NIMl0xKVtDSDJdW0NIMl1bTkhdQyg9TylbTkhdYzJbY0hdW2NIXWMoTihbQ0gzXSlbQ0gzXSluW2NIXTI=

> <s_epik_cmdline>
J2VwaWtfcHl0aG9uJywgJy1waCcsICc3LjAnLCAnLXRuJywgJzgnLCAnLW1hJywgJzIwMCcsICctbWV0YWxfYmluZGluZycsICctaW1hZScsICc8aW5maWxlLm1hZT4nLCAnLW9tYWUnLCAnPG91dGZpbGUubWFlPic=

> <r_lp_tautomer_probability>
0.999994

> <r_epik_Ionization_Penalty>
0.309846

> <r_epik_Ionization_Penalty_Charging>
0.309826

> <r_epik_Ionization_Penalty_Neutral>
1.97883e-05

> <r_epik_State_Penalty>
0.302329

> <r_epik_Charging_Adjusted_Penalty>
0.612155

> <i_epik_Tot_Q>
2

> <i_epik_Tot_abs_Q>
2

> <r_epik_Metal_State_Penalty>
0.577265

> <b_epik_Metal_Only>
0

> <s_lp_Force_Field>
OPLS_2005

> <r_lp_Energy>
37.2755

> <b_lp_Chiralities_Consistent>
1

> <s_lp_Variant>
AV-unprocessed.smi:308-2

> <Gold.Version>
5.8.1

> <Gold.Id.Protein>
6NUR|6NUR_protein|mol2

> <Gold.PLP.Fitness>
46.8134

> <Gold.PLP.PLP>
-35.9933

> <Gold.PLP.part.hbond>
-2.0000

> <Gold.PLP.part.metal>
0.0000

> <Gold.PLP.part.buried>
-4.7553

> <Gold.PLP.part.nonpolar>
-29.3132

> <Gold.PLP.part.repulsive>
0.0591

> <Gold.PLP.ligand.clash>
0.0000

> <Gold.PLP.ligand.torsion>
0.6213

> <Gold.PLP.Chemscore.Hbond>
4.0000

> <Gold.PLP.Chemscore.CHOScore>
0.0000

> <Gold.PLP.Chemscore.Metal>
0.0000

> <Gold.Chemscore.Hbonds>
donor molecule, donor type, donor heavy atom, donor atom, acceptor molecule, acceptor atom, score
      L1  H     5    50       P1  7948  2.00
      L1  H    19    51       P1  8028  2.00

> <Gold.PLP.Chemscore.Internal.Correction>
0.0626

> <Gold.Rescore>
     Score         DG    S(hbond)    S(metal)    S(lipo)     H(rot)  DE(clash)    DE(int)     intcor
     15.85     -18.34       1.88        0.00      88.09       1.45       0.68       1.81       ----

> <Gold.Chemscore.Fitness>
15.8516

> <Gold.Chemscore.DG>
-18.3433

> <Gold.Chemscore.ZeroCoef>
-5.4800

> <Gold.Chemscore.Hbond>
1.8754

> <Gold.Chemscore.Metal>
0.0000

> <Gold.Chemscore.Lipo>
88.0853

> <Gold.Chemscore.Internal_Hbond>
0.0000

> <Gold.Chemscore.DEClash>
0.6825

> <Gold.Chemscore.DEInternal>
1.8091

> <Gold.Chemscore.Rot>
1.4479

> <Gold.Chemscore.Internal.Correction>
   9.000000E+99

> <Gold.Chemscore.Hbonds>
donor molecule, donor type, donor heavy atom, donor atom, acceptor molecule, acceptor atom, score
      L1  H     5    50       P1  7948  0.99
      L1  H    19    51       P1  8028  0.93

> <Gold.Chemscore.Hbond.Weighted>
-6.2638

> <Gold.Chemscore.Metal.Weighted>
-0.0000

> <Gold.Chemscore.Lipo.Weighted>
-10.3060

> <Gold.Chemscore.Internal_Hbond.Weighted>
0.0000

> <Gold.Chemscore.DEClash.Weighted>
0.6825

> <Gold.Chemscore.DEInternal.Weighted>
1.8091

> <Gold.Chemscore.Rot.Weighted>
3.7065

> <Gold.Chemscore.Internal.Correction.Weighted>
   9.000000E+99

> <Gold.Protein.RotatedTorsions>
[ 6907 6896 6895 6894 ] final   69.05 input  -60.11 | X-H torsion
[ 7974 7965 7964 7962 ] final   20.58 input  175.53 | X-H torsion
[ 8008 7997 7996 7995 ] final  -77.67 input   59.86 | X-H torsion
[ 10167 10162 10161 10158 ] final -157.42 input  -65.29 | X-H torsion
[ 10718 10713 10712 10709 ] final -168.77 input   66.30 | X-H torsion
[ 10763 10752 10751 10750 ] final  136.47 input  -60.55 | X-H torsion
[ 11005 11000 10999 10996 ] final -164.16 input  -57.11 | X-H torsion

> <Gold.Protein.ActiveResidues>
 VAL166  LYS551  ARG553  GLY616  TRP617  ASP618  TYR619  PRO620  LYS621  CYS622 
 ASP623  PHE694  ASN695  SER759  ASP760  ASP761  ALA762  ILE779  LEU786  VAL792 
 PHE793  MET794  SER795  GLU796  ALA797  LYS798  CYS799  TRP800  GLU811  SER814 

> <Gold.Protein.RotatedAtoms>
  152.4661  134.5072  159.9742 H   0  0  0  0  0  0  0  0  0  0  0  0  # atno 6907 bound_to 6896
  151.5109  133.3479  159.2892 H   0  0  0  0  0  0  0  0  0  0  0  0  # atno 6908 bound_to 6896
  150.8646  134.8035  159.7171 H   0  0  0  0  0  0  0  0  0  0  0  0  # atno 6909 bound_to 6896
  146.2106  139.8149  142.8692 H   0  0  0  0  0  0  0  0  0  0  0  0  # atno 7974 bound_to 7965
  154.5618  140.0706  156.8830 H   0  0  0  0  0  0  0  0  0  0  0  0  # atno 8008 bound_to 7997
  155.2797  140.3371  155.4241 H   0  0  0  0  0  0  0  0  0  0  0  0  # atno 8009 bound_to 7997
  156.2048  140.1736  156.7808 H   0  0  0  0  0  0  0  0  0  0  0  0  # atno 8010 bound_to 7997
  139.6772  143.9643  152.2317 H   0  0  0  0  0  0  0  0  0  0  0  0  # atno 10167 bound_to 10162
  156.7018  130.9199  151.3080 H   0  0  0  0  0  0  0  0  0  0  0  0  # atno 10718 bound_to 10713
  153.8571  135.3072  155.3436 H   0  0  0  0  0  0  0  0  0  0  0  0  # atno 10763 bound_to 10752
  154.7865  135.4806  153.9961 H   0  0  0  0  0  0  0  0  0  0  0  0  # atno 10764 bound_to 10752
  153.1484  135.6838  153.9014 H   0  0  0  0  0  0  0  0  0  0  0  0  # atno 10765 bound_to 10752
  140.5901  134.5054  157.5191 H   0  0  0  0  0  0  0  0  0  0  0  0  # atno 11005 bound_to 11000
  145.3157  141.0231  143.3529 LP  0  0  0  0  0  0  0  0  0  0  0  0  # atno 17320 bound_to 7965
  144.8903  139.4783  143.6681 LP  0  0  0  0  0  0  0  0  0  0  0  0  # atno 17321 bound_to 7965
  139.9423  144.6673  150.8254 LP  0  0  0  0  0  0  0  0  0  0  0  0  # atno 17342 bound_to 10162
  140.7639  143.3236  151.2566 LP  0  0  0  0  0  0  0  0  0  0  0  0  # atno 17343 bound_to 10162
  157.6970  130.9292  150.0673 LP  0  0  0  0  0  0  0  0  0  0  0  0  # atno 17370 bound_to 10713
  156.1723  130.3647  149.9148 LP  0  0  0  0  0  0  0  0  0  0  0  0  # atno 17371 bound_to 10713
  139.9278  134.8022  156.1018 LP  0  0  0  0  0  0  0  0  0  0  0  0  # atno 17394 bound_to 11000
  141.0941  133.6703  156.2605 LP  0  0  0  0  0  0  0  0  0  0  0  0  # atno 17395 bound_to 11000

$$$$
