AV-unprocessed.smi:1365|AV-procd|sdf|5569|dock2
  -GOLD-   22720 5163D 1   1.00000     0.00000
 Structure written by MMmdl.
 41 42  0  0  0  0  0  0  0  0  3 V2000
  152.2423  140.8405  159.1508 C   0  0  0  0  0  0  0  0  0  0  0  0
  151.9262  140.5135  157.7314 C   0  0  0  0  0  0  0  0  0  0  0  0
  150.8926  140.8597  156.9081 C   0  0  0  0  0  0  0  0  0  0  0  0
  151.2104  140.1959  155.6915 C   0  0  0  0  0  0  0  0  0  0  0  0
  150.4932  140.2370  154.5580 N   0  5  0  0  0  0  0  0  0  0  0  0
  149.1426  140.1775  154.6040 C   0  0  0  0  0  0  0  0  0  0  0  0
  148.4475  140.0622  155.6161 O   0  0  0  0  0  0  0  0  0  0  0  0
  148.5596  140.2549  153.4004 N   0  0  0  0  0  0  0  0  0  0  0  0
  147.1244  140.2017  153.1574 C   0  0  0  0  0  0  0  0  0  0  0  0
  146.7551  138.9171  152.4046 C   0  0  0  0  0  0  0  0  0  0  0  0
  146.4326  137.7564  153.3604 C   0  0  0  0  0  0  0  0  0  0  0  0
  146.3844  136.4455  152.6646 N   0  3  0  0  0  0  0  0  0  0  0  0
  145.3650  136.4216  151.5828 C   0  0  0  0  0  0  0  0  0  0  0  0
  145.4243  135.1058  150.7883 C   0  0  0  0  0  0  0  0  0  0  0  0
  145.2616  133.8946  151.7153 C   0  0  0  0  0  0  0  0  0  0  0  0
  146.3012  133.9556  152.8416 C   0  0  0  0  0  0  0  0  0  0  0  0
  146.2213  135.2948  153.5941 C   0  0  0  0  0  0  0  0  0  0  0  0
  152.3461  139.5222  155.7648 N   0  0  0  0  0  0  0  0  0  0  0  0
  152.8081  139.7148  157.0722 O   0  0  0  0  0  0  0  0  0  0  0  0
  152.2195  141.9182  159.3125 H   0  0  0  0  0  0  0  0  0  0  0  0
  153.2329  140.4785  159.4270 H   0  0  0  0  0  0  0  0  0  0  0  0
  151.5160  140.3818  159.8219 H   0  0  0  0  0  0  0  0  0  0  0  0
  150.0419  141.4828  157.1392 H   0  0  0  0  0  0  0  0  0  0  0  0
  149.1625  140.3511  152.5966 H   0  0  0  0  0  0  0  0  0  0  0  0
  146.5903  140.2407  154.1082 H   0  0  0  0  0  0  0  0  0  0  0  0
  146.8269  141.0794  152.5817 H   0  0  0  0  0  0  0  0  0  0  0  0
  145.8942  139.1081  151.7623 H   0  0  0  0  0  0  0  0  0  0  0  0
  147.5802  138.6499  151.7449 H   0  0  0  0  0  0  0  0  0  0  0  0
  147.1511  137.7163  154.1807 H   0  0  0  0  0  0  0  0  0  0  0  0
  145.4607  137.9587  153.8128 H   0  0  0  0  0  0  0  0  0  0  0  0
  144.3721  136.5579  152.0143 H   0  0  0  0  0  0  0  0  0  0  0  0
  145.5314  137.2558  150.8999 H   0  0  0  0  0  0  0  0  0  0  0  0
  144.6466  135.0963  150.0240 H   0  0  0  0  0  0  0  0  0  0  0  0
  146.3770  135.0384  150.2610 H   0  0  0  0  0  0  0  0  0  0  0  0
  144.2569  133.8861  152.1401 H   0  0  0  0  0  0  0  0  0  0  0  0
  145.3705  132.9683  151.1501 H   0  0  0  0  0  0  0  0  0  0  0  0
  146.1469  133.1282  153.5348 H   0  0  0  0  0  0  0  0  0  0  0  0
  147.3015  133.8280  152.4257 H   0  0  0  0  0  0  0  0  0  0  0  0
  146.9937  135.3120  154.3620 H   0  0  0  0  0  0  0  0  0  0  0  0
  145.2632  135.3764  154.1102 H   0  0  0  0  0  0  0  0  0  0  0  0
  147.2784  136.3327  152.2083 H   0  0  0  0  0  0  0  0  0  0  0  0
  1  2  1  0  0  0  0
  1 20  1  0  0  0  0
  1 21  1  0  0  0  0
  1 22  1  0  0  0  0
  2 19  1  0  0  0  0
  2  3  2  0  0  0  0
  3  4  1  0  0  0  0
  3 23  1  0  0  0  0
  4  5  1  0  0  0  0
  4 18  2  0  0  0  0
  5  6  1  0  0  0  0
  6  7  2  0  0  0  0
  6  8  1  0  0  0  0
  8  9  1  0  0  0  0
  8 24  1  0  0  0  0
  9 10  1  0  0  0  0
  9 25  1  0  0  0  0
  9 26  1  0  0  0  0
 10 11  1  0  0  0  0
 10 27  1  0  0  0  0
 10 28  1  0  0  0  0
 11 12  1  0  0  0  0
 11 29  1  0  0  0  0
 11 30  1  0  0  0  0
 12 17  1  0  0  0  0
 12 13  1  0  0  0  0
 12 41  1  0  0  0  0
 13 14  1  0  0  0  0
 13 31  1  0  0  0  0
 13 32  1  0  0  0  0
 14 15  1  0  0  0  0
 14 33  1  0  0  0  0
 14 34  1  0  0  0  0
 15 16  1  0  0  0  0
 15 35  1  0  0  0  0
 15 36  1  0  0  0  0
 16 17  1  0  0  0  0
 16 37  1  0  0  0  0
 16 38  1  0  0  0  0
 17 39  1  0  0  0  0
 17 40  1  0  0  0  0
 18 19  1  0  0  0  0
M  CHG  1   5  -1
M  CHG  1  12   1
M  END
> <s_m_source_file>
AV-unprocessed.smi

> <i_m_source_file_index>
1365

> <i_lp_mmshare_version>
43012

> <i_f3d_flags>
0

> <s_epik_input>
W0NIM11jMVtjSF1jKG5vMSlbTkhdQyg9TylbTkhdW0NIMl1bQ0gyXVtDSDJdTjJbQ0gyXVtDSDJdW0NIMl1bQ0gyXVtDSDJdMg==

> <s_epik_cmdline>
J2VwaWtfcHl0aG9uJywgJy1waCcsICc3LjAnLCAnLXRuJywgJzgnLCAnLW1hJywgJzIwMCcsICctbWV0YWxfYmluZGluZycsICctaW1hZScsICc8aW5maWxlLm1hZT4nLCAnLW9tYWUnLCAnPG91dGZpbGUubWFlPic=

> <r_epik_Ionization_Penalty>
6.42355

> <r_epik_Ionization_Penalty_Charging>
6.42345

> <r_epik_Ionization_Penalty_Neutral>
0.000108417

> <r_epik_State_Penalty>
6.4233

> <r_epik_Charging_Adjusted_Penalty>
12.8467

> <i_epik_Tot_Q>
0

> <i_epik_Tot_abs_Q>
2

> <r_epik_Metal_State_Penalty>
2.35308

> <b_epik_Metal_Only>
1

> <s_lp_Force_Field>
OPLS_2005

> <r_lp_Energy>
6.88196

> <b_lp_Chiralities_Consistent>
1

> <s_lp_Variant>
AV-unprocessed.smi:1365-2

> <Gold.Version>
5.8.1

> <Gold.Id.Protein>
6NUR|6NUR_protein|mol2

> <Gold.PLP.Fitness>
47.1804

> <Gold.PLP.PLP>
-33.2101

> <Gold.PLP.part.hbond>
-4.6739

> <Gold.PLP.part.metal>
0.0000

> <Gold.PLP.part.buried>
-2.1555

> <Gold.PLP.part.nonpolar>
-25.1181

> <Gold.PLP.part.repulsive>
0.2944

> <Gold.PLP.ligand.clash>
0.0000

> <Gold.PLP.ligand.torsion>
0.5760

> <Gold.PLP.Chemscore.Hbond>
5.0000

> <Gold.PLP.Chemscore.CHOScore>
0.0000

> <Gold.PLP.Chemscore.Metal>
0.0000

> <Gold.Chemscore.Hbonds>
donor molecule, donor type, donor heavy atom, donor atom, acceptor molecule, acceptor atom, score
      L1  H     8    24       P1  7957  1.00
      L1  H    12    41       P1  7948  2.00
      P1  H  7989  7998       L1     5  1.00
      P1  H  7997  8010       L1    19  1.00

> <Gold.PLP.Chemscore.Internal.Correction>
0.1222

> <Gold.Rescore>
     Score         DG    S(hbond)    S(metal)    S(lipo)     H(rot)  DE(clash)    DE(int)     intcor
     16.41     -18.24       3.06        0.00      60.61       1.78       0.02       1.81       ----

> <Gold.Chemscore.Fitness>
16.4094

> <Gold.Chemscore.DG>
-18.2394

> <Gold.Chemscore.ZeroCoef>
-5.4800

> <Gold.Chemscore.Hbond>
3.0596

> <Gold.Chemscore.Metal>
0.0000

> <Gold.Chemscore.Lipo>
60.6063

> <Gold.Chemscore.Internal_Hbond>
0.0000

> <Gold.Chemscore.DEClash>
0.0192

> <Gold.Chemscore.DEInternal>
1.8108

> <Gold.Chemscore.Rot>
1.7776

> <Gold.Chemscore.Internal.Correction>
   9.000000E+99

> <Gold.Chemscore.Hbonds>
donor molecule, donor type, donor heavy atom, donor atom, acceptor molecule, acceptor atom, score
      L1  H     8    24       P1  7957  0.91
      L1  H    12    41       P1  7948  1.00
      P1  H  7989  7998       L1     5  0.30
      P1  H  7997  8010       L1    19  0.44

> <Gold.Chemscore.Hbond.Weighted>
-10.2191

> <Gold.Chemscore.Metal.Weighted>
-0.0000

> <Gold.Chemscore.Lipo.Weighted>
-7.0909

> <Gold.Chemscore.Internal_Hbond.Weighted>
0.0000

> <Gold.Chemscore.DEClash.Weighted>
0.0192

> <Gold.Chemscore.DEInternal.Weighted>
1.8108

> <Gold.Chemscore.Rot.Weighted>
4.5506

> <Gold.Chemscore.Internal.Correction.Weighted>
   9.000000E+99

> <Gold.Protein.RotatedTorsions>
[ 6907 6896 6895 6894 ] final  -65.31 input  -60.11 | X-H torsion
[ 7974 7965 7964 7962 ] final  119.91 input  175.53 | X-H torsion
[ 8008 7997 7996 7995 ] final   44.02 input   59.86 | X-H torsion
[ 10167 10162 10161 10158 ] final   65.62 input  -65.29 | X-H torsion
[ 10718 10713 10712 10709 ] final  115.78 input   66.30 | X-H torsion
[ 10763 10752 10751 10750 ] final  -45.85 input  -60.55 | X-H torsion
[ 11005 11000 10999 10996 ] final  -60.55 input  -57.11 | X-H torsion

> <Gold.Protein.ActiveResidues>
 VAL166  LYS551  ARG553  GLY616  TRP617  ASP618  TYR619  PRO620  LYS621  CYS622 
 ASP623  PHE694  ASN695  SER759  ASP760  ASP761  ALA762  ILE779  LEU786  VAL792 
 PHE793  MET794  SER795  GLU796  ALA797  LYS798  CYS799  TRP800  GLU811  SER814 

> <Gold.Protein.RotatedAtoms>
  150.7532  134.6178  159.6119 H   0  0  0  0  0  0  0  0  0  0  0  0  # atno 6907 bound_to 6896
  152.3493  134.7024  160.0250 H   0  0  0  0  0  0  0  0  0  0  0  0  # atno 6908 bound_to 6896
  151.7451  133.3288  159.3412 H   0  0  0  0  0  0  0  0  0  0  0  0  # atno 6909 bound_to 6896
  145.1375  139.3289  143.4633 H   0  0  0  0  0  0  0  0  0  0  0  0  # atno 7974 bound_to 7965
  155.3124  140.3392  155.4243 H   0  0  0  0  0  0  0  0  0  0  0  0  # atno 8008 bound_to 7997
  156.1949  140.1711  156.8056 H   0  0  0  0  0  0  0  0  0  0  0  0  # atno 8009 bound_to 7997
  154.5486  140.0710  156.8615 H   0  0  0  0  0  0  0  0  0  0  0  0  # atno 8010 bound_to 7997
  140.1093  144.4833  150.6988 H   0  0  0  0  0  0  0  0  0  0  0  0  # atno 10167 bound_to 10162
  157.6201  131.1017  150.7378 H   0  0  0  0  0  0  0  0  0  0  0  0  # atno 10718 bound_to 10713
  154.0354  135.6651  153.4784 H   0  0  0  0  0  0  0  0  0  0  0  0  # atno 10763 bound_to 10752
  153.0523  135.5077  154.7893 H   0  0  0  0  0  0  0  0  0  0  0  0  # atno 10764 bound_to 10752
  154.6852  135.3052  154.9523 H   0  0  0  0  0  0  0  0  0  0  0  0  # atno 10765 bound_to 10752
  141.1291  133.6623  156.5240 H   0  0  0  0  0  0  0  0  0  0  0  0  # atno 11005 bound_to 11000
  146.3508  140.1398  142.8595 LP  0  0  0  0  0  0  0  0  0  0  0  0  # atno 17320 bound_to 7965
  145.0568  140.9059  143.4962 LP  0  0  0  0  0  0  0  0  0  0  0  0  # atno 17321 bound_to 7965
  140.6934  143.2389  151.5067 LP  0  0  0  0  0  0  0  0  0  0  0  0  # atno 17342 bound_to 10162
  139.5628  144.2115  152.1718 LP  0  0  0  0  0  0  0  0  0  0  0  0  # atno 17343 bound_to 10162
  156.7737  130.4837  149.5413 LP  0  0  0  0  0  0  0  0  0  0  0  0  # atno 17370 bound_to 10713
  156.1342  130.6200  151.0377 LP  0  0  0  0  0  0  0  0  0  0  0  0  # atno 17371 bound_to 10713
  140.4270  134.7136  157.4921 LP  0  0  0  0  0  0  0  0  0  0  0  0  # atno 17394 bound_to 11000
  140.0320  134.6392  155.9093 LP  0  0  0  0  0  0  0  0  0  0  0  0  # atno 17395 bound_to 11000

$$$$
