AV-unprocessed.smi:1240|AV-procd|sdf|5199|dock6
  -GOLD-   22720 4283D 1   1.00000     0.00000
 Structure written by MMmdl.
 48 50  0  0  0  0  0  0  0  0  2 V2000
  146.8605  133.7196  154.2885 O   0  0  0  0  0  0  0  0  0  0  0  0
  146.2840  134.6745  153.7687 C   0  0  0  0  0  0  0  0  0  0  0  0
  146.3445  135.9229  154.2516 N   0  0  0  0  0  0  0  0  0  0  0  0
  147.1221  136.3342  155.4146 C   0  0  0  0  0  0  0  0  0  0  0  0
  148.6511  136.1903  155.1878 C   0  0  2  0  0  0  0  0  0  0  0  0
  149.3438  135.2238  156.1912 C   0  0  2  0  0  0  0  0  0  0  0  0
  149.1209  133.7500  155.8898 C   0  0  0  0  0  0  0  0  0  0  0  0
  149.4978  133.0930  157.2102 C   0  0  0  0  0  0  0  0  0  0  0  0
  149.0399  133.9944  158.2081 O   0  0  0  0  0  0  0  0  0  0  0  0
  148.8433  135.2869  157.6421 C   0  0  0  0  0  0  0  0  0  0  0  0
  149.3422  137.5152  155.2017 N   0  3  0  0  0  0  0  0  0  0  0  0
  150.8118  137.4364  155.0165 C   0  0  0  0  0  0  0  0  0  0  0  0
  151.4477  138.8187  155.2443 C   0  0  0  0  0  0  0  0  0  0  0  0
  150.8557  139.7710  154.3684 O   0  0  0  0  0  0  0  0  0  0  0  0
  149.4578  139.9108  154.5938 C   0  0  0  0  0  0  0  0  0  0  0  0
  148.7590  138.5672  154.3299 C   0  0  0  0  0  0  0  0  0  0  0  0
  145.5114  134.6196  152.6699 N   0  0  0  0  0  0  0  0  0  0  0  0
  145.2352  133.5110  151.8237 C   0  0  0  0  0  0  0  0  0  0  0  0
  143.9743  133.4700  151.1934 C   0  0  0  0  0  0  0  0  0  0  0  0
  143.6780  132.3931  150.3343 C   0  0  0  0  0  0  0  0  0  0  0  0
  144.5456  131.3935  150.0717 N   0  0  0  0  0  0  0  0  0  0  0  0
  145.7571  131.4407  150.6653 C   0  0  0  0  0  0  0  0  0  0  0  0
  146.1539  132.4712  151.5413 C   0  0  0  0  0  0  0  0  0  0  0  0
  145.8286  136.6439  153.7684 H   0  0  0  0  0  0  0  0  0  0  0  0
  146.8568  137.3687  155.6311 H   0  0  0  0  0  0  0  0  0  0  0  0
  146.8213  135.7438  156.2814 H   0  0  0  0  0  0  0  0  0  0  0  0
  148.8030  135.7709  154.1917 H   0  0  0  0  0  0  0  0  0  0  0  0
  150.4186  135.4104  156.2000 H   0  0  0  0  0  0  0  0  0  0  0  0
  148.0707  133.5589  155.6641 H   0  0  0  0  0  0  0  0  0  0  0  0
  149.7227  133.3829  155.0578 H   0  0  0  0  0  0  0  0  0  0  0  0
  149.0569  132.1032  157.3297 H   0  0  0  0  0  0  0  0  0  0  0  0
  150.5812  132.9971  157.2926 H   0  0  0  0  0  0  0  0  0  0  0  0
  149.3684  136.0419  158.2277 H   0  0  0  0  0  0  0  0  0  0  0  0
  147.7765  135.5110  157.6803 H   0  0  0  0  0  0  0  0  0  0  0  0
  151.2404  136.7195  155.7177 H   0  0  0  0  0  0  0  0  0  0  0  0
  151.0467  137.0843  154.0118 H   0  0  0  0  0  0  0  0  0  0  0  0
  151.3267  139.1373  156.2810 H   0  0  0  0  0  0  0  0  0  0  0  0
  152.5192  138.7765  155.0479 H   0  0  0  0  0  0  0  0  0  0  0  0
  149.2725  140.2532  155.6133 H   0  0  0  0  0  0  0  0  0  0  0  0
  149.0662  140.6762  153.9237 H   0  0  0  0  0  0  0  0  0  0  0  0
  148.8808  138.3008  153.2796 H   0  0  0  0  0  0  0  0  0  0  0  0
  147.6906  138.6714  154.5165 H   0  0  0  0  0  0  0  0  0  0  0  0
  145.0412  135.4765  152.4177 H   0  0  0  0  0  0  0  0  0  0  0  0
  143.2419  134.2454  151.3644 H   0  0  0  0  0  0  0  0  0  0  0  0
  142.7181  132.3354  149.8427 H   0  0  0  0  0  0  0  0  0  0  0  0
  146.4358  130.6344  150.4296 H   0  0  0  0  0  0  0  0  0  0  0  0
  147.1472  132.4459  151.9608 H   0  0  0  0  0  0  0  0  0  0  0  0
  149.2219  137.8526  156.1461 H   0  0  0  0  0  0  0  0  0  0  0  0
  1  2  2  0  0  0  0
  2  3  1  0  0  0  0
  2 17  1  0  0  0  0
  3  4  1  0  0  0  0
  3 24  1  0  0  0  0
  4  5  1  0  0  0  0
  4 25  1  0  0  0  0
  4 26  1  0  0  0  0
  5  6  1  0  0  0  0
  5 11  1  0  0  0  0
  5 27  1  0  0  0  0
  6 10  1  0  0  0  0
  6  7  1  0  0  0  0
  6 28  1  0  0  0  0
  7  8  1  0  0  0  0
  7 29  1  0  0  0  0
  7 30  1  0  0  0  0
  8  9  1  0  0  0  0
  8 31  1  0  0  0  0
  8 32  1  0  0  0  0
  9 10  1  0  0  0  0
 10 33  1  0  0  0  0
 10 34  1  0  0  0  0
 11 16  1  0  0  0  0
 11 12  1  0  0  0  0
 11 48  1  0  0  0  0
 12 13  1  0  0  0  0
 12 35  1  0  0  0  0
 12 36  1  0  0  0  0
 13 14  1  0  0  0  0
 13 37  1  0  0  0  0
 13 38  1  0  0  0  0
 14 15  1  0  0  0  0
 15 16  1  0  0  0  0
 15 39  1  0  0  0  0
 15 40  1  0  0  0  0
 16 41  1  0  0  0  0
 16 42  1  0  0  0  0
 17 18  1  0  0  0  0
 17 43  1  0  0  0  0
 18 23  1  0  0  0  0
 18 19  2  0  0  0  0
 19 20  1  0  0  0  0
 19 44  1  0  0  0  0
 20 21  2  0  0  0  0
 20 45  1  0  0  0  0
 21 22  1  0  0  0  0
 22 23  2  0  0  0  0
 22 46  1  0  0  0  0
 23 47  1  0  0  0  0
M  CHG  1  11   1
M  END
> <s_m_source_file>
AV-unprocessed.smi

> <i_m_source_file_index>
1240

> <i_lp_mmshare_version>
43012

> <i_f3d_flags>
0

> <s_epik_input>
W2NIXTFbY0hdbltjSF1bY0hdYzFbTkhdQyg9TylbTkhdW0NIMl1bQ0BIXShbQ0BASF0yW0NIMl1bQ0gyXU9bQ0gyXTIpTjNbQ0gyXVtDSDJdT1tDSDJdW0NIMl0z

> <s_epik_cmdline>
J2VwaWtfcHl0aG9uJywgJy1waCcsICc3LjAnLCAnLXRuJywgJzgnLCAnLW1hJywgJzIwMCcsICctbWV0YWxfYmluZGluZycsICctaW1hZScsICc8aW5maWxlLm1hZT4nLCAnLW9tYWUnLCAnPG91dGZpbGUubWFlPic=

> <r_epik_Ionization_Penalty>
1.08433

> <r_epik_Ionization_Penalty_Charging>
0.98326

> <r_epik_Ionization_Penalty_Neutral>
0.10107

> <r_epik_State_Penalty>
1.11265

> <r_epik_Charging_Adjusted_Penalty>
2.09591

> <i_epik_Tot_Q>
1

> <i_epik_Tot_abs_Q>
1

> <r_epik_Metal_State_Penalty>
1.10731

> <b_epik_Metal_Only>
0

> <s_lp_Force_Field>
OPLS_2005

> <r_lp_Energy>
43.6027

> <b_lp_Chiralities_Consistent>
1

> <s_lp_Variant>
AV-unprocessed.smi:1240-5

> <Gold.Version>
5.8.1

> <Gold.Id.Protein>
6NUR|6NUR_protein|mol2

> <Gold.PLP.Fitness>
43.9475

> <Gold.PLP.PLP>
-33.9523

> <Gold.PLP.part.hbond>
-3.0000

> <Gold.PLP.part.metal>
0.0000

> <Gold.PLP.part.buried>
-5.2852

> <Gold.PLP.part.nonpolar>
-28.1980

> <Gold.PLP.part.repulsive>
0.3512

> <Gold.PLP.ligand.clash>
0.0000

> <Gold.PLP.ligand.torsion>
1.4616

> <Gold.PLP.Chemscore.Hbond>
2.1888

> <Gold.PLP.Chemscore.CHOScore>
2.0358

> <Gold.PLP.Chemscore.Metal>
0.0000

> <Gold.Chemscore.Hbonds>
donor molecule, donor type, donor heavy atom, donor atom, acceptor molecule, acceptor atom, score
      P1  H  6896  6908       L1     9  0.10
      P1  H  7989  7998       L1    14  1.00
      P1  H 10785 10796       L1    21  0.18
      L1  C    20    45       P1 10186  0.50
      L1  C    20    45       P1 10952  0.44
      L1  C    22    46       P1 10747  0.89

> <Gold.PLP.Chemscore.Internal.Correction>
0.2446

> <Gold.Rescore>
     Score         DG    S(hbond)    S(metal)    S(lipo)     H(rot)  DE(clash)    DE(int)     intcor
     14.76     -18.35       2.09        0.00      87.48       1.70       0.14       3.45       ----

> <Gold.Chemscore.Fitness>
14.7574

> <Gold.Chemscore.DG>
-18.3475

> <Gold.Chemscore.ZeroCoef>
-5.4800

> <Gold.Chemscore.Hbond>
2.0927

> <Gold.Chemscore.Metal>
0.0000

> <Gold.Chemscore.Lipo>
87.4824

> <Gold.Chemscore.Internal_Hbond>
0.0000

> <Gold.Chemscore.DEClash>
0.1353

> <Gold.Chemscore.DEInternal>
3.4549

> <Gold.Chemscore.Rot>
1.7021

> <Gold.Chemscore.Internal.Correction>
   9.000000E+99

> <Gold.Chemscore.Hbonds>
donor molecule, donor type, donor heavy atom, donor atom, acceptor molecule, acceptor atom, score
      P1  H  7989  7998       L1    14  0.96
      P1  H 10785 10796       L1    21  0.04

> <Gold.Chemscore.Hbond.Weighted>
-6.9896

> <Gold.Chemscore.Metal.Weighted>
-0.0000

> <Gold.Chemscore.Lipo.Weighted>
-10.2354

> <Gold.Chemscore.Internal_Hbond.Weighted>
0.0000

> <Gold.Chemscore.DEClash.Weighted>
0.1353

> <Gold.Chemscore.DEInternal.Weighted>
3.4549

> <Gold.Chemscore.Rot.Weighted>
4.3575

> <Gold.Chemscore.Internal.Correction.Weighted>
   9.000000E+99

> <Gold.Protein.RotatedTorsions>
[ 6907 6896 6895 6894 ] final  101.64 input  -60.11 | X-H torsion
[ 7974 7965 7964 7962 ] final  150.95 input  175.53 | X-H torsion
[ 8008 7997 7996 7995 ] final -121.39 input   59.86 | X-H torsion
[ 10167 10162 10161 10158 ] final  -77.10 input  -65.29 | X-H torsion
[ 10718 10713 10712 10709 ] final   93.53 input   66.30 | X-H torsion
[ 10763 10752 10751 10750 ] final  123.72 input  -60.55 | X-H torsion
[ 11005 11000 10999 10996 ] final   55.44 input  -57.11 | X-H torsion

> <Gold.Protein.ActiveResidues>
 VAL166  LYS551  ARG553  GLY616  TRP617  ASP618  TYR619  PRO620  LYS621  CYS622 
 ASP623  PHE694  ASN695  SER759  ASP760  ASP761  ALA762  ILE779  LEU786  VAL792 
 PHE793  MET794  SER795  GLU796  ALA797  LYS798  CYS799  TRP800  GLU811  SER814 

> <Gold.Protein.RotatedAtoms>
  152.5344  134.0095  159.7931 H   0  0  0  0  0  0  0  0  0  0  0  0  # atno 6907 bound_to 6896
  151.0300  133.5791  159.2669 H   0  0  0  0  0  0  0  0  0  0  0  0  # atno 6908 bound_to 6896
  151.2799  135.0718  159.9219 H   0  0  0  0  0  0  0  0  0  0  0  0  # atno 6909 bound_to 6896
  144.8327  139.6475  143.6051 H   0  0  0  0  0  0  0  0  0  0  0  0  # atno 7974 bound_to 7965
  155.1473  140.0403  157.2813 H   0  0  0  0  0  0  0  0  0  0  0  0  # atno 8008 bound_to 7997
  154.6429  140.2551  155.7274 H   0  0  0  0  0  0  0  0  0  0  0  0  # atno 8009 bound_to 7997
  156.2541  140.2852  156.0831 H   0  0  0  0  0  0  0  0  0  0  0  0  # atno 8010 bound_to 7997
  140.4799  143.2405  151.8074 H   0  0  0  0  0  0  0  0  0  0  0  0  # atno 10167 bound_to 10162
  157.6954  131.0481  150.4048 H   0  0  0  0  0  0  0  0  0  0  0  0  # atno 10718 bound_to 10713
  153.6500  135.3364  155.3097 H   0  0  0  0  0  0  0  0  0  0  0  0  # atno 10763 bound_to 10752
  154.8540  135.4339  154.1914 H   0  0  0  0  0  0  0  0  0  0  0  0  # atno 10764 bound_to 10752
  153.2854  135.7012  153.7419 H   0  0  0  0  0  0  0  0  0  0  0  0  # atno 10765 bound_to 10752
  140.0607  134.5607  155.9156 H   0  0  0  0  0  0  0  0  0  0  0  0  # atno 11005 bound_to 11000
  146.2629  139.6451  142.9350 LP  0  0  0  0  0  0  0  0  0  0  0  0  # atno 17320 bound_to 7965
  145.4861  141.0438  143.2619 LP  0  0  0  0  0  0  0  0  0  0  0  0  # atno 17321 bound_to 7965
  139.4832  144.4785  151.9336 LP  0  0  0  0  0  0  0  0  0  0  0  0  # atno 17342 bound_to 10162
  140.3871  144.2663  150.5903 LP  0  0  0  0  0  0  0  0  0  0  0  0  # atno 17343 bound_to 10162
  156.4438  130.3997  149.6680 LP  0  0  0  0  0  0  0  0  0  0  0  0  # atno 17370 bound_to 10713
  156.3854  130.7600  151.2596 LP  0  0  0  0  0  0  0  0  0  0  0  0  # atno 17371 bound_to 10713
  141.1971  133.6595  156.5727 LP  0  0  0  0  0  0  0  0  0  0  0  0  # atno 17394 bound_to 11000
  140.3775  134.7552  157.4639 LP  0  0  0  0  0  0  0  0  0  0  0  0  # atno 17395 bound_to 11000

$$$$
