AV-unprocessed.smi:1766|AV-procd|sdf|7135|dock3
  -GOLD-   22720 8373D 1   1.00000     0.00000
 Structure written by MMmdl.
 39 41  0  0  0  0  0  0  0  0  1 V2000
  153.7846  138.0199  156.0437 N   0  0  0  0  0  0  0  0  0  0  0  0
  152.5830  138.0295  155.4595 C   0  0  0  0  0  0  0  0  0  0  0  0
  151.9825  136.9945  155.1783 O   0  0  0  0  0  0  0  0  0  0  0  0
  151.9591  139.3958  155.1591 C   0  0  0  0  0  0  0  0  0  0  0  0
  152.0127  140.2368  156.4043 C   0  0  0  0  0  0  0  0  0  0  0  0
  152.7370  139.8710  157.4644 N   0  0  0  0  0  0  0  0  0  0  0  0
  152.5038  140.8932  158.3628 C   0  0  0  0  0  0  0  0  0  0  0  0
  152.9895  141.0917  159.6753 C   0  0  0  0  0  0  0  0  0  0  0  0
  152.6054  142.2302  160.4138 C   0  0  0  0  0  0  0  0  0  0  0  0
  151.7326  143.1845  159.8518 C   0  0  0  0  0  0  0  0  0  0  0  0
  151.2376  143.0057  158.5457 C   0  0  0  0  0  0  0  0  0  0  0  0
  151.6243  141.8677  157.8130 C   0  0  0  0  0  0  0  0  0  0  0  0
  151.3245  141.4010  156.5373 N   0  0  0  0  0  0  0  0  0  0  0  0
  150.4475  142.0594  155.5774 C   0  0  0  0  0  0  0  0  0  0  0  0
  149.4343  141.0896  154.9373 C   0  0  2  0  0  0  0  0  0  0  0  0
  149.7591  140.8749  153.5773 O   0  0  0  0  0  0  0  0  0  0  0  0
  148.0080  141.5865  155.1124 C   0  0  0  0  0  0  0  0  0  0  0  0
  147.2407  141.9454  153.9834 C   0  0  0  0  0  0  0  0  0  0  0  0
  145.9173  142.4018  154.1401 C   0  0  0  0  0  0  0  0  0  0  0  0
  145.3525  142.4989  155.4262 C   0  0  0  0  0  0  0  0  0  0  0  0
  144.0804  142.9381  155.5762 F   0  0  0  0  0  0  0  0  0  0  0  0
  146.1112  142.1374  156.5559 C   0  0  0  0  0  0  0  0  0  0  0  0
  147.4348  141.6816  156.3999 C   0  0  0  0  0  0  0  0  0  0  0  0
  154.2354  137.1403  156.2498 H   0  0  0  0  0  0  0  0  0  0  0  0
  154.2422  138.8917  156.2682 H   0  0  0  0  0  0  0  0  0  0  0  0
  152.4787  139.8858  154.3357 H   0  0  0  0  0  0  0  0  0  0  0  0
  150.9213  139.2710  154.8463 H   0  0  0  0  0  0  0  0  0  0  0  0
  153.6580  140.3664  160.1146 H   0  0  0  0  0  0  0  0  0  0  0  0
  152.9821  142.3715  161.4161 H   0  0  0  0  0  0  0  0  0  0  0  0
  151.4431  144.0536  160.4243 H   0  0  0  0  0  0  0  0  0  0  0  0
  150.5681  143.7339  158.1122 H   0  0  0  0  0  0  0  0  0  0  0  0
  149.9160  142.8548  156.1013 H   0  0  0  0  0  0  0  0  0  0  0  0
  151.0428  142.5550  154.8121 H   0  0  0  0  0  0  0  0  0  0  0  0
  149.5205  140.1207  155.4310 H   0  0  0  0  0  0  0  0  0  0  0  0
  149.2360  140.1573  153.2541 H   0  0  0  0  0  0  0  0  0  0  0  0
  147.6632  141.8718  152.9919 H   0  0  0  0  0  0  0  0  0  0  0  0
  145.3348  142.6765  153.2731 H   0  0  0  0  0  0  0  0  0  0  0  0
  145.6779  142.2083  157.5426 H   0  0  0  0  0  0  0  0  0  0  0  0
  148.0089  141.4030  157.2717 H   0  0  0  0  0  0  0  0  0  0  0  0
  1  2  1  0  0  0  0
  1 24  1  0  0  0  0
  1 25  1  0  0  0  0
  2  3  2  0  0  0  0
  2  4  1  0  0  0  0
  4  5  1  0  0  0  0
  4 26  1  0  0  0  0
  4 27  1  0  0  0  0
  5 13  1  0  0  0  0
  5  6  2  0  0  0  0
  6  7  1  0  0  0  0
  7 12  2  0  0  0  0
  7  8  1  0  0  0  0
  8  9  2  0  0  0  0
  8 28  1  0  0  0  0
  9 10  1  0  0  0  0
  9 29  1  0  0  0  0
 10 11  2  0  0  0  0
 10 30  1  0  0  0  0
 11 12  1  0  0  0  0
 11 31  1  0  0  0  0
 12 13  1  0  0  0  0
 13 14  1  0  0  0  0
 14 15  1  0  0  0  0
 14 32  1  0  0  0  0
 14 33  1  0  0  0  0
 15 16  1  0  0  0  0
 15 17  1  0  0  0  0
 15 34  1  0  0  0  0
 16 35  1  0  0  0  0
 17 23  1  0  0  0  0
 17 18  2  0  0  0  0
 18 19  1  0  0  0  0
 18 36  1  0  0  0  0
 19 20  2  0  0  0  0
 19 37  1  0  0  0  0
 20 21  1  0  0  0  0
 20 22  1  0  0  0  0
 22 23  2  0  0  0  0
 22 38  1  0  0  0  0
 23 39  1  0  0  0  0
M  END
> <s_m_source_file>
AV-unprocessed.smi

> <i_m_source_file_index>
1766

> <i_lp_mmshare_version>
43012

> <i_f3d_flags>
0

> <s_epik_input>
W2NIXTFbY0hdW2NIXVtjSF1jKGMxMiluKGMobjIpW0NIMl1DKD1PKVtOSDJdKVtDSDJdW0NASF0oW09IXSljM1tjSF1bY0hdYyhGKVtjSF1bY0hdMw==

> <s_epik_cmdline>
J2VwaWtfcHl0aG9uJywgJy1waCcsICc3LjAnLCAnLXRuJywgJzgnLCAnLW1hJywgJzIwMCcsICctbWV0YWxfYmluZGluZycsICctaW1hZScsICc8aW5maWxlLm1hZT4nLCAnLW9tYWUnLCAnPG91dGZpbGUubWFlPic=

> <r_epik_Ionization_Penalty>
0.0366901

> <r_epik_Ionization_Penalty_Charging>
0

> <r_epik_Ionization_Penalty_Neutral>
0.0366901

> <r_epik_State_Penalty>
0.0306642

> <r_epik_Charging_Adjusted_Penalty>
0.0306642

> <i_epik_Tot_Q>
0

> <i_epik_Tot_abs_Q>
0

> <r_epik_Metal_State_Penalty>
0.028853

> <b_epik_Metal_Only>
0

> <s_lp_Force_Field>
OPLS_2005

> <r_lp_Energy>
12.4574

> <b_lp_Chiralities_Consistent>
1

> <s_lp_Variant>
AV-unprocessed.smi:1766-1

> <Gold.Version>
5.8.1

> <Gold.Id.Protein>
6NUR|6NUR_protein|mol2

> <Gold.PLP.Fitness>
54.7643

> <Gold.PLP.PLP>
-46.7595

> <Gold.PLP.part.hbond>
-4.9802

> <Gold.PLP.part.metal>
0.0000

> <Gold.PLP.part.buried>
-3.6215

> <Gold.PLP.part.nonpolar>
-37.4964

> <Gold.PLP.part.repulsive>
0.2738

> <Gold.PLP.ligand.clash>
0.0000

> <Gold.PLP.ligand.torsion>
1.1741

> <Gold.PLP.Chemscore.Hbond>
3.4127

> <Gold.PLP.Chemscore.CHOScore>
0.0000

> <Gold.PLP.Chemscore.Metal>
0.0000

> <Gold.Chemscore.Hbonds>
donor molecule, donor type, donor heavy atom, donor atom, acceptor molecule, acceptor atom, score
      L1  H    16    35       P1  7957  0.10
      P1  H  7989  7998       L1    16  0.35
      P1  H  7997  8010       L1     6  1.00
      P1  H  8011  8017       L1    16  1.00
      P1  H 10752 10763       L1     3  0.88

> <Gold.PLP.Chemscore.Internal.Correction>
0.1148

> <Gold.Rescore>
     Score         DG    S(hbond)    S(metal)    S(lipo)     H(rot)  DE(clash)    DE(int)     intcor
     11.70     -16.44       1.96        0.00     103.10       2.99       2.42       2.31       ----

> <Gold.Chemscore.Fitness>
11.7042

> <Gold.Chemscore.DG>
-16.4380

> <Gold.Chemscore.ZeroCoef>
-5.4800

> <Gold.Chemscore.Hbond>
1.9584

> <Gold.Chemscore.Metal>
0.0000

> <Gold.Chemscore.Lipo>
103.0955

> <Gold.Chemscore.Internal_Hbond>
0.0000

> <Gold.Chemscore.DEClash>
2.4208

> <Gold.Chemscore.DEInternal>
2.3130

> <Gold.Chemscore.Rot>
2.9864

> <Gold.Chemscore.Internal.Correction>
   9.000000E+99

> <Gold.Chemscore.Hbonds>
donor molecule, donor type, donor heavy atom, donor atom, acceptor molecule, acceptor atom, score
      L1  H    16    35       P1  7957  0.10
      P1  H  7989  7998       L1    16  0.20
      P1  H  7997  8010       L1     6  0.26
      P1  H  8011  8017       L1    16  0.79
      P1  H 10752 10763       L1     3  0.78

> <Gold.Chemscore.Hbond.Weighted>
-6.5410

> <Gold.Chemscore.Metal.Weighted>
-0.0000

> <Gold.Chemscore.Lipo.Weighted>
-12.0622

> <Gold.Chemscore.Internal_Hbond.Weighted>
0.0000

> <Gold.Chemscore.DEClash.Weighted>
2.4208

> <Gold.Chemscore.DEInternal.Weighted>
2.3130

> <Gold.Chemscore.Rot.Weighted>
7.6451

> <Gold.Chemscore.Internal.Correction.Weighted>
   9.000000E+99

> <Gold.Protein.RotatedTorsions>
[ 6907 6896 6895 6894 ] final -134.25 input  -60.11 | X-H torsion
[ 7974 7965 7964 7962 ] final  111.81 input  175.53 | X-H torsion
[ 8008 7997 7996 7995 ] final   38.54 input   59.86 | X-H torsion
[ 10167 10162 10161 10158 ] final    8.62 input  -65.29 | X-H torsion
[ 10718 10713 10712 10709 ] final   61.56 input   66.30 | X-H torsion
[ 10763 10752 10751 10750 ] final   77.99 input  -60.55 | X-H torsion
[ 11005 11000 10999 10996 ] final   86.12 input  -57.11 | X-H torsion

> <Gold.Protein.ActiveResidues>
 VAL166  LYS551  ARG553  GLY616  TRP617  ASP618  TYR619  PRO620  LYS621  CYS622 
 ASP623  PHE694  ASN695  SER759  ASP760  ASP761  ALA762  ILE779  LEU786  VAL792 
 PHE793  MET794  SER795  GLU796  ALA797  LYS798  CYS799  TRP800  GLU811  SER814 

> <Gold.Protein.RotatedAtoms>
  150.9837  133.6220  159.2718 H   0  0  0  0  0  0  0  0  0  0  0  0  # atno 6907 bound_to 6896
  151.3465  135.0874  159.9398 H   0  0  0  0  0  0  0  0  0  0  0  0  # atno 6908 bound_to 6896
  152.5224  133.9438  159.7693 H   0  0  0  0  0  0  0  0  0  0  0  0  # atno 6909 bound_to 6896
  145.2375  139.2793  143.4135 H   0  0  0  0  0  0  0  0  0  0  0  0  # atno 7974 bound_to 7965
  155.2219  140.3331  155.4314 H   0  0  0  0  0  0  0  0  0  0  0  0  # atno 8008 bound_to 7997
  156.2330  140.1859  156.7241 H   0  0  0  0  0  0  0  0  0  0  0  0  # atno 8009 bound_to 7997
  154.6010  140.0623  156.9353 H   0  0  0  0  0  0  0  0  0  0  0  0  # atno 8010 bound_to 7997
  140.6303  143.8008  150.7287 H   0  0  0  0  0  0  0  0  0  0  0  0  # atno 10167 bound_to 10162
  157.5837  130.9001  149.9477 H   0  0  0  0  0  0  0  0  0  0  0  0  # atno 10718 bound_to 10713
  153.0840  135.4893  154.8560 H   0  0  0  0  0  0  0  0  0  0  0  0  # atno 10763 bound_to 10752
  154.7187  135.3035  154.9084 H   0  0  0  0  0  0  0  0  0  0  0  0  # atno 10764 bound_to 10752
  153.9755  135.6796  153.4801 H   0  0  0  0  0  0  0  0  0  0  0  0  # atno 10765 bound_to 10752
  139.8953  134.8333  156.2676 H   0  0  0  0  0  0  0  0  0  0  0  0  # atno 11005 bound_to 11000
  146.3337  140.2728  142.8606 LP  0  0  0  0  0  0  0  0  0  0  0  0  # atno 17320 bound_to 7965
  144.9619  140.8284  143.5508 LP  0  0  0  0  0  0  0  0  0  0  0  0  # atno 17321 bound_to 7965
  140.1618  143.4269  152.2062 LP  0  0  0  0  0  0  0  0  0  0  0  0  # atno 17342 bound_to 10162
  139.5518  144.7343  151.4412 LP  0  0  0  0  0  0  0  0  0  0  0  0  # atno 17343 bound_to 10162
  156.0884  130.3665  150.0442 LP  0  0  0  0  0  0  0  0  0  0  0  0  # atno 17370 bound_to 10713
  156.8577  130.9481  151.3620 LP  0  0  0  0  0  0  0  0  0  0  0  0  # atno 17371 bound_to 10713
  141.0121  133.7089  156.1129 LP  0  0  0  0  0  0  0  0  0  0  0  0  # atno 17394 bound_to 11000
  140.7352  134.4211  157.5561 LP  0  0  0  0  0  0  0  0  0  0  0  0  # atno 17395 bound_to 11000

$$$$
