AV-unprocessed.smi:3172|AV-procd|sdf|12115|dock9
  -GOLD-   2272017553D 1   1.00000     0.00000
 Structure written by MMmdl.
 43 44  0  0  0  0  0  0  0  0  2 V2000
  152.8002  143.4559  162.1929 C   0  0  0  0  0  0  0  0  0  0  0  0
  152.5949  143.0114  160.7780 C   0  0  0  0  0  0  0  0  0  0  0  0
  153.0916  141.7920  160.3254 N   0  0  0  0  0  0  0  0  0  0  0  0
  152.7188  141.7503  159.0549 C   0  0  0  0  0  0  0  0  0  0  0  0
  152.0416  142.8290  158.6371 N   0  0  0  0  0  0  0  0  0  0  0  0
  151.5408  143.0648  157.2920 C   0  0  0  0  0  0  0  0  0  0  0  0
  150.6858  141.8895  156.7819 C   0  0  2  0  0  0  0  0  0  0  0  0
  151.5571  140.6844  156.4013 C   0  0  0  0  0  0  0  0  0  0  0  0
  149.8696  142.3157  155.6213 N   0  3  0  0  0  0  0  0  0  0  0  0
  148.7785  141.3955  155.2339 C   0  0  0  0  0  0  0  0  0  0  0  0
  149.3460  140.2405  154.3875 C   0  0  0  0  0  0  0  0  0  0  0  0
  148.2366  139.2799  153.9293 C   0  0  0  0  0  0  0  0  0  0  0  0
  147.1405  140.0272  153.1541 C   0  0  0  0  0  0  0  0  0  0  0  0
  146.5685  141.1867  153.9837 C   0  0  0  0  0  0  0  0  0  0  0  0
  147.6789  142.1429  154.4473 C   0  0  0  0  0  0  0  0  0  0  0  0
  151.9385  143.6590  159.7525 C   0  0  0  0  0  0  0  0  0  0  0  0
  151.2419  144.9822  159.7449 C   0  0  0  0  0  0  0  0  0  0  0  0
  151.9146  143.2597  162.7973 H   0  0  0  0  0  0  0  0  0  0  0  0
  153.0065  144.5250  162.2453 H   0  0  0  0  0  0  0  0  0  0  0  0
  153.6397  142.9377  162.6572 H   0  0  0  0  0  0  0  0  0  0  0  0
  152.9571  140.9189  158.4076 H   0  0  0  0  0  0  0  0  0  0  0  0
  150.9615  143.9896  157.2891 H   0  0  0  0  0  0  0  0  0  0  0  0
  152.3923  143.2334  156.6323 H   0  0  0  0  0  0  0  0  0  0  0  0
  150.0285  141.5785  157.5933 H   0  0  0  0  0  0  0  0  0  0  0  0
  152.1484  140.3450  157.2522 H   0  0  0  0  0  0  0  0  0  0  0  0
  152.2481  140.9324  155.5949 H   0  0  0  0  0  0  0  0  0  0  0  0
  150.9474  139.8430  156.0707 H   0  0  0  0  0  0  0  0  0  0  0  0
  149.4475  143.2079  155.8366 H   0  0  0  0  0  0  0  0  0  0  0  0
  148.3478  140.9681  156.1409 H   0  0  0  0  0  0  0  0  0  0  0  0
  149.8617  140.6397  153.5129 H   0  0  0  0  0  0  0  0  0  0  0  0
  150.0917  139.6882  154.9607 H   0  0  0  0  0  0  0  0  0  0  0  0
  148.6605  138.4921  153.3057 H   0  0  0  0  0  0  0  0  0  0  0  0
  147.7984  138.7851  154.7971 H   0  0  0  0  0  0  0  0  0  0  0  0
  147.5514  140.4133  152.2204 H   0  0  0  0  0  0  0  0  0  0  0  0
  146.3424  139.3375  152.8786 H   0  0  0  0  0  0  0  0  0  0  0  0
  145.8292  141.7329  153.3967 H   0  0  0  0  0  0  0  0  0  0  0  0
  146.0414  140.7901  154.8523 H   0  0  0  0  0  0  0  0  0  0  0  0
  147.2368  142.9336  155.0532 H   0  0  0  0  0  0  0  0  0  0  0  0
  148.1179  142.6358  153.5784 H   0  0  0  0  0  0  0  0  0  0  0  0
  151.0205  145.3122  160.7598 H   0  0  0  0  0  0  0  0  0  0  0  0
  150.2969  144.9305  159.2046 H   0  0  0  0  0  0  0  0  0  0  0  0
  151.8623  145.7452  159.2756 H   0  0  0  0  0  0  0  0  0  0  0  0
  150.4905  142.4391  154.8342 H   0  0  0  0  0  0  0  0  0  0  0  0
  1  2  1  0  0  0  0
  1 18  1  0  0  0  0
  1 19  1  0  0  0  0
  1 20  1  0  0  0  0
  2 16  2  0  0  0  0
  2  3  1  0  0  0  0
  3  4  2  0  0  0  0
  4  5  1  0  0  0  0
  4 21  1  0  0  0  0
  5  6  1  0  0  0  0
  5 16  1  0  0  0  0
  6  7  1  0  0  0  0
  6 22  1  0  0  0  0
  6 23  1  0  0  0  0
  7  8  1  0  0  0  0
  7  9  1  0  0  0  0
  7 24  1  0  0  0  0
  8 25  1  0  0  0  0
  8 26  1  0  0  0  0
  8 27  1  0  0  0  0
  9 10  1  0  0  0  0
  9 28  1  0  0  0  0
  9 43  1  0  0  0  0
 10 15  1  0  0  0  0
 10 11  1  0  0  0  0
 10 29  1  0  0  0  0
 11 12  1  0  0  0  0
 11 30  1  0  0  0  0
 11 31  1  0  0  0  0
 12 13  1  0  0  0  0
 12 32  1  0  0  0  0
 12 33  1  0  0  0  0
 13 14  1  0  0  0  0
 13 34  1  0  0  0  0
 13 35  1  0  0  0  0
 14 15  1  0  0  0  0
 14 36  1  0  0  0  0
 14 37  1  0  0  0  0
 15 38  1  0  0  0  0
 15 39  1  0  0  0  0
 16 17  1  0  0  0  0
 17 40  1  0  0  0  0
 17 41  1  0  0  0  0
 17 42  1  0  0  0  0
M  CHG  1   9   1
M  END
> <s_m_source_file>
AV-unprocessed.smi

> <i_m_source_file_index>
3172

> <i_lp_mmshare_version>
43012

> <i_f3d_flags>
0

> <s_epik_input>
W0NIM11jMW5bY0hdbihjMVtDSDNdKVtDSDJdW0NASF0oW0NIM10pW05IXVtDSF0yW0NIMl1bQ0gyXVtDSDJdW0NIMl1bQ0gyXTI=

> <s_epik_cmdline>
J2VwaWtfcHl0aG9uJywgJy1waCcsICc3LjAnLCAnLXRuJywgJzgnLCAnLW1hJywgJzIwMCcsICctbWV0YWxfYmluZGluZycsICctaW1hZScsICc8aW5maWxlLm1hZT4nLCAnLW9tYWUnLCAnPG91dGZpbGUubWFlPic=

> <r_lp_tautomer_probability>
1

> <r_epik_Ionization_Penalty>
0.328572

> <r_epik_Ionization_Penalty_Charging>
0.328572

> <r_epik_Ionization_Penalty_Neutral>
3.58496e-13

> <r_epik_State_Penalty>
0.596179

> <r_epik_Charging_Adjusted_Penalty>
0.924751

> <i_epik_Tot_Q>
1

> <i_epik_Tot_abs_Q>
1

> <r_epik_Metal_State_Penalty>
0.00102252

> <b_epik_Metal_Only>
0

> <s_lp_Force_Field>
OPLS_2005

> <r_lp_Energy>
15.8324

> <b_lp_Chiralities_Consistent>
1

> <s_lp_Variant>
AV-unprocessed.smi:3172-3

> <Gold.Version>
5.8.1

> <Gold.Id.Protein>
6NUR|6NUR_protein|mol2

> <Gold.PLP.Fitness>
47.3269

> <Gold.PLP.PLP>
-42.2407

> <Gold.PLP.part.hbond>
-1.0000

> <Gold.PLP.part.metal>
0.0000

> <Gold.PLP.part.buried>
-3.7869

> <Gold.PLP.part.nonpolar>
-37.1495

> <Gold.PLP.part.repulsive>
0.1723

> <Gold.PLP.ligand.clash>
0.0000

> <Gold.PLP.ligand.torsion>
0.4724

> <Gold.PLP.Chemscore.Hbond>
2.0000

> <Gold.PLP.Chemscore.CHOScore>
0.0000

> <Gold.PLP.Chemscore.Metal>
0.0000

> <Gold.Chemscore.Hbonds>
donor molecule, donor type, donor heavy atom, donor atom, acceptor molecule, acceptor atom, score
      L1  H     9    28       P1  8028  2.00

> <Gold.PLP.Chemscore.Internal.Correction>
0.0311

> <Gold.Rescore>
     Score         DG    S(hbond)    S(metal)    S(lipo)     H(rot)  DE(clash)    DE(int)     intcor
     17.10     -17.77       1.00        0.00     109.46       1.50       0.08       0.59       ----

> <Gold.Chemscore.Fitness>
17.0985

> <Gold.Chemscore.DG>
-17.7714

> <Gold.Chemscore.ZeroCoef>
-5.4800

> <Gold.Chemscore.Hbond>
0.9951

> <Gold.Chemscore.Metal>
0.0000

> <Gold.Chemscore.Lipo>
109.4642

> <Gold.Chemscore.Internal_Hbond>
0.0000

> <Gold.Chemscore.DEClash>
0.0783

> <Gold.Chemscore.DEInternal>
0.5946

> <Gold.Chemscore.Rot>
1.4999

> <Gold.Chemscore.Internal.Correction>
   9.000000E+99

> <Gold.Chemscore.Hbonds>
donor molecule, donor type, donor heavy atom, donor atom, acceptor molecule, acceptor atom, score
      L1  H     9    28       P1  8028  0.99

> <Gold.Chemscore.Hbond.Weighted>
-3.3238

> <Gold.Chemscore.Metal.Weighted>
-0.0000

> <Gold.Chemscore.Lipo.Weighted>
-12.8073

> <Gold.Chemscore.Internal_Hbond.Weighted>
0.0000

> <Gold.Chemscore.DEClash.Weighted>
0.0783

> <Gold.Chemscore.DEInternal.Weighted>
0.5946

> <Gold.Chemscore.Rot.Weighted>
3.8397

> <Gold.Chemscore.Internal.Correction.Weighted>
   9.000000E+99

> <Gold.Protein.RotatedTorsions>
[ 6907 6896 6895 6894 ] final -177.83 input  -60.11 | X-H torsion
[ 7974 7965 7964 7962 ] final   55.79 input  175.53 | X-H torsion
[ 8008 7997 7996 7995 ] final   68.35 input   59.86 | X-H torsion
[ 10167 10162 10161 10158 ] final -107.94 input  -65.29 | X-H torsion
[ 10718 10713 10712 10709 ] final  155.10 input   66.30 | X-H torsion
[ 10763 10752 10751 10750 ] final   45.56 input  -60.55 | X-H torsion
[ 11005 11000 10999 10996 ] final  149.94 input  -57.11 | X-H torsion

> <Gold.Protein.ActiveResidues>
 VAL166  LYS551  ARG553  GLY616  TRP617  ASP618  TYR619  PRO620  LYS621  CYS622 
 ASP623  PHE694  ASN695  SER759  ASP760  ASP761  ALA762  ILE779  LEU786  VAL792 
 PHE793  MET794  SER795  GLU796  ALA797  LYS798  CYS799  TRP800  GLU811  SER814 

> <Gold.Protein.RotatedAtoms>
  151.6274  133.3334  159.3101 H   0  0  0  0  0  0  0  0  0  0  0  0  # atno 6907 bound_to 6896
  150.8074  134.7211  159.6668 H   0  0  0  0  0  0  0  0  0  0  0  0  # atno 6908 bound_to 6896
  152.4170  134.6029  160.0056 H   0  0  0  0  0  0  0  0  0  0  0  0  # atno 6909 bound_to 6896
  145.9466  139.3935  143.0331 H   0  0  0  0  0  0  0  0  0  0  0  0  # atno 7974 bound_to 7965
  155.7069  140.3495  155.4957 H   0  0  0  0  0  0  0  0  0  0  0  0  # atno 8008 bound_to 7997
  155.9390  140.1098  157.1093 H   0  0  0  0  0  0  0  0  0  0  0  0  # atno 8009 bound_to 7997
  154.4099  140.1216  156.4889 H   0  0  0  0  0  0  0  0  0  0  0  0  # atno 8010 bound_to 7997
  140.1716  143.4038  152.1350 H   0  0  0  0  0  0  0  0  0  0  0  0  # atno 10167 bound_to 10162
  157.2229  131.0722  151.1901 H   0  0  0  0  0  0  0  0  0  0  0  0  # atno 10718 bound_to 10713
  152.9823  135.6035  154.3457 H   0  0  0  0  0  0  0  0  0  0  0  0  # atno 10763 bound_to 10752
  154.3150  135.2770  155.2549 H   0  0  0  0  0  0  0  0  0  0  0  0  # atno 10764 bound_to 10752
  154.4741  135.5934  153.6398 H   0  0  0  0  0  0  0  0  0  0  0  0  # atno 10765 bound_to 10752
  140.1088  134.8937  157.1906 H   0  0  0  0  0  0  0  0  0  0  0  0  # atno 11005 bound_to 11000
  145.8227  140.9671  143.0890 LP  0  0  0  0  0  0  0  0  0  0  0  0  # atno 17320 bound_to 7965
  144.6788  140.0062  143.7484 LP  0  0  0  0  0  0  0  0  0  0  0  0  # atno 17321 bound_to 7965
  139.5335  144.7185  151.4972 LP  0  0  0  0  0  0  0  0  0  0  0  0  # atno 17342 bound_to 10162
  140.6578  143.8562  150.6854 LP  0  0  0  0  0  0  0  0  0  0  0  0  # atno 17343 bound_to 10162
  157.3557  130.7105  149.6469 LP  0  0  0  0  0  0  0  0  0  0  0  0  # atno 17370 bound_to 10713
  155.9681  130.4240  150.4586 LP  0  0  0  0  0  0  0  0  0  0  0  0  # atno 17371 bound_to 10713
  140.3119  134.3014  155.7265 LP  0  0  0  0  0  0  0  0  0  0  0  0  # atno 17394 bound_to 11000
  141.2125  133.7655  156.9788 LP  0  0  0  0  0  0  0  0  0  0  0  0  # atno 17395 bound_to 11000

$$$$
