AV-unprocessed.smi:3219|AV-procd|sdf|12296|dock2
  -GOLD-   2272018133D 1   1.00000     0.00000
 Structure written by MMmdl.
 41 42  0  0  0  0  0  0  0  0  2 V2000
  146.9849  141.7504  154.6291 C   0  0  0  0  0  0  0  0  0  0  0  0
  148.0638  140.7474  154.3734 C   0  0  0  0  0  0  0  0  0  0  0  0
  148.0022  139.4654  153.8945 C   0  0  0  0  0  0  0  0  0  0  0  0
  146.8009  138.6643  153.4630 C   0  0  0  0  0  0  0  0  0  0  0  0
  146.6455  138.6414  151.9349 C   0  0  0  0  0  0  0  0  0  0  0  0
  146.6622  137.2599  151.4146 N   0  3  0  0  0  0  0  0  0  0  0  0
  145.4989  136.4441  151.8117 C   0  0  0  0  0  0  0  0  0  0  0  0
  145.5836  135.0262  151.2187 C   0  0  1  0  0  0  0  0  0  0  0  0
  146.6026  134.1428  151.9779 C   0  0  0  0  0  0  0  0  0  0  0  0
  146.4981  132.6748  151.6046 C   0  0  0  0  0  0  0  0  0  0  0  0
  145.4516  132.1517  150.9442 C   0  0  0  0  0  0  0  0  0  0  0  0
  144.2521  132.9693  150.5032 C   0  0  0  0  0  0  0  0  0  0  0  0
  144.2012  134.3462  151.1911 C   0  0  0  0  0  0  0  0  0  0  0  0
  149.3624  139.0452  153.8821 C   0  0  0  0  0  0  0  0  0  0  0  0
  150.1923  139.9808  154.3060 N   0  0  0  0  0  0  0  0  0  0  0  0
  149.3965  141.0261  154.6107 N   0  0  0  0  0  0  0  0  0  0  0  0
  149.9906  142.2482  155.1172 C   0  0  0  0  0  0  0  0  0  0  0  0
  146.0251  141.4093  154.2421 H   0  0  0  0  0  0  0  0  0  0  0  0
  147.2159  142.7021  154.1499 H   0  0  0  0  0  0  0  0  0  0  0  0
  146.8702  141.9288  155.6983 H   0  0  0  0  0  0  0  0  0  0  0  0
  146.8853  137.6376  153.8206 H   0  0  0  0  0  0  0  0  0  0  0  0
  145.8877  139.0526  153.9152 H   0  0  0  0  0  0  0  0  0  0  0  0
  145.7100  139.1261  151.6513 H   0  0  0  0  0  0  0  0  0  0  0  0
  147.4536  139.2071  151.4697 H   0  0  0  0  0  0  0  0  0  0  0  0
  146.7077  137.2923  150.4062 H   0  0  0  0  0  0  0  0  0  0  0  0
  145.4395  136.3951  152.9001 H   0  0  0  0  0  0  0  0  0  0  0  0
  144.5927  136.9420  151.4640 H   0  0  0  0  0  0  0  0  0  0  0  0
  145.9169  135.1143  150.1831 H   0  0  0  0  0  0  0  0  0  0  0  0
  147.6190  134.4819  151.7744 H   0  0  0  0  0  0  0  0  0  0  0  0
  146.4521  134.2222  153.0553 H   0  0  0  0  0  0  0  0  0  0  0  0
  147.3148  132.0355  151.9070 H   0  0  0  0  0  0  0  0  0  0  0  0
  145.4432  131.1005  150.6958 H   0  0  0  0  0  0  0  0  0  0  0  0
  144.3042  133.0890  149.4205 H   0  0  0  0  0  0  0  0  0  0  0  0
  143.3389  132.4133  150.7175 H   0  0  0  0  0  0  0  0  0  0  0  0
  143.8402  134.2254  152.2137 H   0  0  0  0  0  0  0  0  0  0  0  0
  143.4724  134.9780  150.6819 H   0  0  0  0  0  0  0  0  0  0  0  0
  149.7686  138.0935  153.5723 H   0  0  0  0  0  0  0  0  0  0  0  0
  149.5486  142.4986  156.0818 H   0  0  0  0  0  0  0  0  0  0  0  0
  149.8047  143.0631  154.4172 H   0  0  0  0  0  0  0  0  0  0  0  0
  151.0680  142.1305  155.2432 H   0  0  0  0  0  0  0  0  0  0  0  0
  147.4962  136.8065  151.7604 H   0  0  0  0  0  0  0  0  0  0  0  0
  1  2  1  0  0  0  0
  1 18  1  0  0  0  0
  1 19  1  0  0  0  0
  1 20  1  0  0  0  0
  2 16  1  0  0  0  0
  2  3  2  0  0  0  0
  3  4  1  0  0  0  0
  3 14  1  0  0  0  0
  4  5  1  0  0  0  0
  4 21  1  0  0  0  0
  4 22  1  0  0  0  0
  5  6  1  0  0  0  0
  5 23  1  0  0  0  0
  5 24  1  0  0  0  0
  6  7  1  0  0  0  0
  6 25  1  0  0  0  0
  6 41  1  0  0  0  0
  7  8  1  0  0  0  0
  7 26  1  0  0  0  0
  7 27  1  0  0  0  0
  8 13  1  0  0  0  0
  8  9  1  0  0  0  0
  8 28  1  0  0  0  0
  9 10  1  0  0  0  0
  9 29  1  0  0  0  0
  9 30  1  0  0  0  0
 10 11  2  0  0  0  0
 10 31  1  0  0  0  0
 11 12  1  0  0  0  0
 11 32  1  0  0  0  0
 12 13  1  0  0  0  0
 12 33  1  0  0  0  0
 12 34  1  0  0  0  0
 13 35  1  0  0  0  0
 13 36  1  0  0  0  0
 14 15  2  0  0  0  0
 14 37  1  0  0  0  0
 15 16  1  0  0  0  0
 16 17  1  0  0  0  0
 17 38  1  0  0  0  0
 17 39  1  0  0  0  0
 17 40  1  0  0  0  0
M  CHG  1   6   1
M  END
> <s_m_source_file>
AV-unprocessed.smi

> <i_m_source_file_index>
3219

> <i_lp_mmshare_version>
43012

> <i_f3d_flags>
0

> <s_epik_input>
W0NIM11uMW5bY0hdYyhjMVtDSDNdKVtDSDJdW0NIMl1bTkhdW0NIMl1bQ0BASF0yW0NIMl1bQ0hdPVtDSF1bQ0gyXVtDSDJdMg==

> <s_epik_cmdline>
J2VwaWtfcHl0aG9uJywgJy1waCcsICc3LjAnLCAnLXRuJywgJzgnLCAnLW1hJywgJzIwMCcsICctbWV0YWxfYmluZGluZycsICctaW1hZScsICc8aW5maWxlLm1hZT4nLCAnLW9tYWUnLCAnPG91dGZpbGUubWFlPic=

> <r_lp_tautomer_probability>
1

> <r_epik_Ionization_Penalty>
0.000661401

> <r_epik_Ionization_Penalty_Charging>
0.00057791

> <r_epik_Ionization_Penalty_Neutral>
8.34914e-05

> <r_epik_State_Penalty>
-0

> <r_epik_Charging_Adjusted_Penalty>
0.00057791

> <i_epik_Tot_Q>
1

> <i_epik_Tot_abs_Q>
1

> <r_epik_Metal_State_Penalty>
-0

> <b_epik_Metal_Only>
0

> <s_lp_Force_Field>
OPLS_2005

> <r_lp_Energy>
9.67125

> <b_lp_Chiralities_Consistent>
1

> <s_lp_Variant>
AV-unprocessed.smi:3219-2

> <Gold.Version>
5.8.1

> <Gold.Id.Protein>
6NUR|6NUR_protein|mol2

> <Gold.PLP.Fitness>
44.4177

> <Gold.PLP.PLP>
-33.9432

> <Gold.PLP.part.hbond>
-2.0036

> <Gold.PLP.part.metal>
0.0000

> <Gold.PLP.part.buried>
0.0084

> <Gold.PLP.part.nonpolar>
-32.1111

> <Gold.PLP.part.repulsive>
0.2273

> <Gold.PLP.ligand.clash>
0.0000

> <Gold.PLP.ligand.torsion>
0.8136

> <Gold.PLP.Chemscore.Hbond>
3.0000

> <Gold.PLP.Chemscore.CHOScore>
1.0000

> <Gold.PLP.Chemscore.Metal>
0.0000

> <Gold.Chemscore.Hbonds>
donor molecule, donor type, donor heavy atom, donor atom, acceptor molecule, acceptor atom, score
      L1  H     6    41       P1  7948  2.00
      P1  H  7989  7998       L1    15  1.00
      L1  C    14    37       P1  7948  0.78

> <Gold.PLP.Chemscore.Internal.Correction>
0.1017

> <Gold.Rescore>
     Score         DG    S(hbond)    S(metal)    S(lipo)     H(rot)  DE(clash)    DE(int)     intcor
     16.47     -17.99       1.82        0.00      86.89       1.46       0.77       0.76       ----

> <Gold.Chemscore.Fitness>
16.4675

> <Gold.Chemscore.DG>
-17.9944

> <Gold.Chemscore.ZeroCoef>
-5.4800

> <Gold.Chemscore.Hbond>
1.8218

> <Gold.Chemscore.Metal>
0.0000

> <Gold.Chemscore.Lipo>
86.8909

> <Gold.Chemscore.Internal_Hbond>
0.0000

> <Gold.Chemscore.DEClash>
0.7695

> <Gold.Chemscore.DEInternal>
0.7573

> <Gold.Chemscore.Rot>
1.4597

> <Gold.Chemscore.Internal.Correction>
   9.000000E+99

> <Gold.Chemscore.Hbonds>
donor molecule, donor type, donor heavy atom, donor atom, acceptor molecule, acceptor atom, score
      L1  H     6    41       P1  7948  0.94
      P1  H  7989  7998       L1    15  0.25

> <Gold.Chemscore.Hbond.Weighted>
-6.0849

> <Gold.Chemscore.Metal.Weighted>
-0.0000

> <Gold.Chemscore.Lipo.Weighted>
-10.1662

> <Gold.Chemscore.Internal_Hbond.Weighted>
0.0000

> <Gold.Chemscore.DEClash.Weighted>
0.7695

> <Gold.Chemscore.DEInternal.Weighted>
0.7573

> <Gold.Chemscore.Rot.Weighted>
3.7368

> <Gold.Chemscore.Internal.Correction.Weighted>
   9.000000E+99

> <Gold.Protein.RotatedTorsions>
[ 6907 6896 6895 6894 ] final    2.84 input  -60.11 | X-H torsion
[ 7974 7965 7964 7962 ] final    1.98 input  175.53 | X-H torsion
[ 8008 7997 7996 7995 ] final   43.60 input   59.86 | X-H torsion
[ 10167 10162 10161 10158 ] final  154.30 input  -65.29 | X-H torsion
[ 10718 10713 10712 10709 ] final   -5.09 input   66.30 | X-H torsion
[ 10763 10752 10751 10750 ] final -109.92 input  -60.55 | X-H torsion
[ 11005 11000 10999 10996 ] final   18.07 input  -57.11 | X-H torsion

> <Gold.Protein.ActiveResidues>
 VAL166  LYS551  ARG553  GLY616  TRP617  ASP618  TYR619  PRO620  LYS621  CYS622 
 ASP623  PHE694  ASN695  SER759  ASP760  ASP761  ALA762  ILE779  LEU786  VAL792 
 PHE793  MET794  SER795  GLU796  ALA797  LYS798  CYS799  TRP800  GLU811  SER814 

> <Gold.Protein.RotatedAtoms>
  151.6154  135.1036  160.0089 H   0  0  0  0  0  0  0  0  0  0  0  0  # atno 6907 bound_to 6896
  152.4186  133.7075  159.6470 H   0  0  0  0  0  0  0  0  0  0  0  0  # atno 6908 bound_to 6896
  150.8074  133.8412  159.3220 H   0  0  0  0  0  0  0  0  0  0  0  0  # atno 6909 bound_to 6896
  146.2442  140.0905  142.8352 H   0  0  0  0  0  0  0  0  0  0  0  0  # atno 7974 bound_to 7965
  155.3053  140.3387  155.4246 H   0  0  0  0  0  0  0  0  0  0  0  0  # atno 8008 bound_to 7997
  156.1981  140.1722  156.7994 H   0  0  0  0  0  0  0  0  0  0  0  0  # atno 8009 bound_to 7997
  154.5525  140.0703  156.8674 H   0  0  0  0  0  0  0  0  0  0  0  0  # atno 8010 bound_to 7997
  139.4824  144.5198  151.7893 H   0  0  0  0  0  0  0  0  0  0  0  0  # atno 10167 bound_to 10162
  156.7517  130.5241  149.5803 H   0  0  0  0  0  0  0  0  0  0  0  0  # atno 10718 bound_to 10713
  154.8220  135.4583  154.0807 H   0  0  0  0  0  0  0  0  0  0  0  0  # atno 10763 bound_to 10752
  153.2152  135.6887  153.8072 H   0  0  0  0  0  0  0  0  0  0  0  0  # atno 10764 bound_to 10752
  153.7509  135.3298  155.3297 H   0  0  0  0  0  0  0  0  0  0  0  0  # atno 10765 bound_to 10752
  140.4289  134.1440  155.7679 H   0  0  0  0  0  0  0  0  0  0  0  0  # atno 11005 bound_to 11000
  145.0655  140.9118  143.4913 LP  0  0  0  0  0  0  0  0  0  0  0  0  # atno 17320 bound_to 7965
  145.1028  139.2810  143.5677 LP  0  0  0  0  0  0  0  0  0  0  0  0  # atno 17321 bound_to 7965
  140.4711  144.1585  150.5918 LP  0  0  0  0  0  0  0  0  0  0  0  0  # atno 17342 bound_to 10162
  140.4381  143.2538  151.9509 LP  0  0  0  0  0  0  0  0  0  0  0  0  # atno 17343 bound_to 10162
  156.1397  130.6236  151.0450 LP  0  0  0  0  0  0  0  0  0  0  0  0  # atno 17370 bound_to 10713
  157.6774  131.0847  150.7459 LP  0  0  0  0  0  0  0  0  0  0  0  0  # atno 17371 bound_to 10713
  141.1753  133.8525  157.1439 LP  0  0  0  0  0  0  0  0  0  0  0  0  # atno 17394 bound_to 11000
  140.0148  134.9972  157.0470 LP  0  0  0  0  0  0  0  0  0  0  0  0  # atno 17395 bound_to 11000

$$$$
