AV-unprocessed.smi:2519|AV-procd|sdf|9903|dock5
  -GOLD-   2272013543D 1   1.00000     0.00000
 Structure written by MMmdl.
 43 44  0  0  0  0  0  0  0  0  1 V2000
  145.3716  132.0840  149.2386 C   0  0  0  0  0  0  0  0  0  0  0  0
  146.2800  132.1062  150.3743 N   0  0  0  0  0  0  0  0  0  0  0  0
  146.0462  132.7609  151.5237 C   0  0  0  0  0  0  0  0  0  0  0  0
  145.0172  133.4066  151.7294 O   0  0  0  0  0  0  0  0  0  0  0  0
  147.1210  132.6574  152.5753 C   0  0  0  0  0  0  0  0  0  0  0  0
  147.4875  131.3941  153.0909 C   0  0  0  0  0  0  0  0  0  0  0  0
  148.4885  131.3299  154.0762 C   0  0  0  0  0  0  0  0  0  0  0  0
  149.0899  132.5242  154.5139 C   0  0  0  0  0  0  0  0  0  0  0  0
  148.6748  133.7518  153.9549 C   0  0  0  0  0  0  0  0  0  0  0  0
  149.3428  134.8999  154.4554 N   0  0  0  0  0  0  0  0  0  0  0  0
  149.7601  135.1415  155.7143 C   0  0  0  0  0  0  0  0  0  0  0  0
  149.6724  134.3441  156.6466 O   0  0  0  0  0  0  0  0  0  0  0  0
  150.3093  136.3573  155.8912 N   0  0  0  0  0  0  0  0  0  0  0  0
  150.8621  136.9459  157.1160 C   0  0  2  0  0  0  0  0  0  0  0  0
  149.9537  136.6149  158.3155 C   0  0  0  0  0  0  0  0  0  0  0  0
  148.6156  137.3716  158.2570 C   0  0  0  0  0  0  0  0  0  0  0  0
  148.8317  138.8874  158.1257 C   0  0  0  0  0  0  0  0  0  0  0  0
  149.7094  139.2369  156.9057 C   0  0  1  0  0  0  0  0  0  0  0  0
  149.9190  140.7581  156.7605 C   0  0  0  0  0  0  0  0  0  0  0  0
  150.6342  141.0369  155.6703 F   0  0  0  0  0  0  0  0  0  0  0  0
  148.7405  141.3749  156.6722 F   0  0  0  0  0  0  0  0  0  0  0  0
  150.5582  141.2348  157.8289 F   0  0  0  0  0  0  0  0  0  0  0  0
  151.0512  138.4744  156.9839 C   0  0  0  0  0  0  0  0  0  0  0  0
  147.7083  133.8002  153.0065 N   0  0  0  0  0  0  0  0  0  0  0  0
  145.7613  131.4226  148.4647 H   0  0  0  0  0  0  0  0  0  0  0  0
  145.2623  133.0818  148.8122 H   0  0  0  0  0  0  0  0  0  0  0  0
  144.3863  131.7205  149.5329 H   0  0  0  0  0  0  0  0  0  0  0  0
  147.1485  131.5970  150.2874 H   0  0  0  0  0  0  0  0  0  0  0  0
  147.0159  130.4860  152.7441 H   0  0  0  0  0  0  0  0  0  0  0  0
  148.7906  130.3794  154.4906 H   0  0  0  0  0  0  0  0  0  0  0  0
  149.8612  132.4928  155.2698 H   0  0  0  0  0  0  0  0  0  0  0  0
  149.4981  135.6382  153.7851 H   0  0  0  0  0  0  0  0  0  0  0  0
  150.3683  136.9397  155.0683 H   0  0  0  0  0  0  0  0  0  0  0  0
  151.8331  136.4864  157.3087 H   0  0  0  0  0  0  0  0  0  0  0  0
  149.7737  135.5405  158.3694 H   0  0  0  0  0  0  0  0  0  0  0  0
  150.4707  136.8808  159.2383 H   0  0  0  0  0  0  0  0  0  0  0  0
  148.0233  137.0124  157.4146 H   0  0  0  0  0  0  0  0  0  0  0  0
  148.0323  137.1586  159.1530 H   0  0  0  0  0  0  0  0  0  0  0  0
  147.8640  139.3833  158.0461 H   0  0  0  0  0  0  0  0  0  0  0  0
  149.2975  139.2667  159.0360 H   0  0  0  0  0  0  0  0  0  0  0  0
  149.1831  138.8990  156.0114 H   0  0  0  0  0  0  0  0  0  0  0  0
  151.6162  138.8332  157.8451 H   0  0  0  0  0  0  0  0  0  0  0  0
  151.6639  138.7059  156.1126 H   0  0  0  0  0  0  0  0  0  0  0  0
  1  2  1  0  0  0  0
  1 25  1  0  0  0  0
  1 26  1  0  0  0  0
  1 27  1  0  0  0  0
  2  3  1  0  0  0  0
  2 28  1  0  0  0  0
  3  4  2  0  0  0  0
  3  5  1  0  0  0  0
  5 24  1  0  0  0  0
  5  6  2  0  0  0  0
  6  7  1  0  0  0  0
  6 29  1  0  0  0  0
  7  8  2  0  0  0  0
  7 30  1  0  0  0  0
  8  9  1  0  0  0  0
  8 31  1  0  0  0  0
  9 10  1  0  0  0  0
  9 24  2  0  0  0  0
 10 11  1  0  0  0  0
 10 32  1  0  0  0  0
 11 12  2  0  0  0  0
 11 13  1  0  0  0  0
 13 14  1  0  0  0  0
 13 33  1  0  0  0  0
 14 23  1  0  0  0  0
 14 15  1  0  0  0  0
 14 34  1  0  0  0  0
 15 16  1  0  0  0  0
 15 35  1  0  0  0  0
 15 36  1  0  0  0  0
 16 17  1  0  0  0  0
 16 37  1  0  0  0  0
 16 38  1  0  0  0  0
 17 18  1  0  0  0  0
 17 39  1  0  0  0  0
 17 40  1  0  0  0  0
 18 19  1  0  0  0  0
 18 23  1  0  0  0  0
 18 41  1  0  0  0  0
 19 20  1  0  0  0  0
 19 21  1  0  0  0  0
 19 22  1  0  0  0  0
 23 42  1  0  0  0  0
 23 43  1  0  0  0  0
M  END
> <s_m_source_file>
AV-unprocessed.smi

> <i_m_source_file_index>
2519

> <i_lp_mmshare_version>
43012

> <i_f3d_flags>
0

> <s_epik_input>
W0NIM11bTkhdQyg9TyljMVtjSF1bY0hdW2NIXWMobjEpW05IXUMoPU8pW05IXVtDQEBIXTJbQ0gyXVtDSDJdW0NIMl1bQ0BASF0oQyhGKShGKUYpW0NIMl0y

> <s_epik_cmdline>
J2VwaWtfcHl0aG9uJywgJy1waCcsICc3LjAnLCAnLXRuJywgJzgnLCAnLW1hJywgJzIwMCcsICctbWV0YWxfYmluZGluZycsICctaW1hZScsICc8aW5maWxlLm1hZT4nLCAnLW9tYWUnLCAnPG91dGZpbGUubWFlPic=

> <r_lp_tautomer_probability>
1

> <r_epik_Ionization_Penalty>
3.74915e-05

> <r_epik_Ionization_Penalty_Charging>
0

> <r_epik_Ionization_Penalty_Neutral>
3.74915e-05

> <r_epik_State_Penalty>
-0

> <r_epik_Charging_Adjusted_Penalty>
0

> <i_epik_Tot_Q>
0

> <i_epik_Tot_abs_Q>
0

> <r_epik_Metal_State_Penalty>
-0

> <b_epik_Metal_Only>
0

> <s_lp_Force_Field>
OPLS_2005

> <r_lp_Energy>
26.8043

> <b_lp_Chiralities_Consistent>
1

> <s_lp_Variant>
AV-unprocessed.smi:2519-1

> <Gold.Version>
5.8.1

> <Gold.Id.Protein>
6NUR|6NUR_protein|mol2

> <Gold.PLP.Fitness>
32.0292

> <Gold.PLP.PLP>
-29.7321

> <Gold.PLP.part.hbond>
-2.0000

> <Gold.PLP.part.metal>
0.0000

> <Gold.PLP.part.buried>
-3.8835

> <Gold.PLP.part.nonpolar>
-25.0207

> <Gold.PLP.part.repulsive>
1.9070

> <Gold.PLP.ligand.clash>
0.0000

> <Gold.PLP.ligand.torsion>
1.6159

> <Gold.PLP.Chemscore.Hbond>
1.8320

> <Gold.PLP.Chemscore.CHOScore>
0.0000

> <Gold.PLP.Chemscore.Metal>
0.0000

> <Gold.Chemscore.Hbonds>
donor molecule, donor type, donor heavy atom, donor atom, acceptor molecule, acceptor atom, score
      L1  H     2    28       P1 10747  1.00
      L1  H    10    32       P1  7948  0.80

> <Gold.PLP.Chemscore.Internal.Correction>
0.0329

> <Gold.Rescore>
     Score         DG    S(hbond)    S(metal)    S(lipo)     H(rot)  DE(clash)    DE(int)     intcor
     10.34     -14.61       1.61        0.00      53.88       1.00       0.10       4.17       ----

> <Gold.Chemscore.Fitness>
10.3427

> <Gold.Chemscore.DG>
-14.6139

> <Gold.Chemscore.ZeroCoef>
-5.4800

> <Gold.Chemscore.Hbond>
1.6136

> <Gold.Chemscore.Metal>
0.0000

> <Gold.Chemscore.Lipo>
53.8845

> <Gold.Chemscore.Internal_Hbond>
0.0000

> <Gold.Chemscore.DEClash>
0.1028

> <Gold.Chemscore.DEInternal>
4.1684

> <Gold.Chemscore.Rot>
1.0000

> <Gold.Chemscore.Internal.Correction>
   9.000000E+99

> <Gold.Chemscore.Hbonds>
donor molecule, donor type, donor heavy atom, donor atom, acceptor molecule, acceptor atom, score
      L1  H     2    28       P1 10747  0.98
      L1  H    10    32       P1  7948  0.25

> <Gold.Chemscore.Hbond.Weighted>
-5.3894

> <Gold.Chemscore.Metal.Weighted>
-0.0000

> <Gold.Chemscore.Lipo.Weighted>
-6.3045

> <Gold.Chemscore.Internal_Hbond.Weighted>
0.0000

> <Gold.Chemscore.DEClash.Weighted>
0.1028

> <Gold.Chemscore.DEInternal.Weighted>
4.1684

> <Gold.Chemscore.Rot.Weighted>
2.5600

> <Gold.Chemscore.Internal.Correction.Weighted>
   9.000000E+99

> <Gold.Protein.RotatedTorsions>
[ 6907 6896 6895 6894 ] final  -96.03 input  -60.11 | X-H torsion
[ 7974 7965 7964 7962 ] final   20.48 input  175.53 | X-H torsion
[ 8008 7997 7996 7995 ] final -166.41 input   59.86 | X-H torsion
[ 10167 10162 10161 10158 ] final   53.88 input  -65.29 | X-H torsion
[ 10718 10713 10712 10709 ] final -127.40 input   66.30 | X-H torsion
[ 10763 10752 10751 10750 ] final   40.77 input  -60.55 | X-H torsion
[ 11005 11000 10999 10996 ] final  104.22 input  -57.11 | X-H torsion

> <Gold.Protein.ActiveResidues>
 VAL166  LYS551  ARG553  GLY616  TRP617  ASP618  TYR619  PRO620  LYS621  CYS622 
 ASP623  PHE694  ASN695  SER759  ASP760  ASP761  ALA762  ILE779  LEU786  VAL792 
 PHE793  MET794  SER795  GLU796  ALA797  LYS798  CYS799  TRP800  GLU811  SER814 

> <Gold.Protein.RotatedAtoms>
  150.6978  134.1566  159.4160 H   0  0  0  0  0  0  0  0  0  0  0  0  # atno 6907 bound_to 6896
  151.9547  135.0150  160.0553 H   0  0  0  0  0  0  0  0  0  0  0  0  # atno 6908 bound_to 6896
  152.1980  133.4785  159.5080 H   0  0  0  0  0  0  0  0  0  0  0  0  # atno 6909 bound_to 6896
  146.2110  139.8164  142.8689 H   0  0  0  0  0  0  0  0  0  0  0  0  # atno 7974 bound_to 7965
  155.8635  140.0982  157.1598 H   0  0  0  0  0  0  0  0  0  0  0  0  # atno 8008 bound_to 7997
  154.3992  140.1360  156.4052 H   0  0  0  0  0  0  0  0  0  0  0  0  # atno 8009 bound_to 7997
  155.7830  140.3458  155.5310 H   0  0  0  0  0  0  0  0  0  0  0  0  # atno 8010 bound_to 7997
  140.2361  144.3634  150.6397 H   0  0  0  0  0  0  0  0  0  0  0  0  # atno 10167 bound_to 10162
  156.1854  130.6760  151.0357 H   0  0  0  0  0  0  0  0  0  0  0  0  # atno 10718 bound_to 10713
  152.9927  135.6181  154.2679 H   0  0  0  0  0  0  0  0  0  0  0  0  # atno 10763 bound_to 10752
  154.2413  135.2788  155.2854 H   0  0  0  0  0  0  0  0  0  0  0  0  # atno 10764 bound_to 10752
  154.5367  135.5772  153.6862 H   0  0  0  0  0  0  0  0  0  0  0  0  # atno 10765 bound_to 10752
  139.8790  134.9292  156.5328 H   0  0  0  0  0  0  0  0  0  0  0  0  # atno 11005 bound_to 11000
  145.3142  141.0227  143.3537 LP  0  0  0  0  0  0  0  0  0  0  0  0  # atno 17320 bound_to 7965
  144.8913  139.4770  143.6676 LP  0  0  0  0  0  0  0  0  0  0  0  0  # atno 17321 bound_to 7965
  140.6149  143.2171  151.6812 LP  0  0  0  0  0  0  0  0  0  0  0  0  # atno 17342 bound_to 10162
  139.5093  144.3581  152.0588 LP  0  0  0  0  0  0  0  0  0  0  0  0  # atno 17343 bound_to 10162
  157.6895  131.0814  150.7148 LP  0  0  0  0  0  0  0  0  0  0  0  0  # atno 17370 bound_to 10713
  156.7204  130.4679  149.5524 LP  0  0  0  0  0  0  0  0  0  0  0  0  # atno 17371 bound_to 10713
  140.8368  133.8236  155.9036 LP  0  0  0  0  0  0  0  0  0  0  0  0  # atno 17394 bound_to 11000
  140.9276  134.2063  157.4885 LP  0  0  0  0  0  0  0  0  0  0  0  0  # atno 17395 bound_to 11000

$$$$
