AV-unprocessed.smi:2074|AV-procd|sdf|8454|dock4
  -GOLD-   2272011153D 1   1.00000     0.00000
 Structure written by MMmdl.
 44 45  0  0  0  0  0  0  0  0  2 V2000
  149.0514  140.7173  155.3127 C   0  0  0  0  0  0  0  0  0  0  0  0
  150.4592  140.2001  155.3955 C   0  0  0  0  0  0  0  0  0  0  0  0
  151.3628  140.8949  156.0654 N   0  0  0  0  0  0  0  0  0  0  0  0
  152.5553  140.1723  155.9639 O   0  0  0  0  0  0  0  0  0  0  0  0
  152.3200  139.0564  155.2286 C   0  0  0  0  0  0  0  0  0  0  0  0
  153.4812  138.1469  155.0087 C   0  0  0  0  0  0  0  0  0  0  0  0
  151.0101  139.0107  154.8356 C   0  0  0  0  0  0  0  0  0  0  0  0
  150.3144  137.9568  154.0119 C   0  0  0  0  0  0  0  0  0  0  0  0
  150.5507  136.5801  154.6331 C   0  0  0  0  0  0  0  0  0  0  0  0
  151.3883  136.4389  155.5234 O   0  0  0  0  0  0  0  0  0  0  0  0
  149.7999  135.5747  154.1607 N   0  0  0  0  0  0  0  0  0  0  0  0
  149.8453  134.2034  154.6535 C   0  0  0  0  0  0  0  0  0  0  0  0
  148.6564  133.3537  154.1307 C   0  0  2  0  0  0  0  0  0  0  0  0
  149.1796  132.0723  153.4379 C   0  0  0  0  0  0  0  0  0  0  0  0
  147.7427  134.1114  153.2116 N   0  3  0  0  0  0  0  0  0  0  0  0
  146.9361  133.2176  152.3347 C   0  0  0  0  0  0  0  0  0  0  0  0
  146.0642  134.0272  151.3612 C   0  0  0  0  0  0  0  0  0  0  0  0
  145.2128  134.8920  152.0966 O   0  0  0  0  0  0  0  0  0  0  0  0
  145.9600  135.8306  152.8547 C   0  0  0  0  0  0  0  0  0  0  0  0
  146.8439  135.0956  153.8778 C   0  0  0  0  0  0  0  0  0  0  0  0
  148.3511  139.9274  155.0429 H   0  0  0  0  0  0  0  0  0  0  0  0
  148.9687  141.5035  154.5621 H   0  0  0  0  0  0  0  0  0  0  0  0
  148.7251  141.1312  156.2674 H   0  0  0  0  0  0  0  0  0  0  0  0
  153.1493  137.1565  154.6966 H   0  0  0  0  0  0  0  0  0  0  0  0
  154.0635  138.0329  155.9231 H   0  0  0  0  0  0  0  0  0  0  0  0
  154.1387  138.5424  154.2345 H   0  0  0  0  0  0  0  0  0  0  0  0
  149.2416  138.1400  153.9456 H   0  0  0  0  0  0  0  0  0  0  0  0
  150.6814  137.9527  152.9847 H   0  0  0  0  0  0  0  0  0  0  0  0
  149.1372  135.7800  153.4271 H   0  0  0  0  0  0  0  0  0  0  0  0
  150.7993  133.7949  154.3196 H   0  0  0  0  0  0  0  0  0  0  0  0
  149.8510  134.2040  155.7452 H   0  0  0  0  0  0  0  0  0  0  0  0
  148.0717  133.0559  155.0029 H   0  0  0  0  0  0  0  0  0  0  0  0
  149.8539  131.5048  154.0786 H   0  0  0  0  0  0  0  0  0  0  0  0
  149.7252  132.3151  152.5256 H   0  0  0  0  0  0  0  0  0  0  0  0
  148.3815  131.3810  153.1742 H   0  0  0  0  0  0  0  0  0  0  0  0
  147.5732  132.5603  151.7468 H   0  0  0  0  0  0  0  0  0  0  0  0
  146.3024  132.5775  152.9509 H   0  0  0  0  0  0  0  0  0  0  0  0
  146.6805  134.6005  150.6665 H   0  0  0  0  0  0  0  0  0  0  0  0
  145.4495  133.3559  150.7613 H   0  0  0  0  0  0  0  0  0  0  0  0
  146.5652  136.4521  152.1926 H   0  0  0  0  0  0  0  0  0  0  0  0
  145.2676  136.4976  153.3686 H   0  0  0  0  0  0  0  0  0  0  0  0
  146.2207  134.5840  154.6130 H   0  0  0  0  0  0  0  0  0  0  0  0
  147.4203  135.8543  154.4059 H   0  0  0  0  0  0  0  0  0  0  0  0
  148.3404  134.6541  152.6045 H   0  0  0  0  0  0  0  0  0  0  0  0
  1  2  1  0  0  0  0
  1 21  1  0  0  0  0
  1 22  1  0  0  0  0
  1 23  1  0  0  0  0
  2  7  1  0  0  0  0
  2  3  2  0  0  0  0
  3  4  1  0  0  0  0
  4  5  1  0  0  0  0
  5  6  1  0  0  0  0
  5  7  2  0  0  0  0
  6 24  1  0  0  0  0
  6 25  1  0  0  0  0
  6 26  1  0  0  0  0
  7  8  1  0  0  0  0
  8  9  1  0  0  0  0
  8 27  1  0  0  0  0
  8 28  1  0  0  0  0
  9 10  2  0  0  0  0
  9 11  1  0  0  0  0
 11 12  1  0  0  0  0
 11 29  1  0  0  0  0
 12 13  1  0  0  0  0
 12 30  1  0  0  0  0
 12 31  1  0  0  0  0
 13 14  1  0  0  0  0
 13 15  1  0  0  0  0
 13 32  1  0  0  0  0
 14 33  1  0  0  0  0
 14 34  1  0  0  0  0
 14 35  1  0  0  0  0
 15 20  1  0  0  0  0
 15 16  1  0  0  0  0
 15 44  1  0  0  0  0
 16 17  1  0  0  0  0
 16 36  1  0  0  0  0
 16 37  1  0  0  0  0
 17 18  1  0  0  0  0
 17 38  1  0  0  0  0
 17 39  1  0  0  0  0
 18 19  1  0  0  0  0
 19 20  1  0  0  0  0
 19 40  1  0  0  0  0
 19 41  1  0  0  0  0
 20 42  1  0  0  0  0
 20 43  1  0  0  0  0
M  CHG  1  15   1
M  END
> <s_m_source_file>
AV-unprocessed.smi

> <i_m_source_file_index>
2074

> <i_lp_mmshare_version>
43012

> <i_f3d_flags>
0

> <s_epik_input>
W0NIM11jMW5vYyhbQ0gzXSljMVtDSDJdQyg9TylbTkhdW0NIMl1bQ0BIXShbQ0gzXSlOMltDSDJdW0NIMl1PW0NIMl1bQ0gyXTI=

> <s_epik_cmdline>
J2VwaWtfcHl0aG9uJywgJy1waCcsICc3LjAnLCAnLXRuJywgJzgnLCAnLW1hJywgJzIwMCcsICctbWV0YWxfYmluZGluZycsICctaW1hZScsICc8aW5maWxlLm1hZT4nLCAnLW9tYWUnLCAnPG91dGZpbGUubWFlPic=

> <r_epik_Ionization_Penalty>
0.663207

> <r_epik_Ionization_Penalty_Charging>
0.663207

> <r_epik_Ionization_Penalty_Neutral>
1.0751e-07

> <r_epik_State_Penalty>
0.682743

> <r_epik_Charging_Adjusted_Penalty>
1.34595

> <i_epik_Tot_Q>
1

> <i_epik_Tot_abs_Q>
1

> <r_epik_Metal_State_Penalty>
0.682743

> <b_epik_Metal_Only>
0

> <s_lp_Force_Field>
OPLS_2005

> <r_lp_Energy>
15.5823

> <b_lp_Chiralities_Consistent>
1

> <s_lp_Variant>
AV-unprocessed.smi:2074-3

> <Gold.Version>
5.8.1

> <Gold.Id.Protein>
6NUR|6NUR_protein|mol2

> <Gold.PLP.Fitness>
41.0305

> <Gold.PLP.PLP>
-29.1347

> <Gold.PLP.part.hbond>
-4.7534

> <Gold.PLP.part.metal>
0.0000

> <Gold.PLP.part.buried>
4.0814

> <Gold.PLP.part.nonpolar>
-28.1956

> <Gold.PLP.part.repulsive>
0.2414

> <Gold.PLP.ligand.clash>
0.0035

> <Gold.PLP.ligand.torsion>
1.3667

> <Gold.PLP.Chemscore.Hbond>
4.8390

> <Gold.PLP.Chemscore.CHOScore>
0.0000

> <Gold.PLP.Chemscore.Metal>
0.0000

> <Gold.Chemscore.Hbonds>
donor molecule, donor type, donor heavy atom, donor atom, acceptor molecule, acceptor atom, score
      L1  H    11    29       P1  7948  0.88
      L1  H    15    44       P1  7948  2.00
      P1  H  7997  8008       L1     4  1.00
      P1  H 10752 10765       L1    10  1.00

> <Gold.PLP.Chemscore.Internal.Correction>
0.1156

> <Gold.Rescore>
     Score         DG    S(hbond)    S(metal)    S(lipo)     H(rot)  DE(clash)    DE(int)     intcor
     14.10     -20.76       3.46        0.00      71.08       1.80       1.74       4.92       ----

> <Gold.Chemscore.Fitness>
14.1011

> <Gold.Chemscore.DG>
-20.7645

> <Gold.Chemscore.ZeroCoef>
-5.4800

> <Gold.Chemscore.Hbond>
3.4628

> <Gold.Chemscore.Metal>
0.0000

> <Gold.Chemscore.Lipo>
71.0826

> <Gold.Chemscore.Internal_Hbond>
0.0000

> <Gold.Chemscore.DEClash>
1.7401

> <Gold.Chemscore.DEInternal>
4.9233

> <Gold.Chemscore.Rot>
1.7961

> <Gold.Chemscore.Internal.Correction>
   9.000000E+99

> <Gold.Chemscore.Hbonds>
donor molecule, donor type, donor heavy atom, donor atom, acceptor molecule, acceptor atom, score
      L1  H    11    29       P1  7948  0.64
      L1  H    15    44       P1  7948  0.30
      P1  H  7997  8008       L1     4  0.44
      P1  H 10752 10765       L1    10  0.73

> <Gold.Chemscore.Hbond.Weighted>
-11.5659

> <Gold.Chemscore.Metal.Weighted>
-0.0000

> <Gold.Chemscore.Lipo.Weighted>
-8.3167

> <Gold.Chemscore.Internal_Hbond.Weighted>
0.0000

> <Gold.Chemscore.DEClash.Weighted>
1.7401

> <Gold.Chemscore.DEInternal.Weighted>
4.9233

> <Gold.Chemscore.Rot.Weighted>
4.5980

> <Gold.Chemscore.Internal.Correction.Weighted>
   9.000000E+99

> <Gold.Protein.RotatedTorsions>
[ 6907 6896 6895 6894 ] final   81.02 input  -60.11 | X-H torsion
[ 7974 7965 7964 7962 ] final  -59.37 input  175.53 | X-H torsion
[ 8008 7997 7996 7995 ] final  -34.82 input   59.86 | X-H torsion
[ 10167 10162 10161 10158 ] final  -26.50 input  -65.29 | X-H torsion
[ 10718 10713 10712 10709 ] final    0.44 input   66.30 | X-H torsion
[ 10763 10752 10751 10750 ] final -166.95 input  -60.55 | X-H torsion
[ 11005 11000 10999 10996 ] final  -28.30 input  -57.11 | X-H torsion

> <Gold.Protein.ActiveResidues>
 VAL166  LYS551  ARG553  GLY616  TRP617  ASP618  TYR619  PRO620  LYS621  CYS622 
 ASP623  PHE694  ASN695  SER759  ASP760  ASP761  ALA762  ILE779  LEU786  VAL792 
 PHE793  MET794  SER795  GLU796  ALA797  LYS798  CYS799  TRP800  GLU811  SER814 

> <Gold.Protein.RotatedAtoms>
  152.5255  134.3267  159.9167 H   0  0  0  0  0  0  0  0  0  0  0  0  # atno 6907 bound_to 6896
  151.3217  133.4031  159.2662 H   0  0  0  0  0  0  0  0  0  0  0  0  # atno 6908 bound_to 6896
  150.9954  134.9296  159.7981 H   0  0  0  0  0  0  0  0  0  0  0  0  # atno 6909 bound_to 6896
  145.8282  140.8496  143.0097 H   0  0  0  0  0  0  0  0  0  0  0  0  # atno 7974 bound_to 7965
  154.4111  140.1673  156.2112 H   0  0  0  0  0  0  0  0  0  0  0  0  # atno 8008 bound_to 7997
  155.9442  140.3406  155.6330 H   0  0  0  0  0  0  0  0  0  0  0  0  # atno 8009 bound_to 7997
  155.6950  140.0738  157.2423 H   0  0  0  0  0  0  0  0  0  0  0  0  # atno 8010 bound_to 7997
  140.7282  143.4173  151.1008 H   0  0  0  0  0  0  0  0  0  0  0  0  # atno 10167 bound_to 10162
  156.8334  130.5496  149.5684 H   0  0  0  0  0  0  0  0  0  0  0  0  # atno 10718 bound_to 10713
  154.6781  135.2950  154.9650 H   0  0  0  0  0  0  0  0  0  0  0  0  # atno 10763 bound_to 10752
  154.0655  135.6625  153.4821 H   0  0  0  0  0  0  0  0  0  0  0  0  # atno 10764 bound_to 10752
  153.0529  135.5162  154.7810 H   0  0  0  0  0  0  0  0  0  0  0  0  # atno 10765 bound_to 10752
  140.9196  133.7408  156.0782 H   0  0  0  0  0  0  0  0  0  0  0  0  # atno 11005 bound_to 11000
  144.6742  140.0634  143.7475 LP  0  0  0  0  0  0  0  0  0  0  0  0  # atno 17320 bound_to 7965
  145.9600  139.2794  143.1161 LP  0  0  0  0  0  0  0  0  0  0  0  0  # atno 17321 bound_to 7965
  139.7814  143.8350  152.3138 LP  0  0  0  0  0  0  0  0  0  0  0  0  # atno 17342 bound_to 10162
  139.8303  144.7257  150.9459 LP  0  0  0  0  0  0  0  0  0  0  0  0  # atno 17343 bound_to 10162
  156.0921  130.5904  150.9751 LP  0  0  0  0  0  0  0  0  0  0  0  0  # atno 17370 bound_to 10713
  157.6394  131.0912  150.8281 LP  0  0  0  0  0  0  0  0  0  0  0  0  # atno 17371 bound_to 10713
  140.8005  134.3514  157.5440 LP  0  0  0  0  0  0  0  0  0  0  0  0  # atno 17394 bound_to 11000
  139.8773  134.9195  156.3228 LP  0  0  0  0  0  0  0  0  0  0  0  0  # atno 17395 bound_to 11000

$$$$
