#       Name:                AV-unprocessed.smi:244
#       Creating user name   scv26
#       Creation time:       Thu Mar 26 20:50:22 2020


#       File generated by GOLD software.
#

@<TRIPOS>MOLECULE
AV-unprocessed.smi:244
    67    71     1
SMALL
NO_CHARGES


@<TRIPOS>ATOM
      1 ****        -2.1431  -0.6888  -1.8503 C.3            1 S1                 0.0000
      2 ****        -3.0056   0.4881  -2.1064 N.4            1 S1                 1.0000
      3 ****        -4.4585   0.1938  -2.0331 C.3            1 S1                 0.0000
      4 ****        -4.9473   0.0829  -0.5805 C.3            1 S1                 0.0000
      5 ****        -4.6107   1.3648   0.2067 C.3            1 S1                 0.0000
      6 ****        -5.0643   1.3088   1.5597 O.3            1 S1                 0.0000
      7 ****        -4.3294   0.4191   2.3951 C.3            1 S1                 0.0000
      8 ****        -2.8461   0.8081   2.3901 C.3            1 S1                 0.0000
      9 ****        -2.3286   0.8435   1.0273 N.3            1 S1                 0.0000
     10 ****        -0.9831   0.9936   1.0396 C.ar           1 S1                 0.0000
     11 ****        -0.4266   2.2329   0.9892 N.ar           1 S1                 0.0000
     12 ****         0.9030   2.3688   1.0038 C.ar           1 S1                 0.0000
     13 ****         1.8383   1.4182   1.0633 N.ar           1 S1                 0.0000
     14 ****         1.2808   0.1749   1.1234 C.ar           1 S1                 0.0000
     15 ****        -0.1099  -0.1222   1.1247 C.ar           1 S1                 0.0000
     16 ****        -0.3069  -1.4944   1.2002 N.2            1 S1                 0.0000
     17 ****         0.9026  -1.9840   1.2366 C.2            1 S1                 0.0000
     18 ****         1.9164  -1.0533   1.1805 N.pl3          1 S1                 0.0000
     19 ****         3.3463  -1.3238   1.1922 C.3            1 S1                 0.0000
     20 ****         3.9308  -1.6913  -0.1993 C.3            1 S1                 0.0000
     21 ****         3.2886  -2.8765  -0.6334 O.3            1 S1                 0.0000
     22 ****         3.7005  -0.6160  -1.2832 C.3            1 S1                 0.0000
     23 ****         4.6116   0.6050  -1.0652 C.3            1 S1                 0.0000
     24 ****         5.9740   0.1936  -1.0413 O.3            1 S1                 0.0000
     25 ****         6.2681  -0.7002   0.0268 C.3            1 S1                 0.0000
     26 ****         5.4413  -1.9901  -0.1230 C.3            1 S1                 0.0000
     27 ****        -3.1045   1.7138   0.1344 C.3            1 S1                 0.0000
     28 ****        -2.6238   1.7087  -1.3460 C.3            1 S1                 0.0000
     29 ****        -2.2986  -1.1017  -0.8547 H              1 S1                 0.0000
     30 ****        -1.0894  -0.4255  -1.9492 H              1 S1                 0.0000
     31 ****        -2.3552  -1.4765  -2.5733 H              1 S1                 0.0000
     32 ****        -4.9983   0.9962  -2.5377 H              1 S1                 0.0000
     33 ****        -4.6825  -0.7205  -2.5838 H              1 S1                 0.0000
     34 ****        -6.0244  -0.0844  -0.5670 H              1 S1                 0.0000
     35 ****        -4.4975  -0.7947  -0.1189 H              1 S1                 0.0000
     36 ****        -5.1633   2.1817  -0.2592 H              1 S1                 0.0000
     37 ****        -4.7255   0.4866   3.4084 H              1 S1                 0.0000
     38 ****        -4.4638  -0.6158   2.0819 H              1 S1                 0.0000
     39 ****        -2.7199   1.7897   2.8496 H              1 S1                 0.0000
     40 ****        -2.2802   0.0970   2.9939 H              1 S1                 0.0000
     41 ****         1.2702   3.3837   0.9597 H              1 S1                 0.0000
     42 ****         1.0917  -3.0463   1.2967 H              1 S1                 0.0000
     43 ****         3.8497  -0.4511   1.6074 H              1 S1                 0.0000
     44 ****         3.5275  -2.1350   1.8989 H              1 S1                 0.0000
     45 ****         3.6547  -3.1280  -1.4676 H              1 S1                 0.0000
     46 ****         3.9272  -1.0344  -2.2650 H              1 S1                 0.0000
     47 ****         2.6558  -0.3086  -1.3260 H              1 S1                 0.0000
     48 ****         4.4759   1.3186  -1.8778 H              1 S1                 0.0000
     49 ****         4.3640   1.1291  -0.1419 H              1 S1                 0.0000
     50 ****         7.3318  -0.9371  -0.0000 H              1 S1                 0.0000
     51 ****         6.0807  -0.2150   0.9850 H              1 S1                 0.0000
     52 ****         5.6586  -2.6753   0.6973 H              1 S1                 0.0000
     53 ****         5.7627  -2.4950  -1.0354 H              1 S1                 0.0000
     54 ****        -2.9894   2.7296   0.5159 H              1 S1                 0.0000
     55 ****        -1.5525   1.8854  -1.4392 H              1 S1                 0.0000
     56 ****        -3.0942   2.5519  -1.8532 H              1 S1                 0.0000
     57 ****        -2.8287   0.7174  -3.0741 H              1 S1                 0.0000
     58 ****        -6.0203   1.0154   1.5563 LP             1 S1                 0.0000
     59 ****        -4.9990   2.2276   1.9488 LP             1 S1                 0.0000
     60 ****        -2.4730  -0.0436   0.5888 LP             1 S1                 0.0000
     61 ****        -1.0117   3.0424   0.9412 LP             1 S1                 0.0000
     62 ****         2.8225   1.5952   1.0637 LP             1 S1                 0.0000
     63 ****        -1.1740  -1.9921   1.2217 LP             1 S1                 0.0000
     64 ****         2.3072  -2.7117  -0.7318 LP             1 S1                 0.0000
     65 ****         3.4389  -3.6055   0.0344 LP             1 S1                 0.0000
     66 ****         6.5500   1.0053  -0.9450 LP             1 S1                 0.0000
     67 ****         6.1838  -0.2633  -1.9058 LP             1 S1                 0.0000
@<TRIPOS>BOND
    1    1    2 1     
    2    1   29 1     
    3    1   30 1     
    4    1   31 1     
    5    2   28 1     
    6    2    3 1     
    7    2   57 1     
    8    3    4 1     
    9    3   32 1     
   10    3   33 1     
   11    4    5 1     
   12    4   34 1     
   13    4   35 1     
   14    5   27 1     
   15    5    6 1     
   16    5   36 1     
   17    6    7 1     
   18    7    8 1     
   19    7   37 1     
   20    7   38 1     
   21    8    9 1     
   22    8   39 1     
   23    8   40 1     
   24    9   10 1     
   25    9   27 1     
   26   10   15 ar    
   27   10   11 ar    
   28   11   12 ar    
   29   12   13 ar    
   30   12   41 1     
   31   13   14 ar    
   32   14   18 1     
   33   14   15 ar    
   34   15   16 1     
   35   16   17 2     
   36   17   18 1     
   37   17   42 1     
   38   18   19 1     
   39   19   20 1     
   40   19   43 1     
   41   19   44 1     
   42   20   26 1     
   43   20   21 1     
   44   20   22 1     
   45   21   45 1     
   46   22   23 1     
   47   22   46 1     
   48   22   47 1     
   49   23   24 1     
   50   23   48 1     
   51   23   49 1     
   52   24   25 1     
   53   25   26 1     
   54   25   50 1     
   55   25   51 1     
   56   26   52 1     
   57   26   53 1     
   58   27   28 1     
   59   27   54 1     
   60   28   55 1     
   61   28   56 1     
   62    6   58 1     
   63    6   59 1     
   64    9   60 1     
   65   11   61 1     
   66   13   62 1     
   67   16   63 1     
   68   21   64 1     
   69   21   65 1     
   70   24   66 1     
   71   24   67 1     
@<TRIPOS>SUBSTRUCTURE
      1 S1             1
@<TRIPOS>SET
LONE_PAIRS      STATIC     ATOMS    <user>   **** ""
10 58 59 60 61 62 63 64 65 66 67
DONOR_HYDROGENS      STATIC     ATOMS    <user>   **** ""
2 57 45
ATOM$BLUE        STATIC     ATOMS    COLORGROUP SYSTEM
10 58 59 60 61 62 63 64 65 66 67
ATOM$RED        STATIC     ATOMS    COLORGROUP SYSTEM
2 57 45
