AV-unprocessed.smi:1463|AV-procd|sdf|5934|dock10
  -GOLD-   22720 6 13D 1   1.00000     0.00000
 Structure written by MMmdl.
 46 47  0  0  0  0  0  0  0  0  1 V2000
  151.6806  145.1426  159.2345 C   0  0  0  0  0  0  0  0  0  0  0  0
  152.5357  144.3855  158.3971 O   0  0  0  0  0  0  0  0  0  0  0  0
  153.2955  143.4281  159.1163 C   0  0  0  0  0  0  0  0  0  0  0  0
  152.3806  142.2617  159.4979 C   0  0  0  0  0  0  0  0  0  0  0  0
  152.0323  141.5724  158.3033 O   0  0  0  0  0  0  0  0  0  0  0  0
  151.9165  140.1967  158.3329 C   0  0  0  0  0  0  0  0  0  0  0  0
  152.2039  139.5531  159.4924 N   0  0  0  0  0  0  0  0  0  0  0  0
  152.0706  138.2110  159.5331 C   0  0  0  0  0  0  0  0  0  0  0  0
  151.6413  137.4447  158.4335 C   0  0  0  0  0  0  0  0  0  0  0  0
  151.3447  138.1106  157.2298 C   0  0  0  0  0  0  0  0  0  0  0  0
  151.4998  139.5115  157.1633 C   0  0  0  0  0  0  0  0  0  0  0  0
  151.1618  140.2411  155.8927 C   0  0  0  0  0  0  0  0  0  0  0  0
  151.8041  139.9736  154.8765 O   0  0  0  0  0  0  0  0  0  0  0  0
  150.1536  141.1497  155.9115 N   0  0  0  0  0  0  0  0  0  0  0  0
  149.4477  141.6788  154.7345 C   0  0  0  0  0  0  0  0  0  0  0  0
  148.0255  141.0910  154.6941 C   0  0  0  0  0  0  0  0  0  0  0  0
  147.2486  141.3826  155.9960 C   0  0  0  0  0  0  0  0  0  0  0  0
  145.8540  140.7166  155.9667 C   0  0  0  0  0  0  0  0  0  0  0  0
  145.8703  139.2444  155.5380 C   0  0  0  0  0  0  0  0  0  0  0  0
  145.2156  138.9334  154.4167 N   0  0  0  0  0  0  0  0  0  0  0  0
  146.4576  138.3975  156.2084 O   0  0  0  0  0  0  0  0  0  0  0  0
  148.0902  140.9681  157.2265 C   0  0  0  0  0  0  0  0  0  0  0  0
  149.5053  141.5678  157.1599 C   0  0  0  0  0  0  0  0  0  0  0  0
  151.1229  145.8611  158.6338 H   0  0  0  0  0  0  0  0  0  0  0  0
  152.2496  145.6968  159.9818 H   0  0  0  0  0  0  0  0  0  0  0  0
  150.9610  144.5015  159.7452 H   0  0  0  0  0  0  0  0  0  0  0  0
  154.1107  143.0669  158.4878 H   0  0  0  0  0  0  0  0  0  0  0  0
  153.7388  143.8711  160.0097 H   0  0  0  0  0  0  0  0  0  0  0  0
  152.8893  141.6053  160.2061 H   0  0  0  0  0  0  0  0  0  0  0  0
  151.4769  142.6425  159.9760 H   0  0  0  0  0  0  0  0  0  0  0  0
  152.3081  137.7343  160.4726 H   0  0  0  0  0  0  0  0  0  0  0  0
  151.5405  136.3723  158.5122 H   0  0  0  0  0  0  0  0  0  0  0  0
  151.0100  137.5492  156.3694 H   0  0  0  0  0  0  0  0  0  0  0  0
  149.4060  142.7671  154.7991 H   0  0  0  0  0  0  0  0  0  0  0  0
  149.9386  141.4556  153.7894 H   0  0  0  0  0  0  0  0  0  0  0  0
  147.4857  141.4984  153.8387 H   0  0  0  0  0  0  0  0  0  0  0  0
  148.0870  140.0133  154.5347 H   0  0  0  0  0  0  0  0  0  0  0  0
  147.1092  142.4641  156.0427 H   0  0  0  0  0  0  0  0  0  0  0  0
  145.4086  140.7589  156.9613 H   0  0  0  0  0  0  0  0  0  0  0  0
  145.1911  141.2831  155.3107 H   0  0  0  0  0  0  0  0  0  0  0  0
  145.1966  137.9779  154.0907 H   0  0  0  0  0  0  0  0  0  0  0  0
  144.7412  139.6577  153.8972 H   0  0  0  0  0  0  0  0  0  0  0  0
  147.6066  141.2920  158.1482 H   0  0  0  0  0  0  0  0  0  0  0  0
  148.1595  139.8806  157.2792 H   0  0  0  0  0  0  0  0  0  0  0  0
  150.0744  141.2798  158.0450 H   0  0  0  0  0  0  0  0  0  0  0  0
  149.4516  142.6572  157.1873 H   0  0  0  0  0  0  0  0  0  0  0  0
  1  2  1  0  0  0  0
  1 24  1  0  0  0  0
  1 25  1  0  0  0  0
  1 26  1  0  0  0  0
  2  3  1  0  0  0  0
  3  4  1  0  0  0  0
  3 27  1  0  0  0  0
  3 28  1  0  0  0  0
  4  5  1  0  0  0  0
  4 29  1  0  0  0  0
  4 30  1  0  0  0  0
  5  6  1  0  0  0  0
  6 11  1  0  0  0  0
  6  7  2  0  0  0  0
  7  8  1  0  0  0  0
  8  9  2  0  0  0  0
  8 31  1  0  0  0  0
  9 10  1  0  0  0  0
  9 32  1  0  0  0  0
 10 11  2  0  0  0  0
 10 33  1  0  0  0  0
 11 12  1  0  0  0  0
 12 13  2  0  0  0  0
 12 14  1  0  0  0  0
 14 23  1  0  0  0  0
 14 15  1  0  0  0  0
 15 16  1  0  0  0  0
 15 34  1  0  0  0  0
 15 35  1  0  0  0  0
 16 17  1  0  0  0  0
 16 36  1  0  0  0  0
 16 37  1  0  0  0  0
 17 18  1  0  0  0  0
 17 22  1  0  0  0  0
 17 38  1  0  0  0  0
 18 19  1  0  0  0  0
 18 39  1  0  0  0  0
 18 40  1  0  0  0  0
 19 20  1  0  0  0  0
 19 21  2  0  0  0  0
 20 41  1  0  0  0  0
 20 42  1  0  0  0  0
 22 23  1  0  0  0  0
 22 43  1  0  0  0  0
 22 44  1  0  0  0  0
 23 45  1  0  0  0  0
 23 46  1  0  0  0  0
M  END
> <s_m_source_file>
AV-unprocessed.smi

> <i_m_source_file_index>
1463

> <i_lp_mmshare_version>
43012

> <i_f3d_flags>
0

> <s_epik_input>
W0NIM11PW0NIMl1bQ0gyXU9jMW5bY0hdW2NIXVtjSF1jMUMoPU8pTjJbQ0gyXVtDSDJdW0NIXShbQ0gyXVtDSDJdMilbQ0gyXUMoPU8pW05IMl0=

> <s_epik_cmdline>
J2VwaWtfcHl0aG9uJywgJy1waCcsICc3LjAnLCAnLXRuJywgJzgnLCAnLW1hJywgJzIwMCcsICctbWV0YWxfYmluZGluZycsICctaW1hZScsICc8aW5maWxlLm1hZT4nLCAnLW9tYWUnLCAnPG91dGZpbGUubWFlPic=

> <r_lp_tautomer_probability>
1

> <r_epik_Ionization_Penalty>
2.54873e-06

> <r_epik_Ionization_Penalty_Charging>
0

> <r_epik_Ionization_Penalty_Neutral>
2.54873e-06

> <r_epik_State_Penalty>
-0

> <r_epik_Charging_Adjusted_Penalty>
0

> <i_epik_Tot_Q>
0

> <i_epik_Tot_abs_Q>
0

> <r_epik_Metal_State_Penalty>
-0

> <b_epik_Metal_Only>
0

> <s_lp_Force_Field>
OPLS_2005

> <r_lp_Energy>
26.7295

> <b_lp_Chiralities_Consistent>
1

> <s_lp_Variant>
AV-unprocessed.smi:1463-1

> <Gold.Version>
5.8.1

> <Gold.Id.Protein>
6NUR|6NUR_protein|mol2

> <Gold.PLP.Fitness>
39.4551

> <Gold.PLP.PLP>
-35.2098

> <Gold.PLP.part.hbond>
-1.9520

> <Gold.PLP.part.metal>
0.0000

> <Gold.PLP.part.buried>
-4.8538

> <Gold.PLP.part.nonpolar>
-27.9561

> <Gold.PLP.part.repulsive>
0.0785

> <Gold.PLP.ligand.clash>
0.0000

> <Gold.PLP.ligand.torsion>
1.6749

> <Gold.PLP.Chemscore.Hbond>
1.9600

> <Gold.PLP.Chemscore.CHOScore>
0.0000

> <Gold.PLP.Chemscore.Metal>
0.0000

> <Gold.Chemscore.Hbonds>
donor molecule, donor type, donor heavy atom, donor atom, acceptor molecule, acceptor atom, score
      L1  H    20    42       P1 10175  1.00
      P1  H  7989  7998       L1    13  0.98

> <Gold.PLP.Chemscore.Internal.Correction>
1.7151

> <Gold.Rescore>
     Score         DG    S(hbond)    S(metal)    S(lipo)     H(rot)  DE(clash)    DE(int)     intcor
     11.48     -14.72       1.87        0.00      81.47       2.55       0.34       2.90       ----

> <Gold.Chemscore.Fitness>
11.4787

> <Gold.Chemscore.DG>
-14.7168

> <Gold.Chemscore.ZeroCoef>
-5.4800

> <Gold.Chemscore.Hbond>
1.8690

> <Gold.Chemscore.Metal>
0.0000

> <Gold.Chemscore.Lipo>
81.4670

> <Gold.Chemscore.Internal_Hbond>
0.0000

> <Gold.Chemscore.DEClash>
0.3375

> <Gold.Chemscore.DEInternal>
2.9006

> <Gold.Chemscore.Rot>
2.5536

> <Gold.Chemscore.Internal.Correction>
   9.000000E+99

> <Gold.Chemscore.Hbonds>
donor molecule, donor type, donor heavy atom, donor atom, acceptor molecule, acceptor atom, score
      L1  H    20    42       P1 10175  0.98
      P1  H  7989  7998       L1    13  0.92

> <Gold.Chemscore.Hbond.Weighted>
-6.2425

> <Gold.Chemscore.Metal.Weighted>
-0.0000

> <Gold.Chemscore.Lipo.Weighted>
-9.5316

> <Gold.Chemscore.Internal_Hbond.Weighted>
0.0000

> <Gold.Chemscore.DEClash.Weighted>
0.3375

> <Gold.Chemscore.DEInternal.Weighted>
2.9006

> <Gold.Chemscore.Rot.Weighted>
6.5373

> <Gold.Chemscore.Internal.Correction.Weighted>
   9.000000E+99

> <Gold.Protein.RotatedTorsions>
[ 6907 6896 6895 6894 ] final  -59.41 input  -60.11 | X-H torsion
[ 7974 7965 7964 7962 ] final   40.01 input  175.53 | X-H torsion
[ 8008 7997 7996 7995 ] final  104.97 input   59.86 | X-H torsion
[ 10167 10162 10161 10158 ] final   72.59 input  -65.29 | X-H torsion
[ 10718 10713 10712 10709 ] final  -54.30 input   66.30 | X-H torsion
[ 10763 10752 10751 10750 ] final -119.73 input  -60.55 | X-H torsion
[ 11005 11000 10999 10996 ] final  -27.99 input  -57.11 | X-H torsion

> <Gold.Protein.ActiveResidues>
 VAL166  LYS551  ARG553  GLY616  TRP617  ASP618  TYR619  PRO620  LYS621  CYS622 
 ASP623  PHE694  ASN695  SER759  ASP760  ASP761  ALA762  ILE779  LEU786  VAL792 
 PHE793  MET794  SER795  GLU796  ALA797  LYS798  CYS799  TRP800  GLU811  SER814 

> <Gold.Protein.RotatedAtoms>
  150.7932  134.6972  159.6529 H   0  0  0  0  0  0  0  0  0  0  0  0  # atno 6907 bound_to 6896
  152.4041  134.6234  160.0066 H   0  0  0  0  0  0  0  0  0  0  0  0  # atno 6908 bound_to 6896
  151.6496  133.3285  159.3185 H   0  0  0  0  0  0  0  0  0  0  0  0  # atno 6909 bound_to 6896
  146.0939  139.5583  142.9458 H   0  0  0  0  0  0  0  0  0  0  0  0  # atno 7974 bound_to 7965
  156.1619  140.3138  155.8821 H   0  0  0  0  0  0  0  0  0  0  0  0  # atno 8008 bound_to 7997
  155.3765  140.0485  157.3061 H   0  0  0  0  0  0  0  0  0  0  0  0  # atno 8009 bound_to 7997
  154.5154  140.2179  155.9086 H   0  0  0  0  0  0  0  0  0  0  0  0  # atno 8010 bound_to 7997
  140.0337  144.5445  150.7487 H   0  0  0  0  0  0  0  0  0  0  0  0  # atno 10167 bound_to 10162
  156.1463  130.4152  150.0019 H   0  0  0  0  0  0  0  0  0  0  0  0  # atno 10718 bound_to 10713
  154.8625  135.4228  154.2346 H   0  0  0  0  0  0  0  0  0  0  0  0  # atno 10763 bound_to 10752
  153.3324  135.6989  153.6942 H   0  0  0  0  0  0  0  0  0  0  0  0  # atno 10764 bound_to 10752
  153.5953  135.3547  155.2899 H   0  0  0  0  0  0  0  0  0  0  0  0  # atno 10765 bound_to 10752
  140.9169  133.7424  156.0747 H   0  0  0  0  0  0  0  0  0  0  0  0  # atno 11005 bound_to 11000
  145.5986  141.0359  143.2030 LP  0  0  0  0  0  0  0  0  0  0  0  0  # atno 17320 bound_to 7965
  144.7380  139.7529  143.7321 LP  0  0  0  0  0  0  0  0  0  0  0  0  # atno 17321 bound_to 7965
  140.7291  143.2669  151.4016 LP  0  0  0  0  0  0  0  0  0  0  0  0  # atno 17342 bound_to 10162
  139.6059  144.1198  152.2248 LP  0  0  0  0  0  0  0  0  0  0  0  0  # atno 17343 bound_to 10162
  156.7890  130.9249  151.3646 LP  0  0  0  0  0  0  0  0  0  0  0  0  # atno 17370 bound_to 10713
  157.6619  130.8973  149.9848 LP  0  0  0  0  0  0  0  0  0  0  0  0  # atno 17371 bound_to 10713
  140.8039  134.3477  157.5432 LP  0  0  0  0  0  0  0  0  0  0  0  0  # atno 17394 bound_to 11000
  139.8768  134.9214  156.3274 LP  0  0  0  0  0  0  0  0  0  0  0  0  # atno 17395 bound_to 11000

$$$$
