AV-unprocessed.smi:1065|AV-procd|sdf|4666|dock7
  -GOLD-   22720 3173D 1   1.00000     0.00000
 Structure written by MMmdl.
 39 40  0  0  0  0  0  0  0  0  1 V2000
  151.1545  145.4478  159.9918 C   0  0  0  0  0  0  0  0  0  0  0  0
  152.2167  145.1617  158.9211 C   0  0  0  0  0  0  0  0  0  0  0  0
  152.4690  143.6610  158.6685 C   0  0  2  0  0  0  0  0  0  0  0  0
  151.1878  142.9668  158.1655 C   0  0  0  0  0  0  0  0  0  0  0  0
  151.4127  141.4700  157.8967 C   0  0  0  0  0  0  0  0  0  0  0  0
  151.9452  140.7404  159.1485 C   0  0  1  0  0  0  0  0  0  0  0  0
  152.1957  139.2408  158.8986 C   0  0  0  0  0  0  0  0  0  0  0  0
  150.9498  138.5220  158.6686 N   0  0  0  0  0  0  0  0  0  0  0  0
  150.8638  137.2055  158.4303 C   0  0  0  0  0  0  0  0  0  0  0  0
  151.8389  136.4552  158.4050 O   0  0  0  0  0  0  0  0  0  0  0  0
  149.4631  136.6498  158.1747 C   0  0  0  0  0  0  0  0  0  0  0  0
  148.6028  136.8722  159.3212 N   0  0  0  0  0  0  0  0  0  0  0  0
  148.6900  136.4373  160.5799 C   0  0  0  0  0  0  0  0  0  0  0  0
  147.6751  136.8646  161.3157 N   0  0  0  0  0  0  0  0  0  0  0  0
  146.9281  137.6109  160.4193 N   0  0  0  0  0  0  0  0  0  0  0  0
  147.4733  137.6188  159.2340 N   0  0  0  0  0  0  0  0  0  0  0  0
  153.2250  141.4334  159.6535 C   0  0  0  0  0  0  0  0  0  0  0  0
  152.9995  142.9304  159.9202 C   0  0  0  0  0  0  0  0  0  0  0  0
  151.0806  146.5184  160.1833 H   0  0  0  0  0  0  0  0  0  0  0  0
  151.4025  144.9597  160.9346 H   0  0  0  0  0  0  0  0  0  0  0  0
  150.1673  145.1049  159.6832 H   0  0  0  0  0  0  0  0  0  0  0  0
  151.9371  145.6542  157.9890 H   0  0  0  0  0  0  0  0  0  0  0  0
  153.1491  145.6291  159.2400 H   0  0  0  0  0  0  0  0  0  0  0  0
  153.2198  143.5763  157.8814 H   0  0  0  0  0  0  0  0  0  0  0  0
  150.3909  143.0866  158.9009 H   0  0  0  0  0  0  0  0  0  0  0  0
  150.8366  143.4477  157.2519 H   0  0  0  0  0  0  0  0  0  0  0  0
  150.4741  141.0249  157.5651 H   0  0  0  0  0  0  0  0  0  0  0  0
  152.1169  141.3499  157.0722 H   0  0  0  0  0  0  0  0  0  0  0  0
  151.1913  140.8248  159.9330 H   0  0  0  0  0  0  0  0  0  0  0  0
  152.8542  139.1086  158.0383 H   0  0  0  0  0  0  0  0  0  0  0  0
  152.7021  138.7998  159.7587 H   0  0  0  0  0  0  0  0  0  0  0  0
  150.0987  139.0659  158.6683 H   0  0  0  0  0  0  0  0  0  0  0  0
  149.0202  137.1360  157.3044 H   0  0  0  0  0  0  0  0  0  0  0  0
  149.5134  135.5816  157.9576 H   0  0  0  0  0  0  0  0  0  0  0  0
  149.4872  135.8105  160.9516 H   0  0  0  0  0  0  0  0  0  0  0  0
  153.5734  140.9515  160.5677 H   0  0  0  0  0  0  0  0  0  0  0  0
  154.0233  141.3130  158.9199 H   0  0  0  0  0  0  0  0  0  0  0  0
  153.9394  143.3726  160.2498 H   0  0  0  0  0  0  0  0  0  0  0  0
  152.2958  143.0512  160.7448 H   0  0  0  0  0  0  0  0  0  0  0  0
  1  2  1  0  0  0  0
  1 19  1  0  0  0  0
  1 20  1  0  0  0  0
  1 21  1  0  0  0  0
  2  3  1  0  0  0  0
  2 22  1  0  0  0  0
  2 23  1  0  0  0  0
  3 18  1  0  0  0  0
  3  4  1  0  0  0  0
  3 24  1  0  0  0  0
  4  5  1  0  0  0  0
  4 25  1  0  0  0  0
  4 26  1  0  0  0  0
  5  6  1  0  0  0  0
  5 27  1  0  0  0  0
  5 28  1  0  0  0  0
  6  7  1  0  0  0  0
  6 17  1  0  0  0  0
  6 29  1  0  0  0  0
  7  8  1  0  0  0  0
  7 30  1  0  0  0  0
  7 31  1  0  0  0  0
  8  9  1  0  0  0  0
  8 32  1  0  0  0  0
  9 10  2  0  0  0  0
  9 11  1  0  0  0  0
 11 12  1  0  0  0  0
 11 33  1  0  0  0  0
 11 34  1  0  0  0  0
 12 16  1  0  0  0  0
 12 13  1  0  0  0  0
 13 14  2  0  0  0  0
 13 35  1  0  0  0  0
 14 15  1  0  0  0  0
 15 16  2  0  0  0  0
 17 18  1  0  0  0  0
 17 36  1  0  0  0  0
 17 37  1  0  0  0  0
 18 38  1  0  0  0  0
 18 39  1  0  0  0  0
M  END
> <s_m_source_file>
AV-unprocessed.smi

> <i_m_source_file_index>
1065

> <i_lp_mmshare_version>
43012

> <i_f3d_flags>
0

> <s_epik_input>
W0NIM11bQ0gyXVtDQEBIXTFbQ0gyXVtDSDJdW0NASF0oW0NIMl1bQ0gyXTEpW0NIMl1bTkhdQyg9TylbQ0gyXW4yW2NIXW5ubjI=

> <s_epik_cmdline>
J2VwaWtfcHl0aG9uJywgJy1waCcsICc3LjAnLCAnLXRuJywgJzgnLCAnLW1hJywgJzIwMCcsICctbWV0YWxfYmluZGluZycsICctaW1hZScsICc8aW5maWxlLm1hZT4nLCAnLW9tYWUnLCAnPG91dGZpbGUubWFlPic=

> <r_lp_tautomer_probability>
1

> <r_epik_Ionization_Penalty>
4.54759e-07

> <r_epik_Ionization_Penalty_Charging>
0

> <r_epik_Ionization_Penalty_Neutral>
4.54759e-07

> <r_epik_State_Penalty>
-0

> <r_epik_Charging_Adjusted_Penalty>
0

> <i_epik_Tot_Q>
0

> <i_epik_Tot_abs_Q>
0

> <r_epik_Metal_State_Penalty>
-0

> <b_epik_Metal_Only>
0

> <s_lp_Force_Field>
OPLS_2005

> <r_lp_Energy>
13.9446

> <b_lp_Chiralities_Consistent>
1

> <s_lp_Variant>
AV-unprocessed.smi:1065-1

> <Gold.Version>
5.8.1

> <Gold.Id.Protein>
6NUR|6NUR_protein|mol2

> <Gold.PLP.Fitness>
43.8915

> <Gold.PLP.PLP>
-38.8917

> <Gold.PLP.part.hbond>
-4.6530

> <Gold.PLP.part.metal>
0.0000

> <Gold.PLP.part.buried>
-4.8322

> <Gold.PLP.part.nonpolar>
-30.9876

> <Gold.PLP.part.repulsive>
0.1346

> <Gold.PLP.ligand.clash>
0.0000

> <Gold.PLP.ligand.torsion>
0.0481

> <Gold.PLP.Chemscore.Hbond>
1.6950

> <Gold.PLP.Chemscore.CHOScore>
0.0000

> <Gold.PLP.Chemscore.Metal>
0.0000

> <Gold.Chemscore.Hbonds>
donor molecule, donor type, donor heavy atom, donor atom, acceptor molecule, acceptor atom, score
      P1  H  6896  6909       L1    10  0.55
      P1  H  6931  6943       L1    14  0.15
      P1  H  6934  6947       L1    15  0.98

> <Gold.PLP.Chemscore.Internal.Correction>
0.0109

> <Gold.Rescore>
     Score         DG    S(hbond)    S(metal)    S(lipo)     H(rot)  DE(clash)    DE(int)     intcor
     12.35     -12.45       0.65        0.00      94.57       2.45       0.04       0.06       ----

> <Gold.Chemscore.Fitness>
12.3543

> <Gold.Chemscore.DG>
-12.4521

> <Gold.Chemscore.ZeroCoef>
-5.4800

> <Gold.Chemscore.Hbond>
0.6533

> <Gold.Chemscore.Metal>
0.0000

> <Gold.Chemscore.Lipo>
94.5727

> <Gold.Chemscore.Internal_Hbond>
0.0000

> <Gold.Chemscore.DEClash>
0.0358

> <Gold.Chemscore.DEInternal>
0.0621

> <Gold.Chemscore.Rot>
2.4512

> <Gold.Chemscore.Internal.Correction>
   9.000000E+99

> <Gold.Chemscore.Hbonds>
donor molecule, donor type, donor heavy atom, donor atom, acceptor molecule, acceptor atom, score
      P1  H  6896  6909       L1    10  0.26
      P1  H  6934  6947       L1    15  0.13

> <Gold.Chemscore.Hbond.Weighted>
-2.1822

> <Gold.Chemscore.Metal.Weighted>
-0.0000

> <Gold.Chemscore.Lipo.Weighted>
-11.0650

> <Gold.Chemscore.Internal_Hbond.Weighted>
0.0000

> <Gold.Chemscore.DEClash.Weighted>
0.0358

> <Gold.Chemscore.DEInternal.Weighted>
0.0621

> <Gold.Chemscore.Rot.Weighted>
6.2750

> <Gold.Chemscore.Internal.Correction.Weighted>
   9.000000E+99

> <Gold.Protein.RotatedTorsions>
[ 6907 6896 6895 6894 ] final  116.55 input  -60.11 | X-H torsion
[ 7974 7965 7964 7962 ] final  168.25 input  175.53 | X-H torsion
[ 8008 7997 7996 7995 ] final -107.06 input   59.86 | X-H torsion
[ 10167 10162 10161 10158 ] final -165.80 input  -65.29 | X-H torsion
[ 10718 10713 10712 10709 ] final  -29.97 input   66.30 | X-H torsion
[ 10763 10752 10751 10750 ] final   89.62 input  -60.55 | X-H torsion
[ 11005 11000 10999 10996 ] final   56.08 input  -57.11 | X-H torsion

> <Gold.Protein.ActiveResidues>
 VAL166  LYS551  ARG553  GLY616  TRP617  ASP618  TYR619  PRO620  LYS621  CYS622 
 ASP623  PHE694  ASN695  SER759  ASP760  ASP761  ALA762  ILE779  LEU786  VAL792 
 PHE793  MET794  SER795  GLU796  ALA797  LYS798  CYS799  TRP800  GLU811  SER814 

> <Gold.Protein.RotatedAtoms>
  152.4671  133.7946  159.6920 H   0  0  0  0  0  0  0  0  0  0  0  0  # atno 6907 bound_to 6896
  150.8641  133.7591  159.2989 H   0  0  0  0  0  0  0  0  0  0  0  0  # atno 6908 bound_to 6896
  151.5147  135.1069  159.9915 H   0  0  0  0  0  0  0  0  0  0  0  0  # atno 6909 bound_to 6896
  144.7395  139.8879  143.6401 H   0  0  0  0  0  0  0  0  0  0  0  0  # atno 7974 bound_to 7965
  154.9238  140.0406  157.2012 H   0  0  0  0  0  0  0  0  0  0  0  0  # atno 8008 bound_to 7997
  154.8228  140.2886  155.5753 H   0  0  0  0  0  0  0  0  0  0  0  0  # atno 8009 bound_to 7997
  156.2981  140.2515  156.3138 H   0  0  0  0  0  0  0  0  0  0  0  0  # atno 8010 bound_to 7997
  139.6157  144.0724  152.1886 H   0  0  0  0  0  0  0  0  0  0  0  0  # atno 10167 bound_to 10162
  156.4057  130.4398  149.7289 H   0  0  0  0  0  0  0  0  0  0  0  0  # atno 10718 bound_to 10713
  153.1890  135.4463  155.0126 H   0  0  0  0  0  0  0  0  0  0  0  0  # atno 10763 bound_to 10752
  154.8079  135.3282  154.7387 H   0  0  0  0  0  0  0  0  0  0  0  0  # atno 10764 bound_to 10752
  153.7842  135.6975  153.4938 H   0  0  0  0  0  0  0  0  0  0  0  0  # atno 10765 bound_to 10752
  140.0557  134.5674  155.9211 H   0  0  0  0  0  0  0  0  0  0  0  0  # atno 11005 bound_to 11000
  146.1163  139.4175  143.0256 LP  0  0  0  0  0  0  0  0  0  0  0  0  # atno 17320 bound_to 7965
  145.7370  141.0022  143.1321 LP  0  0  0  0  0  0  0  0  0  0  0  0  # atno 17321 bound_to 7965
  140.0354  144.6049  150.7454 LP  0  0  0  0  0  0  0  0  0  0  0  0  # atno 17342 bound_to 10162
  140.7349  143.2735  151.3815 LP  0  0  0  0  0  0  0  0  0  0  0  0  # atno 17343 bound_to 10162
  156.4288  130.7805  151.2824 LP  0  0  0  0  0  0  0  0  0  0  0  0  # atno 17370 bound_to 10713
  157.7505  131.0160  150.3528 LP  0  0  0  0  0  0  0  0  0  0  0  0  # atno 17371 bound_to 10713
  141.1951  133.6585  156.5625 LP  0  0  0  0  0  0  0  0  0  0  0  0  # atno 17394 bound_to 11000
  140.3848  134.7492  157.4684 LP  0  0  0  0  0  0  0  0  0  0  0  0  # atno 17395 bound_to 11000

$$$$
