AV-unprocessed.smi:1299|AV-procd|sdf|5418|dock7
  -GOLD-   22720 4573D 1   1.00000     0.00000
 Structure written by MMmdl.
 39 40  0  0  0  0  0  0  0  0  1 V2000
  148.9035  140.8553  154.3442 C   0  0  0  0  0  0  0  0  0  0  0  0
  150.0792  140.7893  155.3038 C   0  0  0  0  0  0  0  0  0  0  0  0
  150.4200  141.7392  156.1808 C   0  0  0  0  0  0  0  0  0  0  0  0
  151.8068  141.3009  157.1475 S   0  0  0  0  0  0  0  0  0  0  0  0
  151.9133  139.7201  156.2932 C   0  0  0  0  0  0  0  0  0  0  0  0
  152.7711  138.8779  156.5534 O   0  0  0  0  0  0  0  0  0  0  0  0
  150.8976  139.6512  155.3397 N   0  0  0  0  0  0  0  0  0  0  0  0
  150.7148  138.4898  154.4587 C   0  0  0  0  0  0  0  0  0  0  0  0
  150.6502  137.1572  155.2175 C   0  0  0  0  0  0  0  0  0  0  0  0
  151.4675  136.2613  154.9999 O   0  0  0  0  0  0  0  0  0  0  0  0
  149.6677  137.0474  156.1244 N   0  0  0  0  0  0  0  0  0  0  0  0
  149.4220  135.8743  156.9557 C   0  0  0  0  0  0  0  0  0  0  0  0
  148.5391  136.2165  158.1731 C   0  0  0  0  0  0  0  0  0  0  0  0
  148.2054  135.0027  159.0566 C   0  0  0  0  0  0  0  0  0  0  0  0
  148.3994  133.8625  158.6327 O   0  0  0  0  0  0  0  0  0  0  0  0
  147.7012  135.2319  160.2871 N   0  0  0  0  0  0  0  0  0  0  0  0
  147.4450  136.5470  160.8742 C   0  0  0  0  0  0  0  0  0  0  0  0
  147.1147  136.2863  162.3442 C   0  0  0  0  0  0  0  0  0  0  0  0
  146.5838  134.8598  162.3607 C   0  0  0  0  0  0  0  0  0  0  0  0
  147.3315  134.1691  161.2200 C   0  0  0  0  0  0  0  0  0  0  0  0
  148.1902  141.6116  154.6725 H   0  0  0  0  0  0  0  0  0  0  0  0
  148.3695  139.9066  154.2913 H   0  0  0  0  0  0  0  0  0  0  0  0
  149.2457  141.1238  153.3447 H   0  0  0  0  0  0  0  0  0  0  0  0
  149.9206  142.6857  156.3255 H   0  0  0  0  0  0  0  0  0  0  0  0
  149.8207  138.6017  153.8456 H   0  0  0  0  0  0  0  0  0  0  0  0
  151.5437  138.4423  153.7504 H   0  0  0  0  0  0  0  0  0  0  0  0
  149.0408  137.8300  156.2436 H   0  0  0  0  0  0  0  0  0  0  0  0
  148.9316  135.1238  156.3345 H   0  0  0  0  0  0  0  0  0  0  0  0
  150.3728  135.4428  157.2748 H   0  0  0  0  0  0  0  0  0  0  0  0
  149.0434  136.9618  158.7889 H   0  0  0  0  0  0  0  0  0  0  0  0
  147.6068  136.6654  157.8282 H   0  0  0  0  0  0  0  0  0  0  0  0
  148.2990  137.2191  160.7818 H   0  0  0  0  0  0  0  0  0  0  0  0
  146.5932  137.0034  160.3678 H   0  0  0  0  0  0  0  0  0  0  0  0
  148.0280  136.3415  162.9382 H   0  0  0  0  0  0  0  0  0  0  0  0
  146.4065  137.0071  162.7534 H   0  0  0  0  0  0  0  0  0  0  0  0
  146.7279  134.3652  163.3218 H   0  0  0  0  0  0  0  0  0  0  0  0
  145.5145  134.8667  162.1456 H   0  0  0  0  0  0  0  0  0  0  0  0
  146.7135  133.4036  160.7479 H   0  0  0  0  0  0  0  0  0  0  0  0
  148.2396  133.6911  161.5908 H   0  0  0  0  0  0  0  0  0  0  0  0
  1  2  1  0  0  0  0
  1 21  1  0  0  0  0
  1 22  1  0  0  0  0
  1 23  1  0  0  0  0
  2  7  1  0  0  0  0
  2  3  2  0  0  0  0
  3  4  1  0  0  0  0
  3 24  1  0  0  0  0
  4  5  1  0  0  0  0
  5  6  2  0  0  0  0
  5  7  1  0  0  0  0
  7  8  1  0  0  0  0
  8  9  1  0  0  0  0
  8 25  1  0  0  0  0
  8 26  1  0  0  0  0
  9 10  2  0  0  0  0
  9 11  1  0  0  0  0
 11 12  1  0  0  0  0
 11 27  1  0  0  0  0
 12 13  1  0  0  0  0
 12 28  1  0  0  0  0
 12 29  1  0  0  0  0
 13 14  1  0  0  0  0
 13 30  1  0  0  0  0
 13 31  1  0  0  0  0
 14 15  2  0  0  0  0
 14 16  1  0  0  0  0
 16 20  1  0  0  0  0
 16 17  1  0  0  0  0
 17 18  1  0  0  0  0
 17 32  1  0  0  0  0
 17 33  1  0  0  0  0
 18 19  1  0  0  0  0
 18 34  1  0  0  0  0
 18 35  1  0  0  0  0
 19 20  1  0  0  0  0
 19 36  1  0  0  0  0
 19 37  1  0  0  0  0
 20 38  1  0  0  0  0
 20 39  1  0  0  0  0
M  END
> <s_m_source_file>
AV-unprocessed.smi

> <i_m_source_file_index>
1299

> <i_lp_mmshare_version>
43012

> <i_f3d_flags>
0

> <s_epik_input>
W0NIM11jMVtjSF1zYyg9TyluMVtDSDJdQyg9TylbTkhdW0NIMl1bQ0gyXUMoPU8pTjJbQ0gyXVtDSDJdW0NIMl1bQ0gyXTI=

> <s_epik_cmdline>
J2VwaWtfcHl0aG9uJywgJy1waCcsICc3LjAnLCAnLXRuJywgJzgnLCAnLW1hJywgJzIwMCcsICctbWV0YWxfYmluZGluZycsICctaW1hZScsICc8aW5maWxlLm1hZT4nLCAnLW9tYWUnLCAnPG91dGZpbGUubWFlPic=

> <r_lp_tautomer_probability>
1

> <r_epik_Ionization_Penalty>
1.42672e-06

> <r_epik_Ionization_Penalty_Charging>
1.08064e-06

> <r_epik_Ionization_Penalty_Neutral>
3.46085e-07

> <r_epik_State_Penalty>
-0

> <r_epik_Charging_Adjusted_Penalty>
1.08064e-06

> <i_epik_Tot_Q>
0

> <i_epik_Tot_abs_Q>
0

> <r_epik_Metal_State_Penalty>
-0

> <b_epik_Metal_Only>
0

> <s_lp_Force_Field>
OPLS_2005

> <r_lp_Energy>
30.8751

> <b_lp_Chiralities_Consistent>
1

> <s_lp_Variant>
AV-unprocessed.smi:1299-1

> <Gold.Version>
5.8.1

> <Gold.Id.Protein>
6NUR|6NUR_protein|mol2

> <Gold.PLP.Fitness>
49.2786

> <Gold.PLP.PLP>
-38.1085

> <Gold.PLP.part.hbond>
-3.0000

> <Gold.PLP.part.metal>
0.0000

> <Gold.PLP.part.buried>
-3.8078

> <Gold.PLP.part.nonpolar>
-32.1537

> <Gold.PLP.part.repulsive>
0.1158

> <Gold.PLP.ligand.clash>
0.0000

> <Gold.PLP.ligand.torsion>
0.3704

> <Gold.PLP.Chemscore.Hbond>
2.9600

> <Gold.PLP.Chemscore.CHOScore>
1.0000

> <Gold.PLP.Chemscore.Metal>
0.0000

> <Gold.Chemscore.Hbonds>
donor molecule, donor type, donor heavy atom, donor atom, acceptor molecule, acceptor atom, score
      P1  H  7997  8008       L1     6  0.90
      P1  H 10752 10765       L1    10  1.00
      L1  C     3    24       P1  8028  1.00

> <Gold.PLP.Chemscore.Internal.Correction>
0.0308

> <Gold.Rescore>
     Score         DG    S(hbond)    S(metal)    S(lipo)     H(rot)  DE(clash)    DE(int)     intcor
     17.44     -17.64       2.80        0.00      68.23       2.02       0.06       0.14       ----

> <Gold.Chemscore.Fitness>
17.4414

> <Gold.Chemscore.DG>
-17.6398

> <Gold.Chemscore.ZeroCoef>
-5.4800

> <Gold.Chemscore.Hbond>
2.7959

> <Gold.Chemscore.Metal>
0.0000

> <Gold.Chemscore.Lipo>
68.2285

> <Gold.Chemscore.Internal_Hbond>
0.0000

> <Gold.Chemscore.DEClash>
0.0561

> <Gold.Chemscore.DEInternal>
0.1422

> <Gold.Chemscore.Rot>
2.0162

> <Gold.Chemscore.Internal.Correction>
   9.000000E+99

> <Gold.Chemscore.Hbonds>
donor molecule, donor type, donor heavy atom, donor atom, acceptor molecule, acceptor atom, score
      P1  H  7997  8008       L1     6  0.17
      P1  H 10752 10765       L1    10  1.00

> <Gold.Chemscore.Hbond.Weighted>
-9.3385

> <Gold.Chemscore.Metal.Weighted>
-0.0000

> <Gold.Chemscore.Lipo.Weighted>
-7.9827

> <Gold.Chemscore.Internal_Hbond.Weighted>
0.0000

> <Gold.Chemscore.DEClash.Weighted>
0.0561

> <Gold.Chemscore.DEInternal.Weighted>
0.1422

> <Gold.Chemscore.Rot.Weighted>
5.1614

> <Gold.Chemscore.Internal.Correction.Weighted>
   9.000000E+99

> <Gold.Protein.RotatedTorsions>
[ 6907 6896 6895 6894 ] final  123.67 input  -60.11 | X-H torsion
[ 7974 7965 7964 7962 ] final -170.64 input  175.53 | X-H torsion
[ 8008 7997 7996 7995 ] final  -55.12 input   59.86 | X-H torsion
[ 10167 10162 10161 10158 ] final    7.11 input  -65.29 | X-H torsion
[ 10718 10713 10712 10709 ] final  -94.11 input   66.30 | X-H torsion
[ 10763 10752 10751 10750 ] final -167.65 input  -60.55 | X-H torsion
[ 11005 11000 10999 10996 ] final    6.18 input  -57.11 | X-H torsion

> <Gold.Protein.ActiveResidues>
 VAL166  LYS551  ARG553  GLY616  TRP617  ASP618  TYR619  PRO620  LYS621  CYS622 
 ASP623  PHE694  ASN695  SER759  ASP760  ASP761  ALA762  ILE779  LEU786  VAL792 
 PHE793  MET794  SER795  GLU796  ALA797  LYS798  CYS799  TRP800  GLU811  SER814 

> <Gold.Protein.RotatedAtoms>
  152.4142  133.7011  159.6424 H   0  0  0  0  0  0  0  0  0  0  0  0  # atno 6907 bound_to 6896
  150.8020  133.8570  159.3230 H   0  0  0  0  0  0  0  0  0  0  0  0  # atno 6908 bound_to 6896
  151.6304  135.1025  160.0172 H   0  0  0  0  0  0  0  0  0  0  0  0  # atno 6909 bound_to 6896
  144.7167  140.2042  143.6335 H   0  0  0  0  0  0  0  0  0  0  0  0  # atno 7974 bound_to 7965
  154.4184  140.1160  156.5426 H   0  0  0  0  0  0  0  0  0  0  0  0  # atno 8008 bound_to 7997
  155.6493  140.3496  155.4723 H   0  0  0  0  0  0  0  0  0  0  0  0  # atno 8009 bound_to 7997
  155.9806  140.1159  157.0720 H   0  0  0  0  0  0  0  0  0  0  0  0  # atno 8010 bound_to 7997
  140.6390  143.7819  150.7400 H   0  0  0  0  0  0  0  0  0  0  0  0  # atno 10167 bound_to 10162
  156.0022  130.5054  150.5877 H   0  0  0  0  0  0  0  0  0  0  0  0  # atno 10718 bound_to 10713
  154.6710  135.2939  154.9741 H   0  0  0  0  0  0  0  0  0  0  0  0  # atno 10763 bound_to 10752
  154.0768  135.6610  153.4836 H   0  0  0  0  0  0  0  0  0  0  0  0  # atno 10764 bound_to 10752
  153.0487  135.5188  154.7706 H   0  0  0  0  0  0  0  0  0  0  0  0  # atno 10765 bound_to 10752
  140.5624  134.0180  155.7976 H   0  0  0  0  0  0  0  0  0  0  0  0  # atno 11005 bound_to 11000
  145.8651  139.2243  143.1693 LP  0  0  0  0  0  0  0  0  0  0  0  0  # atno 17320 bound_to 7965
  146.0137  140.8412  142.9958 LP  0  0  0  0  0  0  0  0  0  0  0  0  # atno 17321 bound_to 7965
  140.1446  143.4411  152.2171 LP  0  0  0  0  0  0  0  0  0  0  0  0  # atno 17342 bound_to 10162
  139.5599  144.7399  151.4184 LP  0  0  0  0  0  0  0  0  0  0  0  0  # atno 17343 bound_to 10162
  157.3747  131.0771  151.1528 LP  0  0  0  0  0  0  0  0  0  0  0  0  # atno 17370 bound_to 10713
  157.2270  130.6507  149.5834 LP  0  0  0  0  0  0  0  0  0  0  0  0  # atno 17371 bound_to 10713
  141.1107  133.9622  157.2916 LP  0  0  0  0  0  0  0  0  0  0  0  0  # atno 17394 bound_to 11000
  139.9401  135.0192  156.8682 LP  0  0  0  0  0  0  0  0  0  0  0  0  # atno 17395 bound_to 11000

$$$$
