AV-unprocessed.smi:1047|AV-procd|sdf|4582|dock3
  -GOLD-   22720 3 53D 1   1.00000     0.00000
 Structure written by MMmdl.
 58 60  0  0  0  0  0  0  0  0  4 V2000
  143.8308  132.6933  151.3122 C   0  0  0  0  0  0  0  0  0  0  0  0
  144.2853  133.7819  152.2947 C   0  0  0  0  0  0  0  0  0  0  0  0
  144.9875  133.2208  153.4795 N   0  3  1  0  0  0  0  0  0  0  0  0
  146.0952  132.2987  153.1294 C   0  0  0  0  0  0  0  0  0  0  0  0
  147.3487  133.0765  152.6912 C   0  0  0  0  0  0  0  0  0  0  0  0
  147.7302  133.9775  153.7240 O   0  0  0  0  0  0  0  0  0  0  0  0
  146.7314  134.9536  154.0010 C   0  0  2  0  0  0  0  0  0  0  0  0
  147.2999  135.9023  155.0701 C   0  0  0  0  0  0  0  0  0  0  0  0
  148.1124  136.9822  154.4727 N   0  3  0  0  0  0  0  0  0  0  0  0
  149.0718  137.6022  155.4096 C   0  0  0  0  0  0  0  0  0  0  0  0
  150.0137  138.5788  154.6847 C   0  0  2  0  0  0  0  0  0  0  0  0
  150.6013  137.9069  153.5873 O   0  0  0  0  0  0  0  0  0  0  0  0
  151.1186  139.1126  155.6184 C   0  0  0  0  0  0  0  0  0  0  0  0
  150.8354  140.4624  156.1293 N   0  0  0  0  0  0  0  0  0  0  0  0
  150.0254  141.4309  155.6201 C   0  0  0  0  0  0  0  0  0  0  0  0
  150.0909  142.5037  156.4556 N   0  3  0  0  0  0  0  0  0  0  0  0
  150.9528  142.2172  157.5162 C   0  0  0  0  0  0  0  0  0  0  0  0
  151.3395  142.9869  158.6067 C   0  0  0  0  0  0  0  0  0  0  0  0
  152.2423  142.4008  159.5220 C   0  0  0  0  0  0  0  0  0  0  0  0
  152.6882  143.2164  160.7238 C   0  0  0  0  0  0  0  0  0  0  0  0
  152.7250  141.0809  159.3272 C   0  0  0  0  0  0  0  0  0  0  0  0
  153.6911  140.4589  160.3211 C   0  0  0  0  0  0  0  0  0  0  0  0
  152.3216  140.3151  158.2099 C   0  0  0  0  0  0  0  0  0  0  0  0
  151.4319  140.9075  157.3161 C   0  0  0  0  0  0  0  0  0  0  0  0
  145.4461  134.2300  154.4696 C   0  0  0  0  0  0  0  0  0  0  0  0
  143.4071  133.1426  150.4136 H   0  0  0  0  0  0  0  0  0  0  0  0
  143.0653  132.0460  151.7388 H   0  0  0  0  0  0  0  0  0  0  0  0
  144.6681  132.0672  151.0025 H   0  0  0  0  0  0  0  0  0  0  0  0
  144.9675  134.4427  151.7586 H   0  0  0  0  0  0  0  0  0  0  0  0
  143.4393  134.3986  152.5967 H   0  0  0  0  0  0  0  0  0  0  0  0
  146.3333  131.6990  154.0090 H   0  0  0  0  0  0  0  0  0  0  0  0
  145.7843  131.5948  152.3566 H   0  0  0  0  0  0  0  0  0  0  0  0
  148.1712  132.3855  152.5070 H   0  0  0  0  0  0  0  0  0  0  0  0
  147.1760  133.6172  151.7595 H   0  0  0  0  0  0  0  0  0  0  0  0
  146.5412  135.5270  153.0925 H   0  0  0  0  0  0  0  0  0  0  0  0
  146.4930  136.3309  155.6660 H   0  0  0  0  0  0  0  0  0  0  0  0
  147.9342  135.3372  155.7546 H   0  0  0  0  0  0  0  0  0  0  0  0
  148.6362  136.6021  153.6965 H   0  0  0  0  0  0  0  0  0  0  0  0
  148.5080  138.1351  156.1766 H   0  0  0  0  0  0  0  0  0  0  0  0
  149.6464  136.8261  155.9178 H   0  0  0  0  0  0  0  0  0  0  0  0
  149.4381  139.4220  154.3002 H   0  0  0  0  0  0  0  0  0  0  0  0
  149.9957  137.2497  153.2779 H   0  0  0  0  0  0  0  0  0  0  0  0
  151.2174  138.4587  156.4858 H   0  0  0  0  0  0  0  0  0  0  0  0
  152.0913  139.1098  155.1259 H   0  0  0  0  0  0  0  0  0  0  0  0
  149.4355  141.3620  154.7175 H   0  0  0  0  0  0  0  0  0  0  0  0
  150.9670  143.9908  158.7495 H   0  0  0  0  0  0  0  0  0  0  0  0
  152.3865  142.7290  161.6510 H   0  0  0  0  0  0  0  0  0  0  0  0
  152.2500  144.2148  160.7135 H   0  0  0  0  0  0  0  0  0  0  0  0
  153.7724  143.3302  160.7285 H   0  0  0  0  0  0  0  0  0  0  0  0
  153.9521  139.4381  160.0399 H   0  0  0  0  0  0  0  0  0  0  0  0
  153.2473  140.4258  161.3166 H   0  0  0  0  0  0  0  0  0  0  0  0
  154.6142  141.0367  160.3716 H   0  0  0  0  0  0  0  0  0  0  0  0
  152.6951  139.3127  158.0624 H   0  0  0  0  0  0  0  0  0  0  0  0
  144.6543  134.9451  154.6895 H   0  0  0  0  0  0  0  0  0  0  0  0
  145.6484  133.7088  155.4064 H   0  0  0  0  0  0  0  0  0  0  0  0
  147.4953  137.7022  154.1251 H   0  0  0  0  0  0  0  0  0  0  0  0
  144.2957  132.6511  153.9465 H   0  0  0  0  0  0  0  0  0  0  0  0
  149.5821  143.3668  156.3117 H   0  0  0  0  0  0  0  0  0  0  0  0
  1  2  1  0  0  0  0
  1 26  1  0  0  0  0
  1 27  1  0  0  0  0
  1 28  1  0  0  0  0
  2  3  1  0  0  0  0
  2 29  1  0  0  0  0
  2 30  1  0  0  0  0
  3 25  1  0  0  0  0
  3  4  1  0  0  0  0
  3 57  1  0  0  0  0
  4  5  1  0  0  0  0
  4 31  1  0  0  0  0
  4 32  1  0  0  0  0
  5  6  1  0  0  0  0
  5 33  1  0  0  0  0
  5 34  1  0  0  0  0
  6  7  1  0  0  0  0
  7  8  1  0  0  0  0
  7 25  1  0  0  0  0
  7 35  1  0  0  0  0
  8  9  1  0  0  0  0
  8 36  1  0  0  0  0
  8 37  1  0  0  0  0
  9 10  1  0  0  0  0
  9 38  1  0  0  0  0
  9 56  1  0  0  0  0
 10 11  1  0  0  0  0
 10 39  1  0  0  0  0
 10 40  1  0  0  0  0
 11 12  1  0  0  0  0
 11 13  1  0  0  0  0
 11 41  1  0  0  0  0
 12 42  1  0  0  0  0
 13 14  1  0  0  0  0
 13 43  1  0  0  0  0
 13 44  1  0  0  0  0
 14 24  1  0  0  0  0
 14 15  1  0  0  0  0
 15 16  2  0  0  0  0
 15 45  1  0  0  0  0
 16 17  1  0  0  0  0
 16 58  1  0  0  0  0
 17 24  2  0  0  0  0
 17 18  1  0  0  0  0
 18 19  2  0  0  0  0
 18 46  1  0  0  0  0
 19 20  1  0  0  0  0
 19 21  1  0  0  0  0
 20 47  1  0  0  0  0
 20 48  1  0  0  0  0
 20 49  1  0  0  0  0
 21 22  1  0  0  0  0
 21 23  2  0  0  0  0
 22 50  1  0  0  0  0
 22 51  1  0  0  0  0
 22 52  1  0  0  0  0
 23 24  1  0  0  0  0
 23 53  1  0  0  0  0
 25 54  1  0  0  0  0
 25 55  1  0  0  0  0
M  CHG  1   3   1
M  CHG  1   9   1
M  CHG  1  16   1
M  END
> <s_m_source_file>
AV-unprocessed.smi

> <i_m_source_file_index>
1047

> <i_lp_mmshare_version>
43012

> <i_f3d_flags>
0

> <s_epik_input>
W0NIM11bQ0gyXU4xW0NIMl1bQ0gyXU9bQ0BIXShbQ0gyXTEpW0NIMl1bTkhdW0NIMl1bQ0BIXShbT0hdKVtDSDJdbihbY0hdbjIpYyhjMjMpW2NIXWMoW0NIM10pYyhbY0hdMylbQ0gzXQ==

> <s_epik_cmdline>
J2VwaWtfcHl0aG9uJywgJy1waCcsICc3LjAnLCAnLXRuJywgJzgnLCAnLW1hJywgJzIwMCcsICctbWV0YWxfYmluZGluZycsICctaW1hZScsICc8aW5maWxlLm1hZT4nLCAnLW9tYWUnLCAnPG91dGZpbGUubWFlPic=

> <r_epik_Ionization_Penalty>
1.6114

> <r_epik_Ionization_Penalty_Charging>
1.61139

> <r_epik_Ionization_Penalty_Neutral>
5.04732e-06

> <r_epik_State_Penalty>
1.63724

> <r_epik_Charging_Adjusted_Penalty>
3.24864

> <i_epik_Tot_Q>
3

> <i_epik_Tot_abs_Q>
3

> <r_epik_Metal_State_Penalty>
5.64594

> <b_epik_Metal_Only>
0

> <s_lp_Force_Field>
OPLS_2005

> <r_lp_Energy>
42.8961

> <b_lp_Chiralities_Consistent>
1

> <s_lp_Variant>
AV-unprocessed.smi:1047-23

> <Gold.Version>
5.8.1

> <Gold.Id.Protein>
6NUR|6NUR_protein|mol2

> <Gold.PLP.Fitness>
63.3242

> <Gold.PLP.PLP>
-44.8931

> <Gold.PLP.part.hbond>
-5.0103

> <Gold.PLP.part.metal>
0.0000

> <Gold.PLP.part.buried>
-5.9557

> <Gold.PLP.part.nonpolar>
-35.1766

> <Gold.PLP.part.repulsive>
0.2357

> <Gold.PLP.ligand.clash>
0.0000

> <Gold.PLP.ligand.torsion>
1.3431

> <Gold.PLP.Chemscore.Hbond>
7.0000

> <Gold.PLP.Chemscore.CHOScore>
0.0000

> <Gold.PLP.Chemscore.Metal>
0.0000

> <Gold.Chemscore.Hbonds>
donor molecule, donor type, donor heavy atom, donor atom, acceptor molecule, acceptor atom, score
      L1  H     3    57       P1 10957  2.00
      L1  H     9    38       P1  7948  2.00
      L1  H    12    42       P1  7948  1.00
      L1  H    16    58       P1  8028  2.00

> <Gold.PLP.Chemscore.Internal.Correction>
0.1173

> <Gold.Rescore>
     Score         DG    S(hbond)    S(metal)    S(lipo)     H(rot)  DE(clash)    DE(int)     intcor
     21.33     -22.71       3.53        0.00     107.25       2.78       0.15       1.22       ----

> <Gold.Chemscore.Fitness>
21.3335

> <Gold.Chemscore.DG>
-22.7057

> <Gold.Chemscore.ZeroCoef>
-5.4800

> <Gold.Chemscore.Hbond>
3.5348

> <Gold.Chemscore.Metal>
0.0000

> <Gold.Chemscore.Lipo>
107.2514

> <Gold.Chemscore.Internal_Hbond>
0.0000

> <Gold.Chemscore.DEClash>
0.1536

> <Gold.Chemscore.DEInternal>
1.2187

> <Gold.Chemscore.Rot>
2.7848

> <Gold.Chemscore.Internal.Correction>
   9.000000E+99

> <Gold.Chemscore.Hbonds>
donor molecule, donor type, donor heavy atom, donor atom, acceptor molecule, acceptor atom, score
      L1  H     3    57       P1 10957  0.65
      L1  H     9    38       P1  7948  0.98
      L1  H    12    42       P1  7948  0.24
      L1  H    16    58       P1  8028  1.00

> <Gold.Chemscore.Hbond.Weighted>
-11.8064

> <Gold.Chemscore.Metal.Weighted>
-0.0000

> <Gold.Chemscore.Lipo.Weighted>
-12.5484

> <Gold.Chemscore.Internal_Hbond.Weighted>
0.0000

> <Gold.Chemscore.DEClash.Weighted>
0.1536

> <Gold.Chemscore.DEInternal.Weighted>
1.2187

> <Gold.Chemscore.Rot.Weighted>
7.1291

> <Gold.Chemscore.Internal.Correction.Weighted>
   9.000000E+99

> <Gold.Protein.RotatedTorsions>
[ 6907 6896 6895 6894 ] final  -95.79 input  -60.11 | X-H torsion
[ 7974 7965 7964 7962 ] final -175.23 input  175.53 | X-H torsion
[ 8008 7997 7996 7995 ] final -134.62 input   59.86 | X-H torsion
[ 10167 10162 10161 10158 ] final  -28.16 input  -65.29 | X-H torsion
[ 10718 10713 10712 10709 ] final -113.03 input   66.30 | X-H torsion
[ 10763 10752 10751 10750 ] final -172.96 input  -60.55 | X-H torsion
[ 11005 11000 10999 10996 ] final   57.99 input  -57.11 | X-H torsion

> <Gold.Protein.ActiveResidues>
 VAL166  LYS551  ARG553  GLY616  TRP617  ASP618  TYR619  PRO620  LYS621  CYS622 
 ASP623  PHE694  ASN695  SER759  ASP760  ASP761  ALA762  ILE779  LEU786  VAL792 
 PHE793  MET794  SER795  GLU796  ALA797  LYS798  CYS799  TRP800  GLU811  SER814 

> <Gold.Protein.RotatedAtoms>
  150.6972  134.1603  159.4173 H   0  0  0  0  0  0  0  0  0  0  0  0  # atno 6907 bound_to 6896
  151.9583  135.0133  160.0555 H   0  0  0  0  0  0  0  0  0  0  0  0  # atno 6908 bound_to 6896
  152.1949  133.4764  159.5064 H   0  0  0  0  0  0  0  0  0  0  0  0  # atno 6909 bound_to 6896
  144.7129  140.1352  143.6396 H   0  0  0  0  0  0  0  0  0  0  0  0  # atno 7974 bound_to 7965
  155.3651  140.0485  157.3046 H   0  0  0  0  0  0  0  0  0  0  0  0  # atno 8008 bound_to 7997
  154.5158  140.2208  155.9032 H   0  0  0  0  0  0  0  0  0  0  0  0  # atno 8009 bound_to 7997
  156.1635  140.3111  155.8853 H   0  0  0  0  0  0  0  0  0  0  0  0  # atno 8010 bound_to 7997
  140.7272  143.4033  151.1228 H   0  0  0  0  0  0  0  0  0  0  0  0  # atno 10167 bound_to 10162
  156.0742  130.5951  150.8588 H   0  0  0  0  0  0  0  0  0  0  0  0  # atno 10718 bound_to 10713
  154.6133  135.2867  155.0408 H   0  0  0  0  0  0  0  0  0  0  0  0  # atno 10763 bound_to 10752
  154.1630  135.6485  153.4994 H   0  0  0  0  0  0  0  0  0  0  0  0  # atno 10764 bound_to 10752
  153.0204  135.5382  154.6895 H   0  0  0  0  0  0  0  0  0  0  0  0  # atno 10765 bound_to 10752
  140.0411  134.5872  155.9380 H   0  0  0  0  0  0  0  0  0  0  0  0  # atno 11005 bound_to 11000
  145.9251  139.2570  143.1358 LP  0  0  0  0  0  0  0  0  0  0  0  0  # atno 17320 bound_to 7965
  145.9581  140.8857  143.0225 LP  0  0  0  0  0  0  0  0  0  0  0  0  # atno 17321 bound_to 7965
  139.7656  143.8570  152.3110 LP  0  0  0  0  0  0  0  0  0  0  0  0  # atno 17342 bound_to 10162
  139.8471  144.7182  150.9259 LP  0  0  0  0  0  0  0  0  0  0  0  0  # atno 17343 bound_to 10162
  157.5828  131.0946  150.9243 LP  0  0  0  0  0  0  0  0  0  0  0  0  # atno 17370 bound_to 10713
  156.9435  130.5393  149.5280 LP  0  0  0  0  0  0  0  0  0  0  0  0  # atno 17371 bound_to 10713
  141.1883  133.6562  156.5320 LP  0  0  0  0  0  0  0  0  0  0  0  0  # atno 17394 bound_to 11000
  140.4067  134.7308  157.4812 LP  0  0  0  0  0  0  0  0  0  0  0  0  # atno 17395 bound_to 11000

$$$$
