AV-unprocessed.smi:2620|AV-procd|sdf|10223|dock7
  -GOLD-   2272014233D 1   1.00000     0.00000
 Structure written by MMmdl.
 36 37  0  0  0  0  0  0  0  0  1 V2000
  152.3666  142.4275  160.1220 C   0  0  0  0  0  0  0  0  0  0  0  0
  152.0634  142.8256  158.7966 O   0  0  0  0  0  0  0  0  0  0  0  0
  151.3224  141.8449  158.0909 C   0  0  0  0  0  0  0  0  0  0  0  0
  151.0335  142.3642  156.6743 C   0  0  0  0  0  0  0  0  0  0  0  0
  150.5336  141.2933  155.8019 N   0  0  0  0  0  0  0  0  0  0  0  0
  149.3148  141.5317  155.1375 C   0  0  0  0  0  0  0  0  0  0  0  0
  148.7517  140.6197  154.3232 C   0  0  0  0  0  0  0  0  0  0  0  0
  147.4626  140.9058  153.6487 C   0  0  0  0  0  0  0  0  0  0  0  0
  147.1221  140.2864  152.6398 O   0  0  0  0  0  0  0  0  0  0  0  0
  146.5695  141.9500  154.2310 C   0  0  0  0  0  0  0  0  0  0  0  0
  146.0807  142.9577  153.3685 C   0  0  0  0  0  0  0  0  0  0  0  0
  145.2242  143.9646  153.8523 C   0  0  0  0  0  0  0  0  0  0  0  0
  144.8520  143.9792  155.2083 C   0  0  0  0  0  0  0  0  0  0  0  0
  145.3436  142.9909  156.0808 C   0  0  0  0  0  0  0  0  0  0  0  0
  146.2032  141.9801  155.6043 C   0  0  0  0  0  0  0  0  0  0  0  0
  146.6839  141.0676  156.5023 O   0  0  0  0  0  0  0  0  0  0  0  0
  149.4526  139.3652  154.1304 C   0  0  0  0  0  0  0  0  0  0  0  0
  150.6145  139.1279  154.7704 C   0  0  0  0  0  0  0  0  0  0  0  0
  151.3164  137.8992  154.5984 C   0  0  0  0  0  0  0  0  0  0  0  0
  151.8939  136.9096  154.4348 N   0  0  0  0  0  0  0  0  0  0  0  0
  151.2190  140.1167  155.6742 C   0  0  0  0  0  0  0  0  0  0  0  0
  152.2717  139.9083  156.2797 O   0  0  0  0  0  0  0  0  0  0  0  0
  152.9291  143.2157  160.6218 H   0  0  0  0  0  0  0  0  0  0  0  0
  152.9746  141.5223  160.1317 H   0  0  0  0  0  0  0  0  0  0  0  0
  151.4585  142.2457  160.6980 H   0  0  0  0  0  0  0  0  0  0  0  0
  151.8875  140.9126  158.0453 H   0  0  0  0  0  0  0  0  0  0  0  0
  150.3869  141.6385  158.6138 H   0  0  0  0  0  0  0  0  0  0  0  0
  150.3063  143.1757  156.7257 H   0  0  0  0  0  0  0  0  0  0  0  0
  151.9324  142.8180  156.2532 H   0  0  0  0  0  0  0  0  0  0  0  0
  148.8682  142.4936  155.3480 H   0  0  0  0  0  0  0  0  0  0  0  0
  146.3522  142.9597  152.3223 H   0  0  0  0  0  0  0  0  0  0  0  0
  144.8522  144.7252  153.1818 H   0  0  0  0  0  0  0  0  0  0  0  0
  144.1955  144.7516  155.5809 H   0  0  0  0  0  0  0  0  0  0  0  0
  145.0631  143.0155  157.1237 H   0  0  0  0  0  0  0  0  0  0  0  0
  146.2060  140.2523  156.4935 H   0  0  0  0  0  0  0  0  0  0  0  0
  149.0516  138.6102  153.4697 H   0  0  0  0  0  0  0  0  0  0  0  0
  1  2  1  0  0  0  0
  1 23  1  0  0  0  0
  1 24  1  0  0  0  0
  1 25  1  0  0  0  0
  2  3  1  0  0  0  0
  3  4  1  0  0  0  0
  3 26  1  0  0  0  0
  3 27  1  0  0  0  0
  4  5  1  0  0  0  0
  4 28  1  0  0  0  0
  4 29  1  0  0  0  0
  5 21  1  0  0  0  0
  5  6  1  0  0  0  0
  6  7  2  0  0  0  0
  6 30  1  0  0  0  0
  7  8  1  0  0  0  0
  7 17  1  0  0  0  0
  8  9  2  0  0  0  0
  8 10  1  0  0  0  0
 10 15  1  0  0  0  0
 10 11  2  0  0  0  0
 11 12  1  0  0  0  0
 11 31  1  0  0  0  0
 12 13  2  0  0  0  0
 12 32  1  0  0  0  0
 13 14  1  0  0  0  0
 13 33  1  0  0  0  0
 14 15  2  0  0  0  0
 14 34  1  0  0  0  0
 15 16  1  0  0  0  0
 16 35  1  0  0  0  0
 17 18  2  0  0  0  0
 17 36  1  0  0  0  0
 18 19  1  0  0  0  0
 18 21  1  0  0  0  0
 19 20  3  0  0  0  0
 21 22  2  0  0  0  0
M  END
> <s_m_source_file>
AV-unprocessed.smi

> <i_m_source_file_index>
2620

> <i_lp_mmshare_version>
43012

> <i_f3d_flags>
0

> <s_epik_input>
W0NIM11PW0NIMl1bQ0gyXW4xW2NIXWMoW2NIXWMoQyNOKWMxPU8pQyg9TyljMltjSF1bY0hdW2NIXVtjSF1jMltPSF0=

> <s_epik_cmdline>
J2VwaWtfcHl0aG9uJywgJy1waCcsICc3LjAnLCAnLXRuJywgJzgnLCAnLW1hJywgJzIwMCcsICctbWV0YWxfYmluZGluZycsICctaW1hZScsICc8aW5maWxlLm1hZT4nLCAnLW9tYWUnLCAnPG91dGZpbGUubWFlPic=

> <r_epik_Ionization_Penalty>
0.219503

> <r_epik_Ionization_Penalty_Charging>
5.62591e-11

> <r_epik_Ionization_Penalty_Neutral>
0.219503

> <r_epik_State_Penalty>
0.209817

> <r_epik_Charging_Adjusted_Penalty>
0.209817

> <i_epik_Tot_Q>
0

> <i_epik_Tot_abs_Q>
0

> <r_epik_Metal_State_Penalty>
0.209817

> <b_epik_Metal_Only>
0

> <s_lp_Force_Field>
OPLS_2005

> <r_lp_Energy>
23.6774

> <b_lp_Chiralities_Consistent>
1

> <s_lp_Variant>
AV-unprocessed.smi:2620-1

> <Gold.Version>
5.8.1

> <Gold.Id.Protein>
6NUR|6NUR_protein|mol2

> <Gold.PLP.Fitness>
53.7659

> <Gold.PLP.PLP>
-45.7112

> <Gold.PLP.part.hbond>
-2.0000

> <Gold.PLP.part.metal>
0.0000

> <Gold.PLP.part.buried>
-7.2594

> <Gold.PLP.part.nonpolar>
-38.7793

> <Gold.PLP.part.repulsive>
1.2938

> <Gold.PLP.ligand.clash>
0.0046

> <Gold.PLP.ligand.torsion>
1.1840

> <Gold.PLP.Chemscore.Hbond>
1.8960

> <Gold.PLP.Chemscore.CHOScore>
1.0000

> <Gold.PLP.Chemscore.Metal>
0.0000

> <Gold.Chemscore.Hbonds>
donor molecule, donor type, donor heavy atom, donor atom, acceptor molecule, acceptor atom, score
      P1  H  7997  8009       L1    22  0.88
      P1  H 10752 10765       L1    20  0.85
      L1  C     6    30       P1  8028  1.00

> <Gold.PLP.Chemscore.Internal.Correction>
1.7393

> <Gold.Rescore>
     Score         DG    S(hbond)    S(metal)    S(lipo)     H(rot)  DE(clash)    DE(int)     intcor
     13.57     -16.32       1.78        0.00      85.12       1.98       0.26       2.49       ----

> <Gold.Chemscore.Fitness>
13.5675

> <Gold.Chemscore.DG>
-16.3174

> <Gold.Chemscore.ZeroCoef>
-5.4800

> <Gold.Chemscore.Hbond>
1.7832

> <Gold.Chemscore.Metal>
0.0000

> <Gold.Chemscore.Lipo>
85.1231

> <Gold.Chemscore.Internal_Hbond>
0.0000

> <Gold.Chemscore.DEClash>
0.2622

> <Gold.Chemscore.DEInternal>
2.4877

> <Gold.Chemscore.Rot>
1.9836

> <Gold.Chemscore.Internal.Correction>
   9.000000E+99

> <Gold.Chemscore.Hbonds>
donor molecule, donor type, donor heavy atom, donor atom, acceptor molecule, acceptor atom, score
      P1  H  7997  8009       L1    22  0.85
      P1  H 10752 10765       L1    20  0.85

> <Gold.Chemscore.Hbond.Weighted>
-5.9560

> <Gold.Chemscore.Metal.Weighted>
-0.0000

> <Gold.Chemscore.Lipo.Weighted>
-9.9594

> <Gold.Chemscore.Internal_Hbond.Weighted>
0.0000

> <Gold.Chemscore.DEClash.Weighted>
0.2622

> <Gold.Chemscore.DEInternal.Weighted>
2.4877

> <Gold.Chemscore.Rot.Weighted>
5.0780

> <Gold.Chemscore.Internal.Correction.Weighted>
   9.000000E+99

> <Gold.Protein.RotatedTorsions>
[ 6907 6896 6895 6894 ] final  146.92 input  -60.11 | X-H torsion
[ 7974 7965 7964 7962 ] final  -35.76 input  175.53 | X-H torsion
[ 8008 7997 7996 7995 ] final -169.41 input   59.86 | X-H torsion
[ 10167 10162 10161 10158 ] final  152.48 input  -65.29 | X-H torsion
[ 10718 10713 10712 10709 ] final   90.91 input   66.30 | X-H torsion
[ 10763 10752 10751 10750 ] final  142.81 input  -60.55 | X-H torsion
[ 11005 11000 10999 10996 ] final -114.94 input  -57.11 | X-H torsion

> <Gold.Protein.ActiveResidues>
 VAL166  LYS551  ARG553  GLY616  TRP617  ASP618  TYR619  PRO620  LYS621  CYS622 
 ASP623  PHE694  ASN695  SER759  ASP760  ASP761  ALA762  ILE779  LEU786  VAL792 
 PHE793  MET794  SER795  GLU796  ALA797  LYS798  CYS799  TRP800  GLU811  SER814 

> <Gold.Protein.RotatedAtoms>
  152.1616  133.4585  159.4863 H   0  0  0  0  0  0  0  0  0  0  0  0  # atno 6907 bound_to 6896
  150.6907  134.2065  159.4351 H   0  0  0  0  0  0  0  0  0  0  0  0  # atno 6908 bound_to 6896
  151.9967  134.9950  160.0614 H   0  0  0  0  0  0  0  0  0  0  0  0  # atno 6909 bound_to 6896
  146.0719  140.6198  142.8948 H   0  0  0  0  0  0  0  0  0  0  0  0  # atno 7974 bound_to 7965
  155.9046  140.1047  157.1325 H   0  0  0  0  0  0  0  0  0  0  0  0  # atno 8008 bound_to 7997
  154.4031  140.1286  156.4544 H   0  0  0  0  0  0  0  0  0  0  0  0  # atno 8009 bound_to 7997
  155.7382  140.3467  155.5094 H   0  0  0  0  0  0  0  0  0  0  0  0  # atno 8010 bound_to 7997
  139.4832  144.5354  151.7654 H   0  0  0  0  0  0  0  0  0  0  0  0  # atno 10167 bound_to 10162
  157.6960  131.0388  150.3649 H   0  0  0  0  0  0  0  0  0  0  0  0  # atno 10718 bound_to 10713
  153.9619  135.2959  155.3433 H   0  0  0  0  0  0  0  0  0  0  0  0  # atno 10763 bound_to 10752
  154.7370  135.5042  153.9061 H   0  0  0  0  0  0  0  0  0  0  0  0  # atno 10764 bound_to 10752
  153.0942  135.6716  153.9905 H   0  0  0  0  0  0  0  0  0  0  0  0  # atno 10765 bound_to 10752
  141.0519  133.9673  157.2821 H   0  0  0  0  0  0  0  0  0  0  0  0  # atno 11005 bound_to 11000
  144.7237  140.4456  143.6989 LP  0  0  0  0  0  0  0  0  0  0  0  0  # atno 17320 bound_to 7965
  145.6376  139.1545  143.2934 LP  0  0  0  0  0  0  0  0  0  0  0  0  # atno 17321 bound_to 7965
  140.4886  144.1344  150.5945 LP  0  0  0  0  0  0  0  0  0  0  0  0  # atno 17342 bound_to 10162
  140.4197  143.2617  151.9730 LP  0  0  0  0  0  0  0  0  0  0  0  0  # atno 17343 bound_to 10162
  156.4081  130.3929  149.6911 LP  0  0  0  0  0  0  0  0  0  0  0  0  # atno 17370 bound_to 10713
  156.4205  130.7766  151.2783 LP  0  0  0  0  0  0  0  0  0  0  0  0  # atno 17371 bound_to 10713
  139.9358  135.0196  156.8550 LP  0  0  0  0  0  0  0  0  0  0  0  0  # atno 17394 bound_to 11000
  140.6038  134.0147  155.7548 LP  0  0  0  0  0  0  0  0  0  0  0  0  # atno 17395 bound_to 11000

$$$$
