#       Name:                AV-unprocessed.smi:771
#       Creating user name   scv26
#       Creation time:       Fri Mar 27 01:09:56 2020


#       File generated by GOLD software.
#

@<TRIPOS>MOLECULE
AV-unprocessed.smi:771
    49    50     1
SMALL
NO_CHARGES


@<TRIPOS>ATOM
      1 ****         0.2940   1.4818   0.1754 O.2            1 S1                 0.0000
      2 ****         0.6015   0.8563  -0.8405 C.2            1 S1                 0.0000
      3 ****         2.0734   0.6499  -1.2263 C.3            1 S1                 0.0000
      4 ****         3.0069   1.4773  -0.4431 N.am           1 S1                 0.0000
      5 ****         3.5993   0.8778   0.6859 C.2            1 S1                 0.0000
      6 ****         4.4628   1.5421   1.4789 C.2            1 S1                 0.0000
      7 ****         5.0589   0.9121   2.6364 N.pl3          1 S1                 1.0000
      8 ****         5.8529   1.5573   3.3134 O.2            1 S1                 0.0000
      9 ****         4.7553  -0.2459   2.9072 O.2            1 S1                -1.0000
     10 ****         4.7744   2.9158   1.1343 C.2            1 S1                 0.0000
     11 ****         4.2077   3.4962   0.0583 C.2            1 S1                 0.0000
     12 ****         3.2648   2.7725  -0.8008 C.2            1 S1                 0.0000
     13 ****         2.7384   3.2992  -1.7812 O.2            1 S1                 0.0000
     14 ****        -0.3011   0.2990  -1.6623 N.am           1 S1                 0.0000
     15 ****        -1.7509   0.3543  -1.4957 C.3            1 S1                 0.0000
     16 ****        -2.3331  -0.9649  -0.9391 C.3            1 S1                 0.0000
     17 ****        -3.8764  -0.9349  -0.9361 C.3            1 S1                 0.0000
     18 ****        -4.4716  -2.2691  -0.4583 C.3            1 S1                 0.0000
     19 ****        -3.9441  -2.6481   0.9329 C.3            1 S1                 0.0000
     20 ****        -2.4067  -2.6844   0.9546 C.3            1 S1                 0.0000
     21 ****        -1.7844  -1.3653   0.4564 C.3            1 S1                 0.0000
     22 ****        -2.0252  -0.3475   1.4099 O.3            1 S1                 0.0000
     23 ****         2.3115  -0.4080  -1.1061 H              1 S1                 0.0000
     24 ****         2.1948   0.8487  -2.2928 H              1 S1                 0.0000
     25 ****         3.2976  -0.1451   0.8599 H              1 S1                 0.0000
     26 ****         5.4630   3.4897   1.7367 H              1 S1                 0.0000
     27 ****         4.4529   4.5209  -0.1791 H              1 S1                 0.0000
     28 ****         0.0425  -0.2004  -2.4701 H              1 S1                 0.0000
     29 ****        -2.0453   1.1994  -0.8712 H              1 S1                 0.0000
     30 ****        -2.1779   0.5511  -2.4796 H              1 S1                 0.0000
     31 ****        -2.0375  -1.7541  -1.6324 H              1 S1                 0.0000
     32 ****        -4.2315  -0.1266  -0.2953 H              1 S1                 0.0000
     33 ****        -4.2460  -0.7149  -1.9381 H              1 S1                 0.0000
     34 ****        -5.5598  -2.2038  -0.4371 H              1 S1                 0.0000
     35 ****        -4.2234  -3.0566  -1.1708 H              1 S1                 0.0000
     36 ****        -4.3070  -1.9297   1.6690 H              1 S1                 0.0000
     37 ****        -4.3422  -3.6189   1.2296 H              1 S1                 0.0000
     38 ****        -2.0518  -2.9141   1.9600 H              1 S1                 0.0000
     39 ****        -2.0638  -3.5016   0.3187 H              1 S1                 0.0000
     40 ****        -0.7043  -1.5019   0.4010 H              1 S1                 0.0000
     41 ****        -1.5679   0.4338   1.1364 H              1 S1                 0.0000
     42 ****         1.0076   1.8638   0.7626 LP             1 S1                 0.0000
     43 ****        -0.6693   1.6075   0.4128 LP             1 S1                 0.0000
     44 ****         6.0759   2.4988   3.0607 LP             1 S1                 0.0000
     45 ****         6.2771   1.1418   4.1180 LP             1 S1                 0.0000
     46 ****         2.0987   2.7776  -2.3458 LP             1 S1                 0.0000
     47 ****         2.9505   4.2486  -2.0129 LP             1 S1                 0.0000
     48 ****        -1.6899  -0.6384   2.3060 LP             1 S1                 0.0000
     49 ****        -3.0064  -0.1623   1.4652 LP             1 S1                 0.0000
@<TRIPOS>BOND
    1    1    2 2     
    2    2    3 1     
    3    2   14 am    
    4    3    4 1     
    5    3   23 1     
    6    3   24 1     
    7    4   12 am    
    8    4    5 1     
    9    5    6 2     
   10    5   25 1     
   11    6    7 1     
   12    6   10 1     
   13    7    8 2     
   14    7    9 1     
   15   10   11 2     
   16   10   26 1     
   17   11   12 1     
   18   11   27 1     
   19   12   13 2     
   20   14   15 1     
   21   14   28 1     
   22   15   16 1     
   23   15   29 1     
   24   15   30 1     
   25   16   21 1     
   26   16   17 1     
   27   16   31 1     
   28   17   18 1     
   29   17   32 1     
   30   17   33 1     
   31   18   19 1     
   32   18   34 1     
   33   18   35 1     
   34   19   20 1     
   35   19   36 1     
   36   19   37 1     
   37   20   21 1     
   38   20   38 1     
   39   20   39 1     
   40   21   22 1     
   41   21   40 1     
   42   22   41 1     
   43    1   42 1     
   44    1   43 1     
   45    8   44 1     
   46    8   45 1     
   47   13   46 1     
   48   13   47 1     
   49   22   48 1     
   50   22   49 1     
@<TRIPOS>SUBSTRUCTURE
      1 S1             1
@<TRIPOS>SET
LONE_PAIRS      STATIC     ATOMS    <user>   **** ""
9 42 43 44 45 9 46 47 48 49
DONOR_HYDROGENS      STATIC     ATOMS    <user>   **** ""
2 28 41
ATOM$BLUE        STATIC     ATOMS    COLORGROUP SYSTEM
9 42 43 44 45 9 46 47 48 49
ATOM$RED        STATIC     ATOMS    COLORGROUP SYSTEM
2 28 41
