AV-unprocessed.smi:1815|AV-procd|sdf|7359|dock9
  -GOLD-   22720 9 23D 1   1.00000     0.00000
 Structure written by MMmdl.
 38 39  0  0  0  0  0  0  0  0  2 V2000
  151.5674  145.4790  159.1972 C   0  0  0  0  0  0  0  0  0  0  0  0
  152.3181  144.4478  158.3372 C   0  0  1  0  0  0  0  0  0  0  0  0
  153.1788  143.4805  159.1704 C   0  0  0  0  0  0  0  0  0  0  0  0
  152.3725  142.5075  159.9068 N   0  0  0  0  0  0  0  0  0  0  0  0
  153.1881  141.6163  160.7357 C   0  0  0  0  0  0  0  0  0  0  0  0
  154.2002  140.7427  159.9649 C   0  0  0  0  0  0  0  0  0  0  0  0
  155.5884  140.9733  160.3546 N   0  0  0  0  0  0  0  0  0  0  0  0
  156.6643  140.3679  159.8286 C   0  0  0  0  0  0  0  0  0  0  0  0
  156.5293  139.5539  158.9117 O   0  0  0  0  0  0  0  0  0  0  0  0
  157.8297  140.7221  160.4165 N   0  5  0  0  0  0  0  0  0  0  0  0
  158.8265  141.2252  159.6706 C   0  0  0  0  0  0  0  0  0  0  0  0
  160.0689  141.3958  160.1375 N   0  0  0  0  0  0  0  0  0  0  0  0
  160.9482  141.9299  159.1941 C   0  0  0  0  0  0  0  0  0  0  0  0
  160.3595  142.1793  157.9829 C   0  0  0  0  0  0  0  0  0  0  0  0
  158.6727  141.7494  157.9917 S   0  0  0  0  0  0  0  0  0  0  0  0
  151.5633  141.7735  158.9434 C   0  0  0  0  0  0  0  0  0  0  0  0
  150.6478  142.7170  158.1400 C   0  0  2  0  0  0  0  0  0  0  0  0
  149.8425  141.9701  157.0718 C   0  0  0  0  0  0  0  0  0  0  0  0
  151.4361  143.7113  157.4869 O   0  0  0  0  0  0  0  0  0  0  0  0
  152.2688  146.0910  159.7658 H   0  0  0  0  0  0  0  0  0  0  0  0
  150.8982  145.0052  159.9153 H   0  0  0  0  0  0  0  0  0  0  0  0
  150.9733  146.1477  158.5746 H   0  0  0  0  0  0  0  0  0  0  0  0
  152.9839  145.0064  157.6789 H   0  0  0  0  0  0  0  0  0  0  0  0
  153.8591  142.9519  158.5013 H   0  0  0  0  0  0  0  0  0  0  0  0
  153.8121  144.0588  159.8365 H   0  0  0  0  0  0  0  0  0  0  0  0
  153.7809  142.2214  161.4228 H   0  0  0  0  0  0  0  0  0  0  0  0
  152.5527  140.9990  161.3725 H   0  0  0  0  0  0  0  0  0  0  0  0
  153.9272  139.6898  160.0490 H   0  0  0  0  0  0  0  0  0  0  0  0
  154.1287  140.9803  158.9035 H   0  0  0  0  0  0  0  0  0  0  0  0
  155.7480  141.6288  161.1053 H   0  0  0  0  0  0  0  0  0  0  0  0
  161.9777  142.1001  159.4719 H   0  0  0  0  0  0  0  0  0  0  0  0
  160.8110  142.5878  157.0916 H   0  0  0  0  0  0  0  0  0  0  0  0
  152.2099  141.2149  158.2647 H   0  0  0  0  0  0  0  0  0  0  0  0
  150.9465  141.0393  159.4630 H   0  0  0  0  0  0  0  0  0  0  0  0
  149.9470  143.2051  158.8182 H   0  0  0  0  0  0  0  0  0  0  0  0
  149.2080  141.2061  157.5217 H   0  0  0  0  0  0  0  0  0  0  0  0
  150.4996  141.4801  156.3528 H   0  0  0  0  0  0  0  0  0  0  0  0
  149.1974  142.6554  156.5217 H   0  0  0  0  0  0  0  0  0  0  0  0
  1  2  1  0  0  0  0
  1 20  1  0  0  0  0
  1 21  1  0  0  0  0
  1 22  1  0  0  0  0
  2 19  1  0  0  0  0
  2  3  1  0  0  0  0
  2 23  1  0  0  0  0
  3  4  1  0  0  0  0
  3 24  1  0  0  0  0
  3 25  1  0  0  0  0
  4  5  1  0  0  0  0
  4 16  1  0  0  0  0
  5  6  1  0  0  0  0
  5 26  1  0  0  0  0
  5 27  1  0  0  0  0
  6  7  1  0  0  0  0
  6 28  1  0  0  0  0
  6 29  1  0  0  0  0
  7  8  1  0  0  0  0
  7 30  1  0  0  0  0
  8  9  2  0  0  0  0
  8 10  1  0  0  0  0
 10 11  1  0  0  0  0
 11 15  1  0  0  0  0
 11 12  2  0  0  0  0
 12 13  1  0  0  0  0
 13 14  2  0  0  0  0
 13 31  1  0  0  0  0
 14 15  1  0  0  0  0
 14 32  1  0  0  0  0
 16 17  1  0  0  0  0
 16 33  1  0  0  0  0
 16 34  1  0  0  0  0
 17 18  1  0  0  0  0
 17 19  1  0  0  0  0
 17 35  1  0  0  0  0
 18 36  1  0  0  0  0
 18 37  1  0  0  0  0
 18 38  1  0  0  0  0
M  CHG  1  10  -1
M  END
> <s_m_source_file>
AV-unprocessed.smi

> <i_m_source_file_index>
1815

> <i_lp_mmshare_version>
43012

> <i_f3d_flags>
0

> <s_epik_input>
W0NIM11bQ0BASF0xW0NIMl1OKFtDSDJdW0NASF0oTzEpW0NIM10pW0NIMl1bQ0gyXVtOSF1DKD1PKVtOSF1jMm5bY0hdW2NIXXMy

> <s_epik_cmdline>
J2VwaWtfcHl0aG9uJywgJy1waCcsICc3LjAnLCAnLXRuJywgJzgnLCAnLW1hJywgJzIwMCcsICctbWV0YWxfYmluZGluZycsICctaW1hZScsICc8aW5maWxlLm1hZT4nLCAnLW9tYWUnLCAnPG91dGZpbGUubWFlPic=

> <r_lp_tautomer_probability>
0.999

> <r_epik_Ionization_Penalty>
7.22374

> <r_epik_Ionization_Penalty_Charging>
5.82415

> <r_epik_Ionization_Penalty_Neutral>
1.39959

> <r_epik_State_Penalty>
6.03347

> <r_epik_Charging_Adjusted_Penalty>
11.8576

> <i_epik_Tot_Q>
-1

> <i_epik_Tot_abs_Q>
1

> <r_epik_Metal_State_Penalty>
2.01024

> <b_epik_Metal_Only>
1

> <s_lp_Force_Field>
OPLS_2005

> <r_lp_Energy>
24.221

> <b_lp_Chiralities_Consistent>
1

> <s_lp_Variant>
AV-unprocessed.smi:1815-10

> <Gold.Version>
5.8.1

> <Gold.Id.Protein>
6NUR|6NUR_protein|mol2

> <Gold.PLP.Fitness>
44.9180

> <Gold.PLP.PLP>
-40.7155

> <Gold.PLP.part.hbond>
-3.0000

> <Gold.PLP.part.metal>
0.0000

> <Gold.PLP.part.buried>
-1.5497

> <Gold.PLP.part.nonpolar>
-36.5673

> <Gold.PLP.part.repulsive>
0.3802

> <Gold.PLP.ligand.clash>
0.0000

> <Gold.PLP.ligand.torsion>
0.9285

> <Gold.PLP.Chemscore.Hbond>
1.0000

> <Gold.PLP.Chemscore.CHOScore>
1.0000

> <Gold.PLP.Chemscore.Metal>
0.0000

> <Gold.Chemscore.Hbonds>
donor molecule, donor type, donor heavy atom, donor atom, acceptor molecule, acceptor atom, score
      P1  H  7997  8009       L1     9  1.00
      L1  C    14    32       P1   811  1.00

> <Gold.PLP.Chemscore.Internal.Correction>
0.0595

> <Gold.Rescore>
     Score         DG    S(hbond)    S(metal)    S(lipo)     H(rot)  DE(clash)    DE(int)     intcor
     16.13     -17.12       1.00        0.00     105.38       1.57       0.12       0.87       ----

> <Gold.Chemscore.Fitness>
16.1341

> <Gold.Chemscore.DG>
-17.1238

> <Gold.Chemscore.ZeroCoef>
-5.4800

> <Gold.Chemscore.Hbond>
0.9961

> <Gold.Chemscore.Metal>
0.0000

> <Gold.Chemscore.Lipo>
105.3831

> <Gold.Chemscore.Internal_Hbond>
0.0000

> <Gold.Chemscore.DEClash>
0.1173

> <Gold.Chemscore.DEInternal>
0.8723

> <Gold.Chemscore.Rot>
1.5676

> <Gold.Chemscore.Internal.Correction>
   9.000000E+99

> <Gold.Chemscore.Hbonds>
donor molecule, donor type, donor heavy atom, donor atom, acceptor molecule, acceptor atom, score
      P1  H  7997  8009       L1     9  0.98

> <Gold.Chemscore.Hbond.Weighted>
-3.3270

> <Gold.Chemscore.Metal.Weighted>
-0.0000

> <Gold.Chemscore.Lipo.Weighted>
-12.3298

> <Gold.Chemscore.Internal_Hbond.Weighted>
0.0000

> <Gold.Chemscore.DEClash.Weighted>
0.1173

> <Gold.Chemscore.DEInternal.Weighted>
0.8723

> <Gold.Chemscore.Rot.Weighted>
4.0130

> <Gold.Chemscore.Internal.Correction.Weighted>
   9.000000E+99

> <Gold.Protein.RotatedTorsions>
[ 6907 6896 6895 6894 ] final  -78.80 input  -60.11 | X-H torsion
[ 7974 7965 7964 7962 ] final   -8.03 input  175.53 | X-H torsion
[ 8008 7997 7996 7995 ] final   69.35 input   59.86 | X-H torsion
[ 10167 10162 10161 10158 ] final  136.94 input  -65.29 | X-H torsion
[ 10718 10713 10712 10709 ] final  167.01 input   66.30 | X-H torsion
[ 10763 10752 10751 10750 ] final  -95.81 input  -60.55 | X-H torsion
[ 11005 11000 10999 10996 ] final  179.07 input  -57.11 | X-H torsion

> <Gold.Protein.ActiveResidues>
 VAL166  LYS551  ARG553  GLY616  TRP617  ASP618  TYR619  PRO620  LYS621  CYS622 
 ASP623  PHE694  ASN695  SER759  ASP760  ASP761  ALA762  ILE779  LEU786  VAL792 
 PHE793  MET794  SER795  GLU796  ALA797  LYS798  CYS799  TRP800  GLU811  SER814 

> <Gold.Protein.RotatedAtoms>
  150.6964  134.4217  159.5207 H   0  0  0  0  0  0  0  0  0  0  0  0  # atno 6907 bound_to 6896
  152.1959  134.8628  160.0522 H   0  0  0  0  0  0  0  0  0  0  0  0  # atno 6908 bound_to 6896
  151.9566  133.3647  159.4056 H   0  0  0  0  0  0  0  0  0  0  0  0  # atno 6909 bound_to 6896
  146.2291  140.2408  142.8343 H   0  0  0  0  0  0  0  0  0  0  0  0  # atno 7974 bound_to 7965
  155.7223  140.3493  155.5021 H   0  0  0  0  0  0  0  0  0  0  0  0  # atno 8008 bound_to 7997
  155.9259  140.1075  157.1192 H   0  0  0  0  0  0  0  0  0  0  0  0  # atno 8009 bound_to 7997
  154.4077  140.1240  156.4726 H   0  0  0  0  0  0  0  0  0  0  0  0  # atno 8010 bound_to 7997
  139.5162  144.6437  151.5498 H   0  0  0  0  0  0  0  0  0  0  0  0  # atno 10167 bound_to 10162
  157.0577  131.0331  151.2658 H   0  0  0  0  0  0  0  0  0  0  0  0  # atno 10718 bound_to 10713
  154.7183  135.5106  153.8772 H   0  0  0  0  0  0  0  0  0  0  0  0  # atno 10763 bound_to 10752
  153.0839  135.6639  153.9997 H   0  0  0  0  0  0  0  0  0  0  0  0  # atno 10764 bound_to 10752
  153.9825  135.3027  155.3398 H   0  0  0  0  0  0  0  0  0  0  0  0  # atno 10765 bound_to 10752
  140.4021  134.6768  157.4567 H   0  0  0  0  0  0  0  0  0  0  0  0  # atno 11005 bound_to 11000
  144.9486  140.8154  143.5586 LP  0  0  0  0  0  0  0  0  0  0  0  0  # atno 17320 bound_to 7965
  145.2367  139.2091  143.5014 LP  0  0  0  0  0  0  0  0  0  0  0  0  # atno 17321 bound_to 7965
  140.6214  143.9251  150.6529 LP  0  0  0  0  0  0  0  0  0  0  0  0  # atno 17342 bound_to 10162
  140.2526  143.3582  152.1392 LP  0  0  0  0  0  0  0  0  0  0  0  0  # atno 17343 bound_to 10162
  157.4980  130.7862  149.7575 LP  0  0  0  0  0  0  0  0  0  0  0  0  # atno 17370 bound_to 10713
  155.9988  130.3892  150.2688 LP  0  0  0  0  0  0  0  0  0  0  0  0  # atno 17371 bound_to 10713
  140.0329  134.6380  155.9083 LP  0  0  0  0  0  0  0  0  0  0  0  0  # atno 17394 bound_to 11000
  141.1853  133.6554  156.5191 LP  0  0  0  0  0  0  0  0  0  0  0  0  # atno 17395 bound_to 11000

$$$$
