AV-unprocessed.smi:2959|AV-procd|sdf|11310|dock3
  -GOLD-   2272016213D 1   1.00000     0.00000
 Structure written by MMmdl.
 46 48  0  0  0  0  0  0  0  0  2 V2000
  145.9309  142.8727  154.3874 C   0  0  0  0  0  0  0  0  0  0  0  0
  147.0892  141.9078  154.1585 C   0  0  0  0  0  0  0  0  0  0  0  0
  146.9466  140.9332  153.4210 O   0  0  0  0  0  0  0  0  0  0  0  0
  148.2333  142.1905  154.7969 N   0  0  0  0  0  0  0  0  0  0  0  0
  149.4467  141.3918  154.6953 C   0  0  0  0  0  0  0  0  0  0  0  0
  149.7477  140.6922  156.0269 C   0  0  0  0  0  0  0  0  0  0  0  0
  150.3681  141.6309  157.0106 C   0  0  0  0  0  0  0  0  0  0  0  0
  150.2847  142.9911  156.9781 N   0  3  0  0  0  0  0  0  0  0  0  0
  150.9837  143.5337  158.0574 C   0  0  0  0  0  0  0  0  0  0  0  0
  151.1874  144.8559  158.4402 C   0  0  0  0  0  0  0  0  0  0  0  0
  151.9580  145.0668  159.6026 C   0  0  0  0  0  0  0  0  0  0  0  0
  152.4929  143.9869  160.3351 C   0  0  0  0  0  0  0  0  0  0  0  0
  152.2797  142.6505  159.9370 C   0  0  0  0  0  0  0  0  0  0  0  0
  151.5153  142.4513  158.7878 C   0  0  0  0  0  0  0  0  0  0  0  0
  151.1065  141.2985  158.1091 N   0  0  0  0  0  0  0  0  0  0  0  0
  151.5133  139.9824  158.6225 C   0  0  0  0  0  0  0  0  0  0  0  0
  153.0396  139.8419  158.7080 C   0  0  0  0  0  0  0  0  0  0  0  0
  153.3558  138.5530  159.2173 O   0  0  0  0  0  0  0  0  0  0  0  0
  153.8871  138.4601  160.4847 C   0  0  0  0  0  0  0  0  0  0  0  0
  153.6539  137.2597  161.1871 C   0  0  0  0  0  0  0  0  0  0  0  0
  154.1605  137.0760  162.4879 C   0  0  0  0  0  0  0  0  0  0  0  0
  154.9080  138.0975  163.1021 C   0  0  0  0  0  0  0  0  0  0  0  0
  155.1471  139.3010  162.4131 C   0  0  0  0  0  0  0  0  0  0  0  0
  154.6406  139.4848  161.1115 C   0  0  0  0  0  0  0  0  0  0  0  0
  145.6785  142.9215  155.4471 H   0  0  0  0  0  0  0  0  0  0  0  0
  145.0445  142.5509  153.8402 H   0  0  0  0  0  0  0  0  0  0  0  0
  146.1964  143.8743  154.0482 H   0  0  0  0  0  0  0  0  0  0  0  0
  148.2665  143.0132  155.3816 H   0  0  0  0  0  0  0  0  0  0  0  0
  149.3312  140.6518  153.9016 H   0  0  0  0  0  0  0  0  0  0  0  0
  150.2776  142.0402  154.4130 H   0  0  0  0  0  0  0  0  0  0  0  0
  148.8328  140.2801  156.4538 H   0  0  0  0  0  0  0  0  0  0  0  0
  150.4229  139.8507  155.8662 H   0  0  0  0  0  0  0  0  0  0  0  0
  150.7801  145.6851  157.8803 H   0  0  0  0  0  0  0  0  0  0  0  0
  152.1437  146.0767  159.9386 H   0  0  0  0  0  0  0  0  0  0  0  0
  153.0790  144.1873  161.2203 H   0  0  0  0  0  0  0  0  0  0  0  0
  152.6953  141.8303  160.5034 H   0  0  0  0  0  0  0  0  0  0  0  0
  151.0466  139.8194  159.5944 H   0  0  0  0  0  0  0  0  0  0  0  0
  151.1067  139.2227  157.9545 H   0  0  0  0  0  0  0  0  0  0  0  0
  153.4765  139.9742  157.7169 H   0  0  0  0  0  0  0  0  0  0  0  0
  153.4421  140.6173  159.3613 H   0  0  0  0  0  0  0  0  0  0  0  0
  153.0808  136.4705  160.7228 H   0  0  0  0  0  0  0  0  0  0  0  0
  153.9752  136.1513  163.0143 H   0  0  0  0  0  0  0  0  0  0  0  0
  155.2973  137.9581  164.0998 H   0  0  0  0  0  0  0  0  0  0  0  0
  155.7200  140.0862  162.8841 H   0  0  0  0  0  0  0  0  0  0  0  0
  154.8425  140.4218  160.6157 H   0  0  0  0  0  0  0  0  0  0  0  0
  149.7881  143.5090  156.2645 H   0  0  0  0  0  0  0  0  0  0  0  0
  1  2  1  0  0  0  0
  1 25  1  0  0  0  0
  1 26  1  0  0  0  0
  1 27  1  0  0  0  0
  2  3  2  0  0  0  0
  2  4  1  0  0  0  0
  4  5  1  0  0  0  0
  4 28  1  0  0  0  0
  5  6  1  0  0  0  0
  5 29  1  0  0  0  0
  5 30  1  0  0  0  0
  6  7  1  0  0  0  0
  6 31  1  0  0  0  0
  6 32  1  0  0  0  0
  7 15  1  0  0  0  0
  7  8  2  0  0  0  0
  8  9  1  0  0  0  0
  8 46  1  0  0  0  0
  9 14  2  0  0  0  0
  9 10  1  0  0  0  0
 10 11  2  0  0  0  0
 10 33  1  0  0  0  0
 11 12  1  0  0  0  0
 11 34  1  0  0  0  0
 12 13  2  0  0  0  0
 12 35  1  0  0  0  0
 13 14  1  0  0  0  0
 13 36  1  0  0  0  0
 14 15  1  0  0  0  0
 15 16  1  0  0  0  0
 16 17  1  0  0  0  0
 16 37  1  0  0  0  0
 16 38  1  0  0  0  0
 17 18  1  0  0  0  0
 17 39  1  0  0  0  0
 17 40  1  0  0  0  0
 18 19  1  0  0  0  0
 19 24  1  0  0  0  0
 19 20  2  0  0  0  0
 20 21  1  0  0  0  0
 20 41  1  0  0  0  0
 21 22  2  0  0  0  0
 21 42  1  0  0  0  0
 22 23  1  0  0  0  0
 22 43  1  0  0  0  0
 23 24  2  0  0  0  0
 23 44  1  0  0  0  0
 24 45  1  0  0  0  0
M  CHG  1   8   1
M  END
> <s_m_source_file>
AV-unprocessed.smi

> <i_m_source_file_index>
2959

> <i_lp_mmshare_version>
43012

> <i_f3d_flags>
0

> <s_epik_input>
W0NIM11DKD1PKVtOSF1bQ0gyXVtDSDJdYyhuMSluKGMoYzEyKVtjSF1bY0hdW2NIXVtjSF0yKVtDSDJdW0NIMl1PYzNbY0hdW2NIXVtjSF1bY0hdW2NIXTM=

> <s_epik_cmdline>
J2VwaWtfcHl0aG9uJywgJy1waCcsICc3LjAnLCAnLXRuJywgJzgnLCAnLW1hJywgJzIwMCcsICctbWV0YWxfYmluZGluZycsICctaW1hZScsICc8aW5maWxlLm1hZT4nLCAnLW9tYWUnLCAnPG91dGZpbGUubWFlPic=

> <r_lp_tautomer_probability>
1

> <r_epik_Ionization_Penalty>
1.04698

> <r_epik_Ionization_Penalty_Charging>
1.04698

> <r_epik_Ionization_Penalty_Neutral>
3.05925e-07

> <r_epik_State_Penalty>
1.0995

> <r_epik_Charging_Adjusted_Penalty>
2.14648

> <i_epik_Tot_Q>
1

> <i_epik_Tot_abs_Q>
1

> <r_epik_Metal_State_Penalty>
1.19436

> <b_epik_Metal_Only>
0

> <s_lp_Force_Field>
OPLS_2005

> <r_lp_Energy>
17.9669

> <b_lp_Chiralities_Consistent>
1

> <s_lp_Variant>
AV-unprocessed.smi:2959-2

> <Gold.Version>
5.8.1

> <Gold.Id.Protein>
6NUR|6NUR_protein|mol2

> <Gold.PLP.Fitness>
60.4961

> <Gold.PLP.PLP>
-53.6627

> <Gold.PLP.part.hbond>
-2.0000

> <Gold.PLP.part.metal>
0.0000

> <Gold.PLP.part.buried>
-7.1473

> <Gold.PLP.part.nonpolar>
-45.3192

> <Gold.PLP.part.repulsive>
0.3883

> <Gold.PLP.ligand.clash>
0.0000

> <Gold.PLP.ligand.torsion>
1.1326

> <Gold.PLP.Chemscore.Hbond>
3.0000

> <Gold.PLP.Chemscore.CHOScore>
0.0000

> <Gold.PLP.Chemscore.Metal>
0.0000

> <Gold.Chemscore.Hbonds>
donor molecule, donor type, donor heavy atom, donor atom, acceptor molecule, acceptor atom, score
      L1  H     4    28       P1  8028  0.98
      L1  H     8    46       P1  8028  2.00

> <Gold.PLP.Chemscore.Internal.Correction>
0.0985

> <Gold.Rescore>
     Score         DG    S(hbond)    S(metal)    S(lipo)     H(rot)  DE(clash)    DE(int)     intcor
     21.74     -22.90       1.94        0.00     141.71       2.21       0.09       1.07       ----

> <Gold.Chemscore.Fitness>
21.7400

> <Gold.Chemscore.DG>
-22.8972

> <Gold.Chemscore.ZeroCoef>
-5.4800

> <Gold.Chemscore.Hbond>
1.9441

> <Gold.Chemscore.Metal>
0.0000

> <Gold.Chemscore.Lipo>
141.7075

> <Gold.Chemscore.Internal_Hbond>
0.0000

> <Gold.Chemscore.DEClash>
0.0880

> <Gold.Chemscore.DEInternal>
1.0693

> <Gold.Chemscore.Rot>
2.2093

> <Gold.Chemscore.Internal.Correction>
   9.000000E+99

> <Gold.Chemscore.Hbonds>
donor molecule, donor type, donor heavy atom, donor atom, acceptor molecule, acceptor atom, score
      L1  H     4    28       P1  8028  0.91
      L1  H     8    46       P1  8028  0.98

> <Gold.Chemscore.Hbond.Weighted>
-6.4933

> <Gold.Chemscore.Metal.Weighted>
-0.0000

> <Gold.Chemscore.Lipo.Weighted>
-16.5798

> <Gold.Chemscore.Internal_Hbond.Weighted>
0.0000

> <Gold.Chemscore.DEClash.Weighted>
0.0880

> <Gold.Chemscore.DEInternal.Weighted>
1.0693

> <Gold.Chemscore.Rot.Weighted>
5.6559

> <Gold.Chemscore.Internal.Correction.Weighted>
   9.000000E+99

> <Gold.Protein.RotatedTorsions>
[ 6907 6896 6895 6894 ] final  -37.15 input  -60.11 | X-H torsion
[ 7974 7965 7964 7962 ] final  103.63 input  175.53 | X-H torsion
[ 8008 7997 7996 7995 ] final -156.20 input   59.86 | X-H torsion
[ 10167 10162 10161 10158 ] final -168.98 input  -65.29 | X-H torsion
[ 10718 10713 10712 10709 ] final   31.93 input   66.30 | X-H torsion
[ 10763 10752 10751 10750 ] final  148.37 input  -60.55 | X-H torsion
[ 11005 11000 10999 10996 ] final  -80.17 input  -57.11 | X-H torsion

> <Gold.Protein.ActiveResidues>
 VAL166  LYS551  ARG553  GLY616  TRP617  ASP618  TYR619  PRO620  LYS621  CYS622 
 ASP623  PHE694  ASN695  SER759  ASP760  ASP761  ALA762  ILE779  LEU786  VAL792 
 PHE793  MET794  SER795  GLU796  ALA797  LYS798  CYS799  TRP800  GLU811  SER814 

> <Gold.Protein.RotatedAtoms>
  151.0183  134.9449  159.8044 H   0  0  0  0  0  0  0  0  0  0  0  0  # atno 6907 bound_to 6896
  152.5319  134.2938  159.9063 H   0  0  0  0  0  0  0  0  0  0  0  0  # atno 6908 bound_to 6896
  151.2945  133.4108  159.2669 H   0  0  0  0  0  0  0  0  0  0  0  0  # atno 6909 bound_to 6896
  145.3434  139.2456  143.3597 H   0  0  0  0  0  0  0  0  0  0  0  0  # atno 7974 bound_to 7965
  155.7136  140.0781  157.2361 H   0  0  0  0  0  0  0  0  0  0  0  0  # atno 8008 bound_to 7997
  154.4055  140.1625  156.2377 H   0  0  0  0  0  0  0  0  0  0  0  0  # atno 8009 bound_to 7997
  155.9260  140.3394  155.6214 H   0  0  0  0  0  0  0  0  0  0  0  0  # atno 8010 bound_to 7997
  139.5951  144.1130  152.1679 H   0  0  0  0  0  0  0  0  0  0  0  0  # atno 10167 bound_to 10162
  157.2787  130.7244  149.6544 H   0  0  0  0  0  0  0  0  0  0  0  0  # atno 10718 bound_to 10713
  154.0537  135.2879  155.3336 H   0  0  0  0  0  0  0  0  0  0  0  0  # atno 10763 bound_to 10752
  154.6853  135.5248  153.8321 H   0  0  0  0  0  0  0  0  0  0  0  0  # atno 10764 bound_to 10752
  153.0550  135.6592  154.0731 H   0  0  0  0  0  0  0  0  0  0  0  0  # atno 10765 bound_to 10752
  141.1668  133.7138  156.8232 H   0  0  0  0  0  0  0  0  0  0  0  0  # atno 11005 bound_to 11000
  146.2998  140.4036  142.8708 LP  0  0  0  0  0  0  0  0  0  0  0  0  # atno 17320 bound_to 7965
  144.8772  140.7353  143.6009 LP  0  0  0  0  0  0  0  0  0  0  0  0  # atno 17321 bound_to 7965
  140.0713  144.5777  150.7189 LP  0  0  0  0  0  0  0  0  0  0  0  0  # atno 17342 bound_to 10162
  140.7205  143.2584  151.4294 LP  0  0  0  0  0  0  0  0  0  0  0  0  # atno 17343 bound_to 10162
  155.9664  130.4345  150.5050 LP  0  0  0  0  0  0  0  0  0  0  0  0  # atno 17370 bound_to 10713
  157.2990  131.0641  151.2082 LP  0  0  0  0  0  0  0  0  0  0  0  0  # atno 17371 bound_to 10713
  140.2104  134.8832  157.3268 LP  0  0  0  0  0  0  0  0  0  0  0  0  # atno 17394 bound_to 11000
  140.2093  134.4158  155.7621 LP  0  0  0  0  0  0  0  0  0  0  0  0  # atno 17395 bound_to 11000

$$$$
