AV-unprocessed.smi:2499|AV-procd|sdf|9838|dock7
  -GOLD-   2272013463D 1   1.00000     0.00000
 Structure written by MMmdl.
 27 28  0  0  0  0  0  0  0  0  1 V2000
  152.6822  141.3370  160.4452 C   0  0  0  0  0  0  0  0  0  0  0  0
  152.9204  142.1951  159.1953 C   0  0  1  0  0  0  0  0  0  0  0  0
  151.9694  141.7904  158.1646 N   0  0  0  0  0  0  0  0  0  0  0  0
  152.0475  140.6817  157.4133 C   0  0  0  0  0  0  0  0  0  0  0  0
  152.9668  139.8679  157.5486 O   0  0  0  0  0  0  0  0  0  0  0  0
  150.9653  140.6141  156.5484 N   0  0  0  0  0  0  0  0  0  0  0  0
  151.0466  139.8887  155.4752 C   0  0  0  0  0  0  0  0  0  0  0  0
  152.0488  139.0735  154.9553 N   0  0  0  0  0  0  0  0  0  0  0  0
  151.5926  138.5301  153.7871 C   0  0  0  0  0  0  0  0  0  0  0  0
  150.3595  138.9806  153.5772 C   0  0  0  0  0  0  0  0  0  0  0  0
  149.9983  139.8135  154.5933 O   0  0  0  0  0  0  0  0  0  0  0  0
  152.8512  143.6750  159.5329 C   0  0  0  0  0  0  0  0  0  0  0  0
  151.5287  144.3750  159.7402 C   0  0  0  0  0  0  0  0  0  0  0  0
  152.3624  144.6804  158.5171 C   0  0  0  0  0  0  0  0  0  0  0  0
  153.4085  141.5683  161.2249 H   0  0  0  0  0  0  0  0  0  0  0  0
  152.7750  140.2746  160.2172 H   0  0  0  0  0  0  0  0  0  0  0  0
  151.6866  141.5037  160.8582 H   0  0  0  0  0  0  0  0  0  0  0  0
  153.9302  141.9753  158.8432 H   0  0  0  0  0  0  0  0  0  0  0  0
  151.1856  142.4075  158.0058 H   0  0  0  0  0  0  0  0  0  0  0  0
  152.9644  138.8865  155.3386 H   0  0  0  0  0  0  0  0  0  0  0  0
  152.2172  137.8597  153.2153 H   0  0  0  0  0  0  0  0  0  0  0  0
  149.6401  138.8101  152.7899 H   0  0  0  0  0  0  0  0  0  0  0  0
  153.6698  144.0135  160.1655 H   0  0  0  0  0  0  0  0  0  0  0  0
  150.6180  143.7981  159.5930 H   0  0  0  0  0  0  0  0  0  0  0  0
  151.4798  145.1328  160.5197 H   0  0  0  0  0  0  0  0  0  0  0  0
  152.8686  145.6429  158.4795 H   0  0  0  0  0  0  0  0  0  0  0  0
  152.0054  144.3034  157.5608 H   0  0  0  0  0  0  0  0  0  0  0  0
  1  2  1  0  0  0  0
  1 15  1  0  0  0  0
  1 16  1  0  0  0  0
  1 17  1  0  0  0  0
  2  3  1  0  0  0  0
  2 12  1  0  0  0  0
  2 18  1  0  0  0  0
  3 19  1  0  0  0  0
  3  4  1  0  0  0  0
  4  6  1  0  0  0  0
  4  5  2  0  0  0  0
  6  7  2  0  0  0  0
  7 11  1  0  0  0  0
  7  8  1  0  0  0  0
  8 20  1  0  0  0  0
  8  9  1  0  0  0  0
  9 21  1  0  0  0  0
  9 10  2  0  0  0  0
 10 22  1  0  0  0  0
 10 11  1  0  0  0  0
 12 14  1  0  0  0  0
 12 13  1  0  0  0  0
 12 23  1  0  0  0  0
 13 14  1  0  0  0  0
 13 24  1  0  0  0  0
 13 25  1  0  0  0  0
 14 26  1  0  0  0  0
 14 27  1  0  0  0  0
M  END
> <s_m_source_file>
AV-unprocessed.smi

> <i_m_source_file_index>
2499

> <i_lp_mmshare_version>
43012

> <i_f3d_flags>
0

> <s_epik_input>
W0NIMl0xW0NIMl1bQ0hdMVtDQEhdKFtDSDNdKVtOSF1DKD1PKVtOSF1jMm5bY0hdW2NIXW8y

> <s_epik_cmdline>
J2VwaWtfcHl0aG9uJywgJy1waCcsICc3LjAnLCAnLXRuJywgJzgnLCAnLW1hJywgJzIwMCcsICctbWV0YWxfYmluZGluZycsICctaW1hZScsICc8aW5maWxlLm1hZT4nLCAnLW9tYWUnLCAnPG91dGZpbGUubWFlPic=

> <r_lp_tautomer_probability>
0.107061

> <r_epik_Ionization_Penalty>
1.51515

> <r_epik_Ionization_Penalty_Charging>
1.51478

> <r_epik_Ionization_Penalty_Neutral>
0.000369309

> <r_epik_State_Penalty>
2.62718

> <r_epik_Charging_Adjusted_Penalty>
4.14196

> <i_epik_Tot_Q>
0

> <i_epik_Tot_abs_Q>
0

> <r_epik_Metal_State_Penalty>
3.5378

> <b_epik_Metal_Only>
0

> <s_lp_Force_Field>
OPLS_2005

> <r_lp_Energy>
36.8038

> <b_lp_Chiralities_Consistent>
1

> <s_lp_Variant>
AV-unprocessed.smi:2499-8

> <Gold.Version>
5.8.1

> <Gold.Id.Protein>
6NUR|6NUR_protein|mol2

> <Gold.PLP.Fitness>
40.0903

> <Gold.PLP.PLP>
-30.9219

> <Gold.PLP.part.hbond>
-1.0000

> <Gold.PLP.part.metal>
0.0000

> <Gold.PLP.part.buried>
-2.9423

> <Gold.PLP.part.nonpolar>
-26.4558

> <Gold.PLP.part.repulsive>
0.3435

> <Gold.PLP.ligand.clash>
0.0000

> <Gold.PLP.ligand.torsion>
0.9001

> <Gold.PLP.Chemscore.Hbond>
1.0000

> <Gold.PLP.Chemscore.CHOScore>
2.3024

> <Gold.PLP.Chemscore.Metal>
0.0000

> <Gold.Chemscore.Hbonds>
donor molecule, donor type, donor heavy atom, donor atom, acceptor molecule, acceptor atom, score
      P1  H  7997  8008       L1     5  1.00
      L1  C     9    21       P1  7949  0.40
      L1  C    10    22       P1  7948  0.33
      L1  C    10    22       P1  7957  0.80

> <Gold.PLP.Chemscore.Internal.Correction>
1.0615

> <Gold.Rescore>
     Score         DG    S(hbond)    S(metal)    S(lipo)     H(rot)  DE(clash)    DE(int)     intcor
     13.87     -14.82       0.95        0.00      80.92       1.29       0.02       0.93       ----

> <Gold.Chemscore.Fitness>
13.8677

> <Gold.Chemscore.DG>
-14.8186

> <Gold.Chemscore.ZeroCoef>
-5.4800

> <Gold.Chemscore.Hbond>
0.9512

> <Gold.Chemscore.Metal>
0.0000

> <Gold.Chemscore.Lipo>
80.9228

> <Gold.Chemscore.Internal_Hbond>
0.0000

> <Gold.Chemscore.DEClash>
0.0249

> <Gold.Chemscore.DEInternal>
0.9261

> <Gold.Chemscore.Rot>
1.2915

> <Gold.Chemscore.Internal.Correction>
   9.000000E+99

> <Gold.Chemscore.Hbonds>
donor molecule, donor type, donor heavy atom, donor atom, acceptor molecule, acceptor atom, score
      P1  H  7997  8008       L1     5  0.99

> <Gold.Chemscore.Hbond.Weighted>
-3.1769

> <Gold.Chemscore.Metal.Weighted>
-0.0000

> <Gold.Chemscore.Lipo.Weighted>
-9.4680

> <Gold.Chemscore.Internal_Hbond.Weighted>
0.0000

> <Gold.Chemscore.DEClash.Weighted>
0.0249

> <Gold.Chemscore.DEInternal.Weighted>
0.9261

> <Gold.Chemscore.Rot.Weighted>
3.3062

> <Gold.Chemscore.Internal.Correction.Weighted>
   9.000000E+99

> <Gold.Protein.RotatedTorsions>
[ 6907 6896 6895 6894 ] final -175.41 input  -60.11 | X-H torsion
[ 7974 7965 7964 7962 ] final  100.16 input  175.53 | X-H torsion
[ 8008 7997 7996 7995 ] final  -73.75 input   59.86 | X-H torsion
[ 10167 10162 10161 10158 ] final -151.52 input  -65.29 | X-H torsion
[ 10718 10713 10712 10709 ] final   24.25 input   66.30 | X-H torsion
[ 10763 10752 10751 10750 ] final    0.86 input  -60.55 | X-H torsion
[ 11005 11000 10999 10996 ] final -140.69 input  -57.11 | X-H torsion

> <Gold.Protein.ActiveResidues>
 VAL166  LYS551  ARG553  GLY616  TRP617  ASP618  TYR619  PRO620  LYS621  CYS622 
 ASP623  PHE694  ASN695  SER759  ASP760  ASP761  ALA762  ILE779  LEU786  VAL792 
 PHE793  MET794  SER795  GLU796  ALA797  LYS798  CYS799  TRP800  GLU811  SER814 

> <Gold.Protein.RotatedAtoms>
  151.5881  133.3370  159.3021 H   0  0  0  0  0  0  0  0  0  0  0  0  # atno 6907 bound_to 6896
  150.8276  134.7517  159.6837 H   0  0  0  0  0  0  0  0  0  0  0  0  # atno 6908 bound_to 6896
  152.4363  134.5686  159.9966 H   0  0  0  0  0  0  0  0  0  0  0  0  # atno 6909 bound_to 6896
  145.3893  139.2366  143.3361 H   0  0  0  0  0  0  0  0  0  0  0  0  # atno 7974 bound_to 7965
  154.5273  140.0773  156.8281 H   0  0  0  0  0  0  0  0  0  0  0  0  # atno 8008 bound_to 7997
  155.3449  140.3409  155.4221 H   0  0  0  0  0  0  0  0  0  0  0  0  # atno 8009 bound_to 7997
  156.1745  140.1631  156.8375 H   0  0  0  0  0  0  0  0  0  0  0  0  # atno 8010 bound_to 7997
  139.7260  143.8882  152.2519 H   0  0  0  0  0  0  0  0  0  0  0  0  # atno 10167 bound_to 10162
  157.1772  130.6786  149.6099 H   0  0  0  0  0  0  0  0  0  0  0  0  # atno 10718 bound_to 10713
  153.3153  135.6965  153.7078 H   0  0  0  0  0  0  0  0  0  0  0  0  # atno 10763 bound_to 10752
  153.5940  135.3474  155.2922 H   0  0  0  0  0  0  0  0  0  0  0  0  # atno 10764 bound_to 10752
  154.8585  135.4324  154.2303 H   0  0  0  0  0  0  0  0  0  0  0  0  # atno 10765 bound_to 10752
  140.8398  134.2416  157.4816 H   0  0  0  0  0  0  0  0  0  0  0  0  # atno 11005 bound_to 11000
  146.2805  140.4573  142.8778 LP  0  0  0  0  0  0  0  0  0  0  0  0  # atno 17320 bound_to 7965
  144.8452  140.6918  143.6204 LP  0  0  0  0  0  0  0  0  0  0  0  0  # atno 17321 bound_to 7965
  139.8791  144.7027  150.8898 LP  0  0  0  0  0  0  0  0  0  0  0  0  # atno 17342 bound_to 10162
  140.7763  143.3675  151.1711 LP  0  0  0  0  0  0  0  0  0  0  0  0  # atno 17343 bound_to 10162
  155.9729  130.4659  150.6270 LP  0  0  0  0  0  0  0  0  0  0  0  0  # atno 17370 bound_to 10713
  157.3987  131.0806  151.1328 LP  0  0  0  0  0  0  0  0  0  0  0  0  # atno 17371 bound_to 10713
  139.8703  134.9629  156.4445 LP  0  0  0  0  0  0  0  0  0  0  0  0  # atno 17394 bound_to 11000
  140.8908  133.7850  155.9569 LP  0  0  0  0  0  0  0  0  0  0  0  0  # atno 17395 bound_to 11000

$$$$
