AV-unprocessed.smi:240|AV-procd|sdf|1829|dock9
  -GOLD-   2262020433D 1   1.00000     0.00000
 Structure written by MMmdl.
 55 59  0  0  0  0  0  0  0  0  1 V2000
  149.8477  140.7976  153.4703 O   0  0  0  0  0  0  0  0  0  0  0  0
  148.7074  140.7622  154.3104 C   0  0  1  0  0  0  0  0  0  0  0  0
  147.6994  139.7734  153.7223 C   0  0  0  0  0  0  0  0  0  0  0  0
  148.1243  138.3986  154.2468 C   0  0  0  0  0  0  0  0  0  0  0  0
  149.0947  138.6621  155.4073 C   0  0  0  0  0  0  0  0  0  0  0  0
  149.0459  140.1769  155.6976 C   0  0  1  0  0  0  0  0  0  0  0  0
  150.2866  140.8077  156.4156 C   0  0  1  0  0  0  0  0  0  0  0  0
  150.2077  142.3573  156.3581 C   0  0  0  0  0  0  0  0  0  0  0  0
  151.2998  142.9597  157.0405 O   0  0  0  0  0  0  0  0  0  0  0  0
  151.3016  142.6285  158.4196 C   0  0  0  0  0  0  0  0  0  0  0  0
  151.4766  141.1131  158.5499 C   0  0  0  0  0  0  0  0  0  0  0  0
  150.4184  140.4107  157.8293 N   0  0  0  0  0  0  0  0  0  0  0  0
  150.4921  139.0910  158.1072 C   0  0  0  0  0  0  0  0  0  0  0  0
  151.7167  138.5142  158.0326 N   0  0  0  0  0  0  0  0  0  0  0  0
  151.8561  137.2099  158.2884 C   0  0  0  0  0  0  0  0  0  0  0  0
  150.9191  136.3190  158.6205 N   0  0  0  0  0  0  0  0  0  0  0  0
  149.6840  136.8949  158.6809 C   0  0  0  0  0  0  0  0  0  0  0  0
  149.3813  138.2641  158.4393 C   0  0  0  0  0  0  0  0  0  0  0  0
  148.0178  138.4831  158.5930 N   0  0  0  0  0  0  0  0  0  0  0  0
  147.5419  137.3100  158.9104 C   0  0  0  0  0  0  0  0  0  0  0  0
  148.4718  136.2967  158.9770 N   0  0  0  0  0  0  0  0  0  0  0  0
  148.2178  134.9004  159.2975 C   0  0  0  0  0  0  0  0  0  0  0  0
  147.1529  134.7095  160.4025 C   0  0  1  0  0  0  0  0  0  0  0  0
  145.8718  134.9678  159.8538 O   0  0  0  0  0  0  0  0  0  0  0  0
  147.1405  133.3172  161.0270 C   0  0  0  0  0  0  0  0  0  0  0  0
  146.6923  133.5906  162.4556 C   0  0  0  0  0  0  0  0  0  0  0  0
  147.3727  134.7941  162.7675 O   0  0  0  0  0  0  0  0  0  0  0  0
  147.3568  135.6356  161.6183 C   0  0  0  0  0  0  0  0  0  0  0  0
  149.7580  140.1262  152.8114 H   0  0  0  0  0  0  0  0  0  0  0  0
  148.2806  141.7637  154.3745 H   0  0  0  0  0  0  0  0  0  0  0  0
  146.7048  140.0077  154.1038 H   0  0  0  0  0  0  0  0  0  0  0  0
  147.6443  139.8123  152.6335 H   0  0  0  0  0  0  0  0  0  0  0  0
  147.2561  137.8258  154.5740 H   0  0  0  0  0  0  0  0  0  0  0  0
  148.6211  137.8218  153.4660 H   0  0  0  0  0  0  0  0  0  0  0  0
  148.8246  138.0611  156.2745 H   0  0  0  0  0  0  0  0  0  0  0  0
  150.1010  138.3710  155.1042 H   0  0  0  0  0  0  0  0  0  0  0  0
  148.1751  140.3568  156.3306 H   0  0  0  0  0  0  0  0  0  0  0  0
  151.1914  140.5028  155.8892 H   0  0  0  0  0  0  0  0  0  0  0  0
  150.2462  142.7148  155.3302 H   0  0  0  0  0  0  0  0  0  0  0  0
  149.2670  142.7147  156.7806 H   0  0  0  0  0  0  0  0  0  0  0  0
  152.1243  143.1474  158.9114 H   0  0  0  0  0  0  0  0  0  0  0  0
  150.3784  142.9624  158.8961 H   0  0  0  0  0  0  0  0  0  0  0  0
  152.4508  140.8231  158.1538 H   0  0  0  0  0  0  0  0  0  0  0  0
  151.4623  140.8334  159.6046 H   0  0  0  0  0  0  0  0  0  0  0  0
  152.8625  136.8247  158.2154 H   0  0  0  0  0  0  0  0  0  0  0  0
  146.4904  137.1483  159.0988 H   0  0  0  0  0  0  0  0  0  0  0  0
  147.9033  134.3936  158.3842 H   0  0  0  0  0  0  0  0  0  0  0  0
  149.1602  134.4377  159.5934 H   0  0  0  0  0  0  0  0  0  0  0  0
  145.9504  134.9963  158.9124 H   0  0  0  0  0  0  0  0  0  0  0  0
  146.5041  132.6027  160.5027 H   0  0  0  0  0  0  0  0  0  0  0  0
  148.1503  132.9066  161.0526 H   0  0  0  0  0  0  0  0  0  0  0  0
  145.6142  133.7508  162.5066 H   0  0  0  0  0  0  0  0  0  0  0  0
  146.9576  132.7874  163.1433 H   0  0  0  0  0  0  0  0  0  0  0  0
  148.2979  136.1840  161.5691 H   0  0  0  0  0  0  0  0  0  0  0  0
  146.5567  136.3714  161.7147 H   0  0  0  0  0  0  0  0  0  0  0  0
  1  2  1  0  0  0  0
  1 29  1  0  0  0  0
  2  6  1  0  0  0  0
  2  3  1  0  0  0  0
  2 30  1  0  0  0  0
  3  4  1  0  0  0  0
  3 31  1  0  0  0  0
  3 32  1  0  0  0  0
  4  5  1  0  0  0  0
  4 33  1  0  0  0  0
  4 34  1  0  0  0  0
  5  6  1  0  0  0  0
  5 35  1  0  0  0  0
  5 36  1  0  0  0  0
  6  7  1  0  0  0  0
  6 37  1  0  0  0  0
  7 12  1  0  0  0  0
  7  8  1  0  0  0  0
  7 38  1  0  0  0  0
  8  9  1  0  0  0  0
  8 39  1  0  0  0  0
  8 40  1  0  0  0  0
  9 10  1  0  0  0  0
 10 11  1  0  0  0  0
 10 41  1  0  0  0  0
 10 42  1  0  0  0  0
 11 12  1  0  0  0  0
 11 43  1  0  0  0  0
 11 44  1  0  0  0  0
 12 13  1  0  0  0  0
 13 18  1  0  0  0  0
 13 14  2  0  0  0  0
 14 15  1  0  0  0  0
 15 16  2  0  0  0  0
 15 45  1  0  0  0  0
 16 17  1  0  0  0  0
 17 21  1  0  0  0  0
 17 18  2  0  0  0  0
 18 19  1  0  0  0  0
 19 20  2  0  0  0  0
 20 21  1  0  0  0  0
 20 46  1  0  0  0  0
 21 22  1  0  0  0  0
 22 23  1  0  0  0  0
 22 47  1  0  0  0  0
 22 48  1  0  0  0  0
 23 28  1  0  0  0  0
 23 24  1  0  0  0  0
 23 25  1  0  0  0  0
 24 49  1  0  0  0  0
 25 26  1  0  0  0  0
 25 50  1  0  0  0  0
 25 51  1  0  0  0  0
 26 27  1  0  0  0  0
 26 52  1  0  0  0  0
 26 53  1  0  0  0  0
 27 28  1  0  0  0  0
 28 54  1  0  0  0  0
 28 55  1  0  0  0  0
M  END
> <s_m_source_file>
AV-unprocessed.smi

> <i_m_source_file_index>
240

> <i_lp_mmshare_version>
43012

> <i_f3d_flags>
0

> <s_epik_input>
W09IXVtDQEBIXTFbQ0gyXVtDSDJdW0NIMl1bQ0BIXTFbQ0BASF0yW0NIMl1PW0NIMl1bQ0gyXU4yYyhuW2NIXW4zKWMoYzM0KW5bY0hdbjRbQ0gyXVtDQEBdNShbT0hdKVtDSDJdW0NIMl1PW0NIMl01

> <s_epik_cmdline>
J2VwaWtfcHl0aG9uJywgJy1waCcsICc3LjAnLCAnLXRuJywgJzgnLCAnLW1hJywgJzIwMCcsICctbWV0YWxfYmluZGluZycsICctaW1hZScsICc8aW5maWxlLm1hZT4nLCAnLW9tYWUnLCAnPG91dGZpbGUubWFlPic=

> <r_lp_tautomer_probability>
1

> <r_epik_Ionization_Penalty>
0.000130618

> <r_epik_Ionization_Penalty_Charging>
0

> <r_epik_Ionization_Penalty_Neutral>
0.000130618

> <r_epik_State_Penalty>
-0

> <r_epik_Charging_Adjusted_Penalty>
0

> <i_epik_Tot_Q>
0

> <i_epik_Tot_abs_Q>
0

> <r_epik_Metal_State_Penalty>
-0

> <b_epik_Metal_Only>
0

> <s_lp_Force_Field>
OPLS_2005

> <r_lp_Energy>
62.2831

> <b_lp_Chiralities_Consistent>
1

> <s_lp_Variant>
AV-unprocessed.smi:240-6

> <Gold.Version>
5.8.1

> <Gold.Id.Protein>
6NUR|6NUR_protein|mol2

> <Gold.PLP.Fitness>
41.6854

> <Gold.PLP.PLP>
-34.9977

> <Gold.PLP.part.hbond>
-4.3564

> <Gold.PLP.part.metal>
0.0000

> <Gold.PLP.part.buried>
-2.4035

> <Gold.PLP.part.nonpolar>
-28.1809

> <Gold.PLP.part.repulsive>
0.1151

> <Gold.PLP.ligand.clash>
0.0000

> <Gold.PLP.ligand.torsion>
1.1161

> <Gold.PLP.Chemscore.Hbond>
2.8864

> <Gold.PLP.Chemscore.CHOScore>
0.0000

> <Gold.PLP.Chemscore.Metal>
0.0000

> <Gold.Chemscore.Hbonds>
donor molecule, donor type, donor heavy atom, donor atom, acceptor molecule, acceptor atom, score
      L1  H     1    29       P1  7957  0.75
      P1  H  6896  6908       L1    16  0.82
      P1  H  7989  7998       L1     1  0.29
      P1  H  8011  8017       L1     1  1.00

> <Gold.PLP.Chemscore.Internal.Correction>
0.2606

> <Gold.Rescore>
     Score         DG    S(hbond)    S(metal)    S(lipo)     H(rot)  DE(clash)    DE(int)     intcor
     12.64     -15.62       2.13        0.00      91.52       3.00       1.71       1.27       ----

> <Gold.Chemscore.Fitness>
12.6418

> <Gold.Chemscore.DG>
-15.6229

> <Gold.Chemscore.ZeroCoef>
-5.4800

> <Gold.Chemscore.Hbond>
2.1332

> <Gold.Chemscore.Metal>
0.0000

> <Gold.Chemscore.Lipo>
91.5195

> <Gold.Chemscore.Internal_Hbond>
0.0000

> <Gold.Chemscore.DEClash>
1.7067

> <Gold.Chemscore.DEInternal>
1.2744

> <Gold.Chemscore.Rot>
3.0039

> <Gold.Chemscore.Internal.Correction>
   9.000000E+99

> <Gold.Chemscore.Hbonds>
donor molecule, donor type, donor heavy atom, donor atom, acceptor molecule, acceptor atom, score
      L1  H     1    29       P1  7957  0.74
      P1  H  6896  6908       L1    16  0.64
      P1  H  7989  7998       L1     1  0.05
      P1  H  8011  8017       L1     1  0.19

> <Gold.Chemscore.Hbond.Weighted>
-7.1250

> <Gold.Chemscore.Metal.Weighted>
-0.0000

> <Gold.Chemscore.Lipo.Weighted>
-10.7078

> <Gold.Chemscore.Internal_Hbond.Weighted>
0.0000

> <Gold.Chemscore.DEClash.Weighted>
1.7067

> <Gold.Chemscore.DEInternal.Weighted>
1.2744

> <Gold.Chemscore.Rot.Weighted>
7.6899

> <Gold.Chemscore.Internal.Correction.Weighted>
   9.000000E+99

> <Gold.Protein.RotatedTorsions>
[ 6907 6896 6895 6894 ] final -154.33 input  -60.11 | X-H torsion
[ 7974 7965 7964 7962 ] final   93.23 input  175.53 | X-H torsion
[ 8008 7997 7996 7995 ] final  -25.34 input   59.86 | X-H torsion
[ 10167 10162 10161 10158 ] final   40.04 input  -65.29 | X-H torsion
[ 10718 10713 10712 10709 ] final -141.38 input   66.30 | X-H torsion
[ 10763 10752 10751 10750 ] final  -55.79 input  -60.55 | X-H torsion
[ 11005 11000 10999 10996 ] final  121.93 input  -57.11 | X-H torsion

> <Gold.Protein.ActiveResidues>
 VAL166  LYS551  ARG553  GLY616  TRP617  ASP618  TYR619  PRO620  LYS621  CYS622 
 ASP623  PHE694  ASN695  SER759  ASP760  ASP761  ALA762  ILE779  LEU786  VAL792 
 PHE793  MET794  SER795  GLU796  ALA797  LYS798  CYS799  TRP800  GLU811  SER814 

> <Gold.Protein.RotatedAtoms>
  151.2559  133.4326  159.2613 H   0  0  0  0  0  0  0  0  0  0  0  0  # atno 6907 bound_to 6896
  151.0575  134.9714  159.8253 H   0  0  0  0  0  0  0  0  0  0  0  0  # atno 6908 bound_to 6896
  152.5393  134.2511  159.8952 H   0  0  0  0  0  0  0  0  0  0  0  0  # atno 6909 bound_to 6896
  145.4817  139.2278  143.2879 H   0  0  0  0  0  0  0  0  0  0  0  0  # atno 7974 bound_to 7965
  154.4481  140.1929  156.0605 H   0  0  0  0  0  0  0  0  0  0  0  0  # atno 8008 bound_to 7997
  156.0586  140.3299  155.7408 H   0  0  0  0  0  0  0  0  0  0  0  0  # atno 8009 bound_to 7997
  155.5446  140.0589  157.2853 H   0  0  0  0  0  0  0  0  0  0  0  0  # atno 8010 bound_to 7997
  140.3781  144.2016  150.6131 H   0  0  0  0  0  0  0  0  0  0  0  0  # atno 10167 bound_to 10162
  156.3333  130.7598  151.1720 H   0  0  0  0  0  0  0  0  0  0  0  0  # atno 10718 bound_to 10713
  154.1964  135.6418  153.5074 H   0  0  0  0  0  0  0  0  0  0  0  0  # atno 10763 bound_to 10752
  153.0022  135.5441  154.6361 H   0  0  0  0  0  0  0  0  0  0  0  0  # atno 10764 bound_to 10752
  154.5763  135.2921  155.0751 H   0  0  0  0  0  0  0  0  0  0  0  0  # atno 10765 bound_to 10752
  139.9246  134.9640  156.8032 H   0  0  0  0  0  0  0  0  0  0  0  0  # atno 11005 bound_to 11000
  146.2337  140.5604  142.8964 LP  0  0  0  0  0  0  0  0  0  0  0  0  # atno 17320 bound_to 7965
  144.7885  140.5985  143.6557 LP  0  0  0  0  0  0  0  0  0  0  0  0  # atno 17321 bound_to 7965
  140.4965  143.2331  151.8741 LP  0  0  0  0  0  0  0  0  0  0  0  0  # atno 17342 bound_to 10162
  139.4797  144.5107  151.8936 LP  0  0  0  0  0  0  0  0  0  0  0  0  # atno 17343 bound_to 10162
  157.7434  131.0475  150.4947 LP  0  0  0  0  0  0  0  0  0  0  0  0  # atno 17370 bound_to 10713
  156.5116  130.4141  149.6298 LP  0  0  0  0  0  0  0  0  0  0  0  0  # atno 17371 bound_to 10713
  140.6373  133.9851  155.7690 LP  0  0  0  0  0  0  0  0  0  0  0  0  # atno 17394 bound_to 11000
  141.0794  134.0085  157.3408 LP  0  0  0  0  0  0  0  0  0  0  0  0  # atno 17395 bound_to 11000

$$$$
