AV-unprocessed.smi:2273|AV-procd|sdf|9166|dock9
  -GOLD-   2272012383D 1   1.00000     0.00000
 Structure written by MMmdl.
 53 54  0  0  0  0  0  0  0  0  1 V2000
  152.5971  142.2984  160.0476 C   0  0  0  0  0  0  0  0  0  0  0  0
  151.8836  141.9034  158.7476 C   0  0  0  0  0  0  0  0  0  0  0  0
  151.5248  140.4002  158.5882 C   0  0  0  0  0  0  0  0  0  0  0  0
  152.6524  139.5177  159.1882 C   0  0  0  0  0  0  0  0  0  0  0  0
  152.3068  138.0277  159.3358 C   0  0  0  0  0  0  0  0  0  0  0  0
  151.2208  140.0251  157.1055 C   0  0  2  0  0  0  0  0  0  0  0  0
  150.5521  138.6390  156.9555 C   0  0  0  0  0  0  0  0  0  0  0  0
  150.2274  138.3450  155.4797 C   0  0  2  0  0  0  0  0  0  0  0  0
  149.6615  137.0044  155.3136 N   0  0  0  0  0  0  0  0  0  0  0  0
  150.3146  135.8294  155.2568 C   0  0  0  0  0  0  0  0  0  0  0  0
  151.5411  135.7720  155.3304 O   0  0  0  0  0  0  0  0  0  0  0  0
  149.5124  134.7572  155.0969 N   0  0  0  0  0  0  0  0  0  0  0  0
  149.9098  133.4157  154.9948 C   0  0  0  0  0  0  0  0  0  0  0  0
  149.2319  132.5965  154.1486 C   0  0  0  0  0  0  0  0  0  0  0  0
  148.0866  133.1063  153.2878 C   0  0  0  0  0  0  0  0  0  0  0  0
  149.6231  131.2057  154.0508 C   0  0  0  0  0  0  0  0  0  0  0  0
  150.6338  130.7512  154.8035 C   0  0  0  0  0  0  0  0  0  0  0  0
  151.3168  131.5846  155.7008 N   0  0  0  0  0  0  0  0  0  0  0  0
  152.3948  130.9885  156.4943 C   0  0  0  0  0  0  0  0  0  0  0  0
  150.9866  132.8968  155.8732 C   0  0  0  0  0  0  0  0  0  0  0  0
  151.5507  133.5814  156.7299 O   0  0  0  0  0  0  0  0  0  0  0  0
  151.5135  138.4757  154.6541 C   0  0  0  0  0  0  0  0  0  0  0  0
  152.1919  139.8262  154.9291 C   0  0  0  0  0  0  0  0  0  0  0  0
  152.4180  139.9797  156.3270 O   0  0  0  0  0  0  0  0  0  0  0  0
  152.9294  143.3358  160.0003 H   0  0  0  0  0  0  0  0  0  0  0  0
  153.4778  141.6799  160.2216 H   0  0  0  0  0  0  0  0  0  0  0  0
  151.9361  142.2160  160.9101 H   0  0  0  0  0  0  0  0  0  0  0  0
  150.9817  142.5078  158.6424 H   0  0  0  0  0  0  0  0  0  0  0  0
  152.5408  142.2059  157.9338 H   0  0  0  0  0  0  0  0  0  0  0  0
  150.6283  140.1995  159.1763 H   0  0  0  0  0  0  0  0  0  0  0  0
  153.5311  139.5610  158.5445 H   0  0  0  0  0  0  0  0  0  0  0  0
  152.9638  139.9171  160.1543 H   0  0  0  0  0  0  0  0  0  0  0  0
  153.1931  137.4572  159.6140 H   0  0  0  0  0  0  0  0  0  0  0  0
  151.9292  137.6144  158.4000 H   0  0  0  0  0  0  0  0  0  0  0  0
  151.5614  137.8548  160.1114 H   0  0  0  0  0  0  0  0  0  0  0  0
  150.5777  140.7982  156.6807 H   0  0  0  0  0  0  0  0  0  0  0  0
  151.2233  137.8707  157.3425 H   0  0  0  0  0  0  0  0  0  0  0  0
  149.6478  138.5693  157.5536 H   0  0  0  0  0  0  0  0  0  0  0  0
  149.5141  139.0854  155.1121 H   0  0  0  0  0  0  0  0  0  0  0  0
  148.6552  136.9610  155.2380 H   0  0  0  0  0  0  0  0  0  0  0  0
  148.5342  134.9383  154.9268 H   0  0  0  0  0  0  0  0  0  0  0  0
  147.6914  132.3170  152.6478 H   0  0  0  0  0  0  0  0  0  0  0  0
  148.4223  133.9215  152.6460 H   0  0  0  0  0  0  0  0  0  0  0  0
  147.2717  133.4709  153.9139 H   0  0  0  0  0  0  0  0  0  0  0  0
  149.1134  130.5378  153.3719 H   0  0  0  0  0  0  0  0  0  0  0  0
  150.9723  129.7258  154.7717 H   0  0  0  0  0  0  0  0  0  0  0  0
  153.3224  131.5486  156.3663 H   0  0  0  0  0  0  0  0  0  0  0  0
  152.6018  129.9550  156.2145 H   0  0  0  0  0  0  0  0  0  0  0  0
  152.1369  130.9952  157.5541 H   0  0  0  0  0  0  0  0  0  0  0  0
  152.2029  137.6701  154.9117 H   0  0  0  0  0  0  0  0  0  0  0  0
  151.2968  138.3743  153.5901 H   0  0  0  0  0  0  0  0  0  0  0  0
  153.1494  139.8752  154.4107 H   0  0  0  0  0  0  0  0  0  0  0  0
  151.5852  140.6518  154.5541 H   0  0  0  0  0  0  0  0  0  0  0  0
  1  2  1  0  0  0  0
  1 25  1  0  0  0  0
  1 26  1  0  0  0  0
  1 27  1  0  0  0  0
  2  3  1  0  0  0  0
  2 28  1  0  0  0  0
  2 29  1  0  0  0  0
  3  4  1  0  0  0  0
  3  6  1  0  0  0  0
  3 30  1  0  0  0  0
  4  5  1  0  0  0  0
  4 31  1  0  0  0  0
  4 32  1  0  0  0  0
  5 33  1  0  0  0  0
  5 34  1  0  0  0  0
  5 35  1  0  0  0  0
  6 24  1  0  0  0  0
  6  7  1  0  0  0  0
  6 36  1  0  0  0  0
  7  8  1  0  0  0  0
  7 37  1  0  0  0  0
  7 38  1  0  0  0  0
  8  9  1  0  0  0  0
  8 22  1  0  0  0  0
  8 39  1  0  0  0  0
  9 10  1  0  0  0  0
  9 40  1  0  0  0  0
 10 11  2  0  0  0  0
 10 12  1  0  0  0  0
 12 13  1  0  0  0  0
 12 41  1  0  0  0  0
 13 20  1  0  0  0  0
 13 14  2  0  0  0  0
 14 15  1  0  0  0  0
 14 16  1  0  0  0  0
 15 42  1  0  0  0  0
 15 43  1  0  0  0  0
 15 44  1  0  0  0  0
 16 17  2  0  0  0  0
 16 45  1  0  0  0  0
 17 18  1  0  0  0  0
 17 46  1  0  0  0  0
 18 19  1  0  0  0  0
 18 20  1  0  0  0  0
 19 47  1  0  0  0  0
 19 48  1  0  0  0  0
 19 49  1  0  0  0  0
 20 21  2  0  0  0  0
 22 23  1  0  0  0  0
 22 50  1  0  0  0  0
 22 51  1  0  0  0  0
 23 24  1  0  0  0  0
 23 52  1  0  0  0  0
 23 53  1  0  0  0  0
M  END
> <s_m_source_file>
AV-unprocessed.smi

> <i_m_source_file_index>
2273

> <i_lp_mmshare_version>
43012

> <i_f3d_flags>
0

> <s_epik_input>
W0NIM11bQ0gyXVtDSF0oW0NIMl1bQ0gzXSlbQ0BASF0xW0NIMl1bQ0BIXShbQ0gyXVtDSDJdTzEpW05IXUMoPU8pW05IXWMyYyhbQ0gzXSlbY0hdW2NIXW4oW0NIM10pYzI9Tw==

> <s_epik_cmdline>
J2VwaWtfcHl0aG9uJywgJy1waCcsICc3LjAnLCAnLXRuJywgJzgnLCAnLW1hJywgJzIwMCcsICctbWV0YWxfYmluZGluZycsICctaW1hZScsICc8aW5maWxlLm1hZT4nLCAnLW9tYWUnLCAnPG91dGZpbGUubWFlPic=

> <r_lp_tautomer_probability>
1

> <r_epik_Ionization_Penalty>
2.66245e-05

> <r_epik_Ionization_Penalty_Charging>
6.91055e-06

> <r_epik_Ionization_Penalty_Neutral>
1.97139e-05

> <r_epik_State_Penalty>
-0

> <r_epik_Charging_Adjusted_Penalty>
6.91055e-06

> <i_epik_Tot_Q>
0

> <i_epik_Tot_abs_Q>
0

> <r_epik_Metal_State_Penalty>
-0

> <b_epik_Metal_Only>
0

> <s_lp_Force_Field>
OPLS_2005

> <r_lp_Energy>
42.9176

> <b_lp_Chiralities_Consistent>
1

> <s_lp_Variant>
AV-unprocessed.smi:2273-3

> <Gold.Version>
5.8.1

> <Gold.Id.Protein>
6NUR|6NUR_protein|mol2

> <Gold.PLP.Fitness>
45.9511

> <Gold.PLP.PLP>
-41.3406

> <Gold.PLP.part.hbond>
-2.8750

> <Gold.PLP.part.metal>
0.0000

> <Gold.PLP.part.buried>
-2.1505

> <Gold.PLP.part.nonpolar>
-36.5165

> <Gold.PLP.part.repulsive>
0.1338

> <Gold.PLP.ligand.clash>
0.0000

> <Gold.PLP.ligand.torsion>
0.9501

> <Gold.PLP.Chemscore.Hbond>
1.9920

> <Gold.PLP.Chemscore.CHOScore>
0.0000

> <Gold.PLP.Chemscore.Metal>
0.0000

> <Gold.Chemscore.Hbonds>
donor molecule, donor type, donor heavy atom, donor atom, acceptor molecule, acceptor atom, score
      P1  H  7997  8010       L1    24  0.90
      P1  H 10752 10765       L1    11  1.00

> <Gold.PLP.Chemscore.Internal.Correction>
0.5346

> <Gold.Rescore>
     Score         DG    S(hbond)    S(metal)    S(lipo)     H(rot)  DE(clash)    DE(int)     intcor
     17.73     -21.72       2.56        0.00      96.84       1.42       0.13       3.86       ----

> <Gold.Chemscore.Fitness>
17.7293

> <Gold.Chemscore.DG>
-21.7223

> <Gold.Chemscore.ZeroCoef>
-5.4800

> <Gold.Chemscore.Hbond>
2.5619

> <Gold.Chemscore.Metal>
0.0000

> <Gold.Chemscore.Lipo>
96.8389

> <Gold.Chemscore.Internal_Hbond>
0.0000

> <Gold.Chemscore.DEClash>
0.1309

> <Gold.Chemscore.DEInternal>
3.8620

> <Gold.Chemscore.Rot>
1.4236

> <Gold.Chemscore.Internal.Correction>
   9.000000E+99

> <Gold.Chemscore.Hbonds>
donor molecule, donor type, donor heavy atom, donor atom, acceptor molecule, acceptor atom, score
      P1  H  7997  8010       L1    24  0.62
      P1  H 10752 10765       L1    11  0.95

> <Gold.Chemscore.Hbond.Weighted>
-8.5566

> <Gold.Chemscore.Metal.Weighted>
-0.0000

> <Gold.Chemscore.Lipo.Weighted>
-11.3301

> <Gold.Chemscore.Internal_Hbond.Weighted>
0.0000

> <Gold.Chemscore.DEClash.Weighted>
0.1309

> <Gold.Chemscore.DEInternal.Weighted>
3.8620

> <Gold.Chemscore.Rot.Weighted>
3.6445

> <Gold.Chemscore.Internal.Correction.Weighted>
   9.000000E+99

> <Gold.Protein.RotatedTorsions>
[ 6907 6896 6895 6894 ] final  144.29 input  -60.11 | X-H torsion
[ 7974 7965 7964 7962 ] final   84.01 input  175.53 | X-H torsion
[ 8008 7997 7996 7995 ] final   55.20 input   59.86 | X-H torsion
[ 10167 10162 10161 10158 ] final -120.46 input  -65.29 | X-H torsion
[ 10718 10713 10712 10709 ] final -133.10 input   66.30 | X-H torsion
[ 10763 10752 10751 10750 ] final -152.70 input  -60.55 | X-H torsion
[ 11005 11000 10999 10996 ] final  109.35 input  -57.11 | X-H torsion

> <Gold.Protein.ActiveResidues>
 VAL166  LYS551  ARG553  GLY616  TRP617  ASP618  TYR619  PRO620  LYS621  CYS622 
 ASP623  PHE694  ASN695  SER759  ASP760  ASP761  ALA762  ILE779  LEU786  VAL792 
 PHE793  MET794  SER795  GLU796  ALA797  LYS798  CYS799  TRP800  GLU811  SER814 

> <Gold.Protein.RotatedAtoms>
  152.1955  133.4803  159.5030 H   0  0  0  0  0  0  0  0  0  0  0  0  # atno 6907 bound_to 6896
  150.6959  134.1658  159.4202 H   0  0  0  0  0  0  0  0  0  0  0  0  # atno 6908 bound_to 6896
  151.9574  135.0140  160.0596 H   0  0  0  0  0  0  0  0  0  0  0  0  # atno 6909 bound_to 6896
  145.6044  139.2358  143.2227 H   0  0  0  0  0  0  0  0  0  0  0  0  # atno 7974 bound_to 7965
  155.4972  140.3473  155.4365 H   0  0  0  0  0  0  0  0  0  0  0  0  # atno 8008 bound_to 7997
  156.0938  140.1417  156.9585 H   0  0  0  0  0  0  0  0  0  0  0  0  # atno 8009 bound_to 7997
  154.4651  140.0920  156.6975 H   0  0  0  0  0  0  0  0  0  0  0  0  # atno 8010 bound_to 7997
  140.0356  143.5205  152.2155 H   0  0  0  0  0  0  0  0  0  0  0  0  # atno 10167 bound_to 10162
  156.2415  130.7098  151.0961 H   0  0  0  0  0  0  0  0  0  0  0  0  # atno 10718 bound_to 10713
  154.7976  135.3230  154.7628 H   0  0  0  0  0  0  0  0  0  0  0  0  # atno 10763 bound_to 10752
  153.8303  135.6880  153.4820 H   0  0  0  0  0  0  0  0  0  0  0  0  # atno 10764 bound_to 10752
  153.1676  135.4636  154.9801 H   0  0  0  0  0  0  0  0  0  0  0  0  # atno 10765 bound_to 10752
  139.8860  134.9456  156.6113 H   0  0  0  0  0  0  0  0  0  0  0  0  # atno 11005 bound_to 11000
  146.1552  140.6868  142.9303 LP  0  0  0  0  0  0  0  0  0  0  0  0  # atno 17320 bound_to 7965
  144.7296  140.4631  143.6947 LP  0  0  0  0  0  0  0  0  0  0  0  0  # atno 17321 bound_to 7965
  139.6047  144.7593  151.3089 LP  0  0  0  0  0  0  0  0  0  0  0  0  # atno 17342 bound_to 10162
  140.7283  143.6939  150.7899 LP  0  0  0  0  0  0  0  0  0  0  0  0  # atno 17343 bound_to 10162
  157.7177  131.0700  150.6262 LP  0  0  0  0  0  0  0  0  0  0  0  0  # atno 17370 bound_to 10713
  156.6335  130.4438  149.5778 LP  0  0  0  0  0  0  0  0  0  0  0  0  # atno 17371 bound_to 10713
  140.7809  133.8660  155.8567 LP  0  0  0  0  0  0  0  0  0  0  0  0  # atno 17394 bound_to 11000
  140.9761  134.1467  157.4535 LP  0  0  0  0  0  0  0  0  0  0  0  0  # atno 17395 bound_to 11000

$$$$
