AV-unprocessed.smi:33|AV-procd|sdf|203|dock3
  -GOLD-   2262015483D 1   1.00000     0.00000
 Structure written by MMmdl.
 67 72  0  0  0  0  0  0  0  0  1 V2000
  154.5675  140.1686  159.4199 O   0  0  0  0  0  0  0  0  0  0  0  0
  153.3617  140.3920  159.5452 C   0  0  0  0  0  0  0  0  0  0  0  0
  152.4075  139.4577  159.3627 O   0  0  0  0  0  0  0  0  0  0  0  0
  152.7723  138.1041  159.1481 C   0  0  0  0  0  0  0  0  0  0  0  0
  151.7899  137.4667  158.1576 C   0  0  2  0  0  0  0  0  0  0  0  0
  151.9371  136.0511  158.1268 O   0  0  0  0  0  0  0  0  0  0  0  0
  151.4074  135.5512  156.9335 C   0  0  1  0  0  0  0  0  0  0  0  0
  150.0713  134.9504  157.2534 N   0  0  0  0  0  0  0  0  0  0  0  0
  149.6898  133.6238  157.2872 C   0  0  0  0  0  0  0  0  0  0  0  0
  148.4343  133.4072  157.5725 N   0  0  0  0  0  0  0  0  0  0  0  0
  147.9041  134.6797  157.7313 C   0  0  0  0  0  0  0  0  0  0  0  0
  146.6096  135.1797  158.0333 C   0  0  0  0  0  0  0  0  0  0  0  0
  145.5447  134.3727  158.2447 N   0  0  0  0  0  0  0  0  0  0  0  0
  145.3918  133.8125  159.5951 C   0  0  0  0  0  0  0  0  0  0  0  0
  144.7658  132.7621  159.7509 O   0  0  0  0  0  0  0  0  0  0  0  0
  146.0264  134.4878  160.7773 C   0  0  0  0  0  0  0  0  0  0  0  0
  146.0020  135.8957  160.8848 C   0  0  0  0  0  0  0  0  0  0  0  0
  146.6067  136.5340  161.9850 C   0  0  0  0  0  0  0  0  0  0  0  0
  147.2562  135.7704  162.9738 C   0  0  0  0  0  0  0  0  0  0  0  0
  147.3100  134.3684  162.8570 C   0  0  0  0  0  0  0  0  0  0  0  0
  146.7051  133.7293  161.7577 C   0  0  0  0  0  0  0  0  0  0  0  0
  144.6522  134.1273  157.1022 C   0  0  0  0  0  0  0  0  0  0  0  0
  143.4840  133.7904  157.3058 O   0  0  0  0  0  0  0  0  0  0  0  0
  145.1332  134.3365  155.6941 C   0  0  0  0  0  0  0  0  0  0  0  0
  144.2996  134.9798  154.7529 C   0  0  0  0  0  0  0  0  0  0  0  0
  144.7362  135.1655  153.4270 C   0  0  0  0  0  0  0  0  0  0  0  0
  146.0011  134.6925  153.0288 C   0  0  0  0  0  0  0  0  0  0  0  0
  146.8258  134.0255  153.9547 C   0  0  0  0  0  0  0  0  0  0  0  0
  146.3902  133.8398  155.2810 C   0  0  0  0  0  0  0  0  0  0  0  0
  146.4432  136.5257  158.1005 N   0  0  0  0  0  0  0  0  0  0  0  0
  147.4864  137.3331  157.8854 C   0  0  0  0  0  0  0  0  0  0  0  0
  148.7489  137.0081  157.5951 N   0  0  0  0  0  0  0  0  0  0  0  0
  148.9178  135.6550  157.5273 C   0  0  0  0  0  0  0  0  0  0  0  0
  151.2683  136.7428  155.9664 C   0  0  2  0  0  0  0  0  0  0  0  0
  151.8184  136.5028  154.6869 O   0  0  0  0  0  0  0  0  0  0  0  0
  152.0361  137.8367  156.6962 C   0  0  2  0  0  0  0  0  0  0  0  0
  153.3457  137.7458  156.4448 F   0  0  0  0  0  0  0  0  0  0  0  0
  152.8064  141.7262  159.9156 C   0  0  0  0  0  0  0  0  0  0  0  0
  152.5197  142.6642  158.8961 C   0  0  0  0  0  0  0  0  0  0  0  0
  151.9976  143.9330  159.2145 C   0  0  0  0  0  0  0  0  0  0  0  0
  151.7557  144.2795  160.5566 C   0  0  0  0  0  0  0  0  0  0  0  0
  152.0358  143.3550  161.5799 C   0  0  0  0  0  0  0  0  0  0  0  0
  152.5577  142.0856  161.2634 C   0  0  0  0  0  0  0  0  0  0  0  0
  153.7820  138.0709  158.7362 H   0  0  0  0  0  0  0  0  0  0  0  0
  152.7814  137.5561  160.0913 H   0  0  0  0  0  0  0  0  0  0  0  0
  150.7676  137.7296  158.4306 H   0  0  0  0  0  0  0  0  0  0  0  0
  152.0235  134.7364  156.5523 H   0  0  0  0  0  0  0  0  0  0  0  0
  150.3709  132.8081  157.0984 H   0  0  0  0  0  0  0  0  0  0  0  0
  145.5059  136.4913  160.1321 H   0  0  0  0  0  0  0  0  0  0  0  0
  146.5723  137.6101  162.0697 H   0  0  0  0  0  0  0  0  0  0  0  0
  147.7186  136.2604  163.8179 H   0  0  0  0  0  0  0  0  0  0  0  0
  147.8163  133.7824  163.6098 H   0  0  0  0  0  0  0  0  0  0  0  0
  146.7567  132.6529  161.6754 H   0  0  0  0  0  0  0  0  0  0  0  0
  143.3268  135.3469  155.0471 H   0  0  0  0  0  0  0  0  0  0  0  0
  144.0996  135.6703  152.7153 H   0  0  0  0  0  0  0  0  0  0  0  0
  146.3353  134.8352  152.0119 H   0  0  0  0  0  0  0  0  0  0  0  0
  147.7924  133.6547  153.6475 H   0  0  0  0  0  0  0  0  0  0  0  0
  147.0295  133.3214  155.9809 H   0  0  0  0  0  0  0  0  0  0  0  0
  147.2801  138.3910  157.9546 H   0  0  0  0  0  0  0  0  0  0  0  0
  150.2220  137.0299  155.8595 H   0  0  0  0  0  0  0  0  0  0  0  0
  151.3004  136.9668  154.0467 H   0  0  0  0  0  0  0  0  0  0  0  0
  151.7114  138.8451  156.4381 H   0  0  0  0  0  0  0  0  0  0  0  0
  152.6977  142.4215  157.8583 H   0  0  0  0  0  0  0  0  0  0  0  0
  151.7831  144.6407  158.4274 H   0  0  0  0  0  0  0  0  0  0  0  0
  151.3562  145.2528  160.8004 H   0  0  0  0  0  0  0  0  0  0  0  0
  151.8506  143.6199  162.6107 H   0  0  0  0  0  0  0  0  0  0  0  0
  152.7623  141.4003  162.0731 H   0  0  0  0  0  0  0  0  0  0  0  0
  1  2  2  0  0  0  0
  2  3  1  0  0  0  0
  2 38  1  0  0  0  0
  3  4  1  0  0  0  0
  4  5  1  0  0  0  0
  4 44  1  0  0  0  0
  4 45  1  0  0  0  0
  5 36  1  0  0  0  0
  5  6  1  0  0  0  0
  5 46  1  0  0  0  0
  6  7  1  0  0  0  0
  7  8  1  0  0  0  0
  7 34  1  0  0  0  0
  7 47  1  0  0  0  0
  8 33  1  0  0  0  0
  8  9  1  0  0  0  0
  9 10  2  0  0  0  0
  9 48  1  0  0  0  0
 10 11  1  0  0  0  0
 11 33  2  0  0  0  0
 11 12  1  0  0  0  0
 12 13  1  0  0  0  0
 12 30  2  0  0  0  0
 13 14  1  0  0  0  0
 13 22  1  0  0  0  0
 14 15  2  0  0  0  0
 14 16  1  0  0  0  0
 16 21  1  0  0  0  0
 16 17  2  0  0  0  0
 17 18  1  0  0  0  0
 17 49  1  0  0  0  0
 18 19  2  0  0  0  0
 18 50  1  0  0  0  0
 19 20  1  0  0  0  0
 19 51  1  0  0  0  0
 20 21  2  0  0  0  0
 20 52  1  0  0  0  0
 21 53  1  0  0  0  0
 22 23  2  0  0  0  0
 22 24  1  0  0  0  0
 24 29  1  0  0  0  0
 24 25  2  0  0  0  0
 25 26  1  0  0  0  0
 25 54  1  0  0  0  0
 26 27  2  0  0  0  0
 26 55  1  0  0  0  0
 27 28  1  0  0  0  0
 27 56  1  0  0  0  0
 28 29  2  0  0  0  0
 28 57  1  0  0  0  0
 29 58  1  0  0  0  0
 30 31  1  0  0  0  0
 31 32  2  0  0  0  0
 31 59  1  0  0  0  0
 32 33  1  0  0  0  0
 34 35  1  0  0  0  0
 34 36  1  0  0  0  0
 34 60  1  0  0  0  0
 35 61  1  0  0  0  0
 36 37  1  0  0  0  0
 36 62  1  0  0  0  0
 38 43  1  0  0  0  0
 38 39  2  0  0  0  0
 39 40  1  0  0  0  0
 39 63  1  0  0  0  0
 40 41  2  0  0  0  0
 40 64  1  0  0  0  0
 41 42  1  0  0  0  0
 41 65  1  0  0  0  0
 42 43  2  0  0  0  0
 42 66  1  0  0  0  0
 43 67  1  0  0  0  0
M  END
> <s_m_source_file>
AV-unprocessed.smi

> <i_m_source_file_index>
33

> <i_lp_mmshare_version>
43012

> <i_f3d_flags>
0

> <s_epik_input>
W2NIXTFbY0hdW2NIXVtjSF1bY0hdYzFDKD1PKU9bQ0gyXVtDQEBIXTJPW0NASF0oW0NAQEhdKFtPSF0pW0NAQEhdMkYpbihbY0hdbjMpYyhjMzQpbltjSF1uYzROKEMoPU8pYzVbY0hdW2NIXVtjSF1bY0hdW2NIXTUpQyg9TyljNltjSF1bY0hdW2NIXVtjSF1bY0hdNg==

> <s_epik_cmdline>
J2VwaWtfcHl0aG9uJywgJy1waCcsICc3LjAnLCAnLXRuJywgJzgnLCAnLW1hJywgJzIwMCcsICctbWV0YWxfYmluZGluZycsICctaW1hZScsICc8aW5maWxlLm1hZT4nLCAnLW9tYWUnLCAnPG91dGZpbGUubWFlPic=

> <r_lp_tautomer_probability>
1

> <r_epik_Ionization_Penalty>
0.00067664

> <r_epik_Ionization_Penalty_Charging>
0

> <r_epik_Ionization_Penalty_Neutral>
0.00067664

> <r_epik_State_Penalty>
0.000428095

> <r_epik_Charging_Adjusted_Penalty>
0.000428095

> <i_epik_Tot_Q>
0

> <i_epik_Tot_abs_Q>
0

> <r_epik_Metal_State_Penalty>
-0

> <b_epik_Metal_Only>
0

> <s_epik_Chemistry_Notes>
This compound has an ester and may undergo hydrolysis at high or low pH. This compound contains an acetal/aminal-like group ( X-CH(R)-Y where X, Y are N, S, or O) that may be acid/base labile, releasing an aldehyde.

> <s_lp_Force_Field>
OPLS_2005

> <r_lp_Energy>
70.8142

> <b_lp_Chiralities_Consistent>
1

> <s_lp_Variant>
AV-unprocessed.smi:33-5

> <Gold.Version>
5.8.1

> <Gold.Id.Protein>
6NUR|6NUR_protein|mol2

> <Gold.PLP.Fitness>
58.4124

> <Gold.PLP.PLP>
-56.8398

> <Gold.PLP.part.hbond>
-4.6112

> <Gold.PLP.part.metal>
0.0000

> <Gold.PLP.part.buried>
-8.6521

> <Gold.PLP.part.nonpolar>
-44.5641

> <Gold.PLP.part.repulsive>
0.0609

> <Gold.PLP.ligand.clash>
0.0000

> <Gold.PLP.ligand.torsion>
5.5538

> <Gold.PLP.Chemscore.Hbond>
2.8414

> <Gold.PLP.Chemscore.CHOScore>
0.0000

> <Gold.PLP.Chemscore.Metal>
0.0000

> <Gold.Chemscore.Hbonds>
donor molecule, donor type, donor heavy atom, donor atom, acceptor molecule, acceptor atom, score
      P1  H  6896  6907       L1     6  0.28
      P1  H  7997  8010       L1     1  0.67
      P1  H 10752 10764       L1    35  0.76
      P1  H 11000 11005       L1    23  0.29

> <Gold.PLP.Chemscore.Internal.Correction>
4.1560

> <Gold.Rescore>
     Score         DG    S(hbond)    S(metal)    S(lipo)     H(rot)  DE(clash)    DE(int)     intcor
     17.27     -25.67       2.97        0.00     143.16       2.52       0.05       8.35       ----

> <Gold.Chemscore.Fitness>
17.2665

> <Gold.Chemscore.DG>
-25.6698

> <Gold.Chemscore.ZeroCoef>
-5.4800

> <Gold.Chemscore.Hbond>
2.9651

> <Gold.Chemscore.Metal>
0.0000

> <Gold.Chemscore.Lipo>
143.1585

> <Gold.Chemscore.Internal_Hbond>
0.0000

> <Gold.Chemscore.DEClash>
0.0549

> <Gold.Chemscore.DEInternal>
8.3484

> <Gold.Chemscore.Rot>
2.5247

> <Gold.Chemscore.Internal.Correction>
   9.000000E+99

> <Gold.Chemscore.Hbonds>
donor molecule, donor type, donor heavy atom, donor atom, acceptor molecule, acceptor atom, score
      P1  H  6896  6907       L1     6  0.23
      P1  H  7997  8010       L1     1  0.50
      P1  H 10752 10764       L1    35  0.76
      P1  H 11000 11005       L1    23  0.30

> <Gold.Chemscore.Hbond.Weighted>
-9.9035

> <Gold.Chemscore.Metal.Weighted>
-0.0000

> <Gold.Chemscore.Lipo.Weighted>
-16.7495

> <Gold.Chemscore.Internal_Hbond.Weighted>
0.0000

> <Gold.Chemscore.DEClash.Weighted>
0.0549

> <Gold.Chemscore.DEInternal.Weighted>
8.3484

> <Gold.Chemscore.Rot.Weighted>
6.4633

> <Gold.Chemscore.Internal.Correction.Weighted>
   9.000000E+99

> <Gold.Protein.RotatedTorsions>
[ 6907 6896 6895 6894 ] final   -2.22 input  -60.11 | X-H torsion
[ 7974 7965 7964 7962 ] final  109.28 input  175.53 | X-H torsion
[ 8008 7997 7996 7995 ] final   -1.15 input   59.86 | X-H torsion
[ 10167 10162 10161 10158 ] final -101.10 input  -65.29 | X-H torsion
[ 10718 10713 10712 10709 ] final -107.80 input   66.30 | X-H torsion
[ 10763 10752 10751 10750 ] final  -72.73 input  -60.55 | X-H torsion
[ 11005 11000 10999 10996 ] final -104.52 input  -57.11 | X-H torsion

> <Gold.Protein.ActiveResidues>
 VAL166  LYS551  ARG553  GLY616  TRP617  ASP618  TYR619  PRO620  LYS621  CYS622 
 ASP623  PHE694  ASN695  SER759  ASP760  ASP761  ALA762  ILE779  LEU786  VAL792 
 PHE793  MET794  SER795  GLU796  ALA797  LYS798  CYS799  TRP800  GLU811  SER814 

> <Gold.Protein.RotatedAtoms>
  151.5335  135.1068  159.9908 H   0  0  0  0  0  0  0  0  0  0  0  0  # atno 6907 bound_to 6896
  152.4568  133.7735  159.6822 H   0  0  0  0  0  0  0  0  0  0  0  0  # atno 6908 bound_to 6896
  150.8514  133.7715  159.3049 H   0  0  0  0  0  0  0  0  0  0  0  0  # atno 6909 bound_to 6896
  145.2698  139.2671  143.3972 H   0  0  0  0  0  0  0  0  0  0  0  0  # atno 7974 bound_to 7965
  154.6501  140.2566  155.7224 H   0  0  0  0  0  0  0  0  0  0  0  0  # atno 8008 bound_to 7997
  156.2571  140.2870  156.0851 H   0  0  0  0  0  0  0  0  0  0  0  0  # atno 8009 bound_to 7997
  155.1465  140.0381  157.2801 H   0  0  0  0  0  0  0  0  0  0  0  0  # atno 8010 bound_to 7997
  140.2448  143.3513  152.0768 H   0  0  0  0  0  0  0  0  0  0  0  0  # atno 10167 bound_to 10162
  156.0454  130.5681  150.7872 H   0  0  0  0  0  0  0  0  0  0  0  0  # atno 10718 bound_to 10713
  154.4498  135.5920  153.6184 H   0  0  0  0  0  0  0  0  0  0  0  0  # atno 10763 bound_to 10752
  152.9812  135.6018  154.3619 H   0  0  0  0  0  0  0  0  0  0  0  0  # atno 10764 bound_to 10752
  154.3479  135.2841  155.2366 H   0  0  0  0  0  0  0  0  0  0  0  0  # atno 10765 bound_to 10752
  141.1097  133.8730  157.1621 H   0  0  0  0  0  0  0  0  0  0  0  0  # atno 11005 bound_to 11000
  146.3250  140.3138  142.8628 LP  0  0  0  0  0  0  0  0  0  0  0  0  # atno 17320 bound_to 7965
  144.9345  140.8011  143.5669 LP  0  0  0  0  0  0  0  0  0  0  0  0  # atno 17321 bound_to 7965
  139.5065  144.6815  151.5996 LP  0  0  0  0  0  0  0  0  0  0  0  0  # atno 17342 bound_to 10162
  140.6086  143.9479  150.6436 LP  0  0  0  0  0  0  0  0  0  0  0  0  # atno 17343 bound_to 10162
  157.5323  131.0937  150.9938 LP  0  0  0  0  0  0  0  0  0  0  0  0  # atno 17370 bound_to 10713
  157.0242  130.5686  149.5335 LP  0  0  0  0  0  0  0  0  0  0  0  0  # atno 17371 bound_to 10713
  139.9984  135.0038  157.0134 LP  0  0  0  0  0  0  0  0  0  0  0  0  # atno 17394 bound_to 11000
  140.4809  134.1290  155.7217 LP  0  0  0  0  0  0  0  0  0  0  0  0  # atno 17395 bound_to 11000

$$$$
