AV-unprocessed.smi:743|AV-procd|sdf|3567|dock1
  -GOLD-   22720 0563D 1   1.00000     0.00000
 Structure written by MMmdl.
 28 29  0  0  0  0  0  0  0  0  1 V2000
  149.6171  131.9867  154.8985 C   0  0  0  0  0  0  0  0  0  0  0  0
  148.6093  132.0771  153.8640 N   0  0  0  0  0  0  0  0  0  0  0  0
  148.2390  133.1739  153.1172 C   0  0  0  0  0  0  0  0  0  0  0  0
  147.2491  132.7777  152.2589 C   0  0  0  0  0  0  0  0  0  0  0  0
  146.4920  133.5806  151.2183 C   0  0  1  0  0  0  0  0  0  0  0  0
  145.6167  132.7094  150.4291 N   0  0  0  0  0  0  0  0  0  0  0  0
  144.2956  132.5216  150.6102 C   0  0  0  0  0  0  0  0  0  0  0  0
  143.6756  131.6783  149.9667 O   0  0  0  0  0  0  0  0  0  0  0  0
  143.5370  133.4160  151.6061 C   0  0  0  0  0  0  0  0  0  0  0  0
  144.4437  134.2082  152.5650 C   0  0  0  0  0  0  0  0  0  0  0  0
  145.6759  134.7472  151.8276 C   0  0  1  0  0  0  0  0  0  0  0  0
  146.4740  135.5904  152.6995 N   0  0  0  0  0  0  0  0  0  0  0  0
  147.0844  131.3976  152.5747 C   0  0  0  0  0  0  0  0  0  0  0  0
  147.8970  130.9821  153.5322 N   0  0  0  0  0  0  0  0  0  0  0  0
  145.3267  135.3837  151.0133 H   0  0  0  0  0  0  0  0  0  0  0  0
  150.1130  132.9497  155.0227 H   0  0  0  0  0  0  0  0  0  0  0  0
  150.3613  131.2383  154.6247 H   0  0  0  0  0  0  0  0  0  0  0  0
  149.1524  131.7027  155.8432 H   0  0  0  0  0  0  0  0  0  0  0  0
  148.7092  134.1369  153.2526 H   0  0  0  0  0  0  0  0  0  0  0  0
  147.2043  134.0096  150.5126 H   0  0  0  0  0  0  0  0  0  0  0  0
  146.0714  132.1348  149.7342 H   0  0  0  0  0  0  0  0  0  0  0  0
  142.9420  134.1156  151.0182 H   0  0  0  0  0  0  0  0  0  0  0  0
  142.8301  132.8114  152.1748 H   0  0  0  0  0  0  0  0  0  0  0  0
  143.8753  135.0305  153.0010 H   0  0  0  0  0  0  0  0  0  0  0  0
  144.7464  133.5718  153.3978 H   0  0  0  0  0  0  0  0  0  0  0  0
  147.3616  135.7912  152.2614 H   0  0  0  0  0  0  0  0  0  0  0  0
  146.0102  136.4775  152.8345 H   0  0  0  0  0  0  0  0  0  0  0  0
  146.4000  130.6879  152.1339 H   0  0  0  0  0  0  0  0  0  0  0  0
  1  2  1  0  0  0  0
  1 16  1  0  0  0  0
  1 17  1  0  0  0  0
  1 18  1  0  0  0  0
  2 14  1  0  0  0  0
  2  3  1  0  0  0  0
  3  4  2  0  0  0  0
  3 19  1  0  0  0  0
  4  5  1  0  0  0  0
  4 13  1  0  0  0  0
  5 11  1  0  0  0  0
  5  6  1  0  0  0  0
  5 20  1  0  0  0  0
  6  7  1  0  0  0  0
  6 21  1  0  0  0  0
  7  8  2  0  0  0  0
  7  9  1  0  0  0  0
  9 10  1  0  0  0  0
  9 22  1  0  0  0  0
  9 23  1  0  0  0  0
 10 11  1  0  0  0  0
 10 24  1  0  0  0  0
 10 25  1  0  0  0  0
 11 15  1  0  0  0  0
 11 12  1  0  0  0  0
 12 26  1  0  0  0  0
 12 27  1  0  0  0  0
 13 14  2  0  0  0  0
 13 28  1  0  0  0  0
M  END
> <s_m_source_file>
AV-unprocessed.smi

> <i_m_source_file_index>
743

> <i_lp_mmshare_version>
43012

> <i_f3d_flags>
0

> <s_epik_input>
W0NIM11uMVtjSF1jKFtjSF1uMSlbQ0BASF0yW05IXUMoPU8pW0NIMl1bQ0gyXVtDQEBIXTJbTkgyXQ==

> <s_epik_cmdline>
J2VwaWtfcHl0aG9uJywgJy1waCcsICc3LjAnLCAnLXRuJywgJzgnLCAnLW1hJywgJzIwMCcsICctbWV0YWxfYmluZGluZycsICctaW1hZScsICc8aW5maWxlLm1hZT4nLCAnLW9tYWUnLCAnPG91dGZpbGUubWFlPic=

> <r_lp_tautomer_probability>
1

> <r_epik_Ionization_Penalty>
2.50279

> <r_epik_Ionization_Penalty_Charging>
0

> <r_epik_Ionization_Penalty_Neutral>
2.50279

> <r_epik_State_Penalty>
2.66754

> <r_epik_Charging_Adjusted_Penalty>
2.66754

> <i_epik_Tot_Q>
0

> <i_epik_Tot_abs_Q>
0

> <r_epik_Metal_State_Penalty>
2.66721

> <b_epik_Metal_Only>
0

> <s_lp_Force_Field>
OPLS_2005

> <r_lp_Energy>
9.07018

> <b_lp_Chiralities_Consistent>
1

> <s_lp_Variant>
AV-unprocessed.smi:743-8

> <Gold.Version>
5.8.1

> <Gold.Id.Protein>
6NUR|6NUR_protein|mol2

> <Gold.PLP.Fitness>
33.3378

> <Gold.PLP.PLP>
-24.9983

> <Gold.PLP.part.hbond>
-2.0000

> <Gold.PLP.part.metal>
0.0000

> <Gold.PLP.part.buried>
-2.9782

> <Gold.PLP.part.nonpolar>
-20.5306

> <Gold.PLP.part.repulsive>
0.3090

> <Gold.PLP.ligand.clash>
0.0000

> <Gold.PLP.ligand.torsion>
0.0392

> <Gold.PLP.Chemscore.Hbond>
1.8000

> <Gold.PLP.Chemscore.CHOScore>
1.0000

> <Gold.PLP.Chemscore.Metal>
0.0000

> <Gold.Chemscore.Hbonds>
donor molecule, donor type, donor heavy atom, donor atom, acceptor molecule, acceptor atom, score
      L1  H    12    26       P1  7948  1.00
      P1  H 10785 10796       L1     8  0.90
      L1  C     3    19       P1  7948  0.74

> <Gold.PLP.Chemscore.Internal.Correction>
0.0179

> <Gold.Rescore>
     Score         DG    S(hbond)    S(metal)    S(lipo)     H(rot)  DE(clash)    DE(int)     intcor
     13.96     -14.24       1.86        0.00      43.75       1.00       0.01       0.28       ----

> <Gold.Chemscore.Fitness>
13.9565

> <Gold.Chemscore.DG>
-14.2444

> <Gold.Chemscore.ZeroCoef>
-5.4800

> <Gold.Chemscore.Hbond>
1.8579

> <Gold.Chemscore.Metal>
0.0000

> <Gold.Chemscore.Lipo>
43.7512

> <Gold.Chemscore.Internal_Hbond>
0.0000

> <Gold.Chemscore.DEClash>
0.0106

> <Gold.Chemscore.DEInternal>
0.2772

> <Gold.Chemscore.Rot>
1.0000

> <Gold.Chemscore.Internal.Correction>
   9.000000E+99

> <Gold.Chemscore.Hbonds>
donor molecule, donor type, donor heavy atom, donor atom, acceptor molecule, acceptor atom, score
      L1  H    12    26       P1  7948  1.00
      P1  H 10785 10796       L1     8  0.83

> <Gold.Chemscore.Hbond.Weighted>
-6.2055

> <Gold.Chemscore.Metal.Weighted>
-0.0000

> <Gold.Chemscore.Lipo.Weighted>
-5.1189

> <Gold.Chemscore.Internal_Hbond.Weighted>
0.0000

> <Gold.Chemscore.DEClash.Weighted>
0.0106

> <Gold.Chemscore.DEInternal.Weighted>
0.2772

> <Gold.Chemscore.Rot.Weighted>
2.5600

> <Gold.Chemscore.Internal.Correction.Weighted>
   9.000000E+99

> <Gold.Protein.RotatedTorsions>
[ 6907 6896 6895 6894 ] final  166.70 input  -60.11 | X-H torsion
[ 7974 7965 7964 7962 ] final  -48.32 input  175.53 | X-H torsion
[ 8008 7997 7996 7995 ] final  179.46 input   59.86 | X-H torsion
[ 10167 10162 10161 10158 ] final   64.13 input  -65.29 | X-H torsion
[ 10718 10713 10712 10709 ] final   65.06 input   66.30 | X-H torsion
[ 10763 10752 10751 10750 ] final -129.97 input  -60.55 | X-H torsion
[ 11005 11000 10999 10996 ] final   51.43 input  -57.11 | X-H torsion

> <Gold.Protein.ActiveResidues>
 VAL166  LYS551  ARG553  GLY616  TRP617  ASP618  TYR619  PRO620  LYS621  CYS622 
 ASP623  PHE694  ASN695  SER759  ASP760  ASP761  ALA762  ILE779  LEU786  VAL792 
 PHE793  MET794  SER795  GLU796  ALA797  LYS798  CYS799  TRP800  GLU811  SER814 

> <Gold.Protein.RotatedAtoms>
  151.8749  133.3483  159.3746 H   0  0  0  0  0  0  0  0  0  0  0  0  # atno 6907 bound_to 6896
  150.7143  134.5076  159.5601 H   0  0  0  0  0  0  0  0  0  0  0  0  # atno 6908 bound_to 6896
  152.2616  134.8028  160.0480 H   0  0  0  0  0  0  0  0  0  0  0  0  # atno 6909 bound_to 6896
  145.9524  140.7559  142.9498 H   0  0  0  0  0  0  0  0  0  0  0  0  # atno 7974 bound_to 7965
  156.0432  140.1308  157.0133 H   0  0  0  0  0  0  0  0  0  0  0  0  # atno 8008 bound_to 7997
  154.4400  140.1026  156.6337 H   0  0  0  0  0  0  0  0  0  0  0  0  # atno 8009 bound_to 7997
  155.5636  140.3465  155.4499 H   0  0  0  0  0  0  0  0  0  0  0  0  # atno 8010 bound_to 7997
  140.1256  144.4691  150.6895 H   0  0  0  0  0  0  0  0  0  0  0  0  # atno 10167 bound_to 10162
  157.6081  130.9194  149.9927 H   0  0  0  0  0  0  0  0  0  0  0  0  # atno 10718 bound_to 10713
  154.8756  135.3878  154.4006 H   0  0  0  0  0  0  0  0  0  0  0  0  # atno 10763 bound_to 10752
  153.4731  135.7030  153.5987 H   0  0  0  0  0  0  0  0  0  0  0  0  # atno 10764 bound_to 10752
  153.4435  135.3850  155.2210 H   0  0  0  0  0  0  0  0  0  0  0  0  # atno 10765 bound_to 10752
  140.0933  134.5179  155.8831 H   0  0  0  0  0  0  0  0  0  0  0  0  # atno 11005 bound_to 11000
  144.6798  140.2457  143.7338 LP  0  0  0  0  0  0  0  0  0  0  0  0  # atno 17320 bound_to 7965
  145.8153  139.2020  143.1969 LP  0  0  0  0  0  0  0  0  0  0  0  0  # atno 17321 bound_to 7965
  140.6847  143.2344  151.5292 LP  0  0  0  0  0  0  0  0  0  0  0  0  # atno 17342 bound_to 10162
  139.5546  144.2308  152.1590 LP  0  0  0  0  0  0  0  0  0  0  0  0  # atno 17343 bound_to 10162
  156.1174  130.3647  149.9945 LP  0  0  0  0  0  0  0  0  0  0  0  0  # atno 17370 bound_to 10713
  156.8032  130.9298  151.3645 LP  0  0  0  0  0  0  0  0  0  0  0  0  # atno 17371 bound_to 10713
  141.2084  133.6674  156.6372 LP  0  0  0  0  0  0  0  0  0  0  0  0  # atno 17394 bound_to 11000
  140.3321  134.7920  157.4334 LP  0  0  0  0  0  0  0  0  0  0  0  0  # atno 17395 bound_to 11000

$$$$
