#       Name:                AV-unprocessed.smi:2153
#       Creating user name   scv26
#       Creation time:       Fri Mar 27 11:54:52 2020


#       File generated by GOLD software.
#

@<TRIPOS>MOLECULE
AV-unprocessed.smi:2153
    56    57     1
SMALL
NO_CHARGES


@<TRIPOS>ATOM
      1 ****        -1.5320  -0.8126  -3.7203 C.3            1 S1                 0.0000
      2 ****        -2.0018  -0.4219  -2.3105 C.3            1 S1                 0.0000
      3 ****        -1.3326   0.8812  -1.8251 C.3            1 S1                 0.0000
      4 ****        -1.8334   1.2884  -0.4307 C.3            1 S1                 0.0000
      5 ****        -1.6449   0.1506   0.5826 C.3            1 S1                 0.0000
      6 ****        -2.3159  -1.1448   0.1004 C.3            1 S1                 0.0000
      7 ****        -1.7964  -1.5660  -1.2916 C.3            1 S1                 0.0000
      8 ****        -0.4060  -1.8621  -1.2469 O.3            1 S1                 0.0000
      9 ****        -0.0600  -3.1286  -0.7074 C.3            1 S1                 0.0000
     10 ****         1.4711  -3.2635  -0.7000 C.3            1 S1                 0.0000
     11 ****         2.0865  -2.3727   0.2797 N.am           1 S1                 0.0000
     12 ****         2.3755  -1.0786   0.0715 C.2            1 S1                 0.0000
     13 ****         2.1974  -0.5131  -1.0071 O.2            1 S1                 0.0000
     14 ****         2.9750  -0.3089   1.2547 C.3            1 S1                 0.0000
     15 ****         2.0607   0.7282   1.7501 N.am           1 S1                 0.0000
     16 ****         1.2599   0.4534   2.8441 C.2            1 S1                 0.0000
     17 ****         0.3694   1.3302   3.3568 C.2            1 S1                 0.0000
     18 ****         0.1912   2.6482   2.7614 C.2            1 S1                 0.0000
     19 ****        -0.6019   3.4834   3.1975 O.2            1 S1                 0.0000
     20 ****         1.0130   2.9017   1.6385 N.am           1 S1                 0.0000
     21 ****         0.8904   4.1959   0.9999 C.3            1 S1                 0.0000
     22 ****         1.9670   1.9925   1.1265 C.2            1 S1                 0.0000
     23 ****         2.6980   2.2774   0.1753 O.2            1 S1                 0.0000
     24 ****        -0.4572  -0.9952  -3.7472 H              1 S1                 0.0000
     25 ****        -1.7507  -0.0221  -4.4385 H              1 S1                 0.0000
     26 ****        -2.0330  -1.7178  -4.0640 H              1 S1                 0.0000
     27 ****        -3.0742  -0.2329  -2.3764 H              1 S1                 0.0000
     28 ****        -0.2491   0.7571  -1.7994 H              1 S1                 0.0000
     29 ****        -1.5309   1.6879  -2.5314 H              1 S1                 0.0000
     30 ****        -1.3050   2.1798  -0.0924 H              1 S1                 0.0000
     31 ****        -2.8889   1.5569  -0.4856 H              1 S1                 0.0000
     32 ****        -0.5807  -0.0293   0.7313 H              1 S1                 0.0000
     33 ****        -2.0493   0.4441   1.5515 H              1 S1                 0.0000
     34 ****        -2.1665  -1.9366   0.8334 H              1 S1                 0.0000
     35 ****        -3.3943  -0.9903   0.0480 H              1 S1                 0.0000
     36 ****        -2.3441  -2.4452  -1.6358 H              1 S1                 0.0000
     37 ****        -0.4487  -3.2551   0.3027 H              1 S1                 0.0000
     38 ****        -0.4957  -3.9145  -1.3257 H              1 S1                 0.0000
     39 ****         1.7423  -4.2846  -0.4322 H              1 S1                 0.0000
     40 ****         1.8788  -3.0870  -1.6969 H              1 S1                 0.0000
     41 ****         2.2792  -2.7613   1.1913 H              1 S1                 0.0000
     42 ****         3.2272  -1.0007   2.0603 H              1 S1                 0.0000
     43 ****         3.9233   0.1337   0.9450 H              1 S1                 0.0000
     44 ****         1.3459  -0.5155   3.3143 H              1 S1                 0.0000
     45 ****        -0.2247   1.0501   4.2142 H              1 S1                 0.0000
     46 ****         1.1849   4.1245  -0.0477 H              1 S1                 0.0000
     47 ****         1.5353   4.8828   1.5493 H              1 S1                 0.0000
     48 ****        -0.1532   4.5132   1.0322 H              1 S1                 0.0000
     49 ****         0.0392  -1.1601  -0.6911 LP             1 S1                 0.0000
     50 ****        -0.0534  -1.8204  -2.1817 LP             1 S1                 0.0000
     51 ****         1.8201  -1.0209  -1.7816 LP             1 S1                 0.0000
     52 ****         2.4300   0.4541  -1.1089 LP             1 S1                 0.0000
     53 ****        -1.1622   3.2707   3.9980 LP             1 S1                 0.0000
     54 ****        -0.6856   4.3743   2.7511 LP             1 S1                 0.0000
     55 ****         3.3639   1.6112  -0.1606 LP             1 S1                 0.0000
     56 ****         2.6250   3.1746  -0.2602 LP             1 S1                 0.0000
@<TRIPOS>BOND
    1    1    2 1     
    2    1   24 1     
    3    1   25 1     
    4    1   26 1     
    5    2    7 1     
    6    2    3 1     
    7    2   27 1     
    8    3    4 1     
    9    3   28 1     
   10    3   29 1     
   11    4    5 1     
   12    4   30 1     
   13    4   31 1     
   14    5    6 1     
   15    5   32 1     
   16    5   33 1     
   17    6    7 1     
   18    6   34 1     
   19    6   35 1     
   20    7    8 1     
   21    7   36 1     
   22    8    9 1     
   23    9   10 1     
   24    9   37 1     
   25    9   38 1     
   26   10   11 1     
   27   10   39 1     
   28   10   40 1     
   29   11   12 am    
   30   11   41 1     
   31   12   13 2     
   32   12   14 1     
   33   14   15 1     
   34   14   42 1     
   35   14   43 1     
   36   15   22 am    
   37   15   16 1     
   38   16   17 2     
   39   16   44 1     
   40   17   18 1     
   41   17   45 1     
   42   18   19 2     
   43   18   20 am    
   44   20   21 1     
   45   20   22 am    
   46   21   46 1     
   47   21   47 1     
   48   21   48 1     
   49   22   23 2     
   50    8   49 1     
   51    8   50 1     
   52   13   51 1     
   53   13   52 1     
   54   19   53 1     
   55   19   54 1     
   56   23   55 1     
   57   23   56 1     
@<TRIPOS>SUBSTRUCTURE
      1 S1             1
@<TRIPOS>SET
LONE_PAIRS      STATIC     ATOMS    <user>   **** ""
8 49 50 51 52 53 54 55 56
DONOR_HYDROGENS      STATIC     ATOMS    <user>   **** ""
1 41
ATOM$BLUE        STATIC     ATOMS    COLORGROUP SYSTEM
8 49 50 51 52 53 54 55 56
ATOM$RED        STATIC     ATOMS    COLORGROUP SYSTEM
1 41
