AV-unprocessed.smi:2379|AV-procd|sdf|9453|dock9
  -GOLD-   2272013 83D 1   1.00000     0.00000
 Structure written by MMmdl.
 53 55  0  0  0  0  0  0  0  0  2 V2000
  151.2701  145.1813  158.7122 C   0  0  0  0  0  0  0  0  0  0  0  0
  151.7044  143.8031  159.1648 C   0  0  0  0  0  0  0  0  0  0  0  0
  152.3943  143.6280  160.3796 C   0  0  0  0  0  0  0  0  0  0  0  0
  152.7705  142.3218  160.7484 C   0  0  0  0  0  0  0  0  0  0  0  0
  153.5150  142.0633  162.0413 C   0  0  0  0  0  0  0  0  0  0  0  0
  152.5026  141.2365  159.9908 N   0  0  0  0  0  0  0  0  0  0  0  0
  151.8382  141.3929  158.8191 C   0  0  0  0  0  0  0  0  0  0  0  0
  151.5003  140.3157  157.9573 N   0  0  0  0  0  0  0  0  0  0  0  0
  151.2576  140.3572  156.6353 C   0  0  0  0  0  0  0  0  0  0  0  0
  151.2362  141.3771  155.9459 O   0  0  0  0  0  0  0  0  0  0  0  0
  151.0303  139.1302  156.1430 N   0  0  0  0  0  0  0  0  0  0  0  0
  150.7143  138.8246  154.7474 C   0  0  2  0  0  0  0  0  0  0  0  0
  149.1911  138.8141  154.5306 C   0  0  0  0  0  0  0  0  0  0  0  0
  148.5205  137.5852  155.1736 C   0  0  0  0  0  0  0  0  0  0  0  0
  149.1319  136.3188  154.6911 N   0  3  2  0  0  0  0  0  0  0  0  0
  148.4162  135.1130  155.1848 C   0  0  0  0  0  0  0  0  0  0  0  0
  149.1445  133.8037  154.8199 C   0  0  2  0  0  0  0  0  0  0  0  0
  148.8362  133.3192  153.4164 C   0  0  0  0  0  0  0  0  0  0  0  0
  149.2773  131.8617  153.4796 C   0  0  0  0  0  0  0  0  0  0  0  0
  148.9956  131.4403  154.8090 O   0  0  0  0  0  0  0  0  0  0  0  0
  148.7492  132.5712  155.6388 C   0  0  0  0  0  0  0  0  0  0  0  0
  150.5924  136.2857  154.9654 C   0  0  0  0  0  0  0  0  0  0  0  0
  151.3064  137.4733  154.2990 C   0  0  0  0  0  0  0  0  0  0  0  0
  151.4204  142.6686  158.3777 C   0  0  0  0  0  0  0  0  0  0  0  0
  151.8366  145.9596  159.2244 H   0  0  0  0  0  0  0  0  0  0  0  0
  150.2115  145.3311  158.9246 H   0  0  0  0  0  0  0  0  0  0  0  0
  151.4267  145.2997  157.6397 H   0  0  0  0  0  0  0  0  0  0  0  0
  152.6287  144.4720  161.0121 H   0  0  0  0  0  0  0  0  0  0  0  0
  153.3993  142.8976  162.7337 H   0  0  0  0  0  0  0  0  0  0  0  0
  154.5780  141.9269  161.8427 H   0  0  0  0  0  0  0  0  0  0  0  0
  153.1382  141.1642  162.5304 H   0  0  0  0  0  0  0  0  0  0  0  0
  151.4465  139.4096  158.3982 H   0  0  0  0  0  0  0  0  0  0  0  0
  151.0603  138.3516  156.7849 H   0  0  0  0  0  0  0  0  0  0  0  0
  151.1401  139.6182  154.1306 H   0  0  0  0  0  0  0  0  0  0  0  0
  148.7465  139.7311  154.9197 H   0  0  0  0  0  0  0  0  0  0  0  0
  148.9841  138.8103  153.4596 H   0  0  0  0  0  0  0  0  0  0  0  0
  148.5949  137.6352  156.2611 H   0  0  0  0  0  0  0  0  0  0  0  0
  147.4577  137.5974  154.9287 H   0  0  0  0  0  0  0  0  0  0  0  0
  148.2311  135.1830  156.2579 H   0  0  0  0  0  0  0  0  0  0  0  0
  147.4301  135.0706  154.7198 H   0  0  0  0  0  0  0  0  0  0  0  0
  150.2234  133.9509  154.8961 H   0  0  0  0  0  0  0  0  0  0  0  0
  147.7649  133.3763  153.2177 H   0  0  0  0  0  0  0  0  0  0  0  0
  149.3572  133.8840  152.6427 H   0  0  0  0  0  0  0  0  0  0  0  0
  148.7686  131.2370  152.7451 H   0  0  0  0  0  0  0  0  0  0  0  0
  150.3516  131.7810  153.3089 H   0  0  0  0  0  0  0  0  0  0  0  0
  149.3097  132.4957  156.5707 H   0  0  0  0  0  0  0  0  0  0  0  0
  147.6857  132.5886  155.8807 H   0  0  0  0  0  0  0  0  0  0  0  0
  150.7643  136.2981  156.0428 H   0  0  0  0  0  0  0  0  0  0  0  0
  151.0295  135.3614  154.5934 H   0  0  0  0  0  0  0  0  0  0  0  0
  151.2092  137.3831  153.2163 H   0  0  0  0  0  0  0  0  0  0  0  0
  152.3761  137.4293  154.5058 H   0  0  0  0  0  0  0  0  0  0  0  0
  150.8891  142.7796  157.4434 H   0  0  0  0  0  0  0  0  0  0  0  0
  149.0196  136.3229  153.6873 H   0  0  0  0  0  0  0  0  0  0  0  0
  1  2  1  0  0  0  0
  1 25  1  0  0  0  0
  1 26  1  0  0  0  0
  1 27  1  0  0  0  0
  2 24  1  0  0  0  0
  2  3  2  0  0  0  0
  3  4  1  0  0  0  0
  3 28  1  0  0  0  0
  4  5  1  0  0  0  0
  4  6  2  0  0  0  0
  5 29  1  0  0  0  0
  5 30  1  0  0  0  0
  5 31  1  0  0  0  0
  6  7  1  0  0  0  0
  7  8  1  0  0  0  0
  7 24  2  0  0  0  0
  8  9  1  0  0  0  0
  8 32  1  0  0  0  0
  9 10  2  0  0  0  0
  9 11  1  0  0  0  0
 11 12  1  0  0  0  0
 11 33  1  0  0  0  0
 12 23  1  0  0  0  0
 12 13  1  0  0  0  0
 12 34  1  0  0  0  0
 13 14  1  0  0  0  0
 13 35  1  0  0  0  0
 13 36  1  0  0  0  0
 14 15  1  0  0  0  0
 14 37  1  0  0  0  0
 14 38  1  0  0  0  0
 15 16  1  0  0  0  0
 15 22  1  0  0  0  0
 15 53  1  0  0  0  0
 16 17  1  0  0  0  0
 16 39  1  0  0  0  0
 16 40  1  0  0  0  0
 17 21  1  0  0  0  0
 17 18  1  0  0  0  0
 17 41  1  0  0  0  0
 18 19  1  0  0  0  0
 18 42  1  0  0  0  0
 18 43  1  0  0  0  0
 19 20  1  0  0  0  0
 19 44  1  0  0  0  0
 19 45  1  0  0  0  0
 20 21  1  0  0  0  0
 21 46  1  0  0  0  0
 21 47  1  0  0  0  0
 22 23  1  0  0  0  0
 22 48  1  0  0  0  0
 22 49  1  0  0  0  0
 23 50  1  0  0  0  0
 23 51  1  0  0  0  0
 24 52  1  0  0  0  0
M  CHG  1  15   1
M  END
> <s_m_source_file>
AV-unprocessed.smi

> <i_m_source_file_index>
2379

> <i_lp_mmshare_version>
43012

> <i_f3d_flags>
0

> <s_epik_input>
W0NIM11jMVtjSF1jKFtDSDNdKW5jKFtjSF0xKVtOSF1DKD1PKVtOSF1bQ0hdMltDSDJdW0NIMl1OKFtDSDJdW0NIMl0yKVtDSDJdW0NAQEhdM1tDSDJdW0NIMl1PW0NIMl0z

> <s_epik_cmdline>
J2VwaWtfcHl0aG9uJywgJy1waCcsICc3LjAnLCAnLXRuJywgJzgnLCAnLW1hJywgJzIwMCcsICctbWV0YWxfYmluZGluZycsICctaW1hZScsICc8aW5maWxlLm1hZT4nLCAnLW9tYWUnLCAnPG91dGZpbGUubWFlPic=

> <r_epik_Ionization_Penalty>
0.00766556

> <r_epik_Ionization_Penalty_Charging>
0.00747775

> <r_epik_Ionization_Penalty_Neutral>
0.00018781

> <r_epik_State_Penalty>
0.00558817

> <r_epik_Charging_Adjusted_Penalty>
0.0130659

> <i_epik_Tot_Q>
1

> <i_epik_Tot_abs_Q>
1

> <r_epik_Metal_State_Penalty>
-0

> <b_epik_Metal_Only>
0

> <s_lp_Force_Field>
OPLS_2005

> <r_lp_Energy>
34.3762

> <b_lp_Chiralities_Consistent>
1

> <s_lp_Variant>
AV-unprocessed.smi:2379-3

> <Gold.Version>
5.8.1

> <Gold.Id.Protein>
6NUR|6NUR_protein|mol2

> <Gold.PLP.Fitness>
49.1635

> <Gold.PLP.PLP>
-44.6274

> <Gold.PLP.part.hbond>
-1.5813

> <Gold.PLP.part.metal>
0.0000

> <Gold.PLP.part.buried>
-3.9489

> <Gold.PLP.part.nonpolar>
-38.7854

> <Gold.PLP.part.repulsive>
0.2199

> <Gold.PLP.ligand.clash>
0.0000

> <Gold.PLP.ligand.torsion>
0.7535

> <Gold.PLP.Chemscore.Hbond>
2.0000

> <Gold.PLP.Chemscore.CHOScore>
0.0000

> <Gold.PLP.Chemscore.Metal>
0.0000

> <Gold.Chemscore.Hbonds>
donor molecule, donor type, donor heavy atom, donor atom, acceptor molecule, acceptor atom, score
      L1  H    15    53       P1  7948  2.00

> <Gold.PLP.Chemscore.Internal.Correction>
0.0430

> <Gold.Rescore>
     Score         DG    S(hbond)    S(metal)    S(lipo)     H(rot)  DE(clash)    DE(int)     intcor
     17.37     -19.73       1.03        0.00     122.37       1.37       0.27       2.09       ----

> <Gold.Chemscore.Fitness>
17.3681

> <Gold.Chemscore.DG>
-19.7340

> <Gold.Chemscore.ZeroCoef>
-5.4800

> <Gold.Chemscore.Hbond>
1.0329

> <Gold.Chemscore.Metal>
0.0000

> <Gold.Chemscore.Lipo>
122.3726

> <Gold.Chemscore.Internal_Hbond>
0.0000

> <Gold.Chemscore.DEClash>
0.2725

> <Gold.Chemscore.DEInternal>
2.0933

> <Gold.Chemscore.Rot>
1.3725

> <Gold.Chemscore.Internal.Correction>
   9.000000E+99

> <Gold.Chemscore.Hbonds>
donor molecule, donor type, donor heavy atom, donor atom, acceptor molecule, acceptor atom, score
      L1  H    15    53       P1  7948  0.99

> <Gold.Chemscore.Hbond.Weighted>
-3.4499

> <Gold.Chemscore.Metal.Weighted>
-0.0000

> <Gold.Chemscore.Lipo.Weighted>
-14.3176

> <Gold.Chemscore.Internal_Hbond.Weighted>
0.0000

> <Gold.Chemscore.DEClash.Weighted>
0.2725

> <Gold.Chemscore.DEInternal.Weighted>
2.0933

> <Gold.Chemscore.Rot.Weighted>
3.5136

> <Gold.Chemscore.Internal.Correction.Weighted>
   9.000000E+99

> <Gold.Protein.RotatedTorsions>
[ 6907 6896 6895 6894 ] final  138.69 input  -60.11 | X-H torsion
[ 7974 7965 7964 7962 ] final  145.97 input  175.53 | X-H torsion
[ 8008 7997 7996 7995 ] final  150.03 input   59.86 | X-H torsion
[ 10167 10162 10161 10158 ] final   48.46 input  -65.29 | X-H torsion
[ 10718 10713 10712 10709 ] final   76.32 input   66.30 | X-H torsion
[ 10763 10752 10751 10750 ] final  145.26 input  -60.55 | X-H torsion
[ 11005 11000 10999 10996 ] final   63.59 input  -57.11 | X-H torsion

> <Gold.Protein.ActiveResidues>
 VAL166  LYS551  ARG553  GLY616  TRP617  ASP618  TYR619  PRO620  LYS621  CYS622 
 ASP623  PHE694  ASN695  SER759  ASP760  ASP761  ALA762  ILE779  LEU786  VAL792 
 PHE793  MET794  SER795  GLU796  ALA797  LYS798  CYS799  TRP800  GLU811  SER814 

> <Gold.Protein.RotatedAtoms>
  152.2637  133.5320  159.5396 H   0  0  0  0  0  0  0  0  0  0  0  0  # atno 6907 bound_to 6896
  150.7134  134.0795  159.3902 H   0  0  0  0  0  0  0  0  0  0  0  0  # atno 6908 bound_to 6896
  151.8711  135.0489  160.0530 H   0  0  0  0  0  0  0  0  0  0  0  0  # atno 6909 bound_to 6896
  144.8709  139.5847  143.5887 H   0  0  0  0  0  0  0  0  0  0  0  0  # atno 7974 bound_to 7965
  156.2732  140.2086  156.5952 H   0  0  0  0  0  0  0  0  0  0  0  0  # atno 8008 bound_to 7997
  154.6951  140.0526  157.0425 H   0  0  0  0  0  0  0  0  0  0  0  0  # atno 8009 bound_to 7997
  155.0813  140.3187  155.4603 H   0  0  0  0  0  0  0  0  0  0  0  0  # atno 8010 bound_to 7997
  140.2931  144.3022  150.6236 H   0  0  0  0  0  0  0  0  0  0  0  0  # atno 10167 bound_to 10162
  157.6669  130.9768  150.1480 H   0  0  0  0  0  0  0  0  0  0  0  0  # atno 10718 bound_to 10713
  154.0025  135.2922  155.3401 H   0  0  0  0  0  0  0  0  0  0  0  0  # atno 10763 bound_to 10752
  154.7151  135.5133  153.8728 H   0  0  0  0  0  0  0  0  0  0  0  0  # atno 10764 bound_to 10752
  153.0759  135.6663  154.0265 H   0  0  0  0  0  0  0  0  0  0  0  0  # atno 10765 bound_to 10752
  140.0014  134.6436  155.9924 H   0  0  0  0  0  0  0  0  0  0  0  0  # atno 11005 bound_to 11000
  146.2929  139.7193  142.9147 LP  0  0  0  0  0  0  0  0  0  0  0  0  # atno 17320 bound_to 7965
  145.4132  141.0399  143.3005 LP  0  0  0  0  0  0  0  0  0  0  0  0  # atno 17321 bound_to 7965
  140.5715  143.2180  151.7590 LP  0  0  0  0  0  0  0  0  0  0  0  0  # atno 17342 bound_to 10162
  139.4933  144.4209  151.9978 LP  0  0  0  0  0  0  0  0  0  0  0  0  # atno 17343 bound_to 10162
  156.2286  130.3680  149.8471 LP  0  0  0  0  0  0  0  0  0  0  0  0  # atno 17370 bound_to 10713
  156.6305  130.8663  151.3494 LP  0  0  0  0  0  0  0  0  0  0  0  0  # atno 17371 bound_to 10713
  141.1645  133.6537  156.4431 LP  0  0  0  0  0  0  0  0  0  0  0  0  # atno 17394 bound_to 11000
  140.4720  134.6744  157.5133 LP  0  0  0  0  0  0  0  0  0  0  0  0  # atno 17395 bound_to 11000

$$$$
