AV-unprocessed.smi:3002|AV-procd|sdf|11433|dock6
  -GOLD-   2272016363D 1   1.00000     0.00000
 Structure written by MMmdl.
 34 35  0  0  0  0  0  0  0  0  1 V2000
  146.8123  133.6239  152.3166 C   0  0  0  0  0  0  0  0  0  0  0  0
  146.1275  134.1823  151.0494 C   0  0  2  0  0  0  0  0  0  0  0  0
  145.5251  135.5706  151.3215 C   0  0  0  0  0  0  0  0  0  0  0  0
  144.3817  135.8392  150.9521 O   0  0  0  0  0  0  0  0  0  0  0  0
  146.3142  136.4487  151.9578 N   0  0  0  0  0  0  0  0  0  0  0  0
  145.9435  137.8226  152.2702 C   0  0  0  0  0  0  0  0  0  0  0  0
  147.1225  138.5803  152.9033 C   0  0  2  0  0  0  0  0  0  0  0  0
  147.3811  138.1523  154.3608 C   0  0  0  0  0  0  0  0  0  0  0  0
  148.3753  139.1338  154.9881 C   0  0  0  0  0  0  0  0  0  0  0  0
  147.9913  140.7623  154.2442 S   0  0  0  0  0  0  0  0  0  0  0  0
  147.1444  141.5347  155.1657 O   0  0  0  0  0  0  0  0  0  0  0  0
  149.2243  141.3377  153.6861 O   0  0  0  0  0  0  0  0  0  0  0  0
  146.9468  140.1097  152.8853 C   0  0  0  0  0  0  0  0  0  0  0  0
  145.1180  133.2807  150.4874 N   0  0  0  0  0  0  0  0  0  0  0  0
  144.8134  132.0159  150.8017 C   0  0  0  0  0  0  0  0  0  0  0  0
  143.7825  131.5217  150.1314 N   0  0  0  0  0  0  0  0  0  0  0  0
  143.4555  132.6144  149.3816 C   0  0  0  0  0  0  0  0  0  0  0  0
  144.2070  133.6983  149.5715 N   0  0  0  0  0  0  0  0  0  0  0  0
  147.5031  134.3504  152.7462 H   0  0  0  0  0  0  0  0  0  0  0  0
  147.3921  132.7288  152.0892 H   0  0  0  0  0  0  0  0  0  0  0  0
  146.0857  133.3627  153.0872 H   0  0  0  0  0  0  0  0  0  0  0  0
  146.8998  134.2977  150.2870 H   0  0  0  0  0  0  0  0  0  0  0  0
  147.2393  136.1496  152.2308 H   0  0  0  0  0  0  0  0  0  0  0  0
  145.6165  138.3359  151.3640 H   0  0  0  0  0  0  0  0  0  0  0  0
  145.0942  137.8106  152.9546 H   0  0  0  0  0  0  0  0  0  0  0  0
  148.0259  138.3483  152.3367 H   0  0  0  0  0  0  0  0  0  0  0  0
  146.4451  138.1945  154.9198 H   0  0  0  0  0  0  0  0  0  0  0  0
  147.7431  137.1256  154.4229 H   0  0  0  0  0  0  0  0  0  0  0  0
  148.3016  139.1855  156.0745 H   0  0  0  0  0  0  0  0  0  0  0  0
  149.3986  138.8718  154.7183 H   0  0  0  0  0  0  0  0  0  0  0  0
  147.2403  140.5620  151.9378 H   0  0  0  0  0  0  0  0  0  0  0  0
  145.9141  140.3898  153.0966 H   0  0  0  0  0  0  0  0  0  0  0  0
  145.3535  131.4416  151.5402 H   0  0  0  0  0  0  0  0  0  0  0  0
  142.6310  132.6155  148.6837 H   0  0  0  0  0  0  0  0  0  0  0  0
  1  2  1  0  0  0  0
  1 19  1  0  0  0  0
  1 20  1  0  0  0  0
  1 21  1  0  0  0  0
  2  3  1  0  0  0  0
  2 14  1  0  0  0  0
  2 22  1  0  0  0  0
  3  4  2  0  0  0  0
  3  5  1  0  0  0  0
  5  6  1  0  0  0  0
  5 23  1  0  0  0  0
  6  7  1  0  0  0  0
  6 24  1  0  0  0  0
  6 25  1  0  0  0  0
  7 13  1  0  0  0  0
  7  8  1  0  0  0  0
  7 26  1  0  0  0  0
  8  9  1  0  0  0  0
  8 27  1  0  0  0  0
  8 28  1  0  0  0  0
  9 10  1  0  0  0  0
  9 29  1  0  0  0  0
  9 30  1  0  0  0  0
 10 11  2  0  0  0  0
 10 12  2  0  0  0  0
 10 13  1  0  0  0  0
 13 31  1  0  0  0  0
 13 32  1  0  0  0  0
 14 18  1  0  0  0  0
 14 15  1  0  0  0  0
 15 16  2  0  0  0  0
 15 33  1  0  0  0  0
 16 17  1  0  0  0  0
 17 18  2  0  0  0  0
 17 34  1  0  0  0  0
M  END
> <s_m_source_file>
AV-unprocessed.smi

> <i_m_source_file_index>
3002

> <i_lp_mmshare_version>
43012

> <i_f3d_flags>
0

> <s_epik_input>
bjFbY0hdbltjSF1uMVtDQEhdKFtDSDNdKUMoPU8pW05IXVtDSDJdW0NAQEhdKFtDSDJdMilbQ0gyXVtDSDJdUzIoPU8pPU8=

> <s_epik_cmdline>
J2VwaWtfcHl0aG9uJywgJy1waCcsICc3LjAnLCAnLXRuJywgJzgnLCAnLW1hJywgJzIwMCcsICctbWV0YWxfYmluZGluZycsICctaW1hZScsICc8aW5maWxlLm1hZT4nLCAnLW9tYWUnLCAnPG91dGZpbGUubWFlPic=

> <r_lp_tautomer_probability>
1

> <r_epik_Ionization_Penalty>
1.1748e-05

> <r_epik_Ionization_Penalty_Charging>
0

> <r_epik_Ionization_Penalty_Neutral>
1.1748e-05

> <r_epik_State_Penalty>
-0

> <r_epik_Charging_Adjusted_Penalty>
0

> <i_epik_Tot_Q>
0

> <i_epik_Tot_abs_Q>
0

> <r_epik_Metal_State_Penalty>
-0

> <b_epik_Metal_Only>
0

> <s_lp_Force_Field>
OPLS_2005

> <r_lp_Energy>
11.0715

> <b_lp_Chiralities_Consistent>
1

> <s_lp_Variant>
AV-unprocessed.smi:3002-1

> <Gold.Version>
5.8.1

> <Gold.Id.Protein>
6NUR|6NUR_protein|mol2

> <Gold.PLP.Fitness>
35.2538

> <Gold.PLP.PLP>
-27.0523

> <Gold.PLP.part.hbond>
-4.0000

> <Gold.PLP.part.metal>
0.0000

> <Gold.PLP.part.buried>
-4.1965

> <Gold.PLP.part.nonpolar>
-23.9481

> <Gold.PLP.part.repulsive>
4.0707

> <Gold.PLP.ligand.clash>
0.0000

> <Gold.PLP.ligand.torsion>
0.6778

> <Gold.PLP.Chemscore.Hbond>
2.5696

> <Gold.PLP.Chemscore.CHOScore>
0.5754

> <Gold.PLP.Chemscore.Metal>
0.0000

> <Gold.Chemscore.Hbonds>
donor molecule, donor type, donor heavy atom, donor atom, acceptor molecule, acceptor atom, score
      L1  H     5    23       P1  7948  0.90
      P1  H  7989  7998       L1    12  0.01
      P1  H  8011  8017       L1    12  0.86
      P1  H 10785 10796       L1    16  0.63
      L1  C    17    34       P1 10186  0.48

> <Gold.PLP.Chemscore.Internal.Correction>
0.1222

> <Gold.Rescore>
     Score         DG    S(hbond)    S(metal)    S(lipo)     H(rot)  DE(clash)    DE(int)     intcor
      7.04     -11.54       2.34        0.00      37.35       2.39       2.29       2.21       ----

> <Gold.Chemscore.Fitness>
7.0403

> <Gold.Chemscore.DG>
-11.5392

> <Gold.Chemscore.ZeroCoef>
-5.4800

> <Gold.Chemscore.Hbond>
2.3413

> <Gold.Chemscore.Metal>
0.0000

> <Gold.Chemscore.Lipo>
37.3454

> <Gold.Chemscore.Internal_Hbond>
0.0000

> <Gold.Chemscore.DEClash>
2.2892

> <Gold.Chemscore.DEInternal>
2.2098

> <Gold.Chemscore.Rot>
2.3946

> <Gold.Chemscore.Internal.Correction>
   9.000000E+99

> <Gold.Chemscore.Hbonds>
donor molecule, donor type, donor heavy atom, donor atom, acceptor molecule, acceptor atom, score
      L1  H     5    23       P1  7948  0.88
      P1  H  7989  7998       L1    12  0.02
      P1  H  8011  8017       L1    12  0.85
      P1  H 10785 10796       L1    16  0.09

> <Gold.Chemscore.Hbond.Weighted>
-7.8199

> <Gold.Chemscore.Metal.Weighted>
-0.0000

> <Gold.Chemscore.Lipo.Weighted>
-4.3694

> <Gold.Chemscore.Internal_Hbond.Weighted>
0.0000

> <Gold.Chemscore.DEClash.Weighted>
2.2892

> <Gold.Chemscore.DEInternal.Weighted>
2.2098

> <Gold.Chemscore.Rot.Weighted>
6.1301

> <Gold.Chemscore.Internal.Correction.Weighted>
   9.000000E+99

> <Gold.Protein.RotatedTorsions>
[ 6907 6896 6895 6894 ] final -160.04 input  -60.11 | X-H torsion
[ 7974 7965 7964 7962 ] final  -83.92 input  175.53 | X-H torsion
[ 8008 7997 7996 7995 ] final   91.63 input   59.86 | X-H torsion
[ 10167 10162 10161 10158 ] final -173.77 input  -65.29 | X-H torsion
[ 10718 10713 10712 10709 ] final   63.17 input   66.30 | X-H torsion
[ 10763 10752 10751 10750 ] final   35.67 input  -60.55 | X-H torsion
[ 11005 11000 10999 10996 ] final  -64.25 input  -57.11 | X-H torsion

> <Gold.Protein.ActiveResidues>
 VAL166  LYS551  ARG553  GLY616  TRP617  ASP618  TYR619  PRO620  LYS621  CYS622 
 ASP623  PHE694  ASN695  SER759  ASP760  ASP761  ALA762  ILE779  LEU786  VAL792 
 PHE793  MET794  SER795  GLU796  ALA797  LYS798  CYS799  TRP800  GLU811  SER814 

> <Gold.Protein.RotatedAtoms>
  151.3429  133.3955  159.2672 H   0  0  0  0  0  0  0  0  0  0  0  0  # atno 6907 bound_to 6896
  150.9863  134.9209  159.7884 H   0  0  0  0  0  0  0  0  0  0  0  0  # atno 6908 bound_to 6896
  152.5233  134.3393  159.9263 H   0  0  0  0  0  0  0  0  0  0  0  0  # atno 6909 bound_to 6896
  145.5135  140.9538  143.1694 H   0  0  0  0  0  0  0  0  0  0  0  0  # atno 7974 bound_to 7965
  156.0260  140.3335  155.7089 H   0  0  0  0  0  0  0  0  0  0  0  0  # atno 8008 bound_to 7997
  155.5954  140.0650  157.2765 H   0  0  0  0  0  0  0  0  0  0  0  0  # atno 8009 bound_to 7997
  154.4334  140.1820  156.1106 H   0  0  0  0  0  0  0  0  0  0  0  0  # atno 8010 bound_to 7997
  139.5670  144.1732  152.1327 H   0  0  0  0  0  0  0  0  0  0  0  0  # atno 10167 bound_to 10162
  157.5952  130.9090  149.9681 H   0  0  0  0  0  0  0  0  0  0  0  0  # atno 10718 bound_to 10713
  153.0109  135.6327  154.1863 H   0  0  0  0  0  0  0  0  0  0  0  0  # atno 10763 bound_to 10752
  154.1605  135.2824  155.3111 H   0  0  0  0  0  0  0  0  0  0  0  0  # atno 10764 bound_to 10752
  154.5985  135.5595  153.7410 H   0  0  0  0  0  0  0  0  0  0  0  0  # atno 10765 bound_to 10752
  141.1419  133.6663  156.5804 H   0  0  0  0  0  0  0  0  0  0  0  0  # atno 11005 bound_to 11000
  144.7714  139.6726  143.7193 LP  0  0  0  0  0  0  0  0  0  0  0  0  # atno 17320 bound_to 7965
  146.2151  139.5535  142.9655 LP  0  0  0  0  0  0  0  0  0  0  0  0  # atno 17321 bound_to 7965
  140.1257  144.5333  150.6834 LP  0  0  0  0  0  0  0  0  0  0  0  0  # atno 17342 bound_to 10162
  140.6954  143.2400  151.5016 LP  0  0  0  0  0  0  0  0  0  0  0  0  # atno 17343 bound_to 10162
  156.1014  130.3655  150.0212 LP  0  0  0  0  0  0  0  0  0  0  0  0  # atno 17370 bound_to 10713
  156.8326  130.9398  151.3636 LP  0  0  0  0  0  0  0  0  0  0  0  0  # atno 17371 bound_to 10713
  140.3842  134.7497  157.4681 LP  0  0  0  0  0  0  0  0  0  0  0  0  # atno 17394 bound_to 11000
  140.0614  134.5990  155.8744 LP  0  0  0  0  0  0  0  0  0  0  0  0  # atno 17395 bound_to 11000

$$$$
