AV-unprocessed.smi:2739|AV-procd|sdf|10550|dock4
  -GOLD-   2272015 03D 1   1.00000     0.00000
 Structure written by MMmdl.
 35 35  0  0  0  0  0  0  0  0  1 V2000
  148.5264  141.4573  154.1971 C   0  0  0  0  0  0  0  0  0  0  0  0
  149.0395  140.9496  155.5522 C   0  0  0  0  0  0  0  0  0  0  0  0
  150.4944  140.4460  155.5138 C   0  0  2  0  0  0  0  0  0  0  0  0
  150.5988  139.0706  154.8363 C   0  0  0  0  0  0  0  0  0  0  0  0
  151.0409  140.3716  156.8664 N   0  0  0  0  0  0  0  0  0  0  0  0
  152.1782  139.7503  157.2155 C   0  0  0  0  0  0  0  0  0  0  0  0
  152.9212  139.1857  156.4129 O   0  0  0  0  0  0  0  0  0  0  0  0
  152.5226  139.7507  158.7047 C   0  0  0  0  0  0  0  0  0  0  0  0
  152.6741  141.1082  159.1957 N   0  0  0  0  0  0  0  0  0  0  0  0
  153.2076  141.5297  160.3945 C   0  0  0  0  0  0  0  0  0  0  0  0
  153.1204  142.8916  160.4199 C   0  0  0  0  0  0  0  0  0  0  0  0
  152.5065  143.2232  159.1769 C   0  0  0  0  0  0  0  0  0  0  0  0
  152.1518  144.5848  158.6388 C   0  0  2  0  0  0  0  0  0  0  0  0
  151.3354  145.3954  159.6543 C   0  0  0  0  0  0  0  0  0  0  0  0
  151.4136  144.5059  157.4371 O   0  0  0  0  0  0  0  0  0  0  0  0
  152.2470  142.1478  158.4463 N   0  0  0  0  0  0  0  0  0  0  0  0
  147.4797  141.7540  154.2673 H   0  0  0  0  0  0  0  0  0  0  0  0
  148.6004  140.6820  153.4339 H   0  0  0  0  0  0  0  0  0  0  0  0
  149.0915  142.3234  153.8522 H   0  0  0  0  0  0  0  0  0  0  0  0
  148.9412  141.7423  156.2952 H   0  0  0  0  0  0  0  0  0  0  0  0
  148.3900  140.1396  155.8867 H   0  0  0  0  0  0  0  0  0  0  0  0
  151.0774  141.1589  154.9278 H   0  0  0  0  0  0  0  0  0  0  0  0
  150.2076  139.1033  153.8192 H   0  0  0  0  0  0  0  0  0  0  0  0
  150.0365  138.3144  155.3854 H   0  0  0  0  0  0  0  0  0  0  0  0
  151.6355  138.7369  154.7776 H   0  0  0  0  0  0  0  0  0  0  0  0
  150.4974  140.8038  157.5996 H   0  0  0  0  0  0  0  0  0  0  0  0
  151.7295  139.2588  159.2694 H   0  0  0  0  0  0  0  0  0  0  0  0
  153.4415  139.1901  158.8857 H   0  0  0  0  0  0  0  0  0  0  0  0
  153.5967  140.8327  161.1223 H   0  0  0  0  0  0  0  0  0  0  0  0
  153.4438  143.5534  161.2095 H   0  0  0  0  0  0  0  0  0  0  0  0
  153.0664  145.1339  158.4111 H   0  0  0  0  0  0  0  0  0  0  0  0
  151.8897  145.5330  160.5830 H   0  0  0  0  0  0  0  0  0  0  0  0
  150.3975  144.8951  159.8981 H   0  0  0  0  0  0  0  0  0  0  0  0
  151.0945  146.3852  159.2655 H   0  0  0  0  0  0  0  0  0  0  0  0
  151.3623  145.3718  157.0620 H   0  0  0  0  0  0  0  0  0  0  0  0
  1  2  1  0  0  0  0
  1 17  1  0  0  0  0
  1 18  1  0  0  0  0
  1 19  1  0  0  0  0
  2  3  1  0  0  0  0
  2 20  1  0  0  0  0
  2 21  1  0  0  0  0
  3  4  1  0  0  0  0
  3  5  1  0  0  0  0
  3 22  1  0  0  0  0
  4 23  1  0  0  0  0
  4 24  1  0  0  0  0
  4 25  1  0  0  0  0
  5  6  1  0  0  0  0
  5 26  1  0  0  0  0
  6  7  2  0  0  0  0
  6  8  1  0  0  0  0
  8  9  1  0  0  0  0
  8 27  1  0  0  0  0
  8 28  1  0  0  0  0
  9 16  1  0  0  0  0
  9 10  1  0  0  0  0
 10 11  2  0  0  0  0
 10 29  1  0  0  0  0
 11 12  1  0  0  0  0
 11 30  1  0  0  0  0
 12 13  1  0  0  0  0
 12 16  2  0  0  0  0
 13 14  1  0  0  0  0
 13 15  1  0  0  0  0
 13 31  1  0  0  0  0
 14 32  1  0  0  0  0
 14 33  1  0  0  0  0
 14 34  1  0  0  0  0
 15 35  1  0  0  0  0
M  END
> <s_m_source_file>
AV-unprocessed.smi

> <i_m_source_file_index>
2739

> <i_lp_mmshare_version>
43012

> <i_f3d_flags>
0

> <s_epik_input>
W0NIM11bQ0gyXVtDQEhdKFtDSDNdKVtOSF1DKD1PKVtDSDJdbjFbY0hdW2NIXWMobjEpW0NASF0oW0NIM10pW09IXQ==

> <s_epik_cmdline>
J2VwaWtfcHl0aG9uJywgJy1waCcsICc3LjAnLCAnLXRuJywgJzgnLCAnLW1hJywgJzIwMCcsICctbWV0YWxfYmluZGluZycsICctaW1hZScsICc8aW5maWxlLm1hZT4nLCAnLW9tYWUnLCAnPG91dGZpbGUubWFlPic=

> <r_lp_tautomer_probability>
1

> <r_epik_Ionization_Penalty>
5.22246e-06

> <r_epik_Ionization_Penalty_Charging>
0

> <r_epik_Ionization_Penalty_Neutral>
5.22246e-06

> <r_epik_State_Penalty>
-0

> <r_epik_Charging_Adjusted_Penalty>
0

> <i_epik_Tot_Q>
0

> <i_epik_Tot_abs_Q>
0

> <r_epik_Metal_State_Penalty>
-0

> <b_epik_Metal_Only>
0

> <s_lp_Force_Field>
OPLS_2005

> <r_lp_Energy>
0.862384

> <b_lp_Chiralities_Consistent>
1

> <s_lp_Variant>
AV-unprocessed.smi:2739-1

> <Gold.Version>
5.8.1

> <Gold.Id.Protein>
6NUR|6NUR_protein|mol2

> <Gold.PLP.Fitness>
41.2248

> <Gold.PLP.PLP>
-39.3505

> <Gold.PLP.part.hbond>
-2.0000

> <Gold.PLP.part.metal>
0.0000

> <Gold.PLP.part.buried>
-3.3022

> <Gold.PLP.part.nonpolar>
-33.7168

> <Gold.PLP.part.repulsive>
0.0780

> <Gold.PLP.ligand.clash>
0.0000

> <Gold.PLP.ligand.torsion>
0.5802

> <Gold.PLP.Chemscore.Hbond>
1.0000

> <Gold.PLP.Chemscore.CHOScore>
0.0000

> <Gold.PLP.Chemscore.Metal>
0.0000

> <Gold.Chemscore.Hbonds>
donor molecule, donor type, donor heavy atom, donor atom, acceptor molecule, acceptor atom, score
      P1  H  7997  8010       L1     7  1.00

> <Gold.PLP.Chemscore.Internal.Correction>
0.0347

> <Gold.Rescore>
     Score         DG    S(hbond)    S(metal)    S(lipo)     H(rot)  DE(clash)    DE(int)     intcor
      9.57     -13.18       0.96        0.00      89.58       2.34       0.02       3.59       ----

> <Gold.Chemscore.Fitness>
9.5665

> <Gold.Chemscore.DG>
-13.1783

> <Gold.Chemscore.ZeroCoef>
-5.4800

> <Gold.Chemscore.Hbond>
0.9641

> <Gold.Chemscore.Metal>
0.0000

> <Gold.Chemscore.Lipo>
89.5815

> <Gold.Chemscore.Internal_Hbond>
0.0000

> <Gold.Chemscore.DEClash>
0.0232

> <Gold.Chemscore.DEInternal>
3.5886

> <Gold.Chemscore.Rot>
2.3448

> <Gold.Chemscore.Internal.Correction>
   9.000000E+99

> <Gold.Chemscore.Hbonds>
donor molecule, donor type, donor heavy atom, donor atom, acceptor molecule, acceptor atom, score
      P1  H  7997  8010       L1     7  0.40

> <Gold.Chemscore.Hbond.Weighted>
-3.2200

> <Gold.Chemscore.Metal.Weighted>
-0.0000

> <Gold.Chemscore.Lipo.Weighted>
-10.4810

> <Gold.Chemscore.Internal_Hbond.Weighted>
0.0000

> <Gold.Chemscore.DEClash.Weighted>
0.0232

> <Gold.Chemscore.DEInternal.Weighted>
3.5886

> <Gold.Chemscore.Rot.Weighted>
6.0027

> <Gold.Chemscore.Internal.Correction.Weighted>
   9.000000E+99

> <Gold.Protein.RotatedTorsions>
[ 6907 6896 6895 6894 ] final  -38.08 input  -60.11 | X-H torsion
[ 7974 7965 7964 7962 ] final -154.37 input  175.53 | X-H torsion
[ 8008 7997 7996 7995 ] final   66.36 input   59.86 | X-H torsion
[ 10167 10162 10161 10158 ] final -135.93 input  -65.29 | X-H torsion
[ 10718 10713 10712 10709 ] final   93.67 input   66.30 | X-H torsion
[ 10763 10752 10751 10750 ] final   83.79 input  -60.55 | X-H torsion
[ 11005 11000 10999 10996 ] final -161.27 input  -57.11 | X-H torsion

> <Gold.Protein.ActiveResidues>
 VAL166  LYS551  ARG553  GLY616  TRP617  ASP618  TYR619  PRO620  LYS621  CYS622 
 ASP623  PHE694  ASN695  SER759  ASP760  ASP761  ALA762  ILE779  LEU786  VAL792 
 PHE793  MET794  SER795  GLU796  ALA797  LYS798  CYS799  TRP800  GLU811  SER814 

> <Gold.Protein.RotatedAtoms>
  151.0068  134.9366  159.7984 H   0  0  0  0  0  0  0  0  0  0  0  0  # atno 6907 bound_to 6896
  152.5292  134.3080  159.9113 H   0  0  0  0  0  0  0  0  0  0  0  0  # atno 6908 bound_to 6896
  151.3086  133.4049  159.2679 H   0  0  0  0  0  0  0  0  0  0  0  0  # atno 6909 bound_to 6896
  144.7692  140.4397  143.5919 H   0  0  0  0  0  0  0  0  0  0  0  0  # atno 7974 bound_to 7965
  155.6761  140.3497  155.4837 H   0  0  0  0  0  0  0  0  0  0  0  0  # atno 8008 bound_to 7997
  155.9647  140.1144  157.0888 H   0  0  0  0  0  0  0  0  0  0  0  0  # atno 8009 bound_to 7997
  154.4151  140.1169  156.5212 H   0  0  0  0  0  0  0  0  0  0  0  0  # atno 8010 bound_to 7997
  139.8729  143.6935  152.2637 H   0  0  0  0  0  0  0  0  0  0  0  0  # atno 10167 bound_to 10162
  157.6953  131.0486  150.4069 H   0  0  0  0  0  0  0  0  0  0  0  0  # atno 10718 bound_to 10713
  153.1322  135.4678  154.9367 H   0  0  0  0  0  0  0  0  0  0  0  0  # atno 10763 bound_to 10752
  154.7674  135.3149  154.8260 H   0  0  0  0  0  0  0  0  0  0  0  0  # atno 10764 bound_to 10752
  153.8800  135.6895  153.4821 H   0  0  0  0  0  0  0  0  0  0  0  0  # atno 10765 bound_to 10752
  140.6223  134.4738  157.5224 H   0  0  0  0  0  0  0  0  0  0  0  0  # atno 11005 bound_to 11000
  145.6374  139.1545  143.2935 LP  0  0  0  0  0  0  0  0  0  0  0  0  # atno 17320 bound_to 7965
  146.1826  140.6473  142.9182 LP  0  0  0  0  0  0  0  0  0  0  0  0  # atno 17321 bound_to 7965
  139.7267  144.7591  151.0867 LP  0  0  0  0  0  0  0  0  0  0  0  0  # atno 17342 bound_to 10162
  140.7758  143.5139  150.9618 LP  0  0  0  0  0  0  0  0  0  0  0  0  # atno 17343 bound_to 10162
  156.4457  130.4001  149.6668 LP  0  0  0  0  0  0  0  0  0  0  0  0  # atno 17370 bound_to 10713
  156.3836  130.7591  151.2586 LP  0  0  0  0  0  0  0  0  0  0  0  0  # atno 17371 bound_to 10713
  139.9149  134.8268  156.1402 LP  0  0  0  0  0  0  0  0  0  0  0  0  # atno 17394 bound_to 11000
  141.0734  133.6786  156.2186 LP  0  0  0  0  0  0  0  0  0  0  0  0  # atno 17395 bound_to 11000

$$$$
