#       Name:                AV-unprocessed.smi:1762
#       Creating user name   scv26
#       Creation time:       Fri Mar 27 08:33:45 2020


#       File generated by GOLD software.
#

@<TRIPOS>MOLECULE
AV-unprocessed.smi:1762
    58    59     1
SMALL
NO_CHARGES


@<TRIPOS>ATOM
      1 ****        -5.0316  -2.0165  -2.6463 C.3            1 S1                 0.0000
      2 ****        -3.5229  -1.8319  -2.4469 C.3            1 S1                 0.0000
      3 ****        -3.1995  -1.1265  -1.1166 C.3            1 S1                 0.0000
      4 ****        -1.7369  -0.8836  -0.9825 N.4            1 S1                 1.0000
      5 ****        -1.3010  -0.2863   0.3268 C.3            1 S1                 0.0000
      6 ****         0.2386  -0.2718   0.4420 C.2            1 S1                 0.0000
      7 ****         0.8945  -1.2571   0.1013 O.2            1 S1                 0.0000
      8 ****         0.7984   0.8504   0.9181 N.am           1 S1                 0.0000
      9 ****         2.2318   1.0468   1.0853 C.3            1 S1                 0.0000
     10 ****         2.5427   2.5088   1.4344 C.3            1 S1                 0.0000
     11 ****         4.0299   2.7510   1.6101 C.ar           1 S1                 0.0000
     12 ****         4.6008   2.8294   2.8983 C.ar           1 S1                 0.0000
     13 ****         5.9884   3.0453   3.0046 C.ar           1 S1                 0.0000
     14 ****         6.7475   3.1724   1.8253 C.ar           1 S1                 0.0000
     15 ****         6.0823   3.0791   0.5868 C.ar           1 S1                 0.0000
     16 ****         4.7523   2.8729   0.4737 N.ar           1 S1                 0.0000
     17 ****        -1.9417  -0.9590   1.5881 C.3            1 S1                 0.0000
     18 ****        -1.5791  -0.2484   2.9072 C.3            1 S1                 0.0000
     19 ****        -1.6575  -2.4712   1.7073 C.3            1 S1                 0.0000
     20 ****        -1.2710  -0.1005  -2.1636 C.3            1 S1                 0.0000
     21 ****        -1.6310  -0.7972  -3.4882 C.3            1 S1                 0.0000
     22 ****        -0.7844  -2.0506  -3.7730 C.3            1 S1                 0.0000
     23 ****        -3.0307  -1.0597  -3.5359 O.3            1 S1                 0.0000
     24 ****        -5.4647  -2.6136  -1.8433 H              1 S1                 0.0000
     25 ****        -5.2411  -2.5260  -3.5872 H              1 S1                 0.0000
     26 ****        -5.5484  -1.0568  -2.6659 H              1 S1                 0.0000
     27 ****        -3.0611  -2.8193  -2.4572 H              1 S1                 0.0000
     28 ****        -3.7348  -0.1783  -1.0438 H              1 S1                 0.0000
     29 ****        -3.5721  -1.7688  -0.3215 H              1 S1                 0.0000
     30 ****        -1.6411   0.7514   0.3145 H              1 S1                 0.0000
     31 ****         0.1952   1.6166   1.1806 H              1 S1                 0.0000
     32 ****         2.5949   0.3866   1.8745 H              1 S1                 0.0000
     33 ****         2.7490   0.7662   0.1658 H              1 S1                 0.0000
     34 ****         2.1693   3.1691   0.6501 H              1 S1                 0.0000
     35 ****         2.0222   2.7937   2.3499 H              1 S1                 0.0000
     36 ****         3.9926   2.7246   3.7847 H              1 S1                 0.0000
     37 ****         6.4617   3.1111   3.9728 H              1 S1                 0.0000
     38 ****         7.8141   3.3364   1.8688 H              1 S1                 0.0000
     39 ****         6.6333   3.1712  -0.3375 H              1 S1                 0.0000
     40 ****        -3.0213  -0.8345   1.5179 H              1 S1                 0.0000
     41 ****        -0.5305  -0.3849   3.1731 H              1 S1                 0.0000
     42 ****        -2.1735  -0.6393   3.7338 H              1 S1                 0.0000
     43 ****        -1.7729   0.8228   2.8450 H              1 S1                 0.0000
     44 ****        -0.6047  -2.6688   1.9100 H              1 S1                 0.0000
     45 ****        -1.9247  -3.0121   0.8001 H              1 S1                 0.0000
     46 ****        -2.2308  -2.9095   2.5246 H              1 S1                 0.0000
     47 ****        -1.7335   0.8874  -2.1357 H              1 S1                 0.0000
     48 ****        -0.1941   0.0647  -2.1453 H              1 S1                 0.0000
     49 ****        -1.4315  -0.0933  -4.2968 H              1 S1                 0.0000
     50 ****         0.2699  -1.7897  -3.8685 H              1 S1                 0.0000
     51 ****        -1.0915  -2.5236  -4.7059 H              1 S1                 0.0000
     52 ****        -0.8611  -2.7929  -2.9790 H              1 S1                 0.0000
     53 ****        -1.2906  -1.7883  -1.0371 H              1 S1                 0.0000
     54 ****         0.4300  -2.0695  -0.2511 LP             1 S1                 0.0000
     55 ****         1.8916  -1.2446   0.1772 LP             1 S1                 0.0000
     56 ****         4.3150   2.8123  -0.4235 LP             1 S1                 0.0000
     57 ****        -3.5129  -0.1836  -3.5409 LP             1 S1                 0.0000
     58 ****        -3.2273  -1.5533  -4.3830 LP             1 S1                 0.0000
@<TRIPOS>BOND
    1    1    2 1     
    2    1   24 1     
    3    1   25 1     
    4    1   26 1     
    5    2   23 1     
    6    2    3 1     
    7    2   27 1     
    8    3    4 1     
    9    3   28 1     
   10    3   29 1     
   11    4    5 1     
   12    4   20 1     
   13    4   53 1     
   14    5    6 1     
   15    5   17 1     
   16    5   30 1     
   17    6    7 2     
   18    6    8 am    
   19    8    9 1     
   20    8   31 1     
   21    9   10 1     
   22    9   32 1     
   23    9   33 1     
   24   10   11 1     
   25   10   34 1     
   26   10   35 1     
   27   11   16 ar    
   28   11   12 ar    
   29   12   13 ar    
   30   12   36 1     
   31   13   14 ar    
   32   13   37 1     
   33   14   15 ar    
   34   14   38 1     
   35   15   16 ar    
   36   15   39 1     
   37   17   18 1     
   38   17   19 1     
   39   17   40 1     
   40   18   41 1     
   41   18   42 1     
   42   18   43 1     
   43   19   44 1     
   44   19   45 1     
   45   19   46 1     
   46   20   21 1     
   47   20   47 1     
   48   20   48 1     
   49   21   22 1     
   50   21   23 1     
   51   21   49 1     
   52   22   50 1     
   53   22   51 1     
   54   22   52 1     
   55    7   54 1     
   56    7   55 1     
   57   16   56 1     
   58   23   57 1     
   59   23   58 1     
@<TRIPOS>SUBSTRUCTURE
      1 S1             1
@<TRIPOS>SET
LONE_PAIRS      STATIC     ATOMS    <user>   **** ""
5 54 55 56 57 58
DONOR_HYDROGENS      STATIC     ATOMS    <user>   **** ""
2 53 31
ATOM$BLUE        STATIC     ATOMS    COLORGROUP SYSTEM
5 54 55 56 57 58
ATOM$RED        STATIC     ATOMS    COLORGROUP SYSTEM
2 53 31
