#       Name:                AV-unprocessed.smi:2972
#       Creating user name   scv26
#       Creation time:       Fri Mar 27 16:24:48 2020


#       File generated by GOLD software.
#

@<TRIPOS>MOLECULE
AV-unprocessed.smi:2972
    36    37     1
SMALL
NO_CHARGES


@<TRIPOS>ATOM
      1 ****         1.1965   1.1862   0.5230 O.2            1 S1                 0.0000
      2 ****         0.8823   0.1257  -0.0184 C.2            1 S1                 0.0000
      3 ****         1.7245  -0.8851  -0.2970 N.am           1 S1                 0.0000
      4 ****         3.1200  -0.9609  -0.0429 C.ar           1 S1                 0.0000
      5 ****         3.7376  -2.1649  -0.4513 C.ar           1 S1                 0.0000
      6 ****         5.1199  -2.3399  -0.2445 C.ar           1 S1                 0.0000
      7 ****         5.8484  -1.3039   0.3669 C.ar           1 S1                 0.0000
      8 ****         7.5437  -1.4600   0.6472 Cl             1 S1                 0.0000
      9 ****         5.1581  -0.1370   0.7438 C.ar           1 S1                 0.0000
     10 ****         3.8335   0.0318   0.5457 N.ar           1 S1                 0.0000
     11 ****        -0.3683  -0.1644  -0.4067 N.am           1 S1                 0.0000
     12 ****        -1.5242   0.7147  -0.2547 C.3            1 S1                 0.0000
     13 ****        -2.1103   0.6029   1.1683 C.3            1 S1                 0.0000
     14 ****        -3.3752   1.4625   1.3247 C.3            1 S1                 0.0000
     15 ****        -4.4289   1.1037   0.2652 C.3            1 S1                 0.0000
     16 ****        -3.8499   1.2197  -1.1536 C.3            1 S1                 0.0000
     17 ****        -2.5862   0.3587  -1.3124 C.3            1 S1                 0.0000
     18 ****         1.3201  -1.6948  -0.7432 H              1 S1                 0.0000
     19 ****         3.1617  -2.9502  -0.9192 H              1 S1                 0.0000
     20 ****         5.6093  -3.2529  -0.5501 H              1 S1                 0.0000
     21 ****         5.6798   0.6824   1.2160 H              1 S1                 0.0000
     22 ****        -0.5352  -1.0598  -0.8420 H              1 S1                 0.0000
     23 ****        -1.2098   1.7462  -0.4265 H              1 S1                 0.0000
     24 ****        -2.3521  -0.4382   1.3876 H              1 S1                 0.0000
     25 ****        -1.3693   0.9094   1.9075 H              1 S1                 0.0000
     26 ****        -3.7924   1.3312   2.3236 H              1 S1                 0.0000
     27 ****        -3.1119   2.5173   1.2361 H              1 S1                 0.0000
     28 ****        -4.7847   0.0864   0.4331 H              1 S1                 0.0000
     29 ****        -5.2967   1.7560   0.3673 H              1 S1                 0.0000
     30 ****        -4.5989   0.9186  -1.8866 H              1 S1                 0.0000
     31 ****        -3.6103   2.2623  -1.3664 H              1 S1                 0.0000
     32 ****        -2.1761   0.4921  -2.3142 H              1 S1                 0.0000
     33 ****        -2.8558  -0.6951  -1.2267 H              1 S1                 0.0000
     34 ****         2.1458   1.3477   0.7929 LP             1 S1                 0.0000
     35 ****         0.5024   1.8858   0.6927 LP             1 S1                 0.0000
     36 ****         3.3834   0.8785   0.8294 LP             1 S1                 0.0000
@<TRIPOS>BOND
    1    1    2 2     
    2    2    3 am    
    3    2   11 am    
    4    3    4 1     
    5    3   18 1     
    6    4   10 ar    
    7    4    5 ar    
    8    5    6 ar    
    9    5   19 1     
   10    6    7 ar    
   11    6   20 1     
   12    7    8 1     
   13    7    9 ar    
   14    9   10 ar    
   15    9   21 1     
   16   11   12 1     
   17   11   22 1     
   18   12   17 1     
   19   12   13 1     
   20   12   23 1     
   21   13   14 1     
   22   13   24 1     
   23   13   25 1     
   24   14   15 1     
   25   14   26 1     
   26   14   27 1     
   27   15   16 1     
   28   15   28 1     
   29   15   29 1     
   30   16   17 1     
   31   16   30 1     
   32   16   31 1     
   33   17   32 1     
   34   17   33 1     
   35    1   34 1     
   36    1   35 1     
   37   10   36 1     
@<TRIPOS>SUBSTRUCTURE
      1 S1             1
@<TRIPOS>SET
LONE_PAIRS      STATIC     ATOMS    <user>   **** ""
3 34 35 36
DONOR_HYDROGENS      STATIC     ATOMS    <user>   **** ""
2 18 22
ATOM$BLUE        STATIC     ATOMS    COLORGROUP SYSTEM
3 34 35 36
ATOM$RED        STATIC     ATOMS    COLORGROUP SYSTEM
2 18 22
