AV-unprocessed.smi:2406|AV-procd|sdf|9516|dock6
  -GOLD-   2272013143D 1   1.00000     0.00000
 Structure written by MMmdl.
 36 37  0  0  0  0  0  0  0  0  1 V2000
  150.9811  141.6232  155.9321 C   0  0  0  0  0  0  0  0  0  0  0  0
  150.7085  140.6112  154.9693 O   0  0  0  0  0  0  0  0  0  0  0  0
  149.4379  140.5451  154.4362 C   0  0  0  0  0  0  0  0  0  0  0  0
  149.0270  139.3705  153.7734 C   0  0  0  0  0  0  0  0  0  0  0  0
  147.7162  139.3419  153.2467 C   0  0  0  0  0  0  0  0  0  0  0  0
  147.3397  138.1376  152.5954 N   0  0  0  0  0  0  0  0  0  0  0  0
  146.0997  137.6842  152.3416 C   0  0  0  0  0  0  0  0  0  0  0  0
  145.0560  138.2748  152.6213 O   0  0  0  0  0  0  0  0  0  0  0  0
  146.1375  136.4903  151.7299 N   0  0  0  0  0  0  0  0  0  0  0  0
  144.9774  135.6992  151.3210 C   0  0  2  0  0  0  0  0  0  0  0  0
  143.9638  135.6643  152.4730 C   0  0  0  0  0  0  0  0  0  0  0  0
  145.3988  134.2779  150.8971 C   0  0  0  0  0  0  0  0  0  0  0  0
  144.2275  133.3489  150.6297 C   0  0  0  0  0  0  0  0  0  0  0  0
  144.4081  131.8500  150.6398 C   0  0  0  0  0  0  0  0  0  0  0  0
  144.1352  132.5702  149.3393 C   0  0  0  0  0  0  0  0  0  0  0  0
  146.9076  140.4217  153.3858 N   0  0  0  0  0  0  0  0  0  0  0  0
  147.3914  141.4864  154.0285 C   0  0  0  0  0  0  0  0  0  0  0  0
  148.6077  141.6087  154.5613 N   0  0  0  0  0  0  0  0  0  0  0  0
  152.0181  141.5421  156.2572 H   0  0  0  0  0  0  0  0  0  0  0  0
  150.3483  141.5140  156.8141 H   0  0  0  0  0  0  0  0  0  0  0  0
  150.8428  142.6212  155.5137 H   0  0  0  0  0  0  0  0  0  0  0  0
  149.6944  138.5262  153.6788 H   0  0  0  0  0  0  0  0  0  0  0  0
  148.1028  137.5469  152.3003 H   0  0  0  0  0  0  0  0  0  0  0  0
  147.0434  136.0884  151.5381 H   0  0  0  0  0  0  0  0  0  0  0  0
  144.4827  136.1742  150.4718 H   0  0  0  0  0  0  0  0  0  0  0  0
  143.0729  135.1012  152.1940 H   0  0  0  0  0  0  0  0  0  0  0  0
  143.6436  136.6707  152.7448 H   0  0  0  0  0  0  0  0  0  0  0  0
  144.3878  135.1969  153.3624 H   0  0  0  0  0  0  0  0  0  0  0  0
  146.0178  134.3197  150.0002 H   0  0  0  0  0  0  0  0  0  0  0  0
  146.0200  133.8381  151.6785 H   0  0  0  0  0  0  0  0  0  0  0  0
  143.2802  133.7123  151.0233 H   0  0  0  0  0  0  0  0  0  0  0  0
  145.4125  131.4620  150.7989 H   0  0  0  0  0  0  0  0  0  0  0  0
  143.6045  131.2531  151.0661 H   0  0  0  0  0  0  0  0  0  0  0  0
  143.1494  132.4493  148.8949 H   0  0  0  0  0  0  0  0  0  0  0  0
  144.9579  132.6562  148.6322 H   0  0  0  0  0  0  0  0  0  0  0  0
  146.7304  142.3343  154.1289 H   0  0  0  0  0  0  0  0  0  0  0  0
  1  2  1  0  0  0  0
  1 19  1  0  0  0  0
  1 20  1  0  0  0  0
  1 21  1  0  0  0  0
  2  3  1  0  0  0  0
  3 18  1  0  0  0  0
  3  4  2  0  0  0  0
  4  5  1  0  0  0  0
  4 22  1  0  0  0  0
  5  6  1  0  0  0  0
  5 16  2  0  0  0  0
  6  7  1  0  0  0  0
  6 23  1  0  0  0  0
  7  8  2  0  0  0  0
  7  9  1  0  0  0  0
  9 10  1  0  0  0  0
  9 24  1  0  0  0  0
 10 11  1  0  0  0  0
 10 12  1  0  0  0  0
 10 25  1  0  0  0  0
 11 26  1  0  0  0  0
 11 27  1  0  0  0  0
 11 28  1  0  0  0  0
 12 13  1  0  0  0  0
 12 29  1  0  0  0  0
 12 30  1  0  0  0  0
 13 15  1  0  0  0  0
 13 14  1  0  0  0  0
 13 31  1  0  0  0  0
 14 15  1  0  0  0  0
 14 32  1  0  0  0  0
 14 33  1  0  0  0  0
 15 34  1  0  0  0  0
 15 35  1  0  0  0  0
 16 17  1  0  0  0  0
 17 18  2  0  0  0  0
 17 36  1  0  0  0  0
M  END
> <s_m_source_file>
AV-unprocessed.smi

> <i_m_source_file_index>
2406

> <i_lp_mmshare_version>
43012

> <i_f3d_flags>
0

> <s_epik_input>
W0NIM11PYzFbY0hdYyhuW2NIXW4xKVtOSF1DKD1PKVtOSF1bQ0BIXShbQ0gzXSlbQ0gyXVtDSF0yW0NIMl1bQ0gyXTI=

> <s_epik_cmdline>
J2VwaWtfcHl0aG9uJywgJy1waCcsICc3LjAnLCAnLXRuJywgJzgnLCAnLW1hJywgJzIwMCcsICctbWV0YWxfYmluZGluZycsICctaW1hZScsICc8aW5maWxlLm1hZT4nLCAnLW9tYWUnLCAnPG91dGZpbGUubWFlPic=

> <r_lp_tautomer_probability>
1

> <r_epik_Ionization_Penalty>
2.82876e-05

> <r_epik_Ionization_Penalty_Charging>
0

> <r_epik_Ionization_Penalty_Neutral>
2.82876e-05

> <r_epik_State_Penalty>
-0

> <r_epik_Charging_Adjusted_Penalty>
0

> <i_epik_Tot_Q>
0

> <i_epik_Tot_abs_Q>
0

> <r_epik_Metal_State_Penalty>
-0

> <b_epik_Metal_Only>
0

> <s_lp_Force_Field>
OPLS_2005

> <r_lp_Energy>
11.282

> <b_lp_Chiralities_Consistent>
1

> <s_lp_Variant>
AV-unprocessed.smi:2406-1

> <Gold.Version>
5.8.1

> <Gold.Id.Protein>
6NUR|6NUR_protein|mol2

> <Gold.PLP.Fitness>
39.2031

> <Gold.PLP.PLP>
-31.7147

> <Gold.PLP.part.hbond>
-3.0000

> <Gold.PLP.part.metal>
0.0000

> <Gold.PLP.part.buried>
-4.0209

> <Gold.PLP.part.nonpolar>
-28.1112

> <Gold.PLP.part.repulsive>
3.5049

> <Gold.PLP.ligand.clash>
0.0000

> <Gold.PLP.ligand.torsion>
0.9353

> <Gold.PLP.Chemscore.Hbond>
2.9280

> <Gold.PLP.Chemscore.CHOScore>
0.0000

> <Gold.PLP.Chemscore.Metal>
0.0000

> <Gold.Chemscore.Hbonds>
donor molecule, donor type, donor heavy atom, donor atom, acceptor molecule, acceptor atom, score
      L1  H     6    23       P1  7948  1.00
      L1  H     9    24       P1  7948  0.93
      P1  H  7989  7998       L1     2  0.96

> <Gold.PLP.Chemscore.Internal.Correction>
0.5749

> <Gold.Rescore>
     Score         DG    S(hbond)    S(metal)    S(lipo)     H(rot)  DE(clash)    DE(int)     intcor
     11.76     -15.66       2.53        0.00      55.26       1.85       0.36       3.54       ----

> <Gold.Chemscore.Fitness>
11.7555

> <Gold.Chemscore.DG>
-15.6554

> <Gold.Chemscore.ZeroCoef>
-5.4800

> <Gold.Chemscore.Hbond>
2.5256

> <Gold.Chemscore.Metal>
0.0000

> <Gold.Chemscore.Lipo>
55.2596

> <Gold.Chemscore.Internal_Hbond>
0.0000

> <Gold.Chemscore.DEClash>
0.3588

> <Gold.Chemscore.DEInternal>
3.5411

> <Gold.Chemscore.Rot>
1.8458

> <Gold.Chemscore.Internal.Correction>
   9.000000E+99

> <Gold.Chemscore.Hbonds>
donor molecule, donor type, donor heavy atom, donor atom, acceptor molecule, acceptor atom, score
      L1  H     6    23       P1  7948  0.99
      L1  H     9    24       P1  7948  0.91
      P1  H  7989  7998       L1     2  0.19

> <Gold.Chemscore.Hbond.Weighted>
-8.4354

> <Gold.Chemscore.Metal.Weighted>
-0.0000

> <Gold.Chemscore.Lipo.Weighted>
-6.4654

> <Gold.Chemscore.Internal_Hbond.Weighted>
0.0000

> <Gold.Chemscore.DEClash.Weighted>
0.3588

> <Gold.Chemscore.DEInternal.Weighted>
3.5411

> <Gold.Chemscore.Rot.Weighted>
4.7254

> <Gold.Chemscore.Internal.Correction.Weighted>
   9.000000E+99

> <Gold.Protein.RotatedTorsions>
[ 6907 6896 6895 6894 ] final  -10.42 input  -60.11 | X-H torsion
[ 7974 7965 7964 7962 ] final    8.56 input  175.53 | X-H torsion
[ 8008 7997 7996 7995 ] final  104.00 input   59.86 | X-H torsion
[ 10167 10162 10161 10158 ] final  152.88 input  -65.29 | X-H torsion
[ 10718 10713 10712 10709 ] final   -1.12 input   66.30 | X-H torsion
[ 10763 10752 10751 10750 ] final  -10.40 input  -60.55 | X-H torsion
[ 11005 11000 10999 10996 ] final  151.19 input  -57.11 | X-H torsion

> <Gold.Protein.ActiveResidues>
 VAL166  LYS551  ARG553  GLY616  TRP617  ASP618  TYR619  PRO620  LYS621  CYS622 
 ASP623  PHE694  ASN695  SER759  ASP760  ASP761  ALA762  ILE779  LEU786  VAL792 
 PHE793  MET794  SER795  GLU796  ALA797  LYS798  CYS799  TRP800  GLU811  SER814 

> <Gold.Protein.RotatedAtoms>
  151.4023  135.0973  159.9559 H   0  0  0  0  0  0  0  0  0  0  0  0  # atno 6907 bound_to 6896
  152.5046  133.8877  159.7388 H   0  0  0  0  0  0  0  0  0  0  0  0  # atno 6908 bound_to 6896
  150.9353  133.6662  159.2830 H   0  0  0  0  0  0  0  0  0  0  0  0  # atno 6909 bound_to 6896
  146.2414  139.9914  142.8425 H   0  0  0  0  0  0  0  0  0  0  0  0  # atno 7974 bound_to 7965
  156.1534  140.3155  155.8685 H   0  0  0  0  0  0  0  0  0  0  0  0  # atno 8008 bound_to 7997
  155.3926  140.0494  157.3057 H   0  0  0  0  0  0  0  0  0  0  0  0  # atno 8009 bound_to 7997
  154.5079  140.2154  155.9226 H   0  0  0  0  0  0  0  0  0  0  0  0  # atno 8010 bound_to 7997
  139.4830  144.5320  151.7707 H   0  0  0  0  0  0  0  0  0  0  0  0  # atno 10167 bound_to 10162
  156.8103  130.5422  149.5710 H   0  0  0  0  0  0  0  0  0  0  0  0  # atno 10718 bound_to 10713
  153.4687  135.7016  153.6006 H   0  0  0  0  0  0  0  0  0  0  0  0  # atno 10763 bound_to 10752
  153.4270  135.3812  155.2147 H   0  0  0  0  0  0  0  0  0  0  0  0  # atno 10764 bound_to 10752
  154.8726  135.3941  154.4122 H   0  0  0  0  0  0  0  0  0  0  0  0  # atno 10765 bound_to 10752
  140.1197  134.8872  157.2054 H   0  0  0  0  0  0  0  0  0  0  0  0  # atno 11005 bound_to 11000
  145.1500  140.9617  143.4439 LP  0  0  0  0  0  0  0  0  0  0  0  0  # atno 17320 bound_to 7965
  145.0215  139.3420  143.6070 LP  0  0  0  0  0  0  0  0  0  0  0  0  # atno 17321 bound_to 7965
  140.4848  144.1397  150.5939 LP  0  0  0  0  0  0  0  0  0  0  0  0  # atno 17342 bound_to 10162
  140.4238  143.2599  151.9682 LP  0  0  0  0  0  0  0  0  0  0  0  0  # atno 17343 bound_to 10162
  156.1048  130.5996  150.9953 LP  0  0  0  0  0  0  0  0  0  0  0  0  # atno 17370 bound_to 10713
  157.6509  131.0897  150.8053 LP  0  0  0  0  0  0  0  0  0  0  0  0  # atno 17371 bound_to 10713
  140.2982  134.3162  155.7297 LP  0  0  0  0  0  0  0  0  0  0  0  0  # atno 17394 bound_to 11000
  141.2149  133.7576  156.9602 LP  0  0  0  0  0  0  0  0  0  0  0  0  # atno 17395 bound_to 11000

$$$$
