AV-unprocessed.smi:813|AV-procd|sdf|3818|dock6
  -GOLD-   22720 1253D 1   1.00000     0.00000
 Structure written by MMmdl.
 36 37  0  0  0  0  0  0  0  0  1 V2000
  146.7706  139.6739  151.3913 C   0  0  0  0  0  0  0  0  0  0  0  0
  146.5574  138.7669  152.6149 C   0  0  1  0  0  0  0  0  0  0  0  0
  146.7570  137.3811  152.1939 N   0  0  0  0  0  0  0  0  0  0  0  0
  145.7852  136.4637  152.0740 C   0  0  0  0  0  0  0  0  0  0  0  0
  144.5975  136.7016  152.2962 O   0  0  0  0  0  0  0  0  0  0  0  0
  146.2820  135.2751  151.6889 N   0  0  0  0  0  0  0  0  0  0  0  0
  145.5782  134.0677  151.4364 C   0  0  0  0  0  0  0  0  0  0  0  0
  146.1761  132.9110  151.1104 N   0  0  0  0  0  0  0  0  0  0  0  0
  145.2579  131.8861  150.9218 N   0  0  0  0  0  0  0  0  0  0  0  0
  144.0051  132.3093  151.1122 C   0  0  0  0  0  0  0  0  0  0  0  0
  143.8245  134.0015  151.5419 S   0  0  0  0  0  0  0  0  0  0  0  0
  147.5888  139.1526  153.6867 C   0  0  0  0  0  0  0  0  0  0  0  0
  147.2741  139.8899  154.6224 O   0  0  0  0  0  0  0  0  0  0  0  0
  148.8185  138.6383  153.5365 N   0  0  0  0  0  0  0  0  0  0  0  0
  149.9506  138.8894  154.4241 C   0  0  0  0  0  0  0  0  0  0  0  0
  151.1342  137.9547  154.1046 C   0  0  0  0  0  0  0  0  0  0  0  0
  151.1497  136.9082  155.2177 C   0  0  0  0  0  0  0  0  0  0  0  0
  150.6400  137.6631  156.4410 C   0  0  0  0  0  0  0  0  0  0  0  0
  149.5678  138.6068  155.8907 C   0  0  0  0  0  0  0  0  0  0  0  0
  146.6250  140.7242  151.6473 H   0  0  0  0  0  0  0  0  0  0  0  0
  146.0595  139.4327  150.6005 H   0  0  0  0  0  0  0  0  0  0  0  0
  147.7737  139.5685  150.9748 H   0  0  0  0  0  0  0  0  0  0  0  0
  145.5426  138.8997  152.9957 H   0  0  0  0  0  0  0  0  0  0  0  0
  147.7066  137.0994  151.9991 H   0  0  0  0  0  0  0  0  0  0  0  0
  147.2814  135.2291  151.5562 H   0  0  0  0  0  0  0  0  0  0  0  0
  143.1814  131.6201  150.9998 H   0  0  0  0  0  0  0  0  0  0  0  0
  148.9883  138.0437  152.7382 H   0  0  0  0  0  0  0  0  0  0  0  0
  150.2668  139.9293  154.3216 H   0  0  0  0  0  0  0  0  0  0  0  0
  151.0789  137.4994  153.1147 H   0  0  0  0  0  0  0  0  0  0  0  0
  152.0615  138.5277  154.1404 H   0  0  0  0  0  0  0  0  0  0  0  0
  150.4617  136.0984  154.9706 H   0  0  0  0  0  0  0  0  0  0  0  0
  152.1376  136.4735  155.3716 H   0  0  0  0  0  0  0  0  0  0  0  0
  150.2560  136.9984  157.2153 H   0  0  0  0  0  0  0  0  0  0  0  0
  151.4537  138.2453  156.8756 H   0  0  0  0  0  0  0  0  0  0  0  0
  149.4979  139.5221  156.4791 H   0  0  0  0  0  0  0  0  0  0  0  0
  148.5959  138.1143  155.9493 H   0  0  0  0  0  0  0  0  0  0  0  0
  1  2  1  0  0  0  0
  1 20  1  0  0  0  0
  1 21  1  0  0  0  0
  1 22  1  0  0  0  0
  2  3  1  0  0  0  0
  2 12  1  0  0  0  0
  2 23  1  0  0  0  0
  3  4  1  0  0  0  0
  3 24  1  0  0  0  0
  4  5  2  0  0  0  0
  4  6  1  0  0  0  0
  6  7  1  0  0  0  0
  6 25  1  0  0  0  0
  7 11  1  0  0  0  0
  7  8  2  0  0  0  0
  8  9  1  0  0  0  0
  9 10  2  0  0  0  0
 10 11  1  0  0  0  0
 10 26  1  0  0  0  0
 12 13  2  0  0  0  0
 12 14  1  0  0  0  0
 14 15  1  0  0  0  0
 14 27  1  0  0  0  0
 15 19  1  0  0  0  0
 15 16  1  0  0  0  0
 15 28  1  0  0  0  0
 16 17  1  0  0  0  0
 16 29  1  0  0  0  0
 16 30  1  0  0  0  0
 17 18  1  0  0  0  0
 17 31  1  0  0  0  0
 17 32  1  0  0  0  0
 18 19  1  0  0  0  0
 18 33  1  0  0  0  0
 18 34  1  0  0  0  0
 19 35  1  0  0  0  0
 19 36  1  0  0  0  0
M  END
> <s_m_source_file>
AV-unprocessed.smi

> <i_m_source_file_index>
813

> <i_lp_mmshare_version>
43012

> <i_f3d_flags>
0

> <s_epik_input>
W0NIMl0xW0NIMl1bQ0gyXVtDSDJdW0NIXTFbTkhdQyg9TylbQ0BIXShbQ0gzXSlbTkhdQyg9TylbTkhdYzJubltjSF1zMg==

> <s_epik_cmdline>
J2VwaWtfcHl0aG9uJywgJy1waCcsICc3LjAnLCAnLXRuJywgJzgnLCAnLW1hJywgJzIwMCcsICctbWV0YWxfYmluZGluZycsICctaW1hZScsICc8aW5maWxlLm1hZT4nLCAnLW9tYWUnLCAnPG91dGZpbGUubWFlPic=

> <r_lp_tautomer_probability>
1

> <r_epik_Ionization_Penalty>
0.00321247

> <r_epik_Ionization_Penalty_Charging>
0

> <r_epik_Ionization_Penalty_Neutral>
0.00321247

> <r_epik_State_Penalty>
-0

> <r_epik_Charging_Adjusted_Penalty>
0

> <i_epik_Tot_Q>
0

> <i_epik_Tot_abs_Q>
0

> <r_epik_Metal_State_Penalty>
0.363968

> <b_epik_Metal_Only>
0

> <s_lp_Force_Field>
OPLS_2005

> <r_lp_Energy>
15.9742

> <b_lp_Chiralities_Consistent>
1

> <s_lp_Variant>
AV-unprocessed.smi:813-2

> <Gold.Version>
5.8.1

> <Gold.Id.Protein>
6NUR|6NUR_protein|mol2

> <Gold.PLP.Fitness>
35.6560

> <Gold.PLP.PLP>
-28.6039

> <Gold.PLP.part.hbond>
-3.8830

> <Gold.PLP.part.metal>
0.0000

> <Gold.PLP.part.buried>
-3.2438

> <Gold.PLP.part.nonpolar>
-22.6600

> <Gold.PLP.part.repulsive>
0.8093

> <Gold.PLP.ligand.clash>
0.0000

> <Gold.PLP.ligand.torsion>
0.8333

> <Gold.PLP.Chemscore.Hbond>
2.9033

> <Gold.PLP.Chemscore.CHOScore>
0.0000

> <Gold.PLP.Chemscore.Metal>
0.0000

> <Gold.Chemscore.Hbonds>
donor molecule, donor type, donor heavy atom, donor atom, acceptor molecule, acceptor atom, score
      L1  H     3    24       P1  7948  0.94
      L1  H     6    25       P1  7948  0.88
      L1  H    14    27       P1  7948  1.00

> <Gold.PLP.Chemscore.Internal.Correction>
0.0090

> <Gold.Rescore>
     Score         DG    S(hbond)    S(metal)    S(lipo)     H(rot)  DE(clash)    DE(int)     intcor
     14.52     -17.52       2.75        0.00      62.63       1.74       0.91       2.09       ----

> <Gold.Chemscore.Fitness>
14.5168

> <Gold.Chemscore.DG>
-17.5203

> <Gold.Chemscore.ZeroCoef>
-5.4800

> <Gold.Chemscore.Hbond>
2.7469

> <Gold.Chemscore.Metal>
0.0000

> <Gold.Chemscore.Lipo>
62.6346

> <Gold.Chemscore.Internal_Hbond>
0.0000

> <Gold.Chemscore.DEClash>
0.9145

> <Gold.Chemscore.DEInternal>
2.0889

> <Gold.Chemscore.Rot>
1.7433

> <Gold.Chemscore.Internal.Correction>
   9.000000E+99

> <Gold.Chemscore.Hbonds>
donor molecule, donor type, donor heavy atom, donor atom, acceptor molecule, acceptor atom, score
      L1  H     3    24       P1  7948  0.90
      L1  H     6    25       P1  7948  0.78
      L1  H    14    27       P1  7948  0.93

> <Gold.Chemscore.Hbond.Weighted>
-9.1748

> <Gold.Chemscore.Metal.Weighted>
-0.0000

> <Gold.Chemscore.Lipo.Weighted>
-7.3283

> <Gold.Chemscore.Internal_Hbond.Weighted>
0.0000

> <Gold.Chemscore.DEClash.Weighted>
0.9145

> <Gold.Chemscore.DEInternal.Weighted>
2.0889

> <Gold.Chemscore.Rot.Weighted>
4.4628

> <Gold.Chemscore.Internal.Correction.Weighted>
   9.000000E+99

> <Gold.Protein.RotatedTorsions>
[ 6907 6896 6895 6894 ] final -151.81 input  -60.11 | X-H torsion
[ 7974 7965 7964 7962 ] final   55.67 input  175.53 | X-H torsion
[ 8008 7997 7996 7995 ] final  144.78 input   59.86 | X-H torsion
[ 10167 10162 10161 10158 ] final -146.92 input  -65.29 | X-H torsion
[ 10718 10713 10712 10709 ] final  -92.08 input   66.30 | X-H torsion
[ 10763 10752 10751 10750 ] final  -39.26 input  -60.55 | X-H torsion
[ 11005 11000 10999 10996 ] final   42.57 input  -57.11 | X-H torsion

> <Gold.Protein.ActiveResidues>
 VAL166  LYS551  ARG553  GLY616  TRP617  ASP618  TYR619  PRO620  LYS621  CYS622 
 ASP623  PHE694  ASN695  SER759  ASP760  ASP761  ALA762  ILE779  LEU786  VAL792 
 PHE793  MET794  SER795  GLU796  ALA797  LYS798  CYS799  TRP800  GLU811  SER814 

> <Gold.Protein.RotatedAtoms>
  151.2186  133.4515  159.2599 H   0  0  0  0  0  0  0  0  0  0  0  0  # atno 6907 bound_to 6896
  151.0907  134.9914  159.8411 H   0  0  0  0  0  0  0  0  0  0  0  0  # atno 6908 bound_to 6896
  152.5434  134.2119  159.8806 H   0  0  0  0  0  0  0  0  0  0  0  0  # atno 6909 bound_to 6896
  145.9480  139.3946  143.0323 H   0  0  0  0  0  0  0  0  0  0  0  0  # atno 7974 bound_to 7965
  156.2900  140.2226  156.5108 H   0  0  0  0  0  0  0  0  0  0  0  0  # atno 8008 bound_to 7997
  154.7610  140.0473  157.0995 H   0  0  0  0  0  0  0  0  0  0  0  0  # atno 8009 bound_to 7997
  154.9991  140.3099  155.4878 H   0  0  0  0  0  0  0  0  0  0  0  0  # atno 8010 bound_to 7997
  139.7669  143.8294  152.2618 H   0  0  0  0  0  0  0  0  0  0  0  0  # atno 10167 bound_to 10162
  155.9999  130.4973  150.5572 H   0  0  0  0  0  0  0  0  0  0  0  0  # atno 10718 bound_to 10713
  153.9265  135.6776  153.4746 H   0  0  0  0  0  0  0  0  0  0  0  0  # atno 10763 bound_to 10752
  153.1001  135.4832  154.8849 H   0  0  0  0  0  0  0  0  0  0  0  0  # atno 10764 bound_to 10752
  154.7450  135.3170  154.8617 H   0  0  0  0  0  0  0  0  0  0  0  0  # atno 10765 bound_to 10752
  140.1727  134.4202  155.8247 H   0  0  0  0  0  0  0  0  0  0  0  0  # atno 11005 bound_to 11000
  145.8210  140.9679  143.0899 LP  0  0  0  0  0  0  0  0  0  0  0  0  # atno 17320 bound_to 7965
  144.6790  140.0042  143.7484 LP  0  0  0  0  0  0  0  0  0  0  0  0  # atno 17321 bound_to 7965
  139.8317  144.7251  150.9442 LP  0  0  0  0  0  0  0  0  0  0  0  0  # atno 17342 bound_to 10162
  140.7811  143.4064  151.1064 LP  0  0  0  0  0  0  0  0  0  0  0  0  # atno 17343 bound_to 10162
  157.3486  131.0729  151.1731 LP  0  0  0  0  0  0  0  0  0  0  0  0  # atno 17370 bound_to 10713
  157.2555  130.6634  149.5951 LP  0  0  0  0  0  0  0  0  0  0  0  0  # atno 17371 bound_to 10713
  141.2218  133.6963  156.7792 LP  0  0  0  0  0  0  0  0  0  0  0  0  # atno 17394 bound_to 11000
  140.2359  134.8651  157.3524 LP  0  0  0  0  0  0  0  0  0  0  0  0  # atno 17395 bound_to 11000

$$$$
