#       Name:                AV-unprocessed.smi:2195
#       Creating user name   scv26
#       Creation time:       Fri Mar 27 12:12:07 2020


#       File generated by GOLD software.
#

@<TRIPOS>MOLECULE
AV-unprocessed.smi:2195
    44    46     1
SMALL
NO_CHARGES


@<TRIPOS>ATOM
      1 ****        -6.8878   1.8397   0.2525 C.3            1 S1                 0.0000
      2 ****        -5.3987   1.5664   0.3047 C.ar           1 S1                 0.0000
      3 ****        -4.4739   2.6282   0.2532 C.ar           1 S1                 0.0000
      4 ****        -3.0917   2.3636   0.3041 C.ar           1 S1                 0.0000
      5 ****        -2.6118   1.0416   0.4076 C.ar           1 S1                 0.0000
      6 ****        -1.2443   0.8743   0.4548 O.3            1 S1                 0.0000
      7 ****        -0.7302  -0.4436   0.5977 C.3            1 S1                 0.0000
      8 ****         0.8037  -0.3719   0.6557 C.3            1 S1                 0.0000
      9 ****         1.1852   0.0034   1.9651 O.3            1 S1                 0.0000
     10 ****         1.4579  -1.7251   0.3147 C.3            1 S1                 0.0000
     11 ****         2.9084  -1.6637   0.3472 N.pl3          1 S1                 0.0000
     12 ****         3.7201  -2.0988   1.3302 C.2            1 S1                 0.0000
     13 ****         5.0293  -1.9425   1.1537 N.2            1 S1                 0.0000
     14 ****         5.0724  -1.3334  -0.0887 C.ar           1 S1                 0.0000
     15 ****         6.1743  -0.8962  -0.8584 C.ar           1 S1                 0.0000
     16 ****         5.9720  -0.2914  -2.1165 C.ar           1 S1                 0.0000
     17 ****         4.6681  -0.1148  -2.6240 C.ar           1 S1                 0.0000
     18 ****         3.5547  -0.5434  -1.8759 C.ar           1 S1                 0.0000
     19 ****         3.7611  -1.1456  -0.6209 C.ar           1 S1                 0.0000
     20 ****        -3.5479  -0.0222   0.4552 C.ar           1 S1                 0.0000
     21 ****        -4.9305   0.2416   0.4040 C.ar           1 S1                 0.0000
     22 ****        -7.0982   2.9088   0.2945 H              1 S1                 0.0000
     23 ****        -7.3900   1.3620   1.0940 H              1 S1                 0.0000
     24 ****        -7.3118   1.4440  -0.6706 H              1 S1                 0.0000
     25 ****        -4.8191   3.6488   0.1750 H              1 S1                 0.0000
     26 ****        -2.3919   3.1854   0.2649 H              1 S1                 0.0000
     27 ****        -1.1280  -0.9401   1.4848 H              1 S1                 0.0000
     28 ****        -1.0315  -1.0263  -0.2746 H              1 S1                 0.0000
     29 ****         1.1605   0.3823  -0.0471 H              1 S1                 0.0000
     30 ****         0.8004   0.8449   2.1580 H              1 S1                 0.0000
     31 ****         1.1238  -2.4977   1.0091 H              1 S1                 0.0000
     32 ****         1.1564  -2.0502  -0.6818 H              1 S1                 0.0000
     33 ****         3.3269  -2.5529   2.2280 H              1 S1                 0.0000
     34 ****         7.1772  -1.0261  -0.4798 H              1 S1                 0.0000
     35 ****         6.8223   0.0392  -2.6949 H              1 S1                 0.0000
     36 ****         4.5230   0.3501  -3.5881 H              1 S1                 0.0000
     37 ****         2.5543  -0.4104  -2.2604 H              1 S1                 0.0000
     38 ****        -3.2313  -1.0513   0.5305 H              1 S1                 0.0000
     39 ****        -5.6327  -0.5784   0.4416 H              1 S1                 0.0000
     40 ****        -0.9074   1.4091   1.2298 LP             1 S1                 0.0000
     41 ****        -0.8711   1.2471  -0.3948 LP             1 S1                 0.0000
     42 ****         2.1816   0.0667   2.0216 LP             1 S1                 0.0000
     43 ****         0.8566  -0.6765   2.6207 LP             1 S1                 0.0000
     44 ****         5.7834  -2.1976   1.7589 LP             1 S1                 0.0000
@<TRIPOS>BOND
    1    1    2 1     
    2    1   22 1     
    3    1   23 1     
    4    1   24 1     
    5    2   21 ar    
    6    2    3 ar    
    7    3    4 ar    
    8    3   25 1     
    9    4    5 ar    
   10    4   26 1     
   11    5    6 1     
   12    5   20 ar    
   13    6    7 1     
   14    7    8 1     
   15    7   27 1     
   16    7   28 1     
   17    8    9 1     
   18    8   10 1     
   19    8   29 1     
   20    9   30 1     
   21   10   11 1     
   22   10   31 1     
   23   10   32 1     
   24   11   19 1     
   25   11   12 1     
   26   12   13 2     
   27   12   33 1     
   28   13   14 1     
   29   14   19 ar    
   30   14   15 ar    
   31   15   16 ar    
   32   15   34 1     
   33   16   17 ar    
   34   16   35 1     
   35   17   18 ar    
   36   17   36 1     
   37   18   19 ar    
   38   18   37 1     
   39   20   21 ar    
   40   20   38 1     
   41   21   39 1     
   42    6   40 1     
   43    6   41 1     
   44    9   42 1     
   45    9   43 1     
   46   13   44 1     
@<TRIPOS>SUBSTRUCTURE
      1 S1             1
@<TRIPOS>SET
LONE_PAIRS      STATIC     ATOMS    <user>   **** ""
5 40 41 42 43 44
DONOR_HYDROGENS      STATIC     ATOMS    <user>   **** ""
1 30
ATOM$BLUE        STATIC     ATOMS    COLORGROUP SYSTEM
5 40 41 42 43 44
ATOM$RED        STATIC     ATOMS    COLORGROUP SYSTEM
1 30
