AV-unprocessed.smi:234|AV-procd|sdf|1789|dock2
  -GOLD-   2262020343D 1   1.00000     0.00000
 Structure written by MMmdl.
 59 62  0  0  0  0  0  0  0  0  1 V2000
  152.0715  144.2661  160.5710 C   0  0  0  0  0  0  0  0  0  0  0  0
  152.4348  143.3007  159.4344 C   0  0  0  0  0  0  0  0  0  0  0  0
  151.3219  143.0654  158.5855 O   0  0  0  0  0  0  0  0  0  0  0  0
  151.6220  142.2939  157.4258 C   0  0  2  0  0  0  0  0  0  0  0  0
  150.3667  142.1179  156.5708 C   0  0  0  0  0  0  0  0  0  0  0  0
  150.0796  140.8646  157.4104 C   0  0  1  0  0  0  0  0  0  0  0  0
  149.5207  139.7429  156.6473 N   0  0  0  0  0  0  0  0  0  0  0  0
  149.7774  139.7007  155.2113 C   0  0  0  0  0  0  0  0  0  0  0  0
  149.5599  138.5080  157.2086 C   0  0  0  0  0  0  0  0  0  0  0  0
  150.6756  137.7386  157.0948 N   0  0  0  0  0  0  0  0  0  0  0  0
  150.7096  136.5176  157.6363 C   0  0  0  0  0  0  0  0  0  0  0  0
  149.7567  135.8810  158.3198 N   0  0  0  0  0  0  0  0  0  0  0  0
  148.6338  136.6468  158.4334 C   0  0  0  0  0  0  0  0  0  0  0  0
  148.4508  137.9566  157.9076 C   0  0  0  0  0  0  0  0  0  0  0  0
  147.1786  138.4203  158.2200 N   0  0  0  0  0  0  0  0  0  0  0  0
  146.6409  137.4409  158.8947 C   0  0  0  0  0  0  0  0  0  0  0  0
  147.4474  136.3398  159.0764 N   0  0  0  0  0  0  0  0  0  0  0  0
  147.1069  135.1206  159.7932 C   0  0  0  0  0  0  0  0  0  0  0  0
  146.8045  135.3568  161.2920 C   0  0  2  0  0  0  0  0  0  0  0  0
  145.4651  135.8092  161.4143 O   0  0  0  0  0  0  0  0  0  0  0  0
  147.7214  136.3720  161.9579 C   0  0  0  0  0  0  0  0  0  0  0  0
  147.6332  135.9836  163.4283 C   0  0  0  0  0  0  0  0  0  0  0  0
  147.5292  134.5658  163.4251 O   0  0  0  0  0  0  0  0  0  0  0  0
  147.0405  134.1053  162.1657 C   0  0  1  0  0  0  0  0  0  0  0  0
  145.8424  133.1612  162.3553 C   0  0  0  0  0  0  0  0  0  0  0  0
  151.6052  140.7677  157.6944 C   0  0  0  0  0  0  0  0  0  0  0  0
  152.4653  139.9537  156.7134 C   0  0  0  0  0  0  0  0  0  0  0  0
  152.0175  140.3351  159.1040 C   0  0  0  0  0  0  0  0  0  0  0  0
  152.9422  144.4769  161.1918 H   0  0  0  0  0  0  0  0  0  0  0  0
  151.2969  143.8558  161.2184 H   0  0  0  0  0  0  0  0  0  0  0  0
  151.7075  145.2142  160.1747 H   0  0  0  0  0  0  0  0  0  0  0  0
  153.2259  143.7444  158.8299 H   0  0  0  0  0  0  0  0  0  0  0  0
  152.8300  142.3611  159.8234 H   0  0  0  0  0  0  0  0  0  0  0  0
  152.4881  142.6352  156.8558 H   0  0  0  0  0  0  0  0  0  0  0  0
  149.6297  142.9153  156.6709 H   0  0  0  0  0  0  0  0  0  0  0  0
  150.5911  141.9073  155.5237 H   0  0  0  0  0  0  0  0  0  0  0  0
  149.5115  141.1059  158.3109 H   0  0  0  0  0  0  0  0  0  0  0  0
  150.3774  138.8337  154.9297 H   0  0  0  0  0  0  0  0  0  0  0  0
  150.3142  140.5885  154.8796 H   0  0  0  0  0  0  0  0  0  0  0  0
  148.8353  139.6545  154.6651 H   0  0  0  0  0  0  0  0  0  0  0  0
  151.6324  135.9730  157.5015 H   0  0  0  0  0  0  0  0  0  0  0  0
  145.6368  137.4974  159.2897 H   0  0  0  0  0  0  0  0  0  0  0  0
  146.2488  134.6600  159.3021 H   0  0  0  0  0  0  0  0  0  0  0  0
  147.9350  134.4196  159.6797 H   0  0  0  0  0  0  0  0  0  0  0  0
  145.3254  136.4998  160.7844 H   0  0  0  0  0  0  0  0  0  0  0  0
  148.7473  136.2328  161.6146 H   0  0  0  0  0  0  0  0  0  0  0  0
  147.4424  137.4094  161.7686 H   0  0  0  0  0  0  0  0  0  0  0  0
  148.4944  136.3207  164.0053 H   0  0  0  0  0  0  0  0  0  0  0  0
  146.7347  136.4033  163.8823 H   0  0  0  0  0  0  0  0  0  0  0  0
  147.8599  133.5296  161.7332 H   0  0  0  0  0  0  0  0  0  0  0  0
  145.4623  132.8119  161.3953 H   0  0  0  0  0  0  0  0  0  0  0  0
  145.0244  133.6483  162.8866 H   0  0  0  0  0  0  0  0  0  0  0  0
  146.1309  132.2849  162.9358 H   0  0  0  0  0  0  0  0  0  0  0  0
  152.3348  138.8805  156.8537 H   0  0  0  0  0  0  0  0  0  0  0  0
  153.5258  140.1702  156.8436 H   0  0  0  0  0  0  0  0  0  0  0  0
  152.2206  140.1723  155.6738 H   0  0  0  0  0  0  0  0  0  0  0  0
  151.9608  139.2540  159.2308 H   0  0  0  0  0  0  0  0  0  0  0  0
  151.3763  140.7793  159.8655 H   0  0  0  0  0  0  0  0  0  0  0  0
  153.0411  140.6367  159.3277 H   0  0  0  0  0  0  0  0  0  0  0  0
  1  2  1  0  0  0  0
  1 29  1  0  0  0  0
  1 30  1  0  0  0  0
  1 31  1  0  0  0  0
  2  3  1  0  0  0  0
  2 32  1  0  0  0  0
  2 33  1  0  0  0  0
  3  4  1  0  0  0  0
  4 26  1  0  0  0  0
  4  5  1  0  0  0  0
  4 34  1  0  0  0  0
  5  6  1  0  0  0  0
  5 35  1  0  0  0  0
  5 36  1  0  0  0  0
  6  7  1  0  0  0  0
  6 26  1  0  0  0  0
  6 37  1  0  0  0  0
  7  8  1  0  0  0  0
  7  9  1  0  0  0  0
  8 38  1  0  0  0  0
  8 39  1  0  0  0  0
  8 40  1  0  0  0  0
  9 14  1  0  0  0  0
  9 10  2  0  0  0  0
 10 11  1  0  0  0  0
 11 12  2  0  0  0  0
 11 41  1  0  0  0  0
 12 13  1  0  0  0  0
 13 17  1  0  0  0  0
 13 14  2  0  0  0  0
 14 15  1  0  0  0  0
 15 16  2  0  0  0  0
 16 17  1  0  0  0  0
 16 42  1  0  0  0  0
 17 18  1  0  0  0  0
 18 19  1  0  0  0  0
 18 43  1  0  0  0  0
 18 44  1  0  0  0  0
 19 24  1  0  0  0  0
 19 20  1  0  0  0  0
 19 21  1  0  0  0  0
 20 45  1  0  0  0  0
 21 22  1  0  0  0  0
 21 46  1  0  0  0  0
 21 47  1  0  0  0  0
 22 23  1  0  0  0  0
 22 48  1  0  0  0  0
 22 49  1  0  0  0  0
 23 24  1  0  0  0  0
 24 25  1  0  0  0  0
 24 50  1  0  0  0  0
 25 51  1  0  0  0  0
 25 52  1  0  0  0  0
 25 53  1  0  0  0  0
 26 27  1  0  0  0  0
 26 28  1  0  0  0  0
 27 54  1  0  0  0  0
 27 55  1  0  0  0  0
 27 56  1  0  0  0  0
 28 57  1  0  0  0  0
 28 58  1  0  0  0  0
 28 59  1  0  0  0  0
M  END
> <s_m_source_file>
AV-unprocessed.smi

> <i_m_source_file_index>
234

> <i_lp_mmshare_version>
43012

> <i_f3d_flags>
0

> <s_epik_input>
W0NIM11bQ0gyXU9bQ0BASF0oQzEoW0NIM10pW0NIM10pW0NIMl1bQ0BIXTFOKFtDSDNdKWMobltjSF1uMiljKGMyMyluW2NIXW4zW0NIMl1bQ0BAXTQoW09IXSlbQ0gyXVtDSDJdT1tDQEhdNFtDSDNd

> <s_epik_cmdline>
J2VwaWtfcHl0aG9uJywgJy1waCcsICc3LjAnLCAnLXRuJywgJzgnLCAnLW1hJywgJzIwMCcsICctbWV0YWxfYmluZGluZycsICctaW1hZScsICc8aW5maWxlLm1hZT4nLCAnLW9tYWUnLCAnPG91dGZpbGUubWFlPic=

> <r_lp_tautomer_probability>
1

> <r_epik_Ionization_Penalty>
0.00349132

> <r_epik_Ionization_Penalty_Charging>
0

> <r_epik_Ionization_Penalty_Neutral>
0.00349132

> <r_epik_State_Penalty>
0.00242418

> <r_epik_Charging_Adjusted_Penalty>
0.00242418

> <i_epik_Tot_Q>
0

> <i_epik_Tot_abs_Q>
0

> <r_epik_Metal_State_Penalty>
-0

> <b_epik_Metal_Only>
0

> <s_lp_Force_Field>
OPLS_2005

> <r_lp_Energy>
49.8598

> <b_lp_Chiralities_Consistent>
1

> <s_lp_Variant>
AV-unprocessed.smi:234-5

> <Gold.Version>
5.8.1

> <Gold.Id.Protein>
6NUR|6NUR_protein|mol2

> <Gold.PLP.Fitness>
41.7793

> <Gold.PLP.PLP>
-40.0856

> <Gold.PLP.part.hbond>
-2.9289

> <Gold.PLP.part.metal>
0.0000

> <Gold.PLP.part.buried>
-3.9788

> <Gold.PLP.part.nonpolar>
-33.1894

> <Gold.PLP.part.repulsive>
0.0834

> <Gold.PLP.ligand.clash>
0.0000

> <Gold.PLP.ligand.torsion>
1.2066

> <Gold.PLP.Chemscore.Hbond>
1.0000

> <Gold.PLP.Chemscore.CHOScore>
0.0000

> <Gold.PLP.Chemscore.Metal>
0.0000

> <Gold.Chemscore.Hbonds>
donor molecule, donor type, donor heavy atom, donor atom, acceptor molecule, acceptor atom, score
      P1  H  6896  6909       L1    12  1.00

> <Gold.PLP.Chemscore.Internal.Correction>
1.1069

> <Gold.Rescore>
     Score         DG    S(hbond)    S(metal)    S(lipo)     H(rot)  DE(clash)    DE(int)     intcor
     10.20     -13.31       0.42        0.00     112.35       2.62       0.36       2.75       ----

> <Gold.Chemscore.Fitness>
10.2001

> <Gold.Chemscore.DG>
-13.3127

> <Gold.Chemscore.ZeroCoef>
-5.4800

> <Gold.Chemscore.Hbond>
0.4190

> <Gold.Chemscore.Metal>
0.0000

> <Gold.Chemscore.Lipo>
112.3539

> <Gold.Chemscore.Internal_Hbond>
0.0000

> <Gold.Chemscore.DEClash>
0.3609

> <Gold.Chemscore.DEInternal>
2.7516

> <Gold.Chemscore.Rot>
2.6219

> <Gold.Chemscore.Internal.Correction>
   9.000000E+99

> <Gold.Chemscore.Hbonds>
donor molecule, donor type, donor heavy atom, donor atom, acceptor molecule, acceptor atom, score
      P1  H  6896  6909       L1    12  0.55

> <Gold.Chemscore.Hbond.Weighted>
-1.3994

> <Gold.Chemscore.Metal.Weighted>
-0.0000

> <Gold.Chemscore.Lipo.Weighted>
-13.1454

> <Gold.Chemscore.Internal_Hbond.Weighted>
0.0000

> <Gold.Chemscore.DEClash.Weighted>
0.3609

> <Gold.Chemscore.DEInternal.Weighted>
2.7516

> <Gold.Chemscore.Rot.Weighted>
6.7121

> <Gold.Chemscore.Internal.Correction.Weighted>
   9.000000E+99

> <Gold.Protein.RotatedTorsions>
[ 6907 6896 6895 6894 ] final   47.21 input  -60.11 | X-H torsion
[ 7974 7965 7964 7962 ] final  -39.32 input  175.53 | X-H torsion
[ 8008 7997 7996 7995 ] final   51.76 input   59.86 | X-H torsion
[ 10167 10162 10161 10158 ] final  -92.48 input  -65.29 | X-H torsion
[ 10718 10713 10712 10709 ] final   75.02 input   66.30 | X-H torsion
[ 10763 10752 10751 10750 ] final   69.03 input  -60.55 | X-H torsion
[ 11005 11000 10999 10996 ] final  -72.96 input  -57.11 | X-H torsion

> <Gold.Protein.ActiveResidues>
 VAL166  LYS551  ARG553  GLY616  TRP617  ASP618  TYR619  PRO620  LYS621  CYS622 
 ASP623  PHE694  ASN695  SER759  ASP760  ASP761  ALA762  ILE779  LEU786  VAL792 
 PHE793  MET794  SER795  GLU796  ALA797  LYS798  CYS799  TRP800  GLU811  SER814 

> <Gold.Protein.RotatedAtoms>
  152.2655  134.7989  160.0423 H   0  0  0  0  0  0  0  0  0  0  0  0  # atno 6907 bound_to 6896
  151.8620  133.3454  159.3715 H   0  0  0  0  0  0  0  0  0  0  0  0  # atno 6908 bound_to 6896
  150.7132  134.5124  159.5658 H   0  0  0  0  0  0  0  0  0  0  0  0  # atno 6909 bound_to 6896
  146.0407  140.6612  142.9088 H   0  0  0  0  0  0  0  0  0  0  0  0  # atno 7974 bound_to 7965
  155.4406  140.3454  155.4289 H   0  0  0  0  0  0  0  0  0  0  0  0  # atno 8008 bound_to 7997
  156.1281  140.1506  156.9136 H   0  0  0  0  0  0  0  0  0  0  0  0  # atno 8009 bound_to 7997
  154.4874  140.0851  156.7496 H   0  0  0  0  0  0  0  0  0  0  0  0  # atno 8010 bound_to 7997
  140.3344  143.2977  151.9906 H   0  0  0  0  0  0  0  0  0  0  0  0  # atno 10167 bound_to 10162
  157.6617  130.9706  150.1294 H   0  0  0  0  0  0  0  0  0  0  0  0  # atno 10718 bound_to 10713
  153.0266  135.5225  154.7226 H   0  0  0  0  0  0  0  0  0  0  0  0  # atno 10763 bound_to 10752
  154.6277  135.2896  155.0255 H   0  0  0  0  0  0  0  0  0  0  0  0  # atno 10764 bound_to 10752
  154.1219  135.6606  153.4957 H   0  0  0  0  0  0  0  0  0  0  0  0  # atno 10765 bound_to 10752
  141.1616  133.6863  156.7138 H   0  0  0  0  0  0  0  0  0  0  0  0  # atno 11005 bound_to 11000
  144.7073  140.3903  143.7108 LP  0  0  0  0  0  0  0  0  0  0  0  0  # atno 17320 bound_to 7965
  145.6889  139.1634  143.2658 LP  0  0  0  0  0  0  0  0  0  0  0  0  # atno 17321 bound_to 7965
  139.4851  144.6208  151.7258 LP  0  0  0  0  0  0  0  0  0  0  0  0  # atno 17342 bound_to 10162
  140.5367  144.0644  150.6073 LP  0  0  0  0  0  0  0  0  0  0  0  0  # atno 17343 bound_to 10162
  156.2144  130.3669  149.8631 LP  0  0  0  0  0  0  0  0  0  0  0  0  # atno 17370 bound_to 10713
  156.6501  130.8740  151.3529 LP  0  0  0  0  0  0  0  0  0  0  0  0  # atno 17371 bound_to 10713
  140.2867  134.8273  157.3981 LP  0  0  0  0  0  0  0  0  0  0  0  0  # atno 17394 bound_to 11000
  140.1384  134.5004  155.8050 LP  0  0  0  0  0  0  0  0  0  0  0  0  # atno 17395 bound_to 11000

$$$$
