#       Name:                AV-unprocessed.smi:37
#       Creating user name   scv26
#       Creation time:       Thu Mar 26 16:12:06 2020


#       File generated by GOLD software.
#

@<TRIPOS>MOLECULE
AV-unprocessed.smi:37
    54    55     1
SMALL
NO_CHARGES


@<TRIPOS>ATOM
      1 ****        -3.0404   4.3402   0.3799 C.3            1 S1                 0.0000
      2 ****        -2.9062   3.2596  -0.7008 C.3            1 S1                 0.0000
      3 ****        -2.5404   1.8985  -0.1136 C.2            1 S1                 0.0000
      4 ****        -3.3249   0.9508  -0.1547 O.2            1 S1                 0.0000
      5 ****        -1.3041   1.8781   0.4103 O.3            1 S1                 0.0000
      6 ****        -0.7881   0.6812   0.9715 C.3            1 S1                 0.0000
      7 ****         0.7505   0.7180   0.9477 C.3            1 S1                 0.0000
      8 ****         1.2063  -0.2468   1.8994 O.3            1 S1                 0.0000
      9 ****         1.9425  -1.2415   1.2571 C.3            1 S1                 0.0000
     10 ****         1.5747  -2.5733   1.8654 N.am           1 S1                 0.0000
     11 ****         0.2427  -2.9396   1.9990 C.2            1 S1                 0.0000
     12 ****        -0.1489  -4.1076   2.5602 C.2            1 S1                 0.0000
     13 ****        -1.4587  -4.3931   2.6530 F              1 S1                 0.0000
     14 ****         0.8377  -5.0559   3.0688 C.2            1 S1                 0.0000
     15 ****         0.5828  -6.1394   3.5907 O.2            1 S1                 0.0000
     16 ****         2.1648  -4.6406   2.9236 N.am           1 S1                 0.0000
     17 ****         2.5821  -3.4387   2.3479 C.2            1 S1                 0.0000
     18 ****         3.7830  -3.1831   2.2723 O.2            1 S1                 0.0000
     19 ****         1.5863  -1.1767  -0.2226 C.3            1 S1                 0.0000
     20 ****         3.0551  -1.8733  -1.3713 Br             1 S1                 0.0000
     21 ****         1.3933   0.3129  -0.3944 C.3            1 S1                 0.0000
     22 ****         0.5988   0.5775  -1.5437 O.3            1 S1                 0.0000
     23 ****         0.7166   1.7486  -2.1959 C.2            1 S1                 0.0000
     24 ****         1.4585   2.6790  -1.8815 O.2            1 S1                 0.0000
     25 ****        -0.2157   1.8472  -3.4011 C.3            1 S1                 0.0000
     26 ****         0.1007   0.7923  -4.4695 C.3            1 S1                 0.0000
     27 ****         2.8826  -5.2636   3.2641 H              1 S1                 0.0000
     28 ****        -3.3295   5.2923  -0.0648 H              1 S1                 0.0000
     29 ****        -2.0998   4.4963   0.9093 H              1 S1                 0.0000
     30 ****        -3.8013   4.0742   1.1142 H              1 S1                 0.0000
     31 ****        -3.8428   3.1673  -1.2511 H              1 S1                 0.0000
     32 ****        -2.1418   3.5474  -1.4230 H              1 S1                 0.0000
     33 ****        -1.1431   0.6154   2.0005 H              1 S1                 0.0000
     34 ****        -1.1521  -0.2038   0.4478 H              1 S1                 0.0000
     35 ****         1.0988   1.7042   1.2566 H              1 S1                 0.0000
     36 ****         2.9981  -1.0396   1.4440 H              1 S1                 0.0000
     37 ****        -0.5233  -2.2661   1.6431 H              1 S1                 0.0000
     38 ****         0.6703  -1.7305  -0.4315 H              1 S1                 0.0000
     39 ****         2.3775   0.7777  -0.4743 H              1 S1                 0.0000
     40 ****        -1.2454   1.7364  -3.0602 H              1 S1                 0.0000
     41 ****        -0.1307   2.8458  -3.8304 H              1 S1                 0.0000
     42 ****        -0.5461   0.9196  -5.3377 H              1 S1                 0.0000
     43 ****        -0.0526  -0.2190  -4.0911 H              1 S1                 0.0000
     44 ****         1.1329   0.8712  -4.8124 H              1 S1                 0.0000
     45 ****        -4.2234   1.0635  -0.5792 LP             1 S1                 0.0000
     46 ****        -3.0639   0.0683   0.2363 LP             1 S1                 0.0000
     47 ****         0.4179  -0.6605   2.3546 LP             1 S1                 0.0000
     48 ****         1.7838   0.2058   2.5787 LP             1 S1                 0.0000
     49 ****        -0.3675  -6.4330   3.6946 LP             1 S1                 0.0000
     50 ****         1.3256  -6.7270   3.9115 LP             1 S1                 0.0000
     51 ****         4.0866  -2.3275   1.8531 LP             1 S1                 0.0000
     52 ****         4.4556  -3.8309   2.6299 LP             1 S1                 0.0000
     53 ****         2.0447   2.6005  -1.0751 LP             1 S1                 0.0000
     54 ****         1.4752   3.5134  -2.4324 LP             1 S1                 0.0000
@<TRIPOS>BOND
    1    1    2 1     
    2    1   28 1     
    3    1   29 1     
    4    1   30 1     
    5    2    3 1     
    6    2   31 1     
    7    2   32 1     
    8    3    4 2     
    9    3    5 1     
   10    5    6 1     
   11    6    7 1     
   12    6   33 1     
   13    6   34 1     
   14    7   21 1     
   15    7    8 1     
   16    7   35 1     
   17    8    9 1     
   18    9   10 1     
   19    9   19 1     
   20    9   36 1     
   21   10   17 1     
   22   10   11 1     
   23   11   12 2     
   24   11   37 1     
   25   12   13 1     
   26   12   14 1     
   27   14   15 2     
   28   14   16 1     
   29   16   27 1     
   30   16   17 1     
   31   17   18 2     
   32   19   20 1     
   33   19   21 1     
   34   19   38 1     
   35   21   22 1     
   36   21   39 1     
   37   22   23 1     
   38   23   24 2     
   39   23   25 1     
   40   25   26 1     
   41   25   40 1     
   42   25   41 1     
   43   26   42 1     
   44   26   43 1     
   45   26   44 1     
   46    4   45 1     
   47    4   46 1     
   48    8   47 1     
   49    8   48 1     
   50   15   49 1     
   51   15   50 1     
   52   18   51 1     
   53   18   52 1     
   54   24   53 1     
   55   24   54 1     
@<TRIPOS>SUBSTRUCTURE
      1 S1             1
@<TRIPOS>SET
LONE_PAIRS      STATIC     ATOMS    <user>   **** ""
10 45 46 47 48 49 50 51 52 53 54
DONOR_HYDROGENS      STATIC     ATOMS    <user>   **** ""
1 27
ATOM$BLUE        STATIC     ATOMS    COLORGROUP SYSTEM
10 45 46 47 48 49 50 51 52 53 54
ATOM$RED        STATIC     ATOMS    COLORGROUP SYSTEM
1 27
