AV-unprocessed.smi:1388|AV-procd|sdf|5641|dock2
  -GOLD-   22720 5253D 1   1.00000     0.00000
 Structure written by MMmdl.
 45 46  0  0  0  0  0  0  0  0  1 V2000
  150.5441  143.9001  158.8274 C   0  0  0  0  0  0  0  0  0  0  0  0
  150.5136  143.3063  157.4998 N   0  0  0  0  0  0  0  0  0  0  0  0
  150.7910  142.0203  157.2402 C   0  0  0  0  0  0  0  0  0  0  0  0
  151.1077  141.2065  158.1076 O   0  0  0  0  0  0  0  0  0  0  0  0
  150.7012  141.5852  155.7731 C   0  0  0  0  0  0  0  0  0  0  0  0
  149.3965  141.0028  155.3819 N   0  0  0  0  0  0  0  0  0  0  0  0
  149.4849  139.5587  155.1172 C   0  0  0  0  0  0  0  0  0  0  0  0
  148.0991  138.9817  154.7772 C   0  0  0  0  0  0  0  0  0  0  0  0
  147.4728  139.7018  153.5728 C   0  0  0  0  0  0  0  0  0  0  0  0
  146.1071  139.2368  153.3487 N   0  0  0  0  0  0  0  0  0  0  0  0
  145.7112  137.9558  153.3831 C   0  0  0  0  0  0  0  0  0  0  0  0
  146.4763  137.0138  153.5932 O   0  0  0  0  0  0  0  0  0  0  0  0
  144.3869  137.8514  153.1725 N   0  0  0  0  0  0  0  0  0  0  0  0
  143.5912  136.6728  153.1048 C   0  0  0  0  0  0  0  0  0  0  0  0
  142.5339  136.4552  153.9269 N   0  0  0  0  0  0  0  0  0  0  0  0
  141.8260  135.3128  153.8130 C   0  0  0  0  0  0  0  0  0  0  0  0
  142.1278  134.3135  152.8721 C   0  0  0  0  0  0  0  0  0  0  0  0
  143.2202  134.5220  152.0132 C   0  0  0  0  0  0  0  0  0  0  0  0
  143.9671  135.7142  152.1255 C   0  0  0  0  0  0  0  0  0  0  0  0
  145.1483  135.9423  151.1963 C   0  0  0  0  0  0  0  0  0  0  0  0
  147.4783  141.2135  153.8376 C   0  0  0  0  0  0  0  0  0  0  0  0
  148.8913  141.7046  154.1971 C   0  0  0  0  0  0  0  0  0  0  0  0
  150.3038  144.9613  158.7649 H   0  0  0  0  0  0  0  0  0  0  0  0
  151.5334  143.8004  159.2763 H   0  0  0  0  0  0  0  0  0  0  0  0
  149.8142  143.4229  159.4824 H   0  0  0  0  0  0  0  0  0  0  0  0
  150.2592  143.9063  156.7283 H   0  0  0  0  0  0  0  0  0  0  0  0
  150.9059  142.4655  155.1619 H   0  0  0  0  0  0  0  0  0  0  0  0
  151.5007  140.8719  155.5634 H   0  0  0  0  0  0  0  0  0  0  0  0
  150.1837  139.3685  154.3007 H   0  0  0  0  0  0  0  0  0  0  0  0
  149.8665  139.0254  155.9878 H   0  0  0  0  0  0  0  0  0  0  0  0
  148.1876  137.9146  154.5699 H   0  0  0  0  0  0  0  0  0  0  0  0
  147.4466  139.0736  155.6470 H   0  0  0  0  0  0  0  0  0  0  0  0
  148.0794  139.5082  152.6858 H   0  0  0  0  0  0  0  0  0  0  0  0
  145.4108  139.9454  153.1690 H   0  0  0  0  0  0  0  0  0  0  0  0
  143.8849  138.7178  153.0481 H   0  0  0  0  0  0  0  0  0  0  0  0
  140.9957  135.1922  154.4927 H   0  0  0  0  0  0  0  0  0  0  0  0
  141.5368  133.4115  152.8116 H   0  0  0  0  0  0  0  0  0  0  0  0
  143.4792  133.7736  151.2785 H   0  0  0  0  0  0  0  0  0  0  0  0
  145.2879  135.1011  150.5167 H   0  0  0  0  0  0  0  0  0  0  0  0
  146.0672  136.0656  151.7702 H   0  0  0  0  0  0  0  0  0  0  0  0
  144.9919  136.8378  150.5940 H   0  0  0  0  0  0  0  0  0  0  0  0
  147.1151  141.7476  152.9587 H   0  0  0  0  0  0  0  0  0  0  0  0
  146.7931  141.4552  154.6518 H   0  0  0  0  0  0  0  0  0  0  0  0
  148.8510  142.7772  154.3917 H   0  0  0  0  0  0  0  0  0  0  0  0
  149.5677  141.5611  153.3524 H   0  0  0  0  0  0  0  0  0  0  0  0
  1  2  1  0  0  0  0
  1 23  1  0  0  0  0
  1 24  1  0  0  0  0
  1 25  1  0  0  0  0
  2  3  1  0  0  0  0
  2 26  1  0  0  0  0
  3  4  2  0  0  0  0
  3  5  1  0  0  0  0
  5  6  1  0  0  0  0
  5 27  1  0  0  0  0
  5 28  1  0  0  0  0
  6 22  1  0  0  0  0
  6  7  1  0  0  0  0
  7  8  1  0  0  0  0
  7 29  1  0  0  0  0
  7 30  1  0  0  0  0
  8  9  1  0  0  0  0
  8 31  1  0  0  0  0
  8 32  1  0  0  0  0
  9 10  1  0  0  0  0
  9 21  1  0  0  0  0
  9 33  1  0  0  0  0
 10 11  1  0  0  0  0
 10 34  1  0  0  0  0
 11 12  2  0  0  0  0
 11 13  1  0  0  0  0
 13 14  1  0  0  0  0
 13 35  1  0  0  0  0
 14 19  1  0  0  0  0
 14 15  2  0  0  0  0
 15 16  1  0  0  0  0
 16 17  2  0  0  0  0
 16 36  1  0  0  0  0
 17 18  1  0  0  0  0
 17 37  1  0  0  0  0
 18 19  2  0  0  0  0
 18 38  1  0  0  0  0
 19 20  1  0  0  0  0
 20 39  1  0  0  0  0
 20 40  1  0  0  0  0
 20 41  1  0  0  0  0
 21 22  1  0  0  0  0
 21 42  1  0  0  0  0
 21 43  1  0  0  0  0
 22 44  1  0  0  0  0
 22 45  1  0  0  0  0
M  END
> <s_m_source_file>
AV-unprocessed.smi

> <i_m_source_file_index>
1388

> <i_lp_mmshare_version>
43012

> <i_f3d_flags>
0

> <s_epik_input>
W0NIM11bTkhdQyg9TylbQ0gyXU4xW0NIMl1bQ0gyXVtDSF0oW0NIMl1bQ0gyXTEpW05IXUMoPU8pW05IXWMybltjSF1bY0hdW2NIXWMyW0NIM10=

> <s_epik_cmdline>
J2VwaWtfcHl0aG9uJywgJy1waCcsICc3LjAnLCAnLXRuJywgJzgnLCAnLW1hJywgJzIwMCcsICctbWV0YWxfYmluZGluZycsICctaW1hZScsICc8aW5maWxlLm1hZT4nLCAnLW9tYWUnLCAnPG91dGZpbGUubWFlPic=

> <r_epik_Ionization_Penalty>
0.164795

> <r_epik_Ionization_Penalty_Charging>
0

> <r_epik_Ionization_Penalty_Neutral>
0.164795

> <r_epik_State_Penalty>
0.154069

> <r_epik_Charging_Adjusted_Penalty>
0.154069

> <i_epik_Tot_Q>
0

> <i_epik_Tot_abs_Q>
0

> <r_epik_Metal_State_Penalty>
0.158585

> <b_epik_Metal_Only>
0

> <s_lp_Force_Field>
OPLS_2005

> <r_lp_Energy>
17.3475

> <b_lp_Chiralities_Consistent>
1

> <s_lp_Variant>
AV-unprocessed.smi:1388-1

> <Gold.Version>
5.8.1

> <Gold.Id.Protein>
6NUR|6NUR_protein|mol2

> <Gold.PLP.Fitness>
42.7006

> <Gold.PLP.PLP>
-34.3087

> <Gold.PLP.part.hbond>
-3.0000

> <Gold.PLP.part.metal>
0.0000

> <Gold.PLP.part.buried>
-5.0642

> <Gold.PLP.part.nonpolar>
-28.3212

> <Gold.PLP.part.repulsive>
0.2961

> <Gold.PLP.ligand.clash>
0.0000

> <Gold.PLP.ligand.torsion>
1.8079

> <Gold.PLP.Chemscore.Hbond>
3.0000

> <Gold.PLP.Chemscore.CHOScore>
0.9889

> <Gold.PLP.Chemscore.Metal>
0.0000

> <Gold.Chemscore.Hbonds>
donor molecule, donor type, donor heavy atom, donor atom, acceptor molecule, acceptor atom, score
      L1  H     2    26       P1  8028  0.99
      L1  H    10    34       P1 10175  1.00
      L1  H    13    35       P1 10175  1.00
      L1  C    16    36       P1 11000  1.00

> <Gold.PLP.Chemscore.Internal.Correction>
0.0410

> <Gold.Rescore>
     Score         DG    S(hbond)    S(metal)    S(lipo)     H(rot)  DE(clash)    DE(int)     intcor
     15.58     -18.72       2.66        0.00      73.63       1.66       0.19       2.95       ----

> <Gold.Chemscore.Fitness>
15.5825

> <Gold.Chemscore.DG>
-18.7210

> <Gold.Chemscore.ZeroCoef>
-5.4800

> <Gold.Chemscore.Hbond>
2.6585

> <Gold.Chemscore.Metal>
0.0000

> <Gold.Chemscore.Lipo>
73.6349

> <Gold.Chemscore.Internal_Hbond>
0.0000

> <Gold.Chemscore.DEClash>
0.1874

> <Gold.Chemscore.DEInternal>
2.9511

> <Gold.Chemscore.Rot>
1.6616

> <Gold.Chemscore.Internal.Correction>
   9.000000E+99

> <Gold.Chemscore.Hbonds>
donor molecule, donor type, donor heavy atom, donor atom, acceptor molecule, acceptor atom, score
      L1  H     2    26       P1  8028  0.94
      L1  H    10    34       P1 10175  0.95
      L1  H    13    35       P1 10175  0.99

> <Gold.Chemscore.Hbond.Weighted>
-8.8795

> <Gold.Chemscore.Metal.Weighted>
-0.0000

> <Gold.Chemscore.Lipo.Weighted>
-8.6153

> <Gold.Chemscore.Internal_Hbond.Weighted>
0.0000

> <Gold.Chemscore.DEClash.Weighted>
0.1874

> <Gold.Chemscore.DEInternal.Weighted>
2.9511

> <Gold.Chemscore.Rot.Weighted>
4.2538

> <Gold.Chemscore.Internal.Correction.Weighted>
   9.000000E+99

> <Gold.Protein.RotatedTorsions>
[ 6907 6896 6895 6894 ] final   42.47 input  -60.11 | X-H torsion
[ 7974 7965 7964 7962 ] final   37.36 input  175.53 | X-H torsion
[ 8008 7997 7996 7995 ] final -171.12 input   59.86 | X-H torsion
[ 10167 10162 10161 10158 ] final  -56.72 input  -65.29 | X-H torsion
[ 10718 10713 10712 10709 ] final -109.37 input   66.30 | X-H torsion
[ 10763 10752 10751 10750 ] final   33.21 input  -60.55 | X-H torsion
[ 11005 11000 10999 10996 ] final  163.98 input  -57.11 | X-H torsion

> <Gold.Protein.ActiveResidues>
 VAL166  LYS551  ARG553  GLY616  TRP617  ASP618  TYR619  PRO620  LYS621  CYS622 
 ASP623  PHE694  ASN695  SER759  ASP760  ASP761  ALA762  ILE779  LEU786  VAL792 
 PHE793  MET794  SER795  GLU796  ALA797  LYS798  CYS799  TRP800  GLU811  SER814 

> <Gold.Protein.RotatedAtoms>
  152.2083  134.8525  160.0500 H   0  0  0  0  0  0  0  0  0  0  0  0  # atno 6907 bound_to 6896
  151.9353  133.3617  159.3953 H   0  0  0  0  0  0  0  0  0  0  0  0  # atno 6908 bound_to 6896
  150.6970  134.4420  159.5340 H   0  0  0  0  0  0  0  0  0  0  0  0  # atno 6909 bound_to 6896
  146.1143  139.5903  142.9332 H   0  0  0  0  0  0  0  0  0  0  0  0  # atno 7974 bound_to 7965
  155.9273  140.1085  157.1160 H   0  0  0  0  0  0  0  0  0  0  0  0  # atno 8008 bound_to 7997
  154.4064  140.1244  156.4823 H   0  0  0  0  0  0  0  0  0  0  0  0  # atno 8009 bound_to 7997
  155.7123  140.3471  155.4981 H   0  0  0  0  0  0  0  0  0  0  0  0  # atno 8010 bound_to 7997
  140.6300  143.2455  151.5265 H   0  0  0  0  0  0  0  0  0  0  0  0  # atno 10167 bound_to 10162
  156.0533  130.5760  150.8090 H   0  0  0  0  0  0  0  0  0  0  0  0  # atno 10718 bound_to 10713
  153.0223  135.6393  154.1476 H   0  0  0  0  0  0  0  0  0  0  0  0  # atno 10763 bound_to 10752
  154.1209  135.2846  155.3210 H   0  0  0  0  0  0  0  0  0  0  0  0  # atno 10764 bound_to 10752
  154.6264  135.5507  153.7693 H   0  0  0  0  0  0  0  0  0  0  0  0  # atno 10765 bound_to 10752
  140.2413  134.8049  157.3413 H   0  0  0  0  0  0  0  0  0  0  0  0  # atno 11005 bound_to 11000
  145.5599  141.0405  143.2232 LP  0  0  0  0  0  0  0  0  0  0  0  0  # atno 17320 bound_to 7965
  144.7539  139.7124  143.7262 LP  0  0  0  0  0  0  0  0  0  0  0  0  # atno 17321 bound_to 7965
  139.5515  144.2382  152.1539 LP  0  0  0  0  0  0  0  0  0  0  0  0  # atno 17342 bound_to 10162
  140.1624  144.5013  150.6625 LP  0  0  0  0  0  0  0  0  0  0  0  0  # atno 17343 bound_to 10162
  157.5481  131.0943  150.9734 LP  0  0  0  0  0  0  0  0  0  0  0  0  # atno 17370 bound_to 10713
  157.0001  130.5596  149.5310 LP  0  0  0  0  0  0  0  0  0  0  0  0  # atno 17371 bound_to 10713
  140.1651  134.4680  155.7869 LP  0  0  0  0  0  0  0  0  0  0  0  0  # atno 17394 bound_to 11000
  141.2210  133.6917  156.7611 LP  0  0  0  0  0  0  0  0  0  0  0  0  # atno 17395 bound_to 11000

$$$$
