#       Name:                AV-unprocessed.smi:3330
#       Creating user name   scv26
#       Creation time:       Fri Mar 27 19:17:19 2020


#       File generated by GOLD software.
#

@<TRIPOS>MOLECULE
AV-unprocessed.smi:3330
    44    45     1
SMALL
NO_CHARGES


@<TRIPOS>ATOM
      1 ****        -1.5985  -1.1586  -0.9551 C.3            1 S1                 0.0000
      2 ****        -1.0100  -0.5473   0.3359 C.3            1 S1                 0.0000
      3 ****         0.4467  -0.6386   0.2952 N.3            1 S1                 0.0000
      4 ****         1.0585   0.3719  -0.5546 C.3            1 S1                 0.0000
      5 ****         2.5873   0.2609  -0.4496 C.3            1 S1                 0.0000
      6 ****         3.2521   1.2431  -1.3097 N.am           1 S1                 0.0000
      7 ****         3.6581   0.9975  -2.5623 C.2            1 S1                 0.0000
      8 ****         3.5563  -0.0554  -3.1912 O.2            1 S1                 0.0000
      9 ****         4.2821   2.2584  -3.1194 C.3            1 S1                 0.0000
     10 ****         4.1075   3.1305  -1.9780 N.am           1 S1                 0.0000
     11 ****         3.5078   2.5144  -0.9510 C.2            1 S1                 0.0000
     12 ****         3.2388   3.0372   0.1294 O.2            1 S1                 0.0000
     13 ****        -1.5033  -1.2554   1.6270 C.3            1 S1                 0.0000
     14 ****        -1.0602  -0.5261   2.9092 C.3            1 S1                 0.0000
     15 ****        -2.9517  -1.4219   1.6376 N.pl3          1 S1                 0.0000
     16 ****        -3.9315  -0.4491   1.6604 C.2            1 S1                 0.0000
     17 ****        -5.1396  -1.0850   1.6541 C.2            1 S1                 0.0000
     18 ****        -4.7944  -2.4648   1.6279 C.2            1 S1                 0.0000
     19 ****        -3.4866  -2.6632   1.6200 N.2            1 S1                 0.0000
     20 ****        -2.6856  -1.0833  -0.9773 H              1 S1                 0.0000
     21 ****        -1.3404  -2.2143  -1.0451 H              1 S1                 0.0000
     22 ****        -1.2404  -0.6516  -1.8502 H              1 S1                 0.0000
     23 ****        -1.3001   0.5029   0.3931 H              1 S1                 0.0000
     24 ****         0.7320  -1.5645   0.0093 H              1 S1                 0.0000
     25 ****         0.7496   0.2365  -1.5907 H              1 S1                 0.0000
     26 ****         0.7318   1.3642  -0.2401 H              1 S1                 0.0000
     27 ****         2.9035   0.4053   0.5854 H              1 S1                 0.0000
     28 ****         2.9081  -0.7473  -0.7187 H              1 S1                 0.0000
     29 ****         5.3362   2.1145  -3.3589 H              1 S1                 0.0000
     30 ****         3.7420   2.6243  -3.9931 H              1 S1                 0.0000
     31 ****         4.4057   4.0952  -1.9712 H              1 S1                 0.0000
     32 ****        -1.0646  -2.2553   1.6514 H              1 S1                 0.0000
     33 ****         0.0258  -0.4893   2.9938 H              1 S1                 0.0000
     34 ****        -1.4357  -1.0350   3.7975 H              1 S1                 0.0000
     35 ****        -1.4280   0.5001   2.9329 H              1 S1                 0.0000
     36 ****        -3.6893   0.6033   1.6769 H              1 S1                 0.0000
     37 ****        -6.1202  -0.6331   1.6655 H              1 S1                 0.0000
     38 ****        -5.4504  -3.3226   1.6140 H              1 S1                 0.0000
     39 ****         0.7730  -0.4619   1.2238 LP             1 S1                 0.0000
     40 ****         3.1287  -0.8527  -2.7654 LP             1 S1                 0.0000
     41 ****         3.9012  -0.1135  -4.1280 LP             1 S1                 0.0000
     42 ****         2.7849   2.5043   0.8435 LP             1 S1                 0.0000
     43 ****         3.4740   3.9952   0.2936 LP             1 S1                 0.0000
     44 ****        -3.0013  -3.5374   1.6044 LP             1 S1                 0.0000
@<TRIPOS>BOND
    1    1    2 1     
    2    1   20 1     
    3    1   21 1     
    4    1   22 1     
    5    2    3 1     
    6    2   13 1     
    7    2   23 1     
    8    3    4 1     
    9    3   24 1     
   10    4    5 1     
   11    4   25 1     
   12    4   26 1     
   13    5    6 1     
   14    5   27 1     
   15    5   28 1     
   16    6   11 am    
   17    6    7 am    
   18    7    8 2     
   19    7    9 1     
   20    9   10 1     
   21    9   29 1     
   22    9   30 1     
   23   10   11 am    
   24   10   31 1     
   25   11   12 2     
   26   13   14 1     
   27   13   15 1     
   28   13   32 1     
   29   14   33 1     
   30   14   34 1     
   31   14   35 1     
   32   15   19 1     
   33   15   16 1     
   34   16   17 2     
   35   16   36 1     
   36   17   18 1     
   37   17   37 1     
   38   18   19 2     
   39   18   38 1     
   40    3   39 1     
   41    8   40 1     
   42    8   41 1     
   43   12   42 1     
   44   12   43 1     
   45   19   44 1     
@<TRIPOS>SUBSTRUCTURE
      1 S1             1
@<TRIPOS>SET
LONE_PAIRS      STATIC     ATOMS    <user>   **** ""
6 39 40 41 42 43 44
DONOR_HYDROGENS      STATIC     ATOMS    <user>   **** ""
2 24 31
ATOM$BLUE        STATIC     ATOMS    COLORGROUP SYSTEM
6 39 40 41 42 43 44
ATOM$RED        STATIC     ATOMS    COLORGROUP SYSTEM
2 24 31
