AV-unprocessed.smi:125|AV-procd|sdf|1149|dock3
  -GOLD-   2262018283D 1   1.00000     0.00000
 Structure written by MMmdl.
 59 62  0  0  0  0  0  0  0  0  1 V2000
  145.5006  133.7543  156.6798 C   0  0  0  0  0  0  0  0  0  0  0  0
  146.6321  134.7444  156.4587 C   0  0  0  0  0  0  0  0  0  0  0  0
  146.4546  135.7609  155.4969 C   0  0  0  0  0  0  0  0  0  0  0  0
  147.4678  136.7050  155.2479 C   0  0  0  0  0  0  0  0  0  0  0  0
  148.6906  136.6406  155.9553 C   0  0  0  0  0  0  0  0  0  0  0  0
  149.7552  137.5652  155.7770 N   0  0  0  0  0  0  0  0  0  0  0  0
  149.8265  138.6215  154.9465 C   0  0  0  0  0  0  0  0  0  0  0  0
  148.9617  138.9233  154.1234 O   0  0  0  0  0  0  0  0  0  0  0  0
  151.1228  139.4408  155.0393 C   0  0  0  0  0  0  0  0  0  0  0  0
  151.3713  139.9803  156.3941 N   0  0  0  0  0  0  0  0  0  0  0  0
  151.9836  139.1344  157.3523 C   0  0  0  0  0  0  0  0  0  0  0  0
  152.3088  137.9802  157.0689 O   0  0  0  0  0  0  0  0  0  0  0  0
  152.1914  139.7219  158.6708 C   0  0  0  0  0  0  0  0  0  0  0  0
  152.7849  138.9989  159.6357 F   0  0  0  0  0  0  0  0  0  0  0  0
  151.8006  140.9847  158.9374 C   0  0  0  0  0  0  0  0  0  0  0  0
  151.1857  141.7925  157.9986 N   0  0  0  0  0  0  0  0  0  0  0  0
  150.7626  143.2053  158.3347 C   0  0  2  0  0  0  0  0  0  0  0  0
  151.5787  144.2114  157.5155 C   0  0  0  0  0  0  0  0  0  0  0  0
  152.6995  144.5561  158.4721 C   0  0  0  0  0  0  0  0  0  0  0  0
  151.9825  144.4983  159.8159 C   0  0  0  0  0  0  0  0  0  0  0  0
  151.0246  143.4509  159.6868 O   0  0  0  0  0  0  0  0  0  0  0  0
  150.9659  141.3035  156.6925 C   0  0  0  0  0  0  0  0  0  0  0  0
  150.4355  142.0134  155.8356 O   0  0  0  0  0  0  0  0  0  0  0  0
  148.8669  135.6377  156.9287 C   0  0  0  0  0  0  0  0  0  0  0  0
  147.8521  134.6905  157.1820 C   0  0  0  0  0  0  0  0  0  0  0  0
  148.1814  133.4276  158.4235 S   0  0  0  0  0  0  0  0  0  0  0  0
  147.2422  132.3094  158.2429 O   0  0  0  0  0  0  0  0  0  0  0  0
  149.6301  133.1716  158.4370 O   0  0  0  0  0  0  0  0  0  0  0  0
  147.7520  134.2244  159.8997 N   0  0  0  0  0  0  0  0  0  0  0  0
  148.2264  135.5940  160.1543 C   0  0  0  0  0  0  0  0  0  0  0  0
  147.4085  136.2603  161.2732 C   0  0  0  0  0  0  0  0  0  0  0  0
  147.3759  135.4301  162.4245 O   0  0  0  0  0  0  0  0  0  0  0  0
  146.7290  134.1952  162.1561 C   0  0  0  0  0  0  0  0  0  0  0  0
  147.5160  133.4063  161.0982 C   0  0  0  0  0  0  0  0  0  0  0  0
  144.6190  134.0309  156.1009 H   0  0  0  0  0  0  0  0  0  0  0  0
  145.2001  133.7233  157.7258 H   0  0  0  0  0  0  0  0  0  0  0  0
  145.7930  132.7541  156.3643 H   0  0  0  0  0  0  0  0  0  0  0  0
  145.5301  135.8271  154.9422 H   0  0  0  0  0  0  0  0  0  0  0  0
  147.2758  137.4768  154.5190 H   0  0  0  0  0  0  0  0  0  0  0  0
  150.5841  137.3791  156.3227 H   0  0  0  0  0  0  0  0  0  0  0  0
  151.9640  138.8246  154.7165 H   0  0  0  0  0  0  0  0  0  0  0  0
  151.0756  140.2338  154.2918 H   0  0  0  0  0  0  0  0  0  0  0  0
  151.9848  141.3691  159.9296 H   0  0  0  0  0  0  0  0  0  0  0  0
  149.6875  143.2559  158.1561 H   0  0  0  0  0  0  0  0  0  0  0  0
  151.9150  143.7992  156.5635 H   0  0  0  0  0  0  0  0  0  0  0  0
  150.9585  145.0876  157.3227 H   0  0  0  0  0  0  0  0  0  0  0  0
  153.4824  143.7983  158.4269 H   0  0  0  0  0  0  0  0  0  0  0  0
  153.1516  145.5275  158.2708 H   0  0  0  0  0  0  0  0  0  0  0  0
  152.6627  144.3181  160.6485 H   0  0  0  0  0  0  0  0  0  0  0  0
  151.4545  145.4339  160.0042 H   0  0  0  0  0  0  0  0  0  0  0  0
  149.7953  135.5975  157.4790 H   0  0  0  0  0  0  0  0  0  0  0  0
  149.2808  135.5529  160.4293 H   0  0  0  0  0  0  0  0  0  0  0  0
  148.1529  136.1914  159.2459 H   0  0  0  0  0  0  0  0  0  0  0  0
  147.8539  137.2186  161.5405 H   0  0  0  0  0  0  0  0  0  0  0  0
  146.3922  136.4696  160.9355 H   0  0  0  0  0  0  0  0  0  0  0  0
  146.6672  133.6201  163.0799 H   0  0  0  0  0  0  0  0  0  0  0  0
  145.7043  134.3715  161.8247 H   0  0  0  0  0  0  0  0  0  0  0  0
  146.9721  132.5018  160.8253 H   0  0  0  0  0  0  0  0  0  0  0  0
  148.4786  133.0923  161.5033 H   0  0  0  0  0  0  0  0  0  0  0  0
  1  2  1  0  0  0  0
  1 35  1  0  0  0  0
  1 36  1  0  0  0  0
  1 37  1  0  0  0  0
  2 25  1  0  0  0  0
  2  3  2  0  0  0  0
  3  4  1  0  0  0  0
  3 38  1  0  0  0  0
  4  5  2  0  0  0  0
  4 39  1  0  0  0  0
  5  6  1  0  0  0  0
  5 24  1  0  0  0  0
  6  7  1  0  0  0  0
  6 40  1  0  0  0  0
  7  8  2  0  0  0  0
  7  9  1  0  0  0  0
  9 10  1  0  0  0  0
  9 41  1  0  0  0  0
  9 42  1  0  0  0  0
 10 22  1  0  0  0  0
 10 11  1  0  0  0  0
 11 12  2  0  0  0  0
 11 13  1  0  0  0  0
 13 14  1  0  0  0  0
 13 15  2  0  0  0  0
 15 16  1  0  0  0  0
 15 43  1  0  0  0  0
 16 17  1  0  0  0  0
 16 22  1  0  0  0  0
 17 21  1  0  0  0  0
 17 18  1  0  0  0  0
 17 44  1  0  0  0  0
 18 19  1  0  0  0  0
 18 45  1  0  0  0  0
 18 46  1  0  0  0  0
 19 20  1  0  0  0  0
 19 47  1  0  0  0  0
 19 48  1  0  0  0  0
 20 21  1  0  0  0  0
 20 49  1  0  0  0  0
 20 50  1  0  0  0  0
 22 23  2  0  0  0  0
 24 25  2  0  0  0  0
 24 51  1  0  0  0  0
 25 26  1  0  0  0  0
 26 27  2  0  0  0  0
 26 28  2  0  0  0  0
 26 29  1  0  0  0  0
 29 34  1  0  0  0  0
 29 30  1  0  0  0  0
 30 31  1  0  0  0  0
 30 52  1  0  0  0  0
 30 53  1  0  0  0  0
 31 32  1  0  0  0  0
 31 54  1  0  0  0  0
 31 55  1  0  0  0  0
 32 33  1  0  0  0  0
 33 34  1  0  0  0  0
 33 56  1  0  0  0  0
 33 57  1  0  0  0  0
 34 58  1  0  0  0  0
 34 59  1  0  0  0  0
M  END
> <s_m_source_file>
AV-unprocessed.smi

> <i_m_source_file_index>
125

> <i_lp_mmshare_version>
43012

> <i_f3d_flags>
0

> <s_epik_input>
W0NIMl0xW0NIMl1PW0NIMl1bQ0gyXU4xUyg9TykoPU8pYzJbY0hdYyhbY0hdW2NIXWMyW0NIM10pW05IXUMoPU8pW0NIMl1uM2MoPU8pYyhGKVtjSF1uKGMzPU8pW0NAQEhdNFtDSDJdW0NIMl1bQ0gyXU80

> <s_epik_cmdline>
J2VwaWtfcHl0aG9uJywgJy1waCcsICc3LjAnLCAnLXRuJywgJzgnLCAnLW1hJywgJzIwMCcsICctbWV0YWxfYmluZGluZycsICctaW1hZScsICc8aW5maWxlLm1hZT4nLCAnLW9tYWUnLCAnPG91dGZpbGUubWFlPic=

> <r_lp_tautomer_probability>
1

> <r_epik_Ionization_Penalty>
4.12263e-06

> <r_epik_Ionization_Penalty_Charging>
3.88729e-08

> <r_epik_Ionization_Penalty_Neutral>
4.08376e-06

> <r_epik_State_Penalty>
-0

> <r_epik_Charging_Adjusted_Penalty>
3.88729e-08

> <i_epik_Tot_Q>
0

> <i_epik_Tot_abs_Q>
0

> <r_epik_Metal_State_Penalty>
-0

> <b_epik_Metal_Only>
0

> <s_epik_Chemistry_Notes>
This compound contains an acetal/aminal-like group ( X-CH(R)-Y where X, Y are N, S, or O) that may be acid/base labile, releasing an aldehyde.

> <s_lp_Force_Field>
OPLS_2005

> <r_lp_Energy>
38.613

> <b_lp_Chiralities_Consistent>
1

> <s_lp_Variant>
AV-unprocessed.smi:125-1

> <Gold.Version>
5.8.1

> <Gold.Id.Protein>
6NUR|6NUR_protein|mol2

> <Gold.PLP.Fitness>
50.9537

> <Gold.PLP.PLP>
-48.9709

> <Gold.PLP.part.hbond>
-1.0000

> <Gold.PLP.part.metal>
0.0000

> <Gold.PLP.part.buried>
-6.3455

> <Gold.PLP.part.nonpolar>
-42.7060

> <Gold.PLP.part.repulsive>
0.6025

> <Gold.PLP.ligand.clash>
0.0000

> <Gold.PLP.ligand.torsion>
2.5452

> <Gold.PLP.Chemscore.Hbond>
1.0000

> <Gold.PLP.Chemscore.CHOScore>
0.0000

> <Gold.PLP.Chemscore.Metal>
0.0000

> <Gold.Chemscore.Hbonds>
donor molecule, donor type, donor heavy atom, donor atom, acceptor molecule, acceptor atom, score
      P1  H  6896  6907       L1    28  1.00

> <Gold.PLP.Chemscore.Internal.Correction>
4.0732

> <Gold.Rescore>
     Score         DG    S(hbond)    S(metal)    S(lipo)     H(rot)  DE(clash)    DE(int)     intcor
      8.93     -15.67       0.97        0.00      95.58       1.65       0.09       6.65       ----

> <Gold.Chemscore.Fitness>
8.9322

> <Gold.Chemscore.DG>
-15.6730

> <Gold.Chemscore.ZeroCoef>
-5.4800

> <Gold.Chemscore.Hbond>
0.9690

> <Gold.Chemscore.Metal>
0.0000

> <Gold.Chemscore.Lipo>
95.5818

> <Gold.Chemscore.Internal_Hbond>
0.0000

> <Gold.Chemscore.DEClash>
0.0872

> <Gold.Chemscore.DEInternal>
6.6535

> <Gold.Chemscore.Rot>
1.6510

> <Gold.Chemscore.Internal.Correction>
   9.000000E+99

> <Gold.Chemscore.Hbonds>
donor molecule, donor type, donor heavy atom, donor atom, acceptor molecule, acceptor atom, score
      P1  H  6896  6907       L1    28  0.95

> <Gold.Chemscore.Hbond.Weighted>
-3.2364

> <Gold.Chemscore.Metal.Weighted>
-0.0000

> <Gold.Chemscore.Lipo.Weighted>
-11.1831

> <Gold.Chemscore.Internal_Hbond.Weighted>
0.0000

> <Gold.Chemscore.DEClash.Weighted>
0.0872

> <Gold.Chemscore.DEInternal.Weighted>
6.6535

> <Gold.Chemscore.Rot.Weighted>
4.2265

> <Gold.Chemscore.Internal.Correction.Weighted>
   9.000000E+99

> <Gold.Protein.RotatedTorsions>
[ 6907 6896 6895 6894 ] final -139.26 input  -60.11 | X-H torsion
[ 7974 7965 7964 7962 ] final  164.29 input  175.53 | X-H torsion
[ 8008 7997 7996 7995 ] final   56.70 input   59.86 | X-H torsion
[ 10167 10162 10161 10158 ] final -106.61 input  -65.29 | X-H torsion
[ 10718 10713 10712 10709 ] final  170.97 input   66.30 | X-H torsion
[ 10763 10752 10751 10750 ] final    4.37 input  -60.55 | X-H torsion
[ 11005 11000 10999 10996 ] final -135.84 input  -57.11 | X-H torsion

> <Gold.Protein.ActiveResidues>
 VAL166  LYS551  ARG553  GLY616  TRP617  ASP618  TYR619  PRO620  LYS621  CYS622 
 ASP623  PHE694  ASN695  SER759  ASP760  ASP761  ALA762  ILE779  LEU786  VAL792 
 PHE793  MET794  SER795  GLU796  ALA797  LYS798  CYS799  TRP800  GLU811  SER814 

> <Gold.Protein.RotatedAtoms>
  151.0456  133.5668  159.2646 H   0  0  0  0  0  0  0  0  0  0  0  0  # atno 6907 bound_to 6896
  151.2699  135.0680  159.9140 H   0  0  0  0  0  0  0  0  0  0  0  0  # atno 6908 bound_to 6896
  152.5372  134.0188  159.8026 H   0  0  0  0  0  0  0  0  0  0  0  0  # atno 6909 bound_to 6896
  144.7552  139.8304  143.6352 H   0  0  0  0  0  0  0  0  0  0  0  0  # atno 7974 bound_to 7965
  155.5218  140.3480  155.4408 H   0  0  0  0  0  0  0  0  0  0  0  0  # atno 8008 bound_to 7997
  156.0779  140.1379  156.9775 H   0  0  0  0  0  0  0  0  0  0  0  0  # atno 8009 bound_to 7997
  154.4563  140.0952  156.6743 H   0  0  0  0  0  0  0  0  0  0  0  0  # atno 8010 bound_to 7997
  140.1859  143.3930  152.1245 H   0  0  0  0  0  0  0  0  0  0  0  0  # atno 10167 bound_to 10162
  157.0003  131.0174  151.2832 H   0  0  0  0  0  0  0  0  0  0  0  0  # atno 10718 bound_to 10713
  153.2721  135.6933  153.7470 H   0  0  0  0  0  0  0  0  0  0  0  0  # atno 10763 bound_to 10752
  153.6490  135.3380  155.3095 H   0  0  0  0  0  0  0  0  0  0  0  0  # atno 10764 bound_to 10752
  154.8467  135.4450  154.1746 H   0  0  0  0  0  0  0  0  0  0  0  0  # atno 10765 bound_to 10752
  140.8860  134.1871  157.4559 H   0  0  0  0  0  0  0  0  0  0  0  0  # atno 11005 bound_to 11000
  146.1553  139.4648  143.0023 LP  0  0  0  0  0  0  0  0  0  0  0  0  # atno 17320 bound_to 7965
  145.6805  141.0192  143.1609 LP  0  0  0  0  0  0  0  0  0  0  0  0  # atno 17321 bound_to 7965
  139.5276  144.7121  151.5172 LP  0  0  0  0  0  0  0  0  0  0  0  0  # atno 17342 bound_to 10162
  140.6488  143.8739  150.6765 LP  0  0  0  0  0  0  0  0  0  0  0  0  # atno 17343 bound_to 10162
  157.5395  130.8110  149.8012 LP  0  0  0  0  0  0  0  0  0  0  0  0  # atno 17370 bound_to 10713
  156.0173  130.3808  150.2069 LP  0  0  0  0  0  0  0  0  0  0  0  0  # atno 17371 bound_to 10713
  139.8724  134.9838  156.5213 LP  0  0  0  0  0  0  0  0  0  0  0  0  # atno 17394 bound_to 11000
  140.8404  133.8209  155.9069 LP  0  0  0  0  0  0  0  0  0  0  0  0  # atno 17395 bound_to 11000

$$$$
