AV-unprocessed.smi:3157|AV-procd|sdf|12039|dock2
  -GOLD-   2272017463D 1   1.00000     0.00000
 Structure written by MMmdl.
 40 41  0  0  0  0  0  0  0  0  2 V2000
  148.2725  141.7311  154.2786 C   0  0  0  0  0  0  0  0  0  0  0  0
  148.4943  141.4960  155.7879 C   0  0  2  0  0  0  0  0  0  0  0  0
  149.6290  142.3176  156.2681 N   0  3  0  0  0  0  0  0  0  0  0  0
  150.1099  142.0002  157.6292 C   0  0  0  0  0  0  0  0  0  0  0  0
  151.4631  142.6737  157.9077 C   0  0  0  0  0  0  0  0  0  0  0  0
  151.8873  142.6042  159.3759 C   0  0  0  0  0  0  0  0  0  0  0  0
  152.9649  143.6817  159.5119 C   0  0  0  0  0  0  0  0  0  0  0  0
  152.6130  144.7597  158.4766 C   0  0  0  0  0  0  0  0  0  0  0  0
  151.4883  144.1781  157.6083 C   0  0  0  0  0  0  0  0  0  0  0  0
  148.7459  140.0043  156.1367 C   0  0  1  0  0  0  0  0  0  0  0  0
  147.5064  139.1236  155.8850 C   0  0  0  0  0  0  0  0  0  0  0  0
  149.8982  139.4566  155.4315 N   0  0  0  0  0  0  0  0  0  0  0  0
  151.2168  139.8551  155.5116 C   0  0  0  0  0  0  0  0  0  0  0  0
  151.9368  139.0570  154.6698 C   0  0  0  0  0  0  0  0  0  0  0  0
  150.9608  138.1846  154.1133 C   0  0  0  0  0  0  0  0  0  0  0  0
  149.7426  138.4259  154.5699 N   0  0  0  0  0  0  0  0  0  0  0  0
  147.3913  141.2048  153.9116 H   0  0  0  0  0  0  0  0  0  0  0  0
  149.1287  141.3884  153.6967 H   0  0  0  0  0  0  0  0  0  0  0  0
  148.1185  142.7853  154.0501 H   0  0  0  0  0  0  0  0  0  0  0  0
  147.5947  141.8153  156.3172 H   0  0  0  0  0  0  0  0  0  0  0  0
  150.4038  142.1661  155.6381 H   0  0  0  0  0  0  0  0  0  0  0  0
  149.3780  142.3100  158.3752 H   0  0  0  0  0  0  0  0  0  0  0  0
  150.2150  140.9180  157.7172 H   0  0  0  0  0  0  0  0  0  0  0  0
  152.2379  142.1868  157.3129 H   0  0  0  0  0  0  0  0  0  0  0  0
  151.0429  142.8488  160.0226 H   0  0  0  0  0  0  0  0  0  0  0  0
  152.2489  141.6162  159.6623 H   0  0  0  0  0  0  0  0  0  0  0  0
  153.0202  144.0805  160.5252 H   0  0  0  0  0  0  0  0  0  0  0  0
  153.9406  143.2552  159.2751 H   0  0  0  0  0  0  0  0  0  0  0  0
  152.2868  145.6816  158.9596 H   0  0  0  0  0  0  0  0  0  0  0  0
  153.4879  145.0023  157.8722 H   0  0  0  0  0  0  0  0  0  0  0  0
  151.6365  144.3870  156.5483 H   0  0  0  0  0  0  0  0  0  0  0  0
  150.5406  144.6331  157.9002 H   0  0  0  0  0  0  0  0  0  0  0  0
  148.9795  139.9448  157.2011 H   0  0  0  0  0  0  0  0  0  0  0  0
  146.6599  139.4354  156.4969 H   0  0  0  0  0  0  0  0  0  0  0  0
  147.7130  138.0807  156.1280 H   0  0  0  0  0  0  0  0  0  0  0  0
  147.1921  139.1634  154.8414 H   0  0  0  0  0  0  0  0  0  0  0  0
  151.5305  140.6662  156.1522 H   0  0  0  0  0  0  0  0  0  0  0  0
  152.9996  139.0903  154.4809 H   0  0  0  0  0  0  0  0  0  0  0  0
  151.1001  137.3897  153.3955 H   0  0  0  0  0  0  0  0  0  0  0  0
  149.3672  143.2920  156.2237 H   0  0  0  0  0  0  0  0  0  0  0  0
  1  2  1  0  0  0  0
  1 17  1  0  0  0  0
  1 18  1  0  0  0  0
  1 19  1  0  0  0  0
  2  3  1  0  0  0  0
  2 10  1  0  0  0  0
  2 20  1  0  0  0  0
  3  4  1  0  0  0  0
  3 21  1  0  0  0  0
  3 40  1  0  0  0  0
  4  5  1  0  0  0  0
  4 22  1  0  0  0  0
  4 23  1  0  0  0  0
  5  9  1  0  0  0  0
  5  6  1  0  0  0  0
  5 24  1  0  0  0  0
  6  7  1  0  0  0  0
  6 25  1  0  0  0  0
  6 26  1  0  0  0  0
  7  8  1  0  0  0  0
  7 27  1  0  0  0  0
  7 28  1  0  0  0  0
  8  9  1  0  0  0  0
  8 29  1  0  0  0  0
  8 30  1  0  0  0  0
  9 31  1  0  0  0  0
  9 32  1  0  0  0  0
 10 11  1  0  0  0  0
 10 12  1  0  0  0  0
 10 33  1  0  0  0  0
 11 34  1  0  0  0  0
 11 35  1  0  0  0  0
 11 36  1  0  0  0  0
 12 16  1  0  0  0  0
 12 13  1  0  0  0  0
 13 14  2  0  0  0  0
 13 37  1  0  0  0  0
 14 15  1  0  0  0  0
 14 38  1  0  0  0  0
 15 16  2  0  0  0  0
 15 39  1  0  0  0  0
M  CHG  1   3   1
M  END
> <s_m_source_file>
AV-unprocessed.smi

> <i_m_source_file_index>
3157

> <i_lp_mmshare_version>
43012

> <i_f3d_flags>
0

> <s_epik_input>
bjFbY0hdW2NIXVtjSF1uMVtDQEBIXShbQ0gzXSlbQ0BIXShbQ0gzXSlbTkhdW0NIMl1bQ0hdMltDSDJdW0NIMl1bQ0gyXVtDSDJdMg==

> <s_epik_cmdline>
J2VwaWtfcHl0aG9uJywgJy1waCcsICc3LjAnLCAnLXRuJywgJzgnLCAnLW1hJywgJzIwMCcsICctbWV0YWxfYmluZGluZycsICctaW1hZScsICc8aW5maWxlLm1hZT4nLCAnLW9tYWUnLCAnPG91dGZpbGUubWFlPic=

> <r_lp_tautomer_probability>
1

> <r_epik_Ionization_Penalty>
0.00132192

> <r_epik_Ionization_Penalty_Charging>
0.0013111

> <r_epik_Ionization_Penalty_Neutral>
1.08112e-05

> <r_epik_State_Penalty>
-0

> <r_epik_Charging_Adjusted_Penalty>
0.0013111

> <i_epik_Tot_Q>
1

> <i_epik_Tot_abs_Q>
1

> <r_epik_Metal_State_Penalty>
-0

> <b_epik_Metal_Only>
0

> <s_lp_Force_Field>
OPLS_2005

> <r_lp_Energy>
31.1874

> <b_lp_Chiralities_Consistent>
1

> <s_lp_Variant>
AV-unprocessed.smi:3157-3

> <Gold.Version>
5.8.1

> <Gold.Id.Protein>
6NUR|6NUR_protein|mol2

> <Gold.PLP.Fitness>
44.7439

> <Gold.PLP.PLP>
-35.9031

> <Gold.PLP.part.hbond>
-1.0000

> <Gold.PLP.part.metal>
0.0000

> <Gold.PLP.part.buried>
-2.9094

> <Gold.PLP.part.nonpolar>
-32.1910

> <Gold.PLP.part.repulsive>
0.2703

> <Gold.PLP.ligand.clash>
0.0000

> <Gold.PLP.ligand.torsion>
0.2828

> <Gold.PLP.Chemscore.Hbond>
2.0000

> <Gold.PLP.Chemscore.CHOScore>
1.1054

> <Gold.PLP.Chemscore.Metal>
0.0000

> <Gold.Chemscore.Hbonds>
donor molecule, donor type, donor heavy atom, donor atom, acceptor molecule, acceptor atom, score
      L1  H     3    40       P1  8028  2.00
      L1  C    15    39       P1  7948  0.03
      L1  C    15    39       P1  7949  1.00

> <Gold.PLP.Chemscore.Internal.Correction>
0.0901

> <Gold.Rescore>
     Score         DG    S(hbond)    S(metal)    S(lipo)     H(rot)  DE(clash)    DE(int)     intcor
     17.04     -17.40       1.00        0.00     106.29       1.50       0.04       0.31       ----

> <Gold.Chemscore.Fitness>
17.0421

> <Gold.Chemscore.DG>
-17.4000

> <Gold.Chemscore.ZeroCoef>
-5.4800

> <Gold.Chemscore.Hbond>
0.9988

> <Gold.Chemscore.Metal>
0.0000

> <Gold.Chemscore.Lipo>
106.2899

> <Gold.Chemscore.Internal_Hbond>
0.0000

> <Gold.Chemscore.DEClash>
0.0431

> <Gold.Chemscore.DEInternal>
0.3148

> <Gold.Chemscore.Rot>
1.5047

> <Gold.Chemscore.Internal.Correction>
   9.000000E+99

> <Gold.Chemscore.Hbonds>
donor molecule, donor type, donor heavy atom, donor atom, acceptor molecule, acceptor atom, score
      L1  H     3    40       P1  8028  0.99

> <Gold.Chemscore.Hbond.Weighted>
-3.3360

> <Gold.Chemscore.Metal.Weighted>
-0.0000

> <Gold.Chemscore.Lipo.Weighted>
-12.4359

> <Gold.Chemscore.Internal_Hbond.Weighted>
0.0000

> <Gold.Chemscore.DEClash.Weighted>
0.0431

> <Gold.Chemscore.DEInternal.Weighted>
0.3148

> <Gold.Chemscore.Rot.Weighted>
3.8520

> <Gold.Chemscore.Internal.Correction.Weighted>
   9.000000E+99

> <Gold.Protein.RotatedTorsions>
[ 6907 6896 6895 6894 ] final -130.78 input  -60.11 | X-H torsion
[ 7974 7965 7964 7962 ] final    0.59 input  175.53 | X-H torsion
[ 8008 7997 7996 7995 ] final  -17.67 input   59.86 | X-H torsion
[ 10167 10162 10161 10158 ] final  -54.12 input  -65.29 | X-H torsion
[ 10718 10713 10712 10709 ] final -102.08 input   66.30 | X-H torsion
[ 10763 10752 10751 10750 ] final   97.82 input  -60.55 | X-H torsion
[ 11005 11000 10999 10996 ] final  152.92 input  -57.11 | X-H torsion

> <Gold.Protein.ActiveResidues>
 VAL166  LYS551  ARG553  GLY616  TRP617  ASP618  TYR619  PRO620  LYS621  CYS622 
 ASP623  PHE694  ASN695  SER759  ASP760  ASP761  ALA762  ILE779  LEU786  VAL792 
 PHE793  MET794  SER795  GLU796  ALA797  LYS798  CYS799  TRP800  GLU811  SER814 

> <Gold.Protein.RotatedAtoms>
  150.9436  133.6628  159.2785 H   0  0  0  0  0  0  0  0  0  0  0  0  # atno 6907 bound_to 6896
  151.4009  135.0969  159.9565 H   0  0  0  0  0  0  0  0  0  0  0  0  # atno 6908 bound_to 6896
  152.5080  133.8930  159.7458 H   0  0  0  0  0  0  0  0  0  0  0  0  # atno 6909 bound_to 6896
  146.2435  140.1114  142.8343 H   0  0  0  0  0  0  0  0  0  0  0  0  # atno 7974 bound_to 7965
  154.4962  140.2136  155.9443 H   0  0  0  0  0  0  0  0  0  0  0  0  # atno 8008 bound_to 7997
  156.1373  140.3186  155.8408 H   0  0  0  0  0  0  0  0  0  0  0  0  # atno 8009 bound_to 7997
  155.4186  140.0495  157.3018 H   0  0  0  0  0  0  0  0  0  0  0  0  # atno 8010 bound_to 7997
  140.6448  143.2528  151.4891 H   0  0  0  0  0  0  0  0  0  0  0  0  # atno 10167 bound_to 10162
  156.0216  130.5403  150.7057 H   0  0  0  0  0  0  0  0  0  0  0  0  # atno 10718 bound_to 10713
  153.2815  135.4170  155.1083 H   0  0  0  0  0  0  0  0  0  0  0  0  # atno 10763 bound_to 10752
  154.8491  135.3496  154.6105 H   0  0  0  0  0  0  0  0  0  0  0  0  # atno 10764 bound_to 10752
  153.6526  135.7052  153.5261 H   0  0  0  0  0  0  0  0  0  0  0  0  # atno 10765 bound_to 10752
  140.1351  134.8776  157.2256 H   0  0  0  0  0  0  0  0  0  0  0  0  # atno 11005 bound_to 11000
  145.0483  140.8998  143.5010 LP  0  0  0  0  0  0  0  0  0  0  0  0  # atno 17320 bound_to 7965
  145.1208  139.2695  143.5589 LP  0  0  0  0  0  0  0  0  0  0  0  0  # atno 17321 bound_to 7965
  139.5658  144.2046  152.1762 LP  0  0  0  0  0  0  0  0  0  0  0  0  # atno 17342 bound_to 10162
  140.1328  144.5273  150.6792 LP  0  0  0  0  0  0  0  0  0  0  0  0  # atno 17343 bound_to 10162
  157.4707  131.0893  151.0646 LP  0  0  0  0  0  0  0  0  0  0  0  0  # atno 17370 bound_to 10713
  157.1107  130.6020  149.5481 LP  0  0  0  0  0  0  0  0  0  0  0  0  # atno 17371 bound_to 10713
  140.2792  134.3369  155.7348 LP  0  0  0  0  0  0  0  0  0  0  0  0  # atno 17394 bound_to 11000
  141.2177  133.7468  156.9339 LP  0  0  0  0  0  0  0  0  0  0  0  0  # atno 17395 bound_to 11000

$$$$
