AV-unprocessed.smi:370|AV-procd|sdf|2436|dock2
  -GOLD-   2262022373D 1   1.00000     0.00000
 Structure written by MMmdl.
 42 43  0  0  0  0  0  0  0  0  1 V2000
  145.1688  132.0560  149.5584 C   0  0  0  0  0  0  0  0  0  0  0  0
  145.2167  133.3362  150.3196 C   0  0  0  0  0  0  0  0  0  0  0  0
  146.1940  133.9431  151.0567 C   0  0  0  0  0  0  0  0  0  0  0  0
  145.5606  135.1394  151.5031 C   0  0  0  0  0  0  0  0  0  0  0  0
  146.1402  136.1404  152.3246 N   0  0  0  0  0  0  0  0  0  0  0  0
  145.5276  137.1424  152.9773 C   0  0  0  0  0  0  0  0  0  0  0  0
  144.3137  137.3456  152.9925 O   0  0  0  0  0  0  0  0  0  0  0  0
  146.4151  137.9030  153.6335 N   0  0  0  0  0  0  0  0  0  0  0  0
  146.1003  139.0609  154.4703 C   0  0  0  0  0  0  0  0  0  0  0  0
  147.0114  140.2868  154.1674 C   0  0  0  0  0  0  0  0  0  0  0  0
  147.0870  140.4297  152.6278 C   0  0  0  0  0  0  0  0  0  0  0  0
  146.2643  141.5343  154.7043 C   0  0  0  0  0  0  0  0  0  0  0  0
  148.3506  140.1480  154.8066 N   0  0  0  0  0  0  0  0  0  0  0  0
  149.1984  139.0913  154.2415 C   0  0  0  0  0  0  0  0  0  0  0  0
  150.5104  138.9210  155.0256 C   0  0  0  0  0  0  0  0  0  0  0  0
  151.2120  140.1576  155.0573 O   0  0  0  0  0  0  0  0  0  0  0  0
  150.4479  141.1987  155.6530 C   0  0  0  0  0  0  0  0  0  0  0  0
  149.1328  141.3874  154.8777 C   0  0  0  0  0  0  0  0  0  0  0  0
  144.3138  135.2429  151.0808 N   0  0  0  0  0  0  0  0  0  0  0  0
  144.0858  134.0917  150.3179 O   0  0  0  0  0  0  0  0  0  0  0  0
  146.1615  131.6116  149.4811 H   0  0  0  0  0  0  0  0  0  0  0  0
  144.7925  132.2194  148.5485 H   0  0  0  0  0  0  0  0  0  0  0  0
  144.5144  131.3376  150.0523 H   0  0  0  0  0  0  0  0  0  0  0  0
  147.1922  133.5749  151.2387 H   0  0  0  0  0  0  0  0  0  0  0  0
  147.1423  136.0830  152.4309 H   0  0  0  0  0  0  0  0  0  0  0  0
  147.3903  137.6494  153.5715 H   0  0  0  0  0  0  0  0  0  0  0  0
  145.0503  139.3070  154.3143 H   0  0  0  0  0  0  0  0  0  0  0  0
  146.1607  138.7996  155.5284 H   0  0  0  0  0  0  0  0  0  0  0  0
  146.0912  140.5386  152.1966 H   0  0  0  0  0  0  0  0  0  0  0  0
  147.5392  139.5582  152.1550 H   0  0  0  0  0  0  0  0  0  0  0  0
  147.6572  141.3063  152.3215 H   0  0  0  0  0  0  0  0  0  0  0  0
  145.2216  141.5444  154.3843 H   0  0  0  0  0  0  0  0  0  0  0  0
  146.7010  142.4652  154.3432 H   0  0  0  0  0  0  0  0  0  0  0  0
  146.2694  141.5696  155.7942 H   0  0  0  0  0  0  0  0  0  0  0  0
  148.6834  138.1326  154.2484 H   0  0  0  0  0  0  0  0  0  0  0  0
  149.4377  139.3149  153.2018 H   0  0  0  0  0  0  0  0  0  0  0  0
  150.3107  138.5800  156.0428 H   0  0  0  0  0  0  0  0  0  0  0  0
  151.1395  138.1668  154.5529 H   0  0  0  0  0  0  0  0  0  0  0  0
  150.2487  140.9614  156.6992 H   0  0  0  0  0  0  0  0  0  0  0  0
  151.0306  142.1197  155.6396 H   0  0  0  0  0  0  0  0  0  0  0  0
  149.3656  141.7448  153.8745 H   0  0  0  0  0  0  0  0  0  0  0  0
  148.5682  142.1755  155.3724 H   0  0  0  0  0  0  0  0  0  0  0  0
  1  2  1  0  0  0  0
  1 21  1  0  0  0  0
  1 22  1  0  0  0  0
  1 23  1  0  0  0  0
  2 20  1  0  0  0  0
  2  3  2  0  0  0  0
  3  4  1  0  0  0  0
  3 24  1  0  0  0  0
  4  5  1  0  0  0  0
  4 19  2  0  0  0  0
  5  6  1  0  0  0  0
  5 25  1  0  0  0  0
  6  7  2  0  0  0  0
  6  8  1  0  0  0  0
  8  9  1  0  0  0  0
  8 26  1  0  0  0  0
  9 10  1  0  0  0  0
  9 27  1  0  0  0  0
  9 28  1  0  0  0  0
 10 11  1  0  0  0  0
 10 12  1  0  0  0  0
 10 13  1  0  0  0  0
 11 29  1  0  0  0  0
 11 30  1  0  0  0  0
 11 31  1  0  0  0  0
 12 32  1  0  0  0  0
 12 33  1  0  0  0  0
 12 34  1  0  0  0  0
 13 18  1  0  0  0  0
 13 14  1  0  0  0  0
 14 15  1  0  0  0  0
 14 35  1  0  0  0  0
 14 36  1  0  0  0  0
 15 16  1  0  0  0  0
 15 37  1  0  0  0  0
 15 38  1  0  0  0  0
 16 17  1  0  0  0  0
 17 18  1  0  0  0  0
 17 39  1  0  0  0  0
 17 40  1  0  0  0  0
 18 41  1  0  0  0  0
 18 42  1  0  0  0  0
 19 20  1  0  0  0  0
M  END
> <s_m_source_file>
AV-unprocessed.smi

> <i_m_source_file_index>
370

> <i_lp_mmshare_version>
43012

> <i_f3d_flags>
0

> <s_epik_input>
W0NIM11jMVtjSF1jKG5vMSlbTkhdQyg9TylbTkhdW0NIMl1DKFtDSDNdKShbQ0gzXSlOMltDSDJdW0NIMl1PW0NIMl1bQ0gyXTI=

> <s_epik_cmdline>
J2VwaWtfcHl0aG9uJywgJy1waCcsICc3LjAnLCAnLXRuJywgJzgnLCAnLW1hJywgJzIwMCcsICctbWV0YWxfYmluZGluZycsICctaW1hZScsICc8aW5maWxlLm1hZT4nLCAnLW9tYWUnLCAnPG91dGZpbGUubWFlPic=

> <r_epik_Ionization_Penalty>
0.214074

> <r_epik_Ionization_Penalty_Charging>
0

> <r_epik_Ionization_Penalty_Neutral>
0.214074

> <r_epik_State_Penalty>
0.204211

> <r_epik_Charging_Adjusted_Penalty>
0.204211

> <i_epik_Tot_Q>
0

> <i_epik_Tot_abs_Q>
0

> <r_epik_Metal_State_Penalty>
0.217151

> <b_epik_Metal_Only>
0

> <s_lp_Force_Field>
OPLS_2005

> <r_lp_Energy>
40.6457

> <b_lp_Chiralities_Consistent>
1

> <s_lp_Variant>
AV-unprocessed.smi:370-1

> <Gold.Version>
5.8.1

> <Gold.Id.Protein>
6NUR|6NUR_protein|mol2

> <Gold.PLP.Fitness>
35.0957

> <Gold.PLP.PLP>
-30.1435

> <Gold.PLP.part.hbond>
-2.0000

> <Gold.PLP.part.metal>
0.0000

> <Gold.PLP.part.buried>
-2.5684

> <Gold.PLP.part.nonpolar>
-25.3141

> <Gold.PLP.part.repulsive>
0.7695

> <Gold.PLP.ligand.clash>
0.0000

> <Gold.PLP.ligand.torsion>
0.5570

> <Gold.PLP.Chemscore.Hbond>
2.0000

> <Gold.PLP.Chemscore.CHOScore>
0.0000

> <Gold.PLP.Chemscore.Metal>
0.0000

> <Gold.Chemscore.Hbonds>
donor molecule, donor type, donor heavy atom, donor atom, acceptor molecule, acceptor atom, score
      L1  H     5    25       P1  7948  1.00
      P1  H  7989  7998       L1    16  1.00

> <Gold.PLP.Chemscore.Internal.Correction>
0.0662

> <Gold.Rescore>
     Score         DG    S(hbond)    S(metal)    S(lipo)     H(rot)  DE(clash)    DE(int)     intcor
     13.80     -15.97       1.82        0.00      71.72       1.55       0.03       2.14       ----

> <Gold.Chemscore.Fitness>
13.8008

> <Gold.Chemscore.DG>
-15.9729

> <Gold.Chemscore.ZeroCoef>
-5.4800

> <Gold.Chemscore.Hbond>
1.8211

> <Gold.Chemscore.Metal>
0.0000

> <Gold.Chemscore.Lipo>
71.7165

> <Gold.Chemscore.Internal_Hbond>
0.0000

> <Gold.Chemscore.DEClash>
0.0341

> <Gold.Chemscore.DEInternal>
2.1381

> <Gold.Chemscore.Rot>
1.5548

> <Gold.Chemscore.Internal.Correction>
   9.000000E+99

> <Gold.Chemscore.Hbonds>
donor molecule, donor type, donor heavy atom, donor atom, acceptor molecule, acceptor atom, score
      L1  H     5    25       P1  7948  0.97
      P1  H  7989  7998       L1    16  0.32

> <Gold.Chemscore.Hbond.Weighted>
-6.0823

> <Gold.Chemscore.Metal.Weighted>
-0.0000

> <Gold.Chemscore.Lipo.Weighted>
-8.3908

> <Gold.Chemscore.Internal_Hbond.Weighted>
0.0000

> <Gold.Chemscore.DEClash.Weighted>
0.0341

> <Gold.Chemscore.DEInternal.Weighted>
2.1381

> <Gold.Chemscore.Rot.Weighted>
3.9802

> <Gold.Chemscore.Internal.Correction.Weighted>
   9.000000E+99

> <Gold.Protein.RotatedTorsions>
[ 6907 6896 6895 6894 ] final   57.13 input  -60.11 | X-H torsion
[ 7974 7965 7964 7962 ] final   27.15 input  175.53 | X-H torsion
[ 8008 7997 7996 7995 ] final  132.78 input   59.86 | X-H torsion
[ 10167 10162 10161 10158 ] final   58.18 input  -65.29 | X-H torsion
[ 10718 10713 10712 10709 ] final  128.10 input   66.30 | X-H torsion
[ 10763 10752 10751 10750 ] final  -50.18 input  -60.55 | X-H torsion
[ 11005 11000 10999 10996 ] final -175.91 input  -57.11 | X-H torsion

> <Gold.Protein.ActiveResidues>
 VAL166  LYS551  ARG553  GLY616  TRP617  ASP618  TYR619  PRO620  LYS621  CYS622 
 ASP623  PHE694  ASN695  SER759  ASP760  ASP761  ALA762  ILE779  LEU786  VAL792 
 PHE793  MET794  SER795  GLU796  ALA797  LYS798  CYS799  TRP800  GLU811  SER814 

> <Gold.Protein.RotatedAtoms>
  152.3702  134.6745  160.0178 H   0  0  0  0  0  0  0  0  0  0  0  0  # atno 6907 bound_to 6896
  151.7041  133.3306  159.3282 H   0  0  0  0  0  0  0  0  0  0  0  0  # atno 6908 bound_to 6896
  150.7668  134.6525  159.6340 H   0  0  0  0  0  0  0  0  0  0  0  0  # atno 6909 bound_to 6896
  146.1800  139.7231  142.8907 H   0  0  0  0  0  0  0  0  0  0  0  0  # atno 7974 bound_to 7965
  156.2986  140.2538  156.3145 H   0  0  0  0  0  0  0  0  0  0  0  0  # atno 8008 bound_to 7997
  154.9295  140.0398  157.2059 H   0  0  0  0  0  0  0  0  0  0  0  0  # atno 8009 bound_to 7997
  154.8232  140.2863  155.5776 H   0  0  0  0  0  0  0  0  0  0  0  0  # atno 8010 bound_to 7997
  140.1900  144.4095  150.6575 H   0  0  0  0  0  0  0  0  0  0  0  0  # atno 10167 bound_to 10162
  157.5275  131.1098  150.9060 H   0  0  0  0  0  0  0  0  0  0  0  0  # atno 10718 bound_to 10713
  154.1062  135.6556  153.4877 H   0  0  0  0  0  0  0  0  0  0  0  0  # atno 10763 bound_to 10752
  153.0272  135.5237  154.7237 H   0  0  0  0  0  0  0  0  0  0  0  0  # atno 10764 bound_to 10752
  154.6404  135.2987  155.0080 H   0  0  0  0  0  0  0  0  0  0  0  0  # atno 10765 bound_to 10752
  140.4580  134.6281  157.4830 H   0  0  0  0  0  0  0  0  0  0  0  0  # atno 11005 bound_to 11000
  145.4104  141.0396  143.3020 LP  0  0  0  0  0  0  0  0  0  0  0  0  # atno 17320 bound_to 7965
  144.8299  139.5647  143.6948 LP  0  0  0  0  0  0  0  0  0  0  0  0  # atno 17321 bound_to 7965
  140.6462  143.2214  151.6181 LP  0  0  0  0  0  0  0  0  0  0  0  0  # atno 17342 bound_to 10162
  139.5260  144.3059  152.1034 LP  0  0  0  0  0  0  0  0  0  0  0  0  # atno 17343 bound_to 10162
  156.9652  130.5470  149.5288 LP  0  0  0  0  0  0  0  0  0  0  0  0  # atno 17370 bound_to 10713
  156.0398  130.5481  150.8742 LP  0  0  0  0  0  0  0  0  0  0  0  0  # atno 17371 bound_to 10713
  139.9963  134.6905  155.9603 LP  0  0  0  0  0  0  0  0  0  0  0  0  # atno 17394 bound_to 11000
  141.1634  133.6538  156.4396 LP  0  0  0  0  0  0  0  0  0  0  0  0  # atno 17395 bound_to 11000

$$$$
