AV-unprocessed.smi:2293|AV-procd|sdf|9214|dock4
  -GOLD-   2272012433D 1   1.00000     0.00000
 Structure written by MMmdl.
 34 35  0  0  0  0  0  0  0  0  1 V2000
  152.4325  139.5540  154.5529 C   0  0  0  0  0  0  0  0  0  0  0  0
  152.5926  139.7272  156.0532 C   0  0  0  0  0  0  0  0  0  0  0  0
  153.6222  138.9861  156.6404 N   0  0  0  0  0  0  0  0  0  0  0  0
  153.8348  139.0729  157.9128 C   0  0  0  0  0  0  0  0  0  0  0  0
  153.0519  139.8977  158.7371 N   0  0  0  0  0  0  0  0  0  0  0  0
  153.4042  139.9151  160.1669 C   0  0  0  0  0  0  0  0  0  0  0  0
  154.2559  141.1479  160.5443 C   0  0  2  0  0  0  0  0  0  0  0  0
  154.7910  140.9499  161.8381 O   0  0  0  0  0  0  0  0  0  0  0  0
  153.4300  142.4235  160.4761 C   0  0  0  0  0  0  0  0  0  0  0  0
  152.6635  142.8248  161.5914 C   0  0  0  0  0  0  0  0  0  0  0  0
  151.8998  144.0074  161.5403 C   0  0  0  0  0  0  0  0  0  0  0  0
  151.9008  144.7973  160.3747 C   0  0  0  0  0  0  0  0  0  0  0  0
  152.6679  144.4054  159.2606 C   0  0  0  0  0  0  0  0  0  0  0  0
  152.6722  145.1659  158.1404 F   0  0  0  0  0  0  0  0  0  0  0  0
  153.4317  143.2232  159.3115 C   0  0  0  0  0  0  0  0  0  0  0  0
  152.0293  140.6559  158.2455 C   0  0  0  0  0  0  0  0  0  0  0  0
  151.3541  141.3832  158.9769 O   0  0  0  0  0  0  0  0  0  0  0  0
  151.7993  140.5469  156.7958 C   0  0  0  0  0  0  0  0  0  0  0  0
  150.6648  141.3793  156.2114 C   0  0  0  0  0  0  0  0  0  0  0  0
  151.4358  139.1818  154.3149 H   0  0  0  0  0  0  0  0  0  0  0  0
  153.1579  138.8429  154.1555 H   0  0  0  0  0  0  0  0  0  0  0  0
  152.5820  140.5051  154.0412 H   0  0  0  0  0  0  0  0  0  0  0  0
  154.6291  138.5209  158.4184 H   0  0  0  0  0  0  0  0  0  0  0  0
  152.4748  139.9327  160.7399 H   0  0  0  0  0  0  0  0  0  0  0  0
  153.8982  138.9952  160.4869 H   0  0  0  0  0  0  0  0  0  0  0  0
  155.0953  141.2512  159.8555 H   0  0  0  0  0  0  0  0  0  0  0  0
  154.1458  140.5017  162.3635 H   0  0  0  0  0  0  0  0  0  0  0  0
  152.6592  142.2279  162.4918 H   0  0  0  0  0  0  0  0  0  0  0  0
  151.3142  144.3086  162.3963 H   0  0  0  0  0  0  0  0  0  0  0  0
  151.3154  145.7042  160.3360 H   0  0  0  0  0  0  0  0  0  0  0  0
  154.0207  142.9331  158.4535 H   0  0  0  0  0  0  0  0  0  0  0  0
  150.8354  142.4381  156.4092 H   0  0  0  0  0  0  0  0  0  0  0  0
  149.7165  141.0971  156.6702 H   0  0  0  0  0  0  0  0  0  0  0  0
  150.5559  141.2614  155.1344 H   0  0  0  0  0  0  0  0  0  0  0  0
  1  2  1  0  0  0  0
  1 20  1  0  0  0  0
  1 21  1  0  0  0  0
  1 22  1  0  0  0  0
  2 18  2  0  0  0  0
  2  3  1  0  0  0  0
  3  4  2  0  0  0  0
  4  5  1  0  0  0  0
  4 23  1  0  0  0  0
  5  6  1  0  0  0  0
  5 16  1  0  0  0  0
  6  7  1  0  0  0  0
  6 24  1  0  0  0  0
  6 25  1  0  0  0  0
  7  8  1  0  0  0  0
  7  9  1  0  0  0  0
  7 26  1  0  0  0  0
  8 27  1  0  0  0  0
  9 15  1  0  0  0  0
  9 10  2  0  0  0  0
 10 11  1  0  0  0  0
 10 28  1  0  0  0  0
 11 12  2  0  0  0  0
 11 29  1  0  0  0  0
 12 13  1  0  0  0  0
 12 30  1  0  0  0  0
 13 14  1  0  0  0  0
 13 15  2  0  0  0  0
 15 31  1  0  0  0  0
 16 17  2  0  0  0  0
 16 18  1  0  0  0  0
 18 19  1  0  0  0  0
 19 32  1  0  0  0  0
 19 33  1  0  0  0  0
 19 34  1  0  0  0  0
M  END
> <s_m_source_file>
AV-unprocessed.smi

> <i_m_source_file_index>
2293

> <i_lp_mmshare_version>
43012

> <i_f3d_flags>
0

> <s_epik_input>
W0NIM11jMW5bY0hdbihjKD1PKWMxW0NIM10pW0NIMl1bQ0BIXShbT0hdKWMyW2NIXVtjSF1bY0hdYyhGKVtjSF0y

> <s_epik_cmdline>
J2VwaWtfcHl0aG9uJywgJy1waCcsICc3LjAnLCAnLXRuJywgJzgnLCAnLW1hJywgJzIwMCcsICctbWV0YWxfYmluZGluZycsICctaW1hZScsICc8aW5maWxlLm1hZT4nLCAnLW9tYWUnLCAnPG91dGZpbGUubWFlPic=

> <r_lp_tautomer_probability>
1

> <r_epik_Ionization_Penalty>
5.08222e-05

> <r_epik_Ionization_Penalty_Charging>
7.56727e-08

> <r_epik_Ionization_Penalty_Neutral>
5.07465e-05

> <r_epik_State_Penalty>
-0

> <r_epik_Charging_Adjusted_Penalty>
7.56727e-08

> <i_epik_Tot_Q>
0

> <i_epik_Tot_abs_Q>
0

> <r_epik_Metal_State_Penalty>
-0

> <b_epik_Metal_Only>
0

> <s_lp_Force_Field>
OPLS_2005

> <r_lp_Energy>
18.7837

> <b_lp_Chiralities_Consistent>
1

> <s_lp_Variant>
AV-unprocessed.smi:2293-1

> <Gold.Version>
5.8.1

> <Gold.Id.Protein>
6NUR|6NUR_protein|mol2

> <Gold.PLP.Fitness>
46.7223

> <Gold.PLP.PLP>
-47.9779

> <Gold.PLP.part.hbond>
-2.6600

> <Gold.PLP.part.metal>
0.0000

> <Gold.PLP.part.buried>
-3.2813

> <Gold.PLP.part.nonpolar>
-42.2009

> <Gold.PLP.part.repulsive>
0.0000

> <Gold.PLP.ligand.clash>
0.0000

> <Gold.PLP.ligand.torsion>
1.0413

> <Gold.PLP.Chemscore.Hbond>
0.2736

> <Gold.PLP.Chemscore.CHOScore>
0.0000

> <Gold.PLP.Chemscore.Metal>
0.0000

> <Gold.Chemscore.Hbonds>
donor molecule, donor type, donor heavy atom, donor atom, acceptor molecule, acceptor atom, score
      P1  H  7997  8009       L1     3  0.05

> <Gold.PLP.Chemscore.Internal.Correction>
0.0062

> <Gold.Rescore>
     Score         DG    S(hbond)    S(metal)    S(lipo)     H(rot)  DE(clash)    DE(int)     intcor
     11.91     -13.62       0.00        0.00     113.68       2.02       0.05       1.65       ----

> <Gold.Chemscore.Fitness>
11.9100

> <Gold.Chemscore.DG>
-13.6152

> <Gold.Chemscore.ZeroCoef>
-5.4800

> <Gold.Chemscore.Hbond>
0.0005

> <Gold.Chemscore.Metal>
0.0000

> <Gold.Chemscore.Lipo>
113.6754

> <Gold.Chemscore.Internal_Hbond>
0.0000

> <Gold.Chemscore.DEClash>
0.0520

> <Gold.Chemscore.DEInternal>
1.6532

> <Gold.Chemscore.Rot>
2.0181

> <Gold.Chemscore.Internal.Correction>
   9.000000E+99

> <Gold.Chemscore.Hbond.Weighted>
-0.0016

> <Gold.Chemscore.Metal.Weighted>
-0.0000

> <Gold.Chemscore.Lipo.Weighted>
-13.3000

> <Gold.Chemscore.Internal_Hbond.Weighted>
0.0000

> <Gold.Chemscore.DEClash.Weighted>
0.0520

> <Gold.Chemscore.DEInternal.Weighted>
1.6532

> <Gold.Chemscore.Rot.Weighted>
5.1663

> <Gold.Chemscore.Internal.Correction.Weighted>
   9.000000E+99

> <Gold.Protein.RotatedTorsions>
[ 6907 6896 6895 6894 ] final    7.60 input  -60.11 | X-H torsion
[ 7974 7965 7964 7962 ] final  138.24 input  175.53 | X-H torsion
[ 8008 7997 7996 7995 ] final -161.95 input   59.86 | X-H torsion
[ 10167 10162 10161 10158 ] final   36.46 input  -65.29 | X-H torsion
[ 10718 10713 10712 10709 ] final  -20.53 input   66.30 | X-H torsion
[ 10763 10752 10751 10750 ] final   22.02 input  -60.55 | X-H torsion
[ 11005 11000 10999 10996 ] final  -54.11 input  -57.11 | X-H torsion

> <Gold.Protein.ActiveResidues>
 VAL166  LYS551  ARG553  GLY616  TRP617  ASP618  TYR619  PRO620  LYS621  CYS622 
 ASP623  PHE694  ASN695  SER759  ASP760  ASP761  ALA762  ILE779  LEU786  VAL792 
 PHE793  MET794  SER795  GLU796  ALA797  LYS798  CYS799  TRP800  GLU811  SER814 

> <Gold.Protein.RotatedAtoms>
  151.6925  135.0944  160.0235 H   0  0  0  0  0  0  0  0  0  0  0  0  # atno 6907 bound_to 6896
  152.3770  133.6490  159.6139 H   0  0  0  0  0  0  0  0  0  0  0  0  # atno 6908 bound_to 6896
  150.7717  133.9094  159.3406 H   0  0  0  0  0  0  0  0  0  0  0  0  # atno 6909 bound_to 6896
  144.9391  139.4953  143.5580 H   0  0  0  0  0  0  0  0  0  0  0  0  # atno 7974 bound_to 7965
  155.7997  140.0890  157.1964 H   0  0  0  0  0  0  0  0  0  0  0  0  # atno 8008 bound_to 7997
  154.3982  140.1474  156.3319 H   0  0  0  0  0  0  0  0  0  0  0  0  # atno 8009 bound_to 7997
  155.8475  140.3436  155.5674 H   0  0  0  0  0  0  0  0  0  0  0  0  # atno 8010 bound_to 7997
  140.4126  144.1572  150.6140 H   0  0  0  0  0  0  0  0  0  0  0  0  # atno 10167 bound_to 10162
  156.5306  130.4654  149.6549 H   0  0  0  0  0  0  0  0  0  0  0  0  # atno 10718 bound_to 10713
  153.0949  135.6657  153.9783 H   0  0  0  0  0  0  0  0  0  0  0  0  # atno 10763 bound_to 10752
  153.9370  135.2998  155.3445 H   0  0  0  0  0  0  0  0  0  0  0  0  # atno 10764 bound_to 10752
  154.7366  135.5098  153.9126 H   0  0  0  0  0  0  0  0  0  0  0  0  # atno 10765 bound_to 10752
  141.1009  133.6618  156.4272 H   0  0  0  0  0  0  0  0  0  0  0  0  # atno 11005 bound_to 11000
  146.3278  139.8397  142.8893 LP  0  0  0  0  0  0  0  0  0  0  0  0  # atno 17320 bound_to 7965
  145.3020  141.0197  143.3603 LP  0  0  0  0  0  0  0  0  0  0  0  0  # atno 17321 bound_to 7965
  140.4621  143.2445  151.9205 LP  0  0  0  0  0  0  0  0  0  0  0  0  # atno 17342 bound_to 10162
  139.4782  144.5456  151.8463 LP  0  0  0  0  0  0  0  0  0  0  0  0  # atno 17343 bound_to 10162
  156.3063  130.7205  151.2088 LP  0  0  0  0  0  0  0  0  0  0  0  0  # atno 17370 bound_to 10713
  157.7422  131.0493  150.5039 LP  0  0  0  0  0  0  0  0  0  0  0  0  # atno 17371 bound_to 10713
  140.5023  134.6474  157.5253 LP  0  0  0  0  0  0  0  0  0  0  0  0  # atno 17394 bound_to 11000
  139.9861  134.7059  155.9772 LP  0  0  0  0  0  0  0  0  0  0  0  0  # atno 17395 bound_to 11000

$$$$
