AV-unprocessed.smi:2093|AV-procd|sdf|8546|dock10
  -GOLD-   2272011273D 1   1.00000     0.00000
 Structure written by MMmdl.
 31 32  0  0  0  0  0  0  0  0  1 V2000
  143.8966  136.4302  153.4347 C   0  0  0  0  0  0  0  0  0  0  0  0
  145.1385  135.6209  153.0328 C   0  0  2  0  0  0  0  0  0  0  0  0
  146.3012  136.5075  153.0138 N   0  0  0  0  0  0  0  0  0  0  0  0
  146.5711  137.4739  153.9039 C   0  0  0  0  0  0  0  0  0  0  0  0
  145.8476  137.7410  154.8637 O   0  0  0  0  0  0  0  0  0  0  0  0
  147.7260  138.0951  153.6062 N   0  0  0  0  0  0  0  0  0  0  0  0
  148.3579  139.1579  154.3038 C   0  0  0  0  0  0  0  0  0  0  0  0
  149.6226  139.1289  154.7404 N   0  0  0  0  0  0  0  0  0  0  0  0
  149.9798  140.3124  155.3915 C   0  0  0  0  0  0  0  0  0  0  0  0
  148.9677  141.2385  155.4421 C   0  0  0  0  0  0  0  0  0  0  0  0
  147.5162  140.6566  154.6711 S   0  0  0  0  0  0  0  0  0  0  0  0
  144.9681  134.9469  151.6573 C   0  0  1  0  0  0  0  0  0  0  0  0
  146.1564  134.0898  151.2142 C   0  0  0  0  0  0  0  0  0  0  0  0
  145.4980  133.1263  150.2544 C   0  0  0  0  0  0  0  0  0  0  0  0
  144.1690  132.8589  150.9528 C   0  0  0  0  0  0  0  0  0  0  0  0
  143.8581  134.0506  151.6702 O   0  0  0  0  0  0  0  0  0  0  0  0
  143.0133  135.7936  153.4925 H   0  0  0  0  0  0  0  0  0  0  0  0
  143.6879  137.2230  152.7156 H   0  0  0  0  0  0  0  0  0  0  0  0
  144.0295  136.8929  154.4132 H   0  0  0  0  0  0  0  0  0  0  0  0
  145.2773  134.8343  153.7767 H   0  0  0  0  0  0  0  0  0  0  0  0
  146.9586  136.3654  152.2612 H   0  0  0  0  0  0  0  0  0  0  0  0
  148.2132  137.7659  152.7861 H   0  0  0  0  0  0  0  0  0  0  0  0
  150.9789  140.4114  155.7898 H   0  0  0  0  0  0  0  0  0  0  0  0
  148.9881  142.2235  155.8844 H   0  0  0  0  0  0  0  0  0  0  0  0
  144.7732  135.7002  150.8919 H   0  0  0  0  0  0  0  0  0  0  0  0
  146.9552  134.6723  150.7542 H   0  0  0  0  0  0  0  0  0  0  0  0
  146.5756  133.5441  152.0613 H   0  0  0  0  0  0  0  0  0  0  0  0
  145.3280  133.6127  149.2929 H   0  0  0  0  0  0  0  0  0  0  0  0
  146.0806  132.2209  150.0835 H   0  0  0  0  0  0  0  0  0  0  0  0
  143.3761  132.5959  150.2524 H   0  0  0  0  0  0  0  0  0  0  0  0
  144.2736  132.0431  151.6692 H   0  0  0  0  0  0  0  0  0  0  0  0
  1  2  1  0  0  0  0
  1 17  1  0  0  0  0
  1 18  1  0  0  0  0
  1 19  1  0  0  0  0
  2  3  1  0  0  0  0
  2 12  1  0  0  0  0
  2 20  1  0  0  0  0
  3  4  1  0  0  0  0
  3 21  1  0  0  0  0
  4  5  2  0  0  0  0
  4  6  1  0  0  0  0
  6  7  1  0  0  0  0
  6 22  1  0  0  0  0
  7 11  1  0  0  0  0
  7  8  2  0  0  0  0
  8  9  1  0  0  0  0
  9 10  2  0  0  0  0
  9 23  1  0  0  0  0
 10 11  1  0  0  0  0
 10 24  1  0  0  0  0
 12 16  1  0  0  0  0
 12 13  1  0  0  0  0
 12 25  1  0  0  0  0
 13 14  1  0  0  0  0
 13 26  1  0  0  0  0
 13 27  1  0  0  0  0
 14 15  1  0  0  0  0
 14 28  1  0  0  0  0
 14 29  1  0  0  0  0
 15 16  1  0  0  0  0
 15 30  1  0  0  0  0
 15 31  1  0  0  0  0
M  END
> <s_m_source_file>
AV-unprocessed.smi

> <i_m_source_file_index>
2093

> <i_lp_mmshare_version>
43012

> <i_f3d_flags>
0

> <s_epik_input>
TzFbQ0gyXVtDSDJdW0NIMl1bQ0BIXTFbQ0BIXShbQ0gzXSlbTkhdQyg9TylbTkhdYzJuW2NIXVtjSF1zMg==

> <s_epik_cmdline>
J2VwaWtfcHl0aG9uJywgJy1waCcsICc3LjAnLCAnLXRuJywgJzgnLCAnLW1hJywgJzIwMCcsICctbWV0YWxfYmluZGluZycsICctaW1hZScsICc8aW5maWxlLm1hZT4nLCAnLW9tYWUnLCAnPG91dGZpbGUubWFlPic=

> <r_lp_tautomer_probability>
0.999

> <r_epik_Ionization_Penalty>
0.000334433

> <r_epik_Ionization_Penalty_Charging>
0

> <r_epik_Ionization_Penalty_Neutral>
0.000334433

> <r_epik_State_Penalty>
0.000177984

> <r_epik_Charging_Adjusted_Penalty>
0.000177984

> <i_epik_Tot_Q>
0

> <i_epik_Tot_abs_Q>
0

> <r_epik_Metal_State_Penalty>
0.00767616

> <b_epik_Metal_Only>
0

> <s_lp_Force_Field>
OPLS_2005

> <r_lp_Energy>
15.9736

> <b_lp_Chiralities_Consistent>
1

> <s_lp_Variant>
AV-unprocessed.smi:2093-3

> <Gold.Version>
5.8.1

> <Gold.Id.Protein>
6NUR|6NUR_protein|mol2

> <Gold.PLP.Fitness>
34.0887

> <Gold.PLP.PLP>
-26.5906

> <Gold.PLP.part.hbond>
-2.2720

> <Gold.PLP.part.metal>
0.0000

> <Gold.PLP.part.buried>
-1.4156

> <Gold.PLP.part.nonpolar>
-23.0765

> <Gold.PLP.part.repulsive>
0.5118

> <Gold.PLP.ligand.clash>
0.0000

> <Gold.PLP.ligand.torsion>
0.7430

> <Gold.PLP.Chemscore.Hbond>
1.9920

> <Gold.PLP.Chemscore.CHOScore>
1.0000

> <Gold.PLP.Chemscore.Metal>
0.0000

> <Gold.Chemscore.Hbonds>
donor molecule, donor type, donor heavy atom, donor atom, acceptor molecule, acceptor atom, score
      L1  H     3    21       P1  7948  0.88
      L1  H     6    22       P1  7948  0.94
      L1  C    10    24       P1  8028  1.00

> <Gold.PLP.Chemscore.Internal.Correction>
0.0082

> <Gold.Rescore>
     Score         DG    S(hbond)    S(metal)    S(lipo)     H(rot)  DE(clash)    DE(int)     intcor
     12.91     -14.89       1.91        0.00      54.14       1.29       0.00       1.97       ----

> <Gold.Chemscore.Fitness>
12.9150

> <Gold.Chemscore.DG>
-14.8935

> <Gold.Chemscore.ZeroCoef>
-5.4800

> <Gold.Chemscore.Hbond>
1.9135

> <Gold.Chemscore.Metal>
0.0000

> <Gold.Chemscore.Lipo>
54.1418

> <Gold.Chemscore.Internal_Hbond>
0.0000

> <Gold.Chemscore.DEClash>
0.0038

> <Gold.Chemscore.DEInternal>
1.9747

> <Gold.Chemscore.Rot>
1.2938

> <Gold.Chemscore.Internal.Correction>
   9.000000E+99

> <Gold.Chemscore.Hbonds>
donor molecule, donor type, donor heavy atom, donor atom, acceptor molecule, acceptor atom, score
      L1  H     3    21       P1  7948  0.81
      L1  H     6    22       P1  7948  0.91

> <Gold.Chemscore.Hbond.Weighted>
-6.3911

> <Gold.Chemscore.Metal.Weighted>
-0.0000

> <Gold.Chemscore.Lipo.Weighted>
-6.3346

> <Gold.Chemscore.Internal_Hbond.Weighted>
0.0000

> <Gold.Chemscore.DEClash.Weighted>
0.0038

> <Gold.Chemscore.DEInternal.Weighted>
1.9747

> <Gold.Chemscore.Rot.Weighted>
3.3122

> <Gold.Chemscore.Internal.Correction.Weighted>
   9.000000E+99

> <Gold.Protein.RotatedTorsions>
[ 6907 6896 6895 6894 ] final   98.14 input  -60.11 | X-H torsion
[ 7974 7965 7964 7962 ] final -163.63 input  175.53 | X-H torsion
[ 8008 7997 7996 7995 ] final  -69.97 input   59.86 | X-H torsion
[ 10167 10162 10161 10158 ] final    1.22 input  -65.29 | X-H torsion
[ 10718 10713 10712 10709 ] final  -56.66 input   66.30 | X-H torsion
[ 10763 10752 10751 10750 ] final   -8.04 input  -60.55 | X-H torsion
[ 11005 11000 10999 10996 ] final  158.69 input  -57.11 | X-H torsion

> <Gold.Protein.ActiveResidues>
 VAL166  LYS551  ARG553  GLY616  TRP617  ASP618  TYR619  PRO620  LYS621  CYS622 
 ASP623  PHE694  ASN695  SER759  ASP760  ASP761  ALA762  ILE779  LEU786  VAL792 
 PHE793  MET794  SER795  GLU796  ALA797  LYS798  CYS799  TRP800  GLU811  SER814 

> <Gold.Protein.RotatedAtoms>
  152.5413  134.0626  159.8158 H   0  0  0  0  0  0  0  0  0  0  0  0  # atno 6907 bound_to 6896
  151.0752  133.5427  159.2631 H   0  0  0  0  0  0  0  0  0  0  0  0  # atno 6908 bound_to 6896
  151.2275  135.0550  159.9028 H   0  0  0  0  0  0  0  0  0  0  0  0  # atno 6909 bound_to 6896
  144.7320  140.3079  143.6193 H   0  0  0  0  0  0  0  0  0  0  0  0  # atno 7974 bound_to 7965
  154.4977  140.0843  156.7732 H   0  0  0  0  0  0  0  0  0  0  0  0  # atno 8008 bound_to 7997
  155.4076  140.3440  155.4243 H   0  0  0  0  0  0  0  0  0  0  0  0  # atno 8009 bound_to 7997
  156.1416  140.1531  156.8899 H   0  0  0  0  0  0  0  0  0  0  0  0  # atno 8010 bound_to 7997
  140.6692  143.7094  150.7889 H   0  0  0  0  0  0  0  0  0  0  0  0  # atno 10167 bound_to 10162
  156.1271  130.4162  150.0335 H   0  0  0  0  0  0  0  0  0  0  0  0  # atno 10718 bound_to 10713
  153.4349  135.7012  153.6207 H   0  0  0  0  0  0  0  0  0  0  0  0  # atno 10763 bound_to 10752
  153.4606  135.3737  155.2336 H   0  0  0  0  0  0  0  0  0  0  0  0  # atno 10764 bound_to 10752
  154.8726  135.4019  154.3738 H   0  0  0  0  0  0  0  0  0  0  0  0  # atno 10765 bound_to 10752
  140.1889  134.8421  157.2889 H   0  0  0  0  0  0  0  0  0  0  0  0  # atno 11005 bound_to 11000
  145.7694  139.1852  143.2221 LP  0  0  0  0  0  0  0  0  0  0  0  0  # atno 17320 bound_to 7965
  146.0923  140.7642  142.9589 LP  0  0  0  0  0  0  0  0  0  0  0  0  # atno 17321 bound_to 7965
  140.0777  143.4999  152.2547 LP  0  0  0  0  0  0  0  0  0  0  0  0  # atno 17342 bound_to 10162
  139.5954  144.7565  151.3300 LP  0  0  0  0  0  0  0  0  0  0  0  0  # atno 17343 bound_to 10162
  156.8258  130.9375  151.3639 LP  0  0  0  0  0  0  0  0  0  0  0  0  # atno 17370 bound_to 10713
  157.6452  130.8838  149.9524 LP  0  0  0  0  0  0  0  0  0  0  0  0  # atno 17371 bound_to 10713
  140.2182  134.4056  155.7579 LP  0  0  0  0  0  0  0  0  0  0  0  0  # atno 17394 bound_to 11000
  141.2226  133.7152  156.8447 LP  0  0  0  0  0  0  0  0  0  0  0  0  # atno 17395 bound_to 11000

$$$$
