AV-unprocessed.smi:1589|AV-procd|sdf|6394|dock10
  -GOLD-   22720 7 33D 1   1.00000     0.00000
 Structure written by MMmdl.
 43 44  0  0  0  0  0  0  0  0  1 V2000
  151.3938  142.7051  156.3211 C   0  0  0  0  0  0  0  0  0  0  0  0
  150.2156  141.7185  156.1639 C   0  0  0  0  0  0  0  0  0  0  0  0
  149.8720  141.1456  157.5563 C   0  0  0  0  0  0  0  0  0  0  0  0
  150.5207  140.6510  155.1893 N   0  0  0  0  0  0  0  0  0  0  0  0
  149.4041  139.6974  155.0683 C   0  0  0  0  0  0  0  0  0  0  0  0
  149.7253  138.5853  154.0520 C   0  0  0  0  0  0  0  0  0  0  0  0
  150.9247  137.8709  154.5041 N   0  0  0  0  0  0  0  0  0  0  0  0
  150.9910  136.6106  155.0027 C   0  0  0  0  0  0  0  0  0  0  0  0
  151.9487  136.2071  155.6637 O   0  0  0  0  0  0  0  0  0  0  0  0
  149.9294  135.8403  154.6988 N   0  0  0  0  0  0  0  0  0  0  0  0
  149.6994  134.4927  155.0723 C   0  0  0  0  0  0  0  0  0  0  0  0
  150.3524  133.7030  156.0605 C   0  0  0  0  0  0  0  0  0  0  0  0
  149.8458  132.4796  156.1016 N   0  0  0  0  0  0  0  0  0  0  0  0
  148.8785  132.4639  155.1504 N   0  0  0  0  0  0  0  0  0  0  0  0
  148.1053  131.2519  154.9285 C   0  0  0  0  0  0  0  0  0  0  0  0
  146.7198  131.5333  154.3332 C   0  0  0  0  0  0  0  0  0  0  0  0
  146.5521  131.2293  153.0439 N   0  0  0  0  0  0  0  0  0  0  0  0
  145.8145  132.0171  155.0113 O   0  0  0  0  0  0  0  0  0  0  0  0
  148.7634  133.6809  154.5064 C   0  0  0  0  0  0  0  0  0  0  0  0
  152.0544  138.7995  154.5400 C   0  0  0  0  0  0  0  0  0  0  0  0
  151.7442  139.9157  155.5558 C   0  0  0  0  0  0  0  0  0  0  0  0
  151.2178  143.3964  157.1456 H   0  0  0  0  0  0  0  0  0  0  0  0
  151.5374  143.3271  155.4384 H   0  0  0  0  0  0  0  0  0  0  0  0
  152.3281  142.1815  156.5274 H   0  0  0  0  0  0  0  0  0  0  0  0
  149.3500  142.2787  155.8067 H   0  0  0  0  0  0  0  0  0  0  0  0
  149.7938  141.9410  158.2981 H   0  0  0  0  0  0  0  0  0  0  0  0
  150.6381  140.4506  157.9022 H   0  0  0  0  0  0  0  0  0  0  0  0
  148.9112  140.6320  157.5693 H   0  0  0  0  0  0  0  0  0  0  0  0
  149.1752  139.2632  156.0429 H   0  0  0  0  0  0  0  0  0  0  0  0
  148.5045  140.2009  154.7195 H   0  0  0  0  0  0  0  0  0  0  0  0
  148.8514  137.9467  153.9246 H   0  0  0  0  0  0  0  0  0  0  0  0
  149.9110  139.0181  153.0675 H   0  0  0  0  0  0  0  0  0  0  0  0
  149.2007  136.2762  154.1527 H   0  0  0  0  0  0  0  0  0  0  0  0
  151.1557  133.9579  156.7353 H   0  0  0  0  0  0  0  0  0  0  0  0
  148.6548  130.5863  154.2606 H   0  0  0  0  0  0  0  0  0  0  0  0
  148.0000  130.7351  155.8832 H   0  0  0  0  0  0  0  0  0  0  0  0
  145.6596  131.3869  152.5988 H   0  0  0  0  0  0  0  0  0  0  0  0
  147.3200  130.8359  152.5188 H   0  0  0  0  0  0  0  0  0  0  0  0
  148.0438  133.8552  153.7199 H   0  0  0  0  0  0  0  0  0  0  0  0
  152.9921  138.3105  154.8073 H   0  0  0  0  0  0  0  0  0  0  0  0
  152.2147  139.2230  153.5471 H   0  0  0  0  0  0  0  0  0  0  0  0
  152.6037  140.5834  155.5721 H   0  0  0  0  0  0  0  0  0  0  0  0
  151.6414  139.4954  156.5576 H   0  0  0  0  0  0  0  0  0  0  0  0
  1  2  1  0  0  0  0
  1 22  1  0  0  0  0
  1 23  1  0  0  0  0
  1 24  1  0  0  0  0
  2  3  1  0  0  0  0
  2  4  1  0  0  0  0
  2 25  1  0  0  0  0
  3 26  1  0  0  0  0
  3 27  1  0  0  0  0
  3 28  1  0  0  0  0
  4 21  1  0  0  0  0
  4  5  1  0  0  0  0
  5  6  1  0  0  0  0
  5 29  1  0  0  0  0
  5 30  1  0  0  0  0
  6  7  1  0  0  0  0
  6 31  1  0  0  0  0
  6 32  1  0  0  0  0
  7  8  1  0  0  0  0
  7 20  1  0  0  0  0
  8  9  2  0  0  0  0
  8 10  1  0  0  0  0
 10 11  1  0  0  0  0
 10 33  1  0  0  0  0
 11 19  2  0  0  0  0
 11 12  1  0  0  0  0
 12 13  2  0  0  0  0
 12 34  1  0  0  0  0
 13 14  1  0  0  0  0
 14 15  1  0  0  0  0
 14 19  1  0  0  0  0
 15 16  1  0  0  0  0
 15 35  1  0  0  0  0
 15 36  1  0  0  0  0
 16 17  1  0  0  0  0
 16 18  2  0  0  0  0
 17 37  1  0  0  0  0
 17 38  1  0  0  0  0
 19 39  1  0  0  0  0
 20 21  1  0  0  0  0
 20 40  1  0  0  0  0
 20 41  1  0  0  0  0
 21 42  1  0  0  0  0
 21 43  1  0  0  0  0
M  END
> <s_m_source_file>
AV-unprocessed.smi

> <i_m_source_file_index>
1589

> <i_lp_mmshare_version>
43012

> <i_f3d_flags>
0

> <s_epik_input>
W0NIM11bQ0hdKFtDSDNdKU4xW0NIMl1bQ0gyXU4oW0NIMl1bQ0gyXTEpQyg9TylbTkhdYzJbY0hdbm4oW2NIXTIpW0NIMl1DKD1PKVtOSDJd

> <s_epik_cmdline>
J2VwaWtfcHl0aG9uJywgJy1waCcsICc3LjAnLCAnLXRuJywgJzgnLCAnLW1hJywgJzIwMCcsICctbWV0YWxfYmluZGluZycsICctaW1hZScsICc8aW5maWxlLm1hZT4nLCAnLW9tYWUnLCAnPG91dGZpbGUubWFlPic=

> <r_lp_tautomer_probability>
1

> <r_epik_Ionization_Penalty>
0.648545

> <r_epik_Ionization_Penalty_Charging>
0

> <r_epik_Ionization_Penalty_Neutral>
0.648545

> <r_epik_State_Penalty>
0.6668

> <r_epik_Charging_Adjusted_Penalty>
0.6668

> <i_epik_Tot_Q>
0

> <i_epik_Tot_abs_Q>
0

> <r_epik_Metal_State_Penalty>
0.666798

> <b_epik_Metal_Only>
0

> <s_lp_Force_Field>
OPLS_2005

> <r_lp_Energy>
50.3263

> <b_lp_Chiralities_Consistent>
1

> <s_lp_Variant>
AV-unprocessed.smi:1589-2

> <Gold.Version>
5.8.1

> <Gold.Id.Protein>
6NUR|6NUR_protein|mol2

> <Gold.PLP.Fitness>
47.0327

> <Gold.PLP.PLP>
-36.3595

> <Gold.PLP.part.hbond>
-4.5984

> <Gold.PLP.part.metal>
0.0000

> <Gold.PLP.part.buried>
-2.5260

> <Gold.PLP.part.nonpolar>
-30.1806

> <Gold.PLP.part.repulsive>
0.3192

> <Gold.PLP.ligand.clash>
0.0000

> <Gold.PLP.ligand.torsion>
0.6775

> <Gold.PLP.Chemscore.Hbond>
3.4584

> <Gold.PLP.Chemscore.CHOScore>
0.5371

> <Gold.PLP.Chemscore.Metal>
0.0000

> <Gold.Chemscore.Hbonds>
donor molecule, donor type, donor heavy atom, donor atom, acceptor molecule, acceptor atom, score
      L1  H    10    33       P1  7948  0.20
      P1  H 10752 10763       L1     9  0.93

> <Gold.PLP.Chemscore.Internal.Correction>
0.0419

> <Gold.Rescore>
     Score         DG    S(hbond)    S(metal)    S(lipo)     H(rot)  DE(clash)    DE(int)     intcor
     14.52     -16.39       2.30        0.00      67.48       1.82       0.17       1.70       ----

> <Gold.Chemscore.Fitness>
14.5248

> <Gold.Chemscore.DG>
-16.3935

> <Gold.Chemscore.ZeroCoef>
-5.4800

> <Gold.Chemscore.Hbond>
2.2982

> <Gold.Chemscore.Metal>
0.0000

> <Gold.Chemscore.Lipo>
67.4788

> <Gold.Chemscore.Internal_Hbond>
0.0000

> <Gold.Chemscore.DEClash>
0.1683

> <Gold.Chemscore.DEInternal>
1.7004

> <Gold.Chemscore.Rot>
1.8193

> <Gold.Chemscore.Internal.Correction>
   9.000000E+99

> <Gold.Chemscore.Hbonds>
donor molecule, donor type, donor heavy atom, donor atom, acceptor molecule, acceptor atom, score
      L1  H    10    33       P1  7948  0.18
      P1  H 10752 10763       L1     9  0.76

> <Gold.Chemscore.Hbond.Weighted>
-7.6760

> <Gold.Chemscore.Metal.Weighted>
-0.0000

> <Gold.Chemscore.Lipo.Weighted>
-7.8950

> <Gold.Chemscore.Internal_Hbond.Weighted>
0.0000

> <Gold.Chemscore.DEClash.Weighted>
0.1683

> <Gold.Chemscore.DEInternal.Weighted>
1.7004

> <Gold.Chemscore.Rot.Weighted>
4.6575

> <Gold.Chemscore.Internal.Correction.Weighted>
   9.000000E+99

> <Gold.Protein.RotatedTorsions>
[ 6907 6896 6895 6894 ] final  126.12 input  -60.11 | X-H torsion
[ 7974 7965 7964 7962 ] final -111.24 input  175.53 | X-H torsion
[ 8008 7997 7996 7995 ] final  -79.21 input   59.86 | X-H torsion
[ 10167 10162 10161 10158 ] final  163.15 input  -65.29 | X-H torsion
[ 10718 10713 10712 10709 ] final -111.08 input   66.30 | X-H torsion
[ 10763 10752 10751 10750 ] final   73.32 input  -60.55 | X-H torsion
[ 11005 11000 10999 10996 ] final -122.11 input  -57.11 | X-H torsion

> <Gold.Protein.ActiveResidues>
 VAL166  LYS551  ARG553  GLY616  TRP617  ASP618  TYR619  PRO620  LYS621  CYS622 
 ASP623  PHE694  ASN695  SER759  ASP760  ASP761  ALA762  ILE779  LEU786  VAL792 
 PHE793  MET794  SER795  GLU796  ALA797  LYS798  CYS799  TRP800  GLU811  SER814 

> <Gold.Protein.RotatedAtoms>
  152.3931  133.6708  159.6253 H   0  0  0  0  0  0  0  0  0  0  0  0  # atno 6907 bound_to 6896
  150.7836  133.8919  159.3325 H   0  0  0  0  0  0  0  0  0  0  0  0  # atno 6908 bound_to 6896
  151.6702  135.0978  160.0248 H   0  0  0  0  0  0  0  0  0  0  0  0  # atno 6909 bound_to 6896
  145.1585  140.8866  143.3604 H   0  0  0  0  0  0  0  0  0  0  0  0  # atno 7974 bound_to 7965
  154.5763  140.0682  156.9039 H   0  0  0  0  0  0  0  0  0  0  0  0  # atno 8008 bound_to 7997
  155.2543  140.3354  155.4261 H   0  0  0  0  0  0  0  0  0  0  0  0  # atno 8009 bound_to 7997
  156.2156  140.1777  156.7581 H   0  0  0  0  0  0  0  0  0  0  0  0  # atno 8010 bound_to 7997
  139.4870  144.4366  151.9004 H   0  0  0  0  0  0  0  0  0  0  0  0  # atno 10167 bound_to 10162
  156.0627  130.5849  150.8325 H   0  0  0  0  0  0  0  0  0  0  0  0  # atno 10718 bound_to 10713
  153.0514  135.5067  154.7876 H   0  0  0  0  0  0  0  0  0  0  0  0  # atno 10763 bound_to 10752
  154.6735  135.2957  154.9712 H   0  0  0  0  0  0  0  0  0  0  0  0  # atno 10764 bound_to 10752
  154.0522  135.6702  153.4854 H   0  0  0  0  0  0  0  0  0  0  0  0  # atno 10765 bound_to 10752
  141.0019  134.0390  157.3526 H   0  0  0  0  0  0  0  0  0  0  0  0  # atno 11005 bound_to 11000
  145.0355  139.3304  143.6003 LP  0  0  0  0  0  0  0  0  0  0  0  0  # atno 17320 bound_to 7965
  146.3485  139.9709  142.8706 LP  0  0  0  0  0  0  0  0  0  0  0  0  # atno 17321 bound_to 7965
  140.3816  144.2729  150.5908 LP  0  0  0  0  0  0  0  0  0  0  0  0  # atno 17342 bound_to 10162
  140.5228  143.2261  151.8362 LP  0  0  0  0  0  0  0  0  0  0  0  0  # atno 17343 bound_to 10162
  157.5647  131.0946  150.9507 LP  0  0  0  0  0  0  0  0  0  0  0  0  # atno 17370 bound_to 10713
  156.9737  130.5500  149.5292 LP  0  0  0  0  0  0  0  0  0  0  0  0  # atno 17371 bound_to 10713
  139.9043  135.0175  156.7415 LP  0  0  0  0  0  0  0  0  0  0  0  0  # atno 17394 bound_to 11000
  140.6874  133.9420  155.7946 LP  0  0  0  0  0  0  0  0  0  0  0  0  # atno 17395 bound_to 11000

$$$$
