AV-unprocessed.smi:2231|AV-procd|sdf|9037|dock4
  -GOLD-   2272012243D 1   1.00000     0.00000
 Structure written by MMmdl.
 49 50  0  0  0  0  0  0  0  0  1 V2000
  144.0617  133.3933  151.2342 C   0  0  0  0  0  0  0  0  0  0  0  0
  144.1588  134.7439  151.9124 C   0  0  0  0  0  0  0  0  0  0  0  0
  142.9995  135.4523  152.2819 C   0  0  0  0  0  0  0  0  0  0  0  0
  143.1568  136.7042  152.9081 C   0  0  0  0  0  0  0  0  0  0  0  0
  141.9541  137.5215  153.3299 C   0  0  0  0  0  0  0  0  0  0  0  0
  144.3632  137.2513  153.1676 N   0  0  0  0  0  0  0  0  0  0  0  0
  145.4868  136.5785  152.8156 C   0  0  0  0  0  0  0  0  0  0  0  0
  146.8001  137.0771  153.0247 N   0  0  0  0  0  0  0  0  0  0  0  0
  147.1782  138.1045  153.8049 C   0  0  0  0  0  0  0  0  0  0  0  0
  146.4519  138.6911  154.6077 O   0  0  0  0  0  0  0  0  0  0  0  0
  148.4612  138.4335  153.5893 N   0  0  0  0  0  0  0  0  0  0  0  0
  149.1518  139.5835  154.1734 C   0  0  0  0  0  0  0  0  0  0  0  0
  149.7123  139.2780  155.5798 C   0  0  0  0  0  0  0  0  0  0  0  0
  150.8792  140.1893  155.9724 C   0  0  0  0  0  0  0  0  0  0  0  0
  151.9091  140.1950  155.2992 O   0  0  0  0  0  0  0  0  0  0  0  0
  150.7118  140.9292  157.0799 N   0  0  0  0  0  0  0  0  0  0  0  0
  151.7367  141.7597  157.7041 C   0  0  0  0  0  0  0  0  0  0  0  0
  151.9201  141.3630  159.1852 C   0  0  0  0  0  0  0  0  0  0  0  0
  152.9198  142.2832  159.9025 C   0  0  0  0  0  0  0  0  0  0  0  0
  152.5128  143.7586  159.7724 C   0  0  0  0  0  0  0  0  0  0  0  0
  152.3463  144.1581  158.2982 C   0  0  0  0  0  0  0  0  0  0  0  0
  151.3390  143.2431  157.5834 C   0  0  0  0  0  0  0  0  0  0  0  0
  145.4177  135.3176  152.1818 C   0  0  0  0  0  0  0  0  0  0  0  0
  143.0349  133.0255  151.2280 H   0  0  0  0  0  0  0  0  0  0  0  0
  144.6809  132.6621  151.7544 H   0  0  0  0  0  0  0  0  0  0  0  0
  144.4058  133.4640  150.2022 H   0  0  0  0  0  0  0  0  0  0  0  0
  142.0163  135.0475  152.0904 H   0  0  0  0  0  0  0  0  0  0  0  0
  141.0258  136.9769  153.1550 H   0  0  0  0  0  0  0  0  0  0  0  0
  141.9136  138.4541  152.7669 H   0  0  0  0  0  0  0  0  0  0  0  0
  142.0117  137.7630  154.3916 H   0  0  0  0  0  0  0  0  0  0  0  0
  147.5201  136.6519  152.4598 H   0  0  0  0  0  0  0  0  0  0  0  0
  148.9851  137.8829  152.9249 H   0  0  0  0  0  0  0  0  0  0  0  0
  149.9441  139.9415  153.5135 H   0  0  0  0  0  0  0  0  0  0  0  0
  148.4320  140.3991  154.2448 H   0  0  0  0  0  0  0  0  0  0  0  0
  148.9213  139.4072  156.3194 H   0  0  0  0  0  0  0  0  0  0  0  0
  150.0176  138.2322  155.6420 H   0  0  0  0  0  0  0  0  0  0  0  0
  149.8272  140.8635  157.5616 H   0  0  0  0  0  0  0  0  0  0  0  0
  152.6825  141.6158  157.1780 H   0  0  0  0  0  0  0  0  0  0  0  0
  150.9594  141.4076  159.6997 H   0  0  0  0  0  0  0  0  0  0  0  0
  152.2616  140.3301  159.2614 H   0  0  0  0  0  0  0  0  0  0  0  0
  152.9869  142.0076  160.9551 H   0  0  0  0  0  0  0  0  0  0  0  0
  153.9152  142.1392  159.4804 H   0  0  0  0  0  0  0  0  0  0  0  0
  151.5769  143.9278  160.3063 H   0  0  0  0  0  0  0  0  0  0  0  0
  153.2603  144.3939  160.2487 H   0  0  0  0  0  0  0  0  0  0  0  0
  152.0190  145.1957  158.2300 H   0  0  0  0  0  0  0  0  0  0  0  0
  153.3114  144.1041  157.7930 H   0  0  0  0  0  0  0  0  0  0  0  0
  151.2666  143.5268  156.5329 H   0  0  0  0  0  0  0  0  0  0  0  0
  150.3483  143.3962  158.0138 H   0  0  0  0  0  0  0  0  0  0  0  0
  146.3203  134.7936  151.9020 H   0  0  0  0  0  0  0  0  0  0  0  0
  1  2  1  0  0  0  0
  1 24  1  0  0  0  0
  1 25  1  0  0  0  0
  1 26  1  0  0  0  0
  2 23  1  0  0  0  0
  2  3  2  0  0  0  0
  3  4  1  0  0  0  0
  3 27  1  0  0  0  0
  4  5  1  0  0  0  0
  4  6  2  0  0  0  0
  5 28  1  0  0  0  0
  5 29  1  0  0  0  0
  5 30  1  0  0  0  0
  6  7  1  0  0  0  0
  7  8  1  0  0  0  0
  7 23  2  0  0  0  0
  8  9  1  0  0  0  0
  8 31  1  0  0  0  0
  9 10  2  0  0  0  0
  9 11  1  0  0  0  0
 11 12  1  0  0  0  0
 11 32  1  0  0  0  0
 12 13  1  0  0  0  0
 12 33  1  0  0  0  0
 12 34  1  0  0  0  0
 13 14  1  0  0  0  0
 13 35  1  0  0  0  0
 13 36  1  0  0  0  0
 14 15  2  0  0  0  0
 14 16  1  0  0  0  0
 16 17  1  0  0  0  0
 16 37  1  0  0  0  0
 17 22  1  0  0  0  0
 17 18  1  0  0  0  0
 17 38  1  0  0  0  0
 18 19  1  0  0  0  0
 18 39  1  0  0  0  0
 18 40  1  0  0  0  0
 19 20  1  0  0  0  0
 19 41  1  0  0  0  0
 19 42  1  0  0  0  0
 20 21  1  0  0  0  0
 20 43  1  0  0  0  0
 20 44  1  0  0  0  0
 21 22  1  0  0  0  0
 21 45  1  0  0  0  0
 21 46  1  0  0  0  0
 22 47  1  0  0  0  0
 22 48  1  0  0  0  0
 23 49  1  0  0  0  0
M  END
> <s_m_source_file>
AV-unprocessed.smi

> <i_m_source_file_index>
2231

> <i_lp_mmshare_version>
43012

> <i_f3d_flags>
0

> <s_epik_input>
W0NIM11jMVtjSF1jKFtDSDNdKW5jKFtjSF0xKVtOSF1DKD1PKVtOSF1bQ0gyXVtDSDJdQyg9TylbTkhdW0NIXTJbQ0gyXVtDSDJdW0NIMl1bQ0gyXVtDSDJdMg==

> <s_epik_cmdline>
J2VwaWtfcHl0aG9uJywgJy1waCcsICc3LjAnLCAnLXRuJywgJzgnLCAnLW1hJywgJzIwMCcsICctbWV0YWxfYmluZGluZycsICctaW1hZScsICc8aW5maWxlLm1hZT4nLCAnLW9tYWUnLCAnPG91dGZpbGUubWFlPic=

> <r_lp_tautomer_probability>
1

> <r_epik_Ionization_Penalty>
0.000231702

> <r_epik_Ionization_Penalty_Charging>
0

> <r_epik_Ionization_Penalty_Neutral>
0.000231702

> <r_epik_State_Penalty>
-0

> <r_epik_Charging_Adjusted_Penalty>
0

> <i_epik_Tot_Q>
0

> <i_epik_Tot_abs_Q>
0

> <r_epik_Metal_State_Penalty>
-0

> <b_epik_Metal_Only>
0

> <s_lp_Force_Field>
OPLS_2005

> <r_lp_Energy>
6.29384

> <b_lp_Chiralities_Consistent>
1

> <s_lp_Variant>
AV-unprocessed.smi:2231-1

> <Gold.Version>
5.8.1

> <Gold.Id.Protein>
6NUR|6NUR_protein|mol2

> <Gold.PLP.Fitness>
49.4954

> <Gold.PLP.PLP>
-42.0059

> <Gold.PLP.part.hbond>
-3.6781

> <Gold.PLP.part.metal>
0.0000

> <Gold.PLP.part.buried>
-6.4596

> <Gold.PLP.part.nonpolar>
-33.1788

> <Gold.PLP.part.repulsive>
0.3567

> <Gold.PLP.ligand.clash>
0.0000

> <Gold.PLP.ligand.torsion>
0.3756

> <Gold.PLP.Chemscore.Hbond>
2.7280

> <Gold.PLP.Chemscore.CHOScore>
0.0000

> <Gold.PLP.Chemscore.Metal>
0.0000

> <Gold.Chemscore.Hbonds>
donor molecule, donor type, donor heavy atom, donor atom, acceptor molecule, acceptor atom, score
      L1  H     8    31       P1  7948  1.00
      L1  H    11    32       P1  7948  0.91
      P1  H  7989  7998       L1    15  0.80

> <Gold.PLP.Chemscore.Internal.Correction>
0.0567

> <Gold.Rescore>
     Score         DG    S(hbond)    S(metal)    S(lipo)     H(rot)  DE(clash)    DE(int)     intcor
     21.11     -22.81       2.88        0.00     102.87       1.69       0.04       1.66       ----

> <Gold.Chemscore.Fitness>
21.1124

> <Gold.Chemscore.DG>
-22.8110

> <Gold.Chemscore.ZeroCoef>
-5.4800

> <Gold.Chemscore.Hbond>
2.8833

> <Gold.Chemscore.Metal>
0.0000

> <Gold.Chemscore.Lipo>
102.8749

> <Gold.Chemscore.Internal_Hbond>
0.0000

> <Gold.Chemscore.DEClash>
0.0353

> <Gold.Chemscore.DEInternal>
1.6632

> <Gold.Chemscore.Rot>
1.6936

> <Gold.Chemscore.Internal.Correction>
   9.000000E+99

> <Gold.Chemscore.Hbonds>
donor molecule, donor type, donor heavy atom, donor atom, acceptor molecule, acceptor atom, score
      L1  H     8    31       P1  7948  0.98
      L1  H    11    32       P1  7948  0.87
      P1  H  7989  7998       L1    15  0.70

> <Gold.Chemscore.Hbond.Weighted>
-9.6302

> <Gold.Chemscore.Metal.Weighted>
-0.0000

> <Gold.Chemscore.Lipo.Weighted>
-12.0364

> <Gold.Chemscore.Internal_Hbond.Weighted>
0.0000

> <Gold.Chemscore.DEClash.Weighted>
0.0353

> <Gold.Chemscore.DEInternal.Weighted>
1.6632

> <Gold.Chemscore.Rot.Weighted>
4.3357

> <Gold.Chemscore.Internal.Correction.Weighted>
   9.000000E+99

> <Gold.Protein.RotatedTorsions>
[ 6907 6896 6895 6894 ] final  -90.53 input  -60.11 | X-H torsion
[ 7974 7965 7964 7962 ] final   70.16 input  175.53 | X-H torsion
[ 8008 7997 7996 7995 ] final  -18.14 input   59.86 | X-H torsion
[ 10167 10162 10161 10158 ] final  -70.75 input  -65.29 | X-H torsion
[ 10718 10713 10712 10709 ] final  -94.97 input   66.30 | X-H torsion
[ 10763 10752 10751 10750 ] final   -1.77 input  -60.55 | X-H torsion
[ 11005 11000 10999 10996 ] final  140.61 input  -57.11 | X-H torsion

> <Gold.Protein.ActiveResidues>
 VAL166  LYS551  ARG553  GLY616  TRP617  ASP618  TYR619  PRO620  LYS621  CYS622 
 ASP623  PHE694  ASN695  SER759  ASP760  ASP761  ALA762  ILE779  LEU786  VAL792 
 PHE793  MET794  SER795  GLU796  ALA797  LYS798  CYS799  TRP800  GLU811  SER814 

> <Gold.Protein.RotatedAtoms>
  150.6883  134.2418  159.4475 H   0  0  0  0  0  0  0  0  0  0  0  0  # atno 6907 bound_to 6896
  152.0362  134.9736  160.0582 H   0  0  0  0  0  0  0  0  0  0  0  0  # atno 6908 bound_to 6896
  152.1256  133.4343  159.4733 H   0  0  0  0  0  0  0  0  0  0  0  0  # atno 6909 bound_to 6896
  145.7815  139.2890  143.1263 H   0  0  0  0  0  0  0  0  0  0  0  0  # atno 7974 bound_to 7965
  154.4928  140.2124  155.9512 H   0  0  0  0  0  0  0  0  0  0  0  0  # atno 8008 bound_to 7997
  156.1328  140.3194  155.8344 H   0  0  0  0  0  0  0  0  0  0  0  0  # atno 8009 bound_to 7997
  155.4264  140.0500  157.3012 H   0  0  0  0  0  0  0  0  0  0  0  0  # atno 8010 bound_to 7997
  140.5328  143.2320  151.7231 H   0  0  0  0  0  0  0  0  0  0  0  0  # atno 10167 bound_to 10162
  156.0035  130.5090  150.6006 H   0  0  0  0  0  0  0  0  0  0  0  0  # atno 10718 bound_to 10713
  153.3492  135.6985  153.6803 H   0  0  0  0  0  0  0  0  0  0  0  0  # atno 10763 bound_to 10752
  153.5536  135.3549  155.2770 H   0  0  0  0  0  0  0  0  0  0  0  0  # atno 10764 bound_to 10752
  154.8650  135.4232  154.2723 H   0  0  0  0  0  0  0  0  0  0  0  0  # atno 10765 bound_to 10752
  140.0340  134.9338  157.0717 H   0  0  0  0  0  0  0  0  0  0  0  0  # atno 11005 bound_to 11000
  146.0069  140.8470  142.9990 LP  0  0  0  0  0  0  0  0  0  0  0  0  # atno 17320 bound_to 7965
  144.6795  140.2433  143.7341 LP  0  0  0  0  0  0  0  0  0  0  0  0  # atno 17321 bound_to 7965
  139.4960  144.4088  152.0102 LP  0  0  0  0  0  0  0  0  0  0  0  0  # atno 17342 bound_to 10162
  140.3192  144.3448  150.6014 LP  0  0  0  0  0  0  0  0  0  0  0  0  # atno 17343 bound_to 10162
  157.3856  131.0787  151.1439 LP  0  0  0  0  0  0  0  0  0  0  0  0  # atno 17370 bound_to 10713
  157.2147  130.6454  149.5788 LP  0  0  0  0  0  0  0  0  0  0  0  0  # atno 17371 bound_to 10713
  140.4179  134.1912  155.7164 LP  0  0  0  0  0  0  0  0  0  0  0  0  # atno 17394 bound_to 11000
  141.1847  133.8339  157.1131 LP  0  0  0  0  0  0  0  0  0  0  0  0  # atno 17395 bound_to 11000

$$$$
