AV-unprocessed.smi:1703|AV-procd|sdf|6868|dock1
  -GOLD-   22720 8 63D 1   1.00000     0.00000
 Structure written by MMmdl.
 49 51  0  0  0  0  0  0  0  0  2 V2000
  151.2872  131.1682  156.2941 C   0  0  0  0  0  0  0  0  0  0  0  0
  150.3665  131.4968  155.1142 C   0  0  2  0  0  0  0  0  0  0  0  0
  149.4393  132.6910  155.4126 C   0  0  0  0  0  0  0  0  0  0  0  0
  148.5189  132.9618  154.3117 N   0  0  0  0  0  0  0  0  0  0  0  0
  147.6602  134.1103  154.6160 C   0  0  0  0  0  0  0  0  0  0  0  0
  146.6349  134.5019  153.5281 C   0  0  2  0  0  0  0  0  0  0  0  0
  146.6344  135.9148  153.4617 O   0  0  0  0  0  0  0  0  0  0  0  0
  145.1873  134.0186  153.7696 C   0  0  0  0  0  0  0  0  0  0  0  0
  144.4022  133.8903  152.5312 N   0  0  0  0  0  0  0  0  0  0  0  0
  143.1696  134.3790  152.2098 C   0  0  0  0  0  0  0  0  0  0  0  0
  142.2859  135.2087  153.0864 C   0  0  0  0  0  0  0  0  0  0  0  0
  141.7098  134.4792  154.1494 O   0  0  0  0  0  0  0  0  0  0  0  0
  142.8967  133.9702  150.9373 N   0  3  0  0  0  0  0  0  0  0  0  0
  143.9599  133.2138  150.4429 C   0  0  0  0  0  0  0  0  0  0  0  0
  144.1425  132.5902  149.2126 C   0  0  0  0  0  0  0  0  0  0  0  0
  145.3546  131.8918  149.0307 C   0  0  0  0  0  0  0  0  0  0  0  0
  146.3276  131.8317  150.0496 C   0  0  0  0  0  0  0  0  0  0  0  0
  146.1310  132.4675  151.2933 C   0  0  0  0  0  0  0  0  0  0  0  0
  144.9306  133.1567  151.4634 C   0  0  0  0  0  0  0  0  0  0  0  0
  147.7561  131.7406  154.0545 C   0  0  0  0  0  0  0  0  0  0  0  0
  148.6714  130.5403  153.7461 C   0  0  2  0  0  0  0  0  0  0  0  0
  147.8787  129.2446  153.5441 C   0  0  0  0  0  0  0  0  0  0  0  0
  149.5705  130.3493  154.8341 O   0  0  0  0  0  0  0  0  0  0  0  0
  151.9257  132.0165  156.5411 H   0  0  0  0  0  0  0  0  0  0  0  0
  151.9338  130.3224  156.0592 H   0  0  0  0  0  0  0  0  0  0  0  0
  150.7117  130.9109  157.1837 H   0  0  0  0  0  0  0  0  0  0  0  0
  150.9822  131.7215  154.2414 H   0  0  0  0  0  0  0  0  0  0  0  0
  148.8751  132.4958  156.3264 H   0  0  0  0  0  0  0  0  0  0  0  0
  150.0505  133.5733  155.6075 H   0  0  0  0  0  0  0  0  0  0  0  0
  147.1661  133.9722  155.5791 H   0  0  0  0  0  0  0  0  0  0  0  0
  148.3011  134.9836  154.7503 H   0  0  0  0  0  0  0  0  0  0  0  0
  146.9865  134.1385  152.5621 H   0  0  0  0  0  0  0  0  0  0  0  0
  147.3453  136.1878  152.9022 H   0  0  0  0  0  0  0  0  0  0  0  0
  145.1717  133.0461  154.2577 H   0  0  0  0  0  0  0  0  0  0  0  0
  144.6605  134.7114  154.4266 H   0  0  0  0  0  0  0  0  0  0  0  0
  142.8658  136.0350  153.4985 H   0  0  0  0  0  0  0  0  0  0  0  0
  141.4875  135.6413  152.4831 H   0  0  0  0  0  0  0  0  0  0  0  0
  142.0413  133.5942  154.1200 H   0  0  0  0  0  0  0  0  0  0  0  0
  143.3983  132.6339  148.4307 H   0  0  0  0  0  0  0  0  0  0  0  0
  145.5415  131.3919  148.0913 H   0  0  0  0  0  0  0  0  0  0  0  0
  147.2440  131.2866  149.8740 H   0  0  0  0  0  0  0  0  0  0  0  0
  146.8823  132.4159  152.0674 H   0  0  0  0  0  0  0  0  0  0  0  0
  147.1356  131.5062  154.9209 H   0  0  0  0  0  0  0  0  0  0  0  0
  147.0738  131.8738  153.2213 H   0  0  0  0  0  0  0  0  0  0  0  0
  149.2474  130.7435  152.8416 H   0  0  0  0  0  0  0  0  0  0  0  0
  147.1767  129.3389  152.7152 H   0  0  0  0  0  0  0  0  0  0  0  0
  147.3096  128.9868  154.4378 H   0  0  0  0  0  0  0  0  0  0  0  0
  148.5454  128.4112  153.3220 H   0  0  0  0  0  0  0  0  0  0  0  0
  142.0400  134.1969  150.4483 H   0  0  0  0  0  0  0  0  0  0  0  0
  1  2  1  0  0  0  0
  1 24  1  0  0  0  0
  1 25  1  0  0  0  0
  1 26  1  0  0  0  0
  2 23  1  0  0  0  0
  2  3  1  0  0  0  0
  2 27  1  0  0  0  0
  3  4  1  0  0  0  0
  3 28  1  0  0  0  0
  3 29  1  0  0  0  0
  4  5  1  0  0  0  0
  4 20  1  0  0  0  0
  5  6  1  0  0  0  0
  5 30  1  0  0  0  0
  5 31  1  0  0  0  0
  6  7  1  0  0  0  0
  6  8  1  0  0  0  0
  6 32  1  0  0  0  0
  7 33  1  0  0  0  0
  8  9  1  0  0  0  0
  8 34  1  0  0  0  0
  8 35  1  0  0  0  0
  9 19  1  0  0  0  0
  9 10  1  0  0  0  0
 10 11  1  0  0  0  0
 10 13  2  0  0  0  0
 11 12  1  0  0  0  0
 11 36  1  0  0  0  0
 11 37  1  0  0  0  0
 12 38  1  0  0  0  0
 13 14  1  0  0  0  0
 13 49  1  0  0  0  0
 14 19  2  0  0  0  0
 14 15  1  0  0  0  0
 15 16  2  0  0  0  0
 15 39  1  0  0  0  0
 16 17  1  0  0  0  0
 16 40  1  0  0  0  0
 17 18  2  0  0  0  0
 17 41  1  0  0  0  0
 18 19  1  0  0  0  0
 18 42  1  0  0  0  0
 20 21  1  0  0  0  0
 20 43  1  0  0  0  0
 20 44  1  0  0  0  0
 21 22  1  0  0  0  0
 21 23  1  0  0  0  0
 21 45  1  0  0  0  0
 22 46  1  0  0  0  0
 22 47  1  0  0  0  0
 22 48  1  0  0  0  0
M  CHG  1  13   1
M  END
> <s_m_source_file>
AV-unprocessed.smi

> <i_m_source_file_index>
1703

> <i_lp_mmshare_version>
43012

> <i_f3d_flags>
0

> <s_epik_input>
W0NIM11bQ0BASF0xW0NIMl1OKFtDSDJdW0NASF0oTzEpW0NIM10pW0NIMl1bQ0BIXShbT0hdKVtDSDJdbihjKG4yKVtDSDJdW09IXSljKGMyMylbY0hdW2NIXVtjSF1bY0hdMw==

> <s_epik_cmdline>
J2VwaWtfcHl0aG9uJywgJy1waCcsICc3LjAnLCAnLXRuJywgJzgnLCAnLW1hJywgJzIwMCcsICctbWV0YWxfYmluZGluZycsICctaW1hZScsICc8aW5maWxlLm1hZT4nLCAnLW9tYWUnLCAnPG91dGZpbGUubWFlPic=

> <r_epik_Ionization_Penalty>
1.7682

> <r_epik_Ionization_Penalty_Charging>
1.55298

> <r_epik_Ionization_Penalty_Neutral>
0.215215

> <r_epik_State_Penalty>
1.83821

> <r_epik_Charging_Adjusted_Penalty>
3.39119

> <i_epik_Tot_Q>
1

> <i_epik_Tot_abs_Q>
1

> <r_epik_Metal_State_Penalty>
5.89206

> <b_epik_Metal_Only>
0

> <s_lp_Force_Field>
OPLS_2005

> <r_lp_Energy>
30.4523

> <b_lp_Chiralities_Consistent>
1

> <s_lp_Variant>
AV-unprocessed.smi:1703-16

> <Gold.Version>
5.8.1

> <Gold.Id.Protein>
6NUR|6NUR_protein|mol2

> <Gold.PLP.Fitness>
49.7002

> <Gold.PLP.PLP>
-36.7546

> <Gold.PLP.part.hbond>
-4.0000

> <Gold.PLP.part.metal>
0.0000

> <Gold.PLP.part.buried>
-0.7989

> <Gold.PLP.part.nonpolar>
-30.6167

> <Gold.PLP.part.repulsive>
0.1320

> <Gold.PLP.ligand.clash>
0.0000

> <Gold.PLP.ligand.torsion>
1.0517

> <Gold.PLP.Chemscore.Hbond>
4.9920

> <Gold.PLP.Chemscore.CHOScore>
0.0000

> <Gold.PLP.Chemscore.Metal>
0.0000

> <Gold.Chemscore.Hbonds>
donor molecule, donor type, donor heavy atom, donor atom, acceptor molecule, acceptor atom, score
      L1  H     7    33       P1  7948  1.00
      L1  H    12    38       P1 10957  1.00
      L1  H    13    49       P1 10186  1.24
      P1  H 11000 11005       L1    12  0.55

> <Gold.PLP.Chemscore.Internal.Correction>
0.0731

> <Gold.Rescore>
     Score         DG    S(hbond)    S(metal)    S(lipo)     H(rot)  DE(clash)    DE(int)     intcor
     17.73     -21.36       3.40        0.00     103.32       2.96       1.64       1.99       ----

> <Gold.Chemscore.Fitness>
17.7282

> <Gold.Chemscore.DG>
-21.3609

> <Gold.Chemscore.ZeroCoef>
-5.4800

> <Gold.Chemscore.Hbond>
3.4007

> <Gold.Chemscore.Metal>
0.0000

> <Gold.Chemscore.Lipo>
103.3201

> <Gold.Chemscore.Internal_Hbond>
0.0000

> <Gold.Chemscore.DEClash>
1.6403

> <Gold.Chemscore.DEInternal>
1.9925

> <Gold.Chemscore.Rot>
2.9555

> <Gold.Chemscore.Internal.Correction>
   9.000000E+99

> <Gold.Chemscore.Hbonds>
donor molecule, donor type, donor heavy atom, donor atom, acceptor molecule, acceptor atom, score
      L1  H     7    33       P1  7948  1.00
      L1  H    12    38       P1 10957  0.93
      L1  H    13    49       P1 10186  0.31
      P1  H 11000 11005       L1    12  0.03

> <Gold.Chemscore.Hbond.Weighted>
-11.3585

> <Gold.Chemscore.Metal.Weighted>
-0.0000

> <Gold.Chemscore.Lipo.Weighted>
-12.0884

> <Gold.Chemscore.Internal_Hbond.Weighted>
0.0000

> <Gold.Chemscore.DEClash.Weighted>
1.6403

> <Gold.Chemscore.DEInternal.Weighted>
1.9925

> <Gold.Chemscore.Rot.Weighted>
7.5660

> <Gold.Chemscore.Internal.Correction.Weighted>
   9.000000E+99

> <Gold.Protein.RotatedTorsions>
[ 6907 6896 6895 6894 ] final  -80.70 input  -60.11 | X-H torsion
[ 7974 7965 7964 7962 ] final -165.66 input  175.53 | X-H torsion
[ 8008 7997 7996 7995 ] final  -29.70 input   59.86 | X-H torsion
[ 10167 10162 10161 10158 ] final   67.02 input  -65.29 | X-H torsion
[ 10718 10713 10712 10709 ] final  -39.44 input   66.30 | X-H torsion
[ 10763 10752 10751 10750 ] final -141.56 input  -60.55 | X-H torsion
[ 11005 11000 10999 10996 ] final    7.35 input  -57.11 | X-H torsion

> <Gold.Protein.ActiveResidues>
 VAL166  LYS551  ARG553  GLY616  TRP617  ASP618  TYR619  PRO620  LYS621  CYS622 
 ASP623  PHE694  ASN695  SER759  ASP760  ASP761  ALA762  ILE779  LEU786  VAL792 
 PHE793  MET794  SER795  GLU796  ALA797  LYS798  CYS799  TRP800  GLU811  SER814 

> <Gold.Protein.RotatedAtoms>
  150.6924  134.3929  159.5084 H   0  0  0  0  0  0  0  0  0  0  0  0  # atno 6907 bound_to 6896
  152.1714  134.8828  160.0543 H   0  0  0  0  0  0  0  0  0  0  0  0  # atno 6908 bound_to 6896
  151.9852  133.3737  159.4160 H   0  0  0  0  0  0  0  0  0  0  0  0  # atno 6909 bound_to 6896
  144.7264  140.2781  143.6240 H   0  0  0  0  0  0  0  0  0  0  0  0  # atno 7974 bound_to 7965
  154.4279  140.1811  156.1289 H   0  0  0  0  0  0  0  0  0  0  0  0  # atno 8008 bound_to 7997
  156.0084  140.3353  155.6890 H   0  0  0  0  0  0  0  0  0  0  0  0  # atno 8009 bound_to 7997
  155.6146  140.0653  157.2687 H   0  0  0  0  0  0  0  0  0  0  0  0  # atno 8010 bound_to 7997
  140.0941  144.4962  150.7080 H   0  0  0  0  0  0  0  0  0  0  0  0  # atno 10167 bound_to 10162
  156.2924  130.4230  149.8225 H   0  0  0  0  0  0  0  0  0  0  0  0  # atno 10718 bound_to 10713
  154.8541  135.3521  154.5888 H   0  0  0  0  0  0  0  0  0  0  0  0  # atno 10763 bound_to 10752
  153.6498  135.6994  153.5217 H   0  0  0  0  0  0  0  0  0  0  0  0  # atno 10764 bound_to 10752
  153.2903  135.4236  155.1119 H   0  0  0  0  0  0  0  0  0  0  0  0  # atno 10765 bound_to 10752
  140.5492  134.0299  155.7931 H   0  0  0  0  0  0  0  0  0  0  0  0  # atno 11005 bound_to 11000
  145.7977  139.1952  143.2066 LP  0  0  0  0  0  0  0  0  0  0  0  0  # atno 17320 bound_to 7965
  146.0703  140.7876  142.9691 LP  0  0  0  0  0  0  0  0  0  0  0  0  # atno 17321 bound_to 7965
  140.7013  143.2437  151.4856 LP  0  0  0  0  0  0  0  0  0  0  0  0  # atno 17342 bound_to 10162
  139.5708  144.1933  152.1833 LP  0  0  0  0  0  0  0  0  0  0  0  0  # atno 17343 bound_to 10162
  156.5633  130.8393  151.3335 LP  0  0  0  0  0  0  0  0  0  0  0  0  # atno 17370 bound_to 10713
  157.7346  130.9749  150.2038 LP  0  0  0  0  0  0  0  0  0  0  0  0  # atno 17371 bound_to 10713
  141.1181  133.9506  157.2782 LP  0  0  0  0  0  0  0  0  0  0  0  0  # atno 17394 bound_to 11000
  139.9464  135.0183  156.8864 LP  0  0  0  0  0  0  0  0  0  0  0  0  # atno 17395 bound_to 11000

$$$$
