#       Name:                AV-unprocessed.smi:54
#       Creating user name   scv26
#       Creation time:       Thu Mar 26 16:46:00 2020


#       File generated by GOLD software.
#

@<TRIPOS>MOLECULE
AV-unprocessed.smi:54
    58    60     1
SMALL
NO_CHARGES


@<TRIPOS>ATOM
      1 ****        -1.9469   5.6886   1.0256 C.3            1 S1                 0.0000
      2 ****        -1.7398   4.8053  -0.2157 C.3            1 S1                 0.0000
      3 ****        -2.2738   5.4925  -1.4836 C.3            1 S1                 0.0000
      4 ****        -2.3983   3.4319  -0.0203 C.2            1 S1                 0.0000
      5 ****        -3.6214   3.3698   0.1209 O.2            1 S1                 0.0000
      6 ****        -1.5472   2.3814  -0.0121 N.am           1 S1                 0.0000
      7 ****        -1.8144   1.0170   0.1598 C.2            1 S1                 0.0000
      8 ****        -0.7281   0.3017   0.3264 N.2            1 S1                 0.0000
      9 ****        -0.9972  -1.0443   0.4876 C.2            1 S1                 0.0000
     10 ****        -2.2177  -1.6609   0.4894 C.2            1 S1                 0.0000
     11 ****        -2.0941  -3.0304   0.6896 N.2            1 S1                 0.0000
     12 ****        -0.7747  -3.1783   0.8005 C.2            1 S1                 0.0000
     13 ****        -0.0511  -2.0453   0.6774 N.pl3          1 S1                 0.0000
     14 ****         1.4355  -1.8691   0.7625 C.3            1 S1                 0.0000
     15 ****         2.0142  -3.1084   1.0472 O.3            1 S1                 0.0000
     16 ****         2.4277  -3.7281  -0.1659 C.3            1 S1                 0.0000
     17 ****         3.4213  -4.8722   0.1005 C.3            1 S1                 0.0000
     18 ****         2.7200  -6.0456   0.4523 O.3            1 S1                 0.0000
     19 ****         2.9815  -2.5340  -0.9524 C.3            1 S1                 0.0000
     20 ****         4.3039  -2.2341  -0.5350 O.3            1 S1                 0.0000
     21 ****         1.9888  -1.4240  -0.6052 C.3            1 S1                 0.0000
     22 ****         2.5866  -0.1414  -0.5764 O.3            1 S1                 0.0000
     23 ****        -3.4040  -0.7959   0.2904 C.2            1 S1                 0.0000
     24 ****        -4.5230  -1.3055   0.2846 O.2            1 S1                 0.0000
     25 ****        -3.1382   0.5344   0.1245 N.pl3          1 S1                -1.0000
     26 ****         1.5856  -1.1591   1.5768 H              1 S1                 0.0000
     27 ****         1.5518  -4.1096  -0.6944 H              1 S1                 0.0000
     28 ****         3.0015  -2.7311  -2.0247 H              1 S1                 0.0000
     29 ****         1.1828  -1.4196  -1.3413 H              1 S1                 0.0000
     30 ****        -1.5739   5.1997   1.9264 H              1 S1                 0.0000
     31 ****        -3.0014   5.9186   1.1838 H              1 S1                 0.0000
     32 ****        -1.4148   6.6346   0.9233 H              1 S1                 0.0000
     33 ****        -0.6661   4.6579  -0.3447 H              1 S1                 0.0000
     34 ****        -2.1372   4.8626  -2.3635 H              1 S1                 0.0000
     35 ****        -1.7488   6.4300  -1.6683 H              1 S1                 0.0000
     36 ****        -3.3370   5.7215  -1.3995 H              1 S1                 0.0000
     37 ****        -0.5740   2.6305  -0.1063 H              1 S1                 0.0000
     38 ****        -0.3251  -4.1445   0.9752 H              1 S1                 0.0000
     39 ****         3.9933  -5.0902  -0.8018 H              1 S1                 0.0000
     40 ****         4.1334  -4.6102   0.8836 H              1 S1                 0.0000
     41 ****         2.2414  -5.8780   1.2498 H              1 S1                 0.0000
     42 ****         4.5524  -1.4049  -0.9145 H              1 S1                 0.0000
     43 ****         1.9254   0.4880  -0.3309 H              1 S1                 0.0000
     44 ****        -4.1694   4.2061   0.1071 LP             1 S1                 0.0000
     45 ****        -4.0655   2.4830   0.2491 LP             1 S1                 0.0000
     46 ****         0.1943   0.6879   0.3358 LP             1 S1                 0.0000
     47 ****        -2.8109  -3.7260   0.7379 LP             1 S1                 0.0000
     48 ****         1.3448  -3.6911   1.5080 LP             1 S1                 0.0000
     49 ****         2.8074  -2.9774   1.6419 LP             1 S1                 0.0000
     50 ****         3.3661  -6.7950   0.5969 LP             1 S1                 0.0000
     51 ****         2.0834  -6.2909  -0.2788 LP             1 S1                 0.0000
     52 ****         4.9282  -2.9501  -0.8476 LP             1 S1                 0.0000
     53 ****         4.3386  -2.1738   0.4625 LP             1 S1                 0.0000
     54 ****         2.9486   0.0835  -1.4811 LP             1 S1                 0.0000
     55 ****         3.3300  -0.1296   0.0924 LP             1 S1                 0.0000
     56 ****        -4.6238  -2.2921   0.4131 LP             1 S1                 0.0000
     57 ****        -5.3322  -0.7334   0.1513 LP             1 S1                 0.0000
     58 ****        -3.8927   1.1736  -0.0239 LP             1 S1                 0.0000
@<TRIPOS>BOND
    1    1    2 1     
    2    1   30 1     
    3    1   31 1     
    4    1   32 1     
    5    2    3 1     
    6    2    4 1     
    7    2   33 1     
    8    3   34 1     
    9    3   35 1     
   10    3   36 1     
   11    4    5 2     
   12    4    6 am    
   13    6   37 1     
   14    6    7 1     
   15    7   25 1     
   16    7    8 2     
   17    8    9 1     
   18    9   13 1     
   19    9   10 2     
   20   10   11 1     
   21   10   23 1     
   22   11   12 2     
   23   12   13 1     
   24   12   38 1     
   25   13   14 1     
   26   14   26 1     
   27   14   21 1     
   28   14   15 1     
   29   15   16 1     
   30   16   27 1     
   31   16   17 1     
   32   16   19 1     
   33   17   18 1     
   34   17   39 1     
   35   17   40 1     
   36   18   41 1     
   37   19   28 1     
   38   19   20 1     
   39   19   21 1     
   40   20   42 1     
   41   21   29 1     
   42   21   22 1     
   43   22   43 1     
   44   23   24 2     
   45   23   25 1     
   46    5   44 1     
   47    5   45 1     
   48    8   46 1     
   49   11   47 1     
   50   15   48 1     
   51   15   49 1     
   52   18   50 1     
   53   18   51 1     
   54   20   52 1     
   55   20   53 1     
   56   22   54 1     
   57   22   55 1     
   58   24   56 1     
   59   24   57 1     
   60   25   58 1     
@<TRIPOS>SUBSTRUCTURE
      1 S1             1
@<TRIPOS>SET
LONE_PAIRS      STATIC     ATOMS    <user>   **** ""
15 44 45 46 47 48 49 50 51 52 53 54 55 56 57 58
DONOR_HYDROGENS      STATIC     ATOMS    <user>   **** ""
4 37 41 42 43
ATOM$BLUE        STATIC     ATOMS    COLORGROUP SYSTEM
15 44 45 46 47 48 49 50 51 52 53 54 55 56 57 58
ATOM$RED        STATIC     ATOMS    COLORGROUP SYSTEM
4 37 41 42 43
