AV-unprocessed.smi:1679|AV-procd|sdf|6733|dock8
  -GOLD-   22720 7483D 1   1.00000     0.00000
 Structure written by MMmdl.
 44 45  0  0  0  0  0  0  0  0  2 V2000
  152.7735  142.7313  162.4957 C   0  0  0  0  0  0  0  0  0  0  0  0
  152.6878  143.4882  161.1605 C   0  0  2  0  0  0  0  0  0  0  0  0
  151.4047  144.3420  161.0988 C   0  0  0  0  0  0  0  0  0  0  0  0
  151.2902  145.1058  159.7703 C   0  0  0  0  0  0  0  0  0  0  0  0
  151.3544  144.1449  158.5755 C   0  0  0  0  0  0  0  0  0  0  0  0
  152.6340  143.2995  158.6238 C   0  0  0  0  0  0  0  0  0  0  0  0
  152.7626  142.5268  159.9531 C   0  0  1  0  0  0  0  0  0  0  0  0
  154.0306  141.8864  159.9749 O   0  0  0  0  0  0  0  0  0  0  0  0
  154.0705  140.6836  160.7290 C   0  0  0  0  0  0  0  0  0  0  0  0
  153.8302  139.5072  159.7786 C   0  0  0  0  0  0  0  0  0  0  0  0
  154.7131  138.4074  160.1372 N   0  0  0  0  0  0  0  0  0  0  0  0
  154.3364  137.1364  160.3420 C   0  0  0  0  0  0  0  0  0  0  0  0
  153.1668  136.7656  160.2484 O   0  0  0  0  0  0  0  0  0  0  0  0
  155.4266  136.1094  160.6954 C   0  0  0  0  0  0  0  0  0  0  0  0
  155.1638  135.3239  161.9162 N   0  0  0  0  0  0  0  0  0  0  0  0
  154.8392  136.0323  163.0868 C   0  0  0  0  0  0  0  0  0  0  0  0
  154.5713  135.4039  164.2473 C   0  0  0  0  0  0  0  0  0  0  0  0
  154.6271  133.9477  164.2725 C   0  0  0  0  0  0  0  0  0  0  0  0
  154.3804  133.3565  165.3218 O   0  0  0  0  0  0  0  0  0  0  0  0
  154.9484  133.3052  163.1116 N   0  5  0  0  0  0  0  0  0  0  0  0
  155.2078  133.9571  161.9357 C   0  0  0  0  0  0  0  0  0  0  0  0
  155.4736  133.3564  160.8946 O   0  0  0  0  0  0  0  0  0  0  0  0
  151.9500  142.0251  162.6046 H   0  0  0  0  0  0  0  0  0  0  0  0
  152.7358  143.4202  163.3400 H   0  0  0  0  0  0  0  0  0  0  0  0
  153.7052  142.1702  162.5740 H   0  0  0  0  0  0  0  0  0  0  0  0
  153.5415  144.1658  161.1070 H   0  0  0  0  0  0  0  0  0  0  0  0
  150.5303  143.7018  161.2244 H   0  0  0  0  0  0  0  0  0  0  0  0
  151.3887  145.0511  161.9273 H   0  0  0  0  0  0  0  0  0  0  0  0
  150.3582  145.6707  159.7435 H   0  0  0  0  0  0  0  0  0  0  0  0
  152.0976  145.8357  159.6956 H   0  0  0  0  0  0  0  0  0  0  0  0
  150.4815  143.4911  158.5794 H   0  0  0  0  0  0  0  0  0  0  0  0
  151.3178  144.7087  157.6426 H   0  0  0  0  0  0  0  0  0  0  0  0
  152.6518  142.6184  157.7732 H   0  0  0  0  0  0  0  0  0  0  0  0
  153.4986  143.9531  158.5093 H   0  0  0  0  0  0  0  0  0  0  0  0
  151.9605  141.7906  160.0392 H   0  0  0  0  0  0  0  0  0  0  0  0
  155.0445  140.5987  161.2121 H   0  0  0  0  0  0  0  0  0  0  0  0
  153.3184  140.6707  161.5193 H   0  0  0  0  0  0  0  0  0  0  0  0
  152.7912  139.1789  159.8273 H   0  0  0  0  0  0  0  0  0  0  0  0
  154.0279  139.8168  158.7513 H   0  0  0  0  0  0  0  0  0  0  0  0
  155.6923  138.6298  160.2496 H   0  0  0  0  0  0  0  0  0  0  0  0
  155.5718  135.4498  159.8385 H   0  0  0  0  0  0  0  0  0  0  0  0
  156.3717  136.6442  160.8000 H   0  0  0  0  0  0  0  0  0  0  0  0
  154.8141  137.1069  162.9801 H   0  0  0  0  0  0  0  0  0  0  0  0
  154.3192  135.9632  165.1363 H   0  0  0  0  0  0  0  0  0  0  0  0
  1  2  1  0  0  0  0
  1 23  1  0  0  0  0
  1 24  1  0  0  0  0
  1 25  1  0  0  0  0
  2  7  1  0  0  0  0
  2  3  1  0  0  0  0
  2 26  1  0  0  0  0
  3  4  1  0  0  0  0
  3 27  1  0  0  0  0
  3 28  1  0  0  0  0
  4  5  1  0  0  0  0
  4 29  1  0  0  0  0
  4 30  1  0  0  0  0
  5  6  1  0  0  0  0
  5 31  1  0  0  0  0
  5 32  1  0  0  0  0
  6  7  1  0  0  0  0
  6 33  1  0  0  0  0
  6 34  1  0  0  0  0
  7  8  1  0  0  0  0
  7 35  1  0  0  0  0
  8  9  1  0  0  0  0
  9 10  1  0  0  0  0
  9 36  1  0  0  0  0
  9 37  1  0  0  0  0
 10 11  1  0  0  0  0
 10 38  1  0  0  0  0
 10 39  1  0  0  0  0
 11 12  1  0  0  0  0
 11 40  1  0  0  0  0
 12 13  2  0  0  0  0
 12 14  1  0  0  0  0
 14 15  1  0  0  0  0
 14 41  1  0  0  0  0
 14 42  1  0  0  0  0
 15 21  1  0  0  0  0
 15 16  1  0  0  0  0
 16 17  2  0  0  0  0
 16 43  1  0  0  0  0
 17 18  1  0  0  0  0
 17 44  1  0  0  0  0
 18 19  2  0  0  0  0
 18 20  1  0  0  0  0
 20 21  1  0  0  0  0
 21 22  2  0  0  0  0
M  CHG  1  20  -1
M  END
> <s_m_source_file>
AV-unprocessed.smi

> <i_m_source_file_index>
1679

> <i_lp_mmshare_version>
43012

> <i_f3d_flags>
0

> <s_epik_input>
W0NIM11bQ0BASF0xW0NIMl1bQ0gyXVtDSDJdW0NIMl1bQ0BIXTFPW0NIMl1bQ0gyXVtOSF1DKD1PKVtDSDJdbjJbY0hdW2NIXWMoPU8pW25IXWMyPU8=

> <s_epik_cmdline>
J2VwaWtfcHl0aG9uJywgJy1waCcsICc3LjAnLCAnLXRuJywgJzgnLCAnLW1hJywgJzIwMCcsICctbWV0YWxfYmluZGluZycsICctaW1hZScsICc8aW5maWxlLm1hZT4nLCAnLW9tYWUnLCAnPG91dGZpbGUubWFlPic=

> <r_lp_tautomer_probability>
0.999537

> <r_epik_Ionization_Penalty>
3.07454

> <r_epik_Ionization_Penalty_Charging>
2.80088e-08

> <r_epik_Ionization_Penalty_Neutral>
3.07454

> <r_epik_State_Penalty>
3.07357

> <r_epik_Charging_Adjusted_Penalty>
3.07357

> <i_epik_Tot_Q>
-1

> <i_epik_Tot_abs_Q>
1

> <r_epik_Metal_State_Penalty>
0.45948

> <b_epik_Metal_Only>
1

> <s_lp_Force_Field>
OPLS_2005

> <r_lp_Energy>
18.3585

> <b_lp_Chiralities_Consistent>
1

> <s_lp_Variant>
AV-unprocessed.smi:1679-5

> <Gold.Version>
5.8.1

> <Gold.Id.Protein>
6NUR|6NUR_protein|mol2

> <Gold.PLP.Fitness>
47.5850

> <Gold.PLP.PLP>
-46.5666

> <Gold.PLP.part.hbond>
-1.0000

> <Gold.PLP.part.metal>
0.0000

> <Gold.PLP.part.buried>
-6.6060

> <Gold.PLP.part.nonpolar>
-38.2966

> <Gold.PLP.part.repulsive>
0.1334

> <Gold.PLP.ligand.clash>
0.0201

> <Gold.PLP.ligand.torsion>
1.0191

> <Gold.PLP.Chemscore.Hbond>
1.0000

> <Gold.PLP.Chemscore.CHOScore>
0.0000

> <Gold.PLP.Chemscore.Metal>
0.0000

> <Gold.Chemscore.Hbonds>
donor molecule, donor type, donor heavy atom, donor atom, acceptor molecule, acceptor atom, score
      P1  H  6896  6909       L1    13  0.94

> <Gold.PLP.Chemscore.Internal.Correction>
0.0767

> <Gold.Rescore>
     Score         DG    S(hbond)    S(metal)    S(lipo)     H(rot)  DE(clash)    DE(int)     intcor
     14.43     -16.59       0.99        0.00     120.39       2.45       0.01       2.15       ----

> <Gold.Chemscore.Fitness>
14.4338

> <Gold.Chemscore.DG>
-16.5902

> <Gold.Chemscore.ZeroCoef>
-5.4800

> <Gold.Chemscore.Hbond>
0.9863

> <Gold.Chemscore.Metal>
0.0000

> <Gold.Chemscore.Lipo>
120.3865

> <Gold.Chemscore.Internal_Hbond>
0.0000

> <Gold.Chemscore.DEClash>
0.0102

> <Gold.Chemscore.DEInternal>
2.1462

> <Gold.Chemscore.Rot>
2.4490

> <Gold.Chemscore.Internal.Correction>
   9.000000E+99

> <Gold.Chemscore.Hbonds>
donor molecule, donor type, donor heavy atom, donor atom, acceptor molecule, acceptor atom, score
      P1  H  6896  6909       L1    13  0.90

> <Gold.Chemscore.Hbond.Weighted>
-3.2944

> <Gold.Chemscore.Metal.Weighted>
-0.0000

> <Gold.Chemscore.Lipo.Weighted>
-14.0852

> <Gold.Chemscore.Internal_Hbond.Weighted>
0.0000

> <Gold.Chemscore.DEClash.Weighted>
0.0102

> <Gold.Chemscore.DEInternal.Weighted>
2.1462

> <Gold.Chemscore.Rot.Weighted>
6.2694

> <Gold.Chemscore.Internal.Correction.Weighted>
   9.000000E+99

> <Gold.Protein.RotatedTorsions>
[ 6907 6896 6895 6894 ] final  151.23 input  -60.11 | X-H torsion
[ 7974 7965 7964 7962 ] final    6.81 input  175.53 | X-H torsion
[ 8008 7997 7996 7995 ] final  -49.41 input   59.86 | X-H torsion
[ 10167 10162 10161 10158 ] final   82.87 input  -65.29 | X-H torsion
[ 10718 10713 10712 10709 ] final -142.71 input   66.30 | X-H torsion
[ 10763 10752 10751 10750 ] final  -85.07 input  -60.55 | X-H torsion
[ 11005 11000 10999 10996 ] final  -51.61 input  -57.11 | X-H torsion

> <Gold.Protein.ActiveResidues>
 VAL166  LYS551  ARG553  GLY616  TRP617  ASP618  TYR619  PRO620  LYS621  CYS622 
 ASP623  PHE694  ASN695  SER759  ASP760  ASP761  ALA762  ILE779  LEU786  VAL792 
 PHE793  MET794  SER795  GLU796  ALA797  LYS798  CYS799  TRP800  GLU811  SER814 

> <Gold.Protein.RotatedAtoms>
  152.1035  133.4262  159.4597 H   0  0  0  0  0  0  0  0  0  0  0  0  # atno 6907 bound_to 6896
  150.6865  134.2733  159.4606 H   0  0  0  0  0  0  0  0  0  0  0  0  # atno 6908 bound_to 6896
  152.0595  134.9603  160.0625 H   0  0  0  0  0  0  0  0  0  0  0  0  # atno 6909 bound_to 6896
  146.2432  140.0177  142.8401 H   0  0  0  0  0  0  0  0  0  0  0  0  # atno 7974 bound_to 7965
  154.4044  140.1297  156.4498 H   0  0  0  0  0  0  0  0  0  0  0  0  # atno 8008 bound_to 7997
  155.7377  140.3490  155.5069 H   0  0  0  0  0  0  0  0  0  0  0  0  # atno 8009 bound_to 7997
  155.9068  140.1029  157.1299 H   0  0  0  0  0  0  0  0  0  0  0  0  # atno 8010 bound_to 7997
  139.9243  144.6193  150.8408 H   0  0  0  0  0  0  0  0  0  0  0  0  # atno 10167 bound_to 10162
  156.3492  130.7679  151.1828 H   0  0  0  0  0  0  0  0  0  0  0  0  # atno 10718 bound_to 10713
  154.6068  135.5498  153.7432 H   0  0  0  0  0  0  0  0  0  0  0  0  # atno 10763 bound_to 10752
  153.0178  135.6380  154.1635 H   0  0  0  0  0  0  0  0  0  0  0  0  # atno 10764 bound_to 10752
  154.1574  135.2899  155.3098 H   0  0  0  0  0  0  0  0  0  0  0  0  # atno 10765 bound_to 10752
  141.0880  133.6638  156.3903 H   0  0  0  0  0  0  0  0  0  0  0  0  # atno 11005 bound_to 11000
  145.1269  140.9495  143.4567 LP  0  0  0  0  0  0  0  0  0  0  0  0  # atno 17320 bound_to 7965
  145.0426  139.3248  143.5969 LP  0  0  0  0  0  0  0  0  0  0  0  0  # atno 17321 bound_to 7965
  140.7654  143.3275  151.2484 LP  0  0  0  0  0  0  0  0  0  0  0  0  # atno 17342 bound_to 10162
  139.6835  143.9813  152.2821 LP  0  0  0  0  0  0  0  0  0  0  0  0  # atno 17343 bound_to 10162
  157.7458  131.0432  150.4734 LP  0  0  0  0  0  0  0  0  0  0  0  0  # atno 17370 bound_to 10713
  156.4926  130.4099  149.6398 LP  0  0  0  0  0  0  0  0  0  0  0  0  # atno 17371 bound_to 10713
  140.5317  134.6206  157.5352 LP  0  0  0  0  0  0  0  0  0  0  0  0  # atno 17394 bound_to 11000
  139.9701  134.7306  156.0058 LP  0  0  0  0  0  0  0  0  0  0  0  0  # atno 17395 bound_to 11000

$$$$
