#       Name:                AV-unprocessed.smi:3031
#       Creating user name   scv26
#       Creation time:       Fri Mar 27 16:52:13 2020


#       File generated by GOLD software.
#

@<TRIPOS>MOLECULE
AV-unprocessed.smi:3031
    53    54     1
SMALL
NO_CHARGES


@<TRIPOS>ATOM
      1 ****        -4.2024   0.2221  -4.0531 C.3            1 S1                 0.0000
      2 ****        -3.3797  -0.7057  -3.2067 C.2            1 S1                 0.0000
      3 ****        -2.5346  -1.7659  -3.6406 C.2            1 S1                 0.0000
      4 ****        -1.9553  -2.4048  -2.6377 N.2            1 S1                 0.0000
      5 ****        -2.3921  -1.7663  -1.5310 N.pl3          1 S1                 0.0000
      6 ****        -1.9728  -2.2274  -0.2176 C.3            1 S1                 0.0000
      7 ****        -1.3448  -1.1197   0.6636 C.3            1 S1                 0.0000
      8 ****        -1.4614  -1.4855   2.1500 C.3            1 S1                 0.0000
      9 ****         0.0681  -0.8729   0.3571 N.3            1 S1                 0.0000
     10 ****         0.3563  -0.2835  -0.9494 C.3            1 S1                 0.0000
     11 ****         1.8346   0.1336  -1.0638 C.3            1 S1                 0.0000
     12 ****         2.0824   0.4183  -2.4243 O.3            1 S1                 0.0000
     13 ****         2.1891   1.4117  -0.2694 C.3            1 S1                 0.0000
     14 ****         2.0951   1.3071   1.1877 N.3            1 S1                 0.0000
     15 ****         2.2292   2.6133   1.8219 C.3            1 S1                 0.0000
     16 ****         2.1094   2.5206   3.3529 C.3            1 S1                 0.0000
     17 ****         3.0855   1.6126   3.8533 O.3            1 S1                 0.0000
     18 ****         2.9654   0.3107   3.2892 C.3            1 S1                 0.0000
     19 ****         3.0864   0.3973   1.7577 C.3            1 S1                 0.0000
     20 ****        -3.2671  -0.7473  -1.8459 C.2            1 S1                 0.0000
     21 ****        -3.7582   0.3722  -5.0372 H              1 S1                 0.0000
     22 ****        -4.3038   1.2057  -3.5942 H              1 S1                 0.0000
     23 ****        -5.2089  -0.1657  -4.2106 H              1 S1                 0.0000
     24 ****        -2.3312  -2.0922  -4.6498 H              1 S1                 0.0000
     25 ****        -2.8649  -2.6243   0.2688 H              1 S1                 0.0000
     26 ****        -1.2858  -3.0691  -0.3231 H              1 S1                 0.0000
     27 ****        -1.9051  -0.1943   0.5273 H              1 S1                 0.0000
     28 ****        -2.5038  -1.6150   2.4427 H              1 S1                 0.0000
     29 ****        -1.0408  -0.7027   2.7824 H              1 S1                 0.0000
     30 ****        -0.9345  -2.4139   2.3739 H              1 S1                 0.0000
     31 ****         0.4696  -0.2829   1.0800 H              1 S1                 0.0000
     32 ****         0.1369  -1.0087  -1.7311 H              1 S1                 0.0000
     33 ****        -0.2856   0.5799  -1.1290 H              1 S1                 0.0000
     34 ****         2.4861  -0.6973  -0.7930 H              1 S1                 0.0000
     35 ****         1.8953  -0.3575  -2.9306 H              1 S1                 0.0000
     36 ****         3.1980   1.7304  -0.5373 H              1 S1                 0.0000
     37 ****         1.5283   2.2106  -0.6096 H              1 S1                 0.0000
     38 ****         3.1926   3.0544   1.5612 H              1 S1                 0.0000
     39 ****         1.4630   3.2900   1.4416 H              1 S1                 0.0000
     40 ****         2.2665   3.4993   3.8063 H              1 S1                 0.0000
     41 ****         1.1111   2.1883   3.6427 H              1 S1                 0.0000
     42 ****         3.7479  -0.3292   3.6971 H              1 S1                 0.0000
     43 ****         2.0089  -0.1302   3.5754 H              1 S1                 0.0000
     44 ****         2.9670  -0.6034   1.3447 H              1 S1                 0.0000
     45 ****         4.0912   0.7289   1.4914 H              1 S1                 0.0000
     46 ****        -3.7331  -0.1406  -1.0833 H              1 S1                 0.0000
     47 ****        -1.3330  -3.1860  -2.6879 LP             1 S1                 0.0000
     48 ****         0.4819  -1.7828   0.3270 LP             1 S1                 0.0000
     49 ****         3.0405   0.6779  -2.5459 LP             1 S1                 0.0000
     50 ****         1.4931   1.1681  -2.7252 LP             1 S1                 0.0000
     51 ****         1.1869   0.9320   1.3731 LP             1 S1                 0.0000
     52 ****         2.9787   1.5426   4.8451 LP             1 S1                 0.0000
     53 ****         3.9946   1.9708   3.6405 LP             1 S1                 0.0000
@<TRIPOS>BOND
    1    1    2 1     
    2    1   21 1     
    3    1   22 1     
    4    1   23 1     
    5    2   20 2     
    6    2    3 1     
    7    3    4 2     
    8    3   24 1     
    9    4    5 1     
   10    5    6 1     
   11    5   20 1     
   12    6    7 1     
   13    6   25 1     
   14    6   26 1     
   15    7    8 1     
   16    7    9 1     
   17    7   27 1     
   18    8   28 1     
   19    8   29 1     
   20    8   30 1     
   21    9   10 1     
   22    9   31 1     
   23   10   11 1     
   24   10   32 1     
   25   10   33 1     
   26   11   12 1     
   27   11   13 1     
   28   11   34 1     
   29   12   35 1     
   30   13   14 1     
   31   13   36 1     
   32   13   37 1     
   33   14   19 1     
   34   14   15 1     
   35   15   16 1     
   36   15   38 1     
   37   15   39 1     
   38   16   17 1     
   39   16   40 1     
   40   16   41 1     
   41   17   18 1     
   42   18   19 1     
   43   18   42 1     
   44   18   43 1     
   45   19   44 1     
   46   19   45 1     
   47   20   46 1     
   48    4   47 1     
   49    9   48 1     
   50   12   49 1     
   51   12   50 1     
   52   14   51 1     
   53   17   52 1     
   54   17   53 1     
@<TRIPOS>SUBSTRUCTURE
      1 S1             1
@<TRIPOS>SET
LONE_PAIRS      STATIC     ATOMS    <user>   **** ""
7 47 48 49 50 51 52 53
DONOR_HYDROGENS      STATIC     ATOMS    <user>   **** ""
2 31 35
ATOM$BLUE        STATIC     ATOMS    COLORGROUP SYSTEM
7 47 48 49 50 51 52 53
ATOM$RED        STATIC     ATOMS    COLORGROUP SYSTEM
2 31 35
