AV-unprocessed.smi:3029|AV-procd|sdf|11527|dock5
  -GOLD-   2272016473D 1   1.00000     0.00000
 Structure written by MMmdl.
 42 43  0  0  0  0  0  0  0  0  4 V2000
  148.7262  129.1397  152.7746 O   0  0  0  0  0  0  0  0  0  0  0  0
  149.1786  129.7765  153.7259 C   0  0  0  0  0  0  0  0  0  0  0  0
  150.2728  129.2653  154.5575 C   0  0  0  0  0  0  0  0  0  0  0  0
  150.7731  129.9781  155.5860 C   0  0  0  0  0  0  0  0  0  0  0  0
  150.2384  131.2885  155.9017 C   0  0  0  0  0  0  0  0  0  0  0  0
  150.7773  132.0690  156.9937 N   0  3  0  0  0  0  0  0  0  0  0  0
  151.7991  131.6825  157.5534 O   0  0  0  0  0  0  0  0  0  0  0  0
  150.1944  133.0955  157.3271 O   0  5  0  0  0  0  0  0  0  0  0  0
  149.2281  131.7528  155.1400 C   0  0  0  0  0  0  0  0  0  0  0  0
  148.6945  131.0078  154.0708 N   0  0  0  0  0  0  0  0  0  0  0  0
  147.5942  131.6195  153.3134 C   0  0  0  0  0  0  0  0  0  0  0  0
  146.3179  131.7274  154.1632 C   0  0  0  0  0  0  0  0  0  0  0  0
  145.1734  132.1626  153.3366 N   0  3  0  0  0  0  0  0  0  0  0  0
  145.2916  133.5159  152.7417 C   0  0  2  0  0  0  0  0  0  0  0  0
  144.9981  134.6186  153.7839 C   0  0  0  0  0  0  0  0  0  0  0  0
  143.5194  134.6338  154.2083 C   0  0  0  0  0  0  0  0  0  0  0  0
  142.5932  134.7753  152.9915 C   0  0  0  0  0  0  0  0  0  0  0  0
  142.8726  133.6891  151.9401 C   0  0  0  0  0  0  0  0  0  0  0  0
  144.3574  133.6800  151.5129 C   0  0  2  0  0  0  0  0  0  0  0  0
  144.6424  132.6770  150.3714 C   0  0  0  0  0  0  0  0  0  0  0  0
  145.8929  132.7883  149.9225 F   0  0  0  0  0  0  0  0  0  0  0  0
  144.4591  131.4323  150.8107 F   0  0  0  0  0  0  0  0  0  0  0  0
  143.8012  132.8882  149.3595 F   0  0  0  0  0  0  0  0  0  0  0  0
  150.6867  128.2918  154.3392 H   0  0  0  0  0  0  0  0  0  0  0  0
  151.5785  129.5590  156.1712 H   0  0  0  0  0  0  0  0  0  0  0  0
  148.7653  132.7178  155.2898 H   0  0  0  0  0  0  0  0  0  0  0  0
  147.8871  132.6058  152.9478 H   0  0  0  0  0  0  0  0  0  0  0  0
  147.3879  131.0362  152.4144 H   0  0  0  0  0  0  0  0  0  0  0  0
  146.1008  130.7628  154.6213 H   0  0  0  0  0  0  0  0  0  0  0  0
  146.4647  132.4436  154.9726 H   0  0  0  0  0  0  0  0  0  0  0  0
  145.0897  131.5031  152.5756 H   0  0  0  0  0  0  0  0  0  0  0  0
  146.3200  133.6356  152.3979 H   0  0  0  0  0  0  0  0  0  0  0  0
  145.6373  134.5147  154.6602 H   0  0  0  0  0  0  0  0  0  0  0  0
  145.2491  135.5888  153.3530 H   0  0  0  0  0  0  0  0  0  0  0  0
  143.2790  133.7176  154.7487 H   0  0  0  0  0  0  0  0  0  0  0  0
  143.3422  135.4544  154.9040 H   0  0  0  0  0  0  0  0  0  0  0  0
  141.5513  134.7259  153.3094 H   0  0  0  0  0  0  0  0  0  0  0  0
  142.7310  135.7598  152.5426 H   0  0  0  0  0  0  0  0  0  0  0  0
  142.5904  132.7135  152.3371 H   0  0  0  0  0  0  0  0  0  0  0  0
  142.2347  133.8602  151.0725 H   0  0  0  0  0  0  0  0  0  0  0  0
  144.5675  134.6679  151.0990 H   0  0  0  0  0  0  0  0  0  0  0  0
  144.3273  132.1220  153.8870 H   0  0  0  0  0  0  0  0  0  0  0  0
  1  2  2  0  0  0  0
  2 10  1  0  0  0  0
  2  3  1  0  0  0  0
  3  4  2  0  0  0  0
  3 24  1  0  0  0  0
  4  5  1  0  0  0  0
  4 25  1  0  0  0  0
  5  6  1  0  0  0  0
  5  9  2  0  0  0  0
  6  7  2  0  0  0  0
  6  8  1  0  0  0  0
  9 10  1  0  0  0  0
  9 26  1  0  0  0  0
 10 11  1  0  0  0  0
 11 12  1  0  0  0  0
 11 27  1  0  0  0  0
 11 28  1  0  0  0  0
 12 13  1  0  0  0  0
 12 29  1  0  0  0  0
 12 30  1  0  0  0  0
 13 14  1  0  0  0  0
 13 31  1  0  0  0  0
 13 42  1  0  0  0  0
 14 19  1  0  0  0  0
 14 15  1  0  0  0  0
 14 32  1  0  0  0  0
 15 16  1  0  0  0  0
 15 33  1  0  0  0  0
 15 34  1  0  0  0  0
 16 17  1  0  0  0  0
 16 35  1  0  0  0  0
 16 36  1  0  0  0  0
 17 18  1  0  0  0  0
 17 37  1  0  0  0  0
 17 38  1  0  0  0  0
 18 19  1  0  0  0  0
 18 39  1  0  0  0  0
 18 40  1  0  0  0  0
 19 20  1  0  0  0  0
 19 41  1  0  0  0  0
 20 21  1  0  0  0  0
 20 22  1  0  0  0  0
 20 23  1  0  0  0  0
M  CHG  1   6   1
M  CHG  1   8  -1
M  CHG  1  13   1
M  END
> <s_m_source_file>
AV-unprocessed.smi

> <i_m_source_file_index>
3029

> <i_lp_mmshare_version>
43012

> <i_f3d_flags>
0

> <s_epik_input>
Tz1jMVtjSF1bY0hdYyhbTitdKD1PKVtPLV0pW2NIXW4xW0NIMl1bQ0gyXVtOSF1bQ0BASF0yW0NIMl1bQ0gyXVtDSDJdW0NIMl1bQ0BIXTJDKEYpKEYpRg==

> <s_epik_cmdline>
J2VwaWtfcHl0aG9uJywgJy1waCcsICc3LjAnLCAnLXRuJywgJzgnLCAnLW1hJywgJzIwMCcsICctbWV0YWxfYmluZGluZycsICctaW1hZScsICc8aW5maWxlLm1hZT4nLCAnLW9tYWUnLCAnPG91dGZpbGUubWFlPic=

> <r_lp_tautomer_probability>
1

> <r_epik_Ionization_Penalty>
0.037386

> <r_epik_Ionization_Penalty_Charging>
0.037386

> <r_epik_Ionization_Penalty_Neutral>
0

> <r_epik_State_Penalty>
0.0312892

> <r_epik_Charging_Adjusted_Penalty>
0.0686752

> <i_epik_Tot_Q>
1

> <i_epik_Tot_abs_Q>
3

> <r_epik_Metal_State_Penalty>
0.0312892

> <b_epik_Metal_Only>
0

> <s_lp_Force_Field>
OPLS_2005

> <r_lp_Energy>
34.7992

> <b_lp_Chiralities_Consistent>
1

> <s_lp_Variant>
AV-unprocessed.smi:3029-3

> <Gold.Version>
5.8.1

> <Gold.Id.Protein>
6NUR|6NUR_protein|mol2

> <Gold.PLP.Fitness>
47.2326

> <Gold.PLP.PLP>
-38.9801

> <Gold.PLP.part.hbond>
-2.8372

> <Gold.PLP.part.metal>
0.0000

> <Gold.PLP.part.buried>
-5.0922

> <Gold.PLP.part.nonpolar>
-34.9453

> <Gold.PLP.part.repulsive>
0.1540

> <Gold.PLP.ligand.clash>
0.0000

> <Gold.PLP.ligand.torsion>
0.3298

> <Gold.PLP.Chemscore.Hbond>
2.9420

> <Gold.PLP.Chemscore.CHOScore>
0.0000

> <Gold.PLP.Chemscore.Metal>
0.0000

> <Gold.Chemscore.Hbonds>
donor molecule, donor type, donor heavy atom, donor atom, acceptor molecule, acceptor atom, score
      L1  H    13    42       P1 10957  1.50
      P1  H  6896  6907       L1     7  0.12

> <Gold.PLP.Chemscore.Internal.Correction>
0.0862

> <Gold.Rescore>
     Score         DG    S(hbond)    S(metal)    S(lipo)     H(rot)  DE(clash)    DE(int)     intcor
     10.60     -12.41       1.34        0.00      62.66       1.90       0.08       1.73       ----

> <Gold.Chemscore.Fitness>
10.6009

> <Gold.Chemscore.DG>
-12.4134

> <Gold.Chemscore.ZeroCoef>
-5.4800

> <Gold.Chemscore.Hbond>
1.3401

> <Gold.Chemscore.Metal>
0.0000

> <Gold.Chemscore.Lipo>
62.6591

> <Gold.Chemscore.Internal_Hbond>
0.0000

> <Gold.Chemscore.DEClash>
0.0782

> <Gold.Chemscore.DEInternal>
1.7342

> <Gold.Chemscore.Rot>
1.9037

> <Gold.Chemscore.Internal.Correction>
   9.000000E+99

> <Gold.Chemscore.Hbonds>
donor molecule, donor type, donor heavy atom, donor atom, acceptor molecule, acceptor atom, score
      L1  H    13    42       P1 10957  0.09
      P1  H  6896  6907       L1     7  0.03

> <Gold.Chemscore.Hbond.Weighted>
-4.4758

> <Gold.Chemscore.Metal.Weighted>
-0.0000

> <Gold.Chemscore.Lipo.Weighted>
-7.3311

> <Gold.Chemscore.Internal_Hbond.Weighted>
0.0000

> <Gold.Chemscore.DEClash.Weighted>
0.0782

> <Gold.Chemscore.DEInternal.Weighted>
1.7342

> <Gold.Chemscore.Rot.Weighted>
4.8736

> <Gold.Chemscore.Internal.Correction.Weighted>
   9.000000E+99

> <Gold.Protein.RotatedTorsions>
[ 6907 6896 6895 6894 ] final  172.56 input  -60.11 | X-H torsion
[ 7974 7965 7964 7962 ] final   36.29 input  175.53 | X-H torsion
[ 8008 7997 7996 7995 ] final   59.62 input   59.86 | X-H torsion
[ 10167 10162 10161 10158 ] final -171.35 input  -65.29 | X-H torsion
[ 10718 10713 10712 10709 ] final   -3.10 input   66.30 | X-H torsion
[ 10763 10752 10751 10750 ] final   64.35 input  -60.55 | X-H torsion
[ 11005 11000 10999 10996 ] final  -30.73 input  -57.11 | X-H torsion

> <Gold.Protein.ActiveResidues>
 VAL166  LYS551  ARG553  GLY616  TRP617  ASP618  TYR619  PRO620  LYS621  CYS622 
 ASP623  PHE694  ASN695  SER759  ASP760  ASP761  ALA762  ILE779  LEU786  VAL792 
 PHE793  MET794  SER795  GLU796  ALA797  LYS798  CYS799  TRP800  GLU811  SER814 

> <Gold.Protein.RotatedAtoms>
  151.7823  133.3351  159.3474 H   0  0  0  0  0  0  0  0  0  0  0  0  # atno 6907 bound_to 6896
  150.7422  134.5919  159.6001 H   0  0  0  0  0  0  0  0  0  0  0  0  # atno 6908 bound_to 6896
  152.3268  134.7312  160.0351 H   0  0  0  0  0  0  0  0  0  0  0  0  # atno 6909 bound_to 6896
  146.1222  139.6036  142.9282 H   0  0  0  0  0  0  0  0  0  0  0  0  # atno 7974 bound_to 7965
  155.5692  140.3489  155.4511 H   0  0  0  0  0  0  0  0  0  0  0  0  # atno 8008 bound_to 7997
  156.0457  140.1306  157.0132 H   0  0  0  0  0  0  0  0  0  0  0  0  # atno 8009 bound_to 7997
  154.4411  140.1015  156.6287 H   0  0  0  0  0  0  0  0  0  0  0  0  # atno 8010 bound_to 7997
  139.5807  144.1429  152.1511 H   0  0  0  0  0  0  0  0  0  0  0  0  # atno 10167 bound_to 10162
  156.7810  130.5331  149.5751 H   0  0  0  0  0  0  0  0  0  0  0  0  # atno 10718 bound_to 10713
  153.0052  135.5396  154.6496 H   0  0  0  0  0  0  0  0  0  0  0  0  # atno 10763 bound_to 10752
  154.5731  135.2843  155.0810 H   0  0  0  0  0  0  0  0  0  0  0  0  # atno 10764 bound_to 10752
  154.1968  135.6491  153.5128 H   0  0  0  0  0  0  0  0  0  0  0  0  # atno 10765 bound_to 10752
  140.9408  133.7280  156.1072 H   0  0  0  0  0  0  0  0  0  0  0  0  # atno 11005 bound_to 11000
  145.5442  141.0418  143.2314 LP  0  0  0  0  0  0  0  0  0  0  0  0  # atno 17320 bound_to 7965
  144.7607  139.6963  143.7235 LP  0  0  0  0  0  0  0  0  0  0  0  0  # atno 17321 bound_to 7965
  140.0982  144.5562  150.7007 LP  0  0  0  0  0  0  0  0  0  0  0  0  # atno 17342 bound_to 10162
  140.7086  143.2487  151.4652 LP  0  0  0  0  0  0  0  0  0  0  0  0  # atno 17343 bound_to 10162
  156.1218  130.6115  151.0204 LP  0  0  0  0  0  0  0  0  0  0  0  0  # atno 17370 bound_to 10713
  157.6646  131.0874  150.7759 LP  0  0  0  0  0  0  0  0  0  0  0  0  # atno 17371 bound_to 10713
  140.7737  134.3803  157.5502 LP  0  0  0  0  0  0  0  0  0  0  0  0  # atno 17394 bound_to 11000
  139.8820  134.9038  156.2863 LP  0  0  0  0  0  0  0  0  0  0  0  0  # atno 17395 bound_to 11000

$$$$
