AV-unprocessed.smi:156|AV-procd|sdf|1288|dock8
  -GOLD-   2262018563D 1   1.00000     0.00000
 Structure written by MMmdl.
 51 53  0  0  0  0  0  0  0  0  1 V2000
  149.1397  138.5082  154.4895 C   0  0  0  0  0  0  0  0  0  0  0  0
  147.7552  139.0451  154.9032 C   0  0  1  0  0  0  0  0  0  0  0  0
  147.8132  140.4876  155.4929 C   0  0  2  0  0  0  0  0  0  0  0  0
  148.3822  141.5192  154.5004 C   0  0  0  0  0  0  0  0  0  0  0  0
  148.7728  140.5865  157.0918 S   0  0  0  0  0  0  0  0  0  0  0  0
  150.1276  141.7744  156.7044 C   0  0  0  0  0  0  0  0  0  0  0  0
  147.9153  141.2184  158.1062 O   0  0  0  0  0  0  0  0  0  0  0  0
  149.3886  139.2830  157.3822 O   0  0  0  0  0  0  0  0  0  0  0  0
  146.8275  138.9227  153.7664 N   0  0  0  0  0  0  0  0  0  0  0  0
  147.0916  139.6493  152.5265 C   0  0  0  0  0  0  0  0  0  0  0  0
  145.9941  137.8450  153.7135 C   0  0  0  0  0  0  0  0  0  0  0  0
  145.3152  137.5080  154.8419 N   0  0  0  0  0  0  0  0  0  0  0  0
  144.4681  136.4763  154.8508 C   0  0  0  0  0  0  0  0  0  0  0  0
  144.1506  135.6516  153.8537 N   0  0  0  0  0  0  0  0  0  0  0  0
  144.8277  135.9718  152.7147 C   0  0  0  0  0  0  0  0  0  0  0  0
  145.7560  137.0424  152.5545 C   0  0  0  0  0  0  0  0  0  0  0  0
  146.2340  137.0431  151.2477 N   0  0  0  0  0  0  0  0  0  0  0  0
  145.6172  136.0490  150.6716 C   0  0  0  0  0  0  0  0  0  0  0  0
  144.7645  135.3387  151.4845 N   0  0  0  0  0  0  0  0  0  0  0  0
  143.9489  134.1905  151.1115 C   0  0  0  0  0  0  0  0  0  0  0  0
  144.7403  132.9754  150.5686 C   0  0  0  0  0  0  0  0  0  0  0  0
  144.1832  132.6250  149.1820 C   0  0  0  0  0  0  0  0  0  0  0  0
  142.8837  132.0772  149.2739 O   0  0  0  0  0  0  0  0  0  0  0  0
  146.2725  133.0838  150.6465 C   0  0  0  0  0  0  0  0  0  0  0  0
  146.3300  132.2213  151.8016 O   0  0  0  0  0  0  0  0  0  0  0  0
  144.9809  131.7919  151.5221 C   0  0  0  0  0  0  0  0  0  0  0  0
  149.8041  138.3984  155.3461 H   0  0  0  0  0  0  0  0  0  0  0  0
  149.6268  139.1673  153.7702 H   0  0  0  0  0  0  0  0  0  0  0  0
  149.0551  137.5222  154.0311 H   0  0  0  0  0  0  0  0  0  0  0  0
  147.4281  138.3975  155.7146 H   0  0  0  0  0  0  0  0  0  0  0  0
  146.8043  140.8180  155.7351 H   0  0  0  0  0  0  0  0  0  0  0  0
  147.7189  141.6611  153.6476 H   0  0  0  0  0  0  0  0  0  0  0  0
  149.3549  141.2133  154.1161 H   0  0  0  0  0  0  0  0  0  0  0  0
  148.5001  142.4971  154.9668 H   0  0  0  0  0  0  0  0  0  0  0  0
  150.7619  141.8879  157.5833 H   0  0  0  0  0  0  0  0  0  0  0  0
  149.7097  142.7456  156.4436 H   0  0  0  0  0  0  0  0  0  0  0  0
  150.7318  141.4022  155.8797 H   0  0  0  0  0  0  0  0  0  0  0  0
  146.1797  139.7565  151.9381 H   0  0  0  0  0  0  0  0  0  0  0  0
  147.8363  139.1272  151.9254 H   0  0  0  0  0  0  0  0  0  0  0  0
  147.4630  140.6541  152.7181 H   0  0  0  0  0  0  0  0  0  0  0  0
  143.9728  136.2860  155.7915 H   0  0  0  0  0  0  0  0  0  0  0  0
  145.7713  135.8074  149.6304 H   0  0  0  0  0  0  0  0  0  0  0  0
  143.3618  133.9119  151.9872 H   0  0  0  0  0  0  0  0  0  0  0  0
  143.2246  134.5281  150.3693 H   0  0  0  0  0  0  0  0  0  0  0  0
  144.1534  133.5033  148.5364 H   0  0  0  0  0  0  0  0  0  0  0  0
  144.8172  131.8927  148.6807 H   0  0  0  0  0  0  0  0  0  0  0  0
  142.2612  132.7857  149.3361 H   0  0  0  0  0  0  0  0  0  0  0  0
  146.7933  132.6451  149.7937 H   0  0  0  0  0  0  0  0  0  0  0  0
  146.6493  134.0863  150.8435 H   0  0  0  0  0  0  0  0  0  0  0  0
  144.3469  131.7772  152.4069 H   0  0  0  0  0  0  0  0  0  0  0  0
  144.9644  130.8194  151.0269 H   0  0  0  0  0  0  0  0  0  0  0  0
  1  2  1  0  0  0  0
  1 27  1  0  0  0  0
  1 28  1  0  0  0  0
  1 29  1  0  0  0  0
  2  3  1  0  0  0  0
  2  9  1  0  0  0  0
  2 30  1  0  0  0  0
  3  4  1  0  0  0  0
  3  5  1  0  0  0  0
  3 31  1  0  0  0  0
  4 32  1  0  0  0  0
  4 33  1  0  0  0  0
  4 34  1  0  0  0  0
  5  6  1  0  0  0  0
  5  7  2  0  0  0  0
  5  8  2  0  0  0  0
  6 35  1  0  0  0  0
  6 36  1  0  0  0  0
  6 37  1  0  0  0  0
  9 10  1  0  0  0  0
  9 11  1  0  0  0  0
 10 38  1  0  0  0  0
 10 39  1  0  0  0  0
 10 40  1  0  0  0  0
 11 16  1  0  0  0  0
 11 12  2  0  0  0  0
 12 13  1  0  0  0  0
 13 14  2  0  0  0  0
 13 41  1  0  0  0  0
 14 15  1  0  0  0  0
 15 19  1  0  0  0  0
 15 16  2  0  0  0  0
 16 17  1  0  0  0  0
 17 18  2  0  0  0  0
 18 19  1  0  0  0  0
 18 42  1  0  0  0  0
 19 20  1  0  0  0  0
 20 21  1  0  0  0  0
 20 43  1  0  0  0  0
 20 44  1  0  0  0  0
 21 26  1  0  0  0  0
 21 22  1  0  0  0  0
 21 24  1  0  0  0  0
 22 23  1  0  0  0  0
 22 45  1  0  0  0  0
 22 46  1  0  0  0  0
 23 47  1  0  0  0  0
 24 25  1  0  0  0  0
 24 48  1  0  0  0  0
 24 49  1  0  0  0  0
 25 26  1  0  0  0  0
 26 50  1  0  0  0  0
 26 51  1  0  0  0  0
M  END
> <s_m_source_file>
AV-unprocessed.smi

> <i_m_source_file_index>
156

> <i_lp_mmshare_version>
43012

> <i_f3d_flags>
0

> <s_epik_input>
W0NIM11TKD1PKSg9TylbQ0BASF0oW0NIM10pW0NAQEhdKFtDSDNdKU4oW0NIM10pYyhuW2NIXW4xKWMoYzEyKW5bY0hdbjJbQ0gyXUMzKFtDSDJdW09IXSlbQ0gyXU9bQ0gyXTM=

> <s_epik_cmdline>
J2VwaWtfcHl0aG9uJywgJy1waCcsICc3LjAnLCAnLXRuJywgJzgnLCAnLW1hJywgJzIwMCcsICctbWV0YWxfYmluZGluZycsICctaW1hZScsICc8aW5maWxlLm1hZT4nLCAnLW9tYWUnLCAnPG91dGZpbGUubWFlPic=

> <r_lp_tautomer_probability>
1

> <r_epik_Ionization_Penalty>
0.00107697

> <r_epik_Ionization_Penalty_Charging>
0

> <r_epik_Ionization_Penalty_Neutral>
0.00107697

> <r_epik_State_Penalty>
0.000614712

> <r_epik_Charging_Adjusted_Penalty>
0.000614712

> <i_epik_Tot_Q>
0

> <i_epik_Tot_abs_Q>
0

> <r_epik_Metal_State_Penalty>
-0

> <b_epik_Metal_Only>
0

> <s_lp_Force_Field>
OPLS_2005

> <r_lp_Energy>
29.1467

> <b_lp_Chiralities_Consistent>
1

> <s_lp_Variant>
AV-unprocessed.smi:156-2

> <Gold.Version>
5.8.1

> <Gold.Id.Protein>
6NUR|6NUR_protein|mol2

> <Gold.PLP.Fitness>
42.8637

> <Gold.PLP.PLP>
-36.9425

> <Gold.PLP.part.hbond>
-3.6829

> <Gold.PLP.part.metal>
0.0000

> <Gold.PLP.part.buried>
-5.5025

> <Gold.PLP.part.nonpolar>
-30.5061

> <Gold.PLP.part.repulsive>
2.0568

> <Gold.PLP.ligand.clash>
0.0000

> <Gold.PLP.ligand.torsion>
2.1401

> <Gold.PLP.Chemscore.Hbond>
1.9663

> <Gold.PLP.Chemscore.CHOScore>
1.0000

> <Gold.PLP.Chemscore.Metal>
0.0000

> <Gold.Chemscore.Hbonds>
donor molecule, donor type, donor heavy atom, donor atom, acceptor molecule, acceptor atom, score
      L1  H    23    47       P1 10186  0.93
      P1  H 10785 10796       L1    23  1.00
      L1  C    18    42       P1  7921  1.00

> <Gold.PLP.Chemscore.Internal.Correction>
1.3026

> <Gold.Rescore>
     Score         DG    S(hbond)    S(metal)    S(lipo)     H(rot)  DE(clash)    DE(int)     intcor
      6.35     -10.85       1.54        0.00      72.31       3.21       1.28       3.22       ----

> <Gold.Chemscore.Fitness>
6.3516

> <Gold.Chemscore.DG>
-10.8504

> <Gold.Chemscore.ZeroCoef>
-5.4800

> <Gold.Chemscore.Hbond>
1.5363

> <Gold.Chemscore.Metal>
0.0000

> <Gold.Chemscore.Lipo>
72.3129

> <Gold.Chemscore.Internal_Hbond>
0.0000

> <Gold.Chemscore.DEClash>
1.2801

> <Gold.Chemscore.DEInternal>
3.2187

> <Gold.Chemscore.Rot>
3.2115

> <Gold.Chemscore.Internal.Correction>
   9.000000E+99

> <Gold.Chemscore.Hbonds>
donor molecule, donor type, donor heavy atom, donor atom, acceptor molecule, acceptor atom, score
      L1  H    23    47       P1 10186  0.89
      P1  H  7954  7966       L1    17  0.01
      P1  H 10785 10796       L1    23  0.32

> <Gold.Chemscore.Hbond.Weighted>
-5.1314

> <Gold.Chemscore.Metal.Weighted>
-0.0000

> <Gold.Chemscore.Lipo.Weighted>
-8.4606

> <Gold.Chemscore.Internal_Hbond.Weighted>
0.0000

> <Gold.Chemscore.DEClash.Weighted>
1.2801

> <Gold.Chemscore.DEInternal.Weighted>
3.2187

> <Gold.Chemscore.Rot.Weighted>
8.2215

> <Gold.Chemscore.Internal.Correction.Weighted>
   9.000000E+99

> <Gold.Protein.RotatedTorsions>
[ 6907 6896 6895 6894 ] final   -8.91 input  -60.11 | X-H torsion
[ 7974 7965 7964 7962 ] final  -88.08 input  175.53 | X-H torsion
[ 8008 7997 7996 7995 ] final   -2.18 input   59.86 | X-H torsion
[ 10167 10162 10161 10158 ] final  -58.23 input  -65.29 | X-H torsion
[ 10718 10713 10712 10709 ] final   55.26 input   66.30 | X-H torsion
[ 10763 10752 10751 10750 ] final  -99.32 input  -60.55 | X-H torsion
[ 11005 11000 10999 10996 ] final   73.49 input  -57.11 | X-H torsion

> <Gold.Protein.ActiveResidues>
 VAL166  LYS551  ARG553  GLY616  TRP617  ASP618  TYR619  PRO620  LYS621  CYS622 
 ASP623  PHE694  ASN695  SER759  ASP760  ASP761  ALA762  ILE779  LEU786  VAL792 
 PHE793  MET794  SER795  GLU796  ALA797  LYS798  CYS799  TRP800  GLU811  SER814 

> <Gold.Protein.RotatedAtoms>
  151.4261  135.1004  159.9628 H   0  0  0  0  0  0  0  0  0  0  0  0  # atno 6907 bound_to 6896
  152.4972  133.8661  159.7285 H   0  0  0  0  0  0  0  0  0  0  0  0  # atno 6908 bound_to 6896
  150.9188  133.6848  159.2865 H   0  0  0  0  0  0  0  0  0  0  0  0  # atno 6909 bound_to 6896
  145.4580  140.9561  143.1985 H   0  0  0  0  0  0  0  0  0  0  0  0  # atno 7974 bound_to 7965
  154.6385  140.2541  155.7349 H   0  0  0  0  0  0  0  0  0  0  0  0  # atno 8008 bound_to 7997
  156.2517  140.2892  156.0689 H   0  0  0  0  0  0  0  0  0  0  0  0  # atno 8009 bound_to 7997
  155.1633  140.0385  157.2837 H   0  0  0  0  0  0  0  0  0  0  0  0  # atno 8010 bound_to 7997
  140.6210  143.2419  151.5481 H   0  0  0  0  0  0  0  0  0  0  0  0  # atno 10167 bound_to 10162
  157.5329  130.8643  149.8712 H   0  0  0  0  0  0  0  0  0  0  0  0  # atno 10718 bound_to 10713
  154.7488  135.4977  153.9251 H   0  0  0  0  0  0  0  0  0  0  0  0  # atno 10763 bound_to 10752
  153.1120  135.6711  153.9491 H   0  0  0  0  0  0  0  0  0  0  0  0  # atno 10764 bound_to 10752
  153.9247  135.3084  155.3426 H   0  0  0  0  0  0  0  0  0  0  0  0  # atno 10765 bound_to 10752
  139.9437  134.7351  156.1033 H   0  0  0  0  0  0  0  0  0  0  0  0  # atno 11005 bound_to 11000
  144.8020  139.6122  143.7067 LP  0  0  0  0  0  0  0  0  0  0  0  0  # atno 17320 bound_to 7965
  146.2467  139.6113  142.9455 LP  0  0  0  0  0  0  0  0  0  0  0  0  # atno 17321 bound_to 7965
  139.5438  144.2575  152.1403 LP  0  0  0  0  0  0  0  0  0  0  0  0  # atno 17342 bound_to 10162
  140.1795  144.4858  150.6536 LP  0  0  0  0  0  0  0  0  0  0  0  0  # atno 17343 bound_to 10162
  156.0436  130.3733  150.1373 LP  0  0  0  0  0  0  0  0  0  0  0  0  # atno 17370 bound_to 10713
  156.9557  130.9789  151.3489 LP  0  0  0  0  0  0  0  0  0  0  0  0  # atno 17371 bound_to 10713
  141.1081  133.6653  156.2912 LP  0  0  0  0  0  0  0  0  0  0  0  0  # atno 17394 bound_to 11000
  140.5887  134.5672  157.5495 LP  0  0  0  0  0  0  0  0  0  0  0  0  # atno 17395 bound_to 11000

$$$$
