AV-unprocessed.smi:2360|AV-procd|sdf|9409|dock8
  -GOLD-   2272013 43D 1   1.00000     0.00000
 Structure written by MMmdl.
 34 35  0  0  0  0  0  0  0  0  1 V2000
  155.4327  134.3897  160.4971 C   0  0  0  0  0  0  0  0  0  0  0  0
  155.0248  135.8261  160.2206 C   0  0  0  0  0  0  0  0  0  0  0  0
  153.7231  136.1674  160.5990 N   0  0  0  0  0  0  0  0  0  0  0  0
  153.2867  137.3678  160.3978 C   0  0  0  0  0  0  0  0  0  0  0  0
  154.0891  138.3540  159.8013 N   0  0  0  0  0  0  0  0  0  0  0  0
  153.4722  139.6799  159.6268 C   0  0  0  0  0  0  0  0  0  0  0  0
  154.1902  140.7742  160.4477 C   0  0  2  0  0  0  0  0  0  0  0  0
  154.3515  140.3128  161.7747 O   0  0  0  0  0  0  0  0  0  0  0  0
  153.4133  142.0814  160.4071 C   0  0  0  0  0  0  0  0  0  0  0  0
  152.9340  142.6516  161.6060 C   0  0  0  0  0  0  0  0  0  0  0  0
  152.2220  143.8666  161.5798 C   0  0  0  0  0  0  0  0  0  0  0  0
  151.9873  144.5203  160.3549 C   0  0  0  0  0  0  0  0  0  0  0  0
  151.3029  145.6885  160.3318 F   0  0  0  0  0  0  0  0  0  0  0  0
  152.4670  143.9589  159.1554 C   0  0  0  0  0  0  0  0  0  0  0  0
  152.2454  144.5868  157.9761 F   0  0  0  0  0  0  0  0  0  0  0  0
  153.1791  142.7439  159.1815 C   0  0  0  0  0  0  0  0  0  0  0  0
  155.3737  138.1084  159.4120 C   0  0  0  0  0  0  0  0  0  0  0  0
  156.0744  138.9860  158.9035 O   0  0  0  0  0  0  0  0  0  0  0  0
  155.8551  136.7369  159.6434 C   0  0  0  0  0  0  0  0  0  0  0  0
  157.2817  136.4226  159.2103 C   0  0  0  0  0  0  0  0  0  0  0  0
  155.7021  133.8844  159.5693 H   0  0  0  0  0  0  0  0  0  0  0  0
  154.6200  133.8272  160.9586 H   0  0  0  0  0  0  0  0  0  0  0  0
  156.2873  134.3585  161.1734 H   0  0  0  0  0  0  0  0  0  0  0  0
  152.2813  137.6860  160.6788 H   0  0  0  0  0  0  0  0  0  0  0  0
  153.5255  139.9356  158.5666 H   0  0  0  0  0  0  0  0  0  0  0  0
  152.4025  139.6748  159.8473 H   0  0  0  0  0  0  0  0  0  0  0  0
  155.1859  140.9584  160.0420 H   0  0  0  0  0  0  0  0  0  0  0  0
  153.5301  140.4191  162.2301 H   0  0  0  0  0  0  0  0  0  0  0  0
  153.1124  142.1604  162.5516 H   0  0  0  0  0  0  0  0  0  0  0  0
  151.8573  144.2977  162.5004 H   0  0  0  0  0  0  0  0  0  0  0  0
  153.5474  142.3232  158.2573 H   0  0  0  0  0  0  0  0  0  0  0  0
  157.9854  137.0672  159.7378 H   0  0  0  0  0  0  0  0  0  0  0  0
  157.3970  136.5993  158.1405 H   0  0  0  0  0  0  0  0  0  0  0  0
  157.5729  135.3917  159.4048 H   0  0  0  0  0  0  0  0  0  0  0  0
  1  2  1  0  0  0  0
  1 21  1  0  0  0  0
  1 22  1  0  0  0  0
  1 23  1  0  0  0  0
  2 19  2  0  0  0  0
  2  3  1  0  0  0  0
  3  4  2  0  0  0  0
  4  5  1  0  0  0  0
  4 24  1  0  0  0  0
  5  6  1  0  0  0  0
  5 17  1  0  0  0  0
  6  7  1  0  0  0  0
  6 25  1  0  0  0  0
  6 26  1  0  0  0  0
  7  8  1  0  0  0  0
  7  9  1  0  0  0  0
  7 27  1  0  0  0  0
  8 28  1  0  0  0  0
  9 16  1  0  0  0  0
  9 10  2  0  0  0  0
 10 11  1  0  0  0  0
 10 29  1  0  0  0  0
 11 12  2  0  0  0  0
 11 30  1  0  0  0  0
 12 13  1  0  0  0  0
 12 14  1  0  0  0  0
 14 15  1  0  0  0  0
 14 16  2  0  0  0  0
 16 31  1  0  0  0  0
 17 18  2  0  0  0  0
 17 19  1  0  0  0  0
 19 20  1  0  0  0  0
 20 32  1  0  0  0  0
 20 33  1  0  0  0  0
 20 34  1  0  0  0  0
M  END
> <s_m_source_file>
AV-unprocessed.smi

> <i_m_source_file_index>
2360

> <i_lp_mmshare_version>
43012

> <i_f3d_flags>
0

> <s_epik_input>
W0NIM11jMW5bY0hdbihjKD1PKWMxW0NIM10pW0NIMl1bQ0BIXShbT0hdKWMyW2NIXVtjSF1jKEYpYyhGKVtjSF0y

> <s_epik_cmdline>
J2VwaWtfcHl0aG9uJywgJy1waCcsICc3LjAnLCAnLXRuJywgJzgnLCAnLW1hJywgJzIwMCcsICctbWV0YWxfYmluZGluZycsICctaW1hZScsICc8aW5maWxlLm1hZT4nLCAnLW9tYWUnLCAnPG91dGZpbGUubWFlPic=

> <r_lp_tautomer_probability>
1

> <r_epik_Ionization_Penalty>
5.07449e-05

> <r_epik_Ionization_Penalty_Charging>
7.56727e-08

> <r_epik_Ionization_Penalty_Neutral>
5.06692e-05

> <r_epik_State_Penalty>
-0

> <r_epik_Charging_Adjusted_Penalty>
7.56727e-08

> <i_epik_Tot_Q>
0

> <i_epik_Tot_abs_Q>
0

> <r_epik_Metal_State_Penalty>
-0

> <b_epik_Metal_Only>
0

> <s_lp_Force_Field>
OPLS_2005

> <r_lp_Energy>
18.6732

> <b_lp_Chiralities_Consistent>
1

> <s_lp_Variant>
AV-unprocessed.smi:2360-1

> <Gold.Version>
5.8.1

> <Gold.Id.Protein>
6NUR|6NUR_protein|mol2

> <Gold.PLP.Fitness>
49.9558

> <Gold.PLP.PLP>
-44.4375

> <Gold.PLP.part.hbond>
-2.0000

> <Gold.PLP.part.metal>
0.0000

> <Gold.PLP.part.buried>
-3.9643

> <Gold.PLP.part.nonpolar>
-38.9845

> <Gold.PLP.part.repulsive>
0.0352

> <Gold.PLP.ligand.clash>
0.3614

> <Gold.PLP.ligand.torsion>
0.0628

> <Gold.PLP.Chemscore.Hbond>
2.0000

> <Gold.PLP.Chemscore.CHOScore>
0.0000

> <Gold.PLP.Chemscore.Metal>
0.0000

> <Gold.Chemscore.Hbonds>
donor molecule, donor type, donor heavy atom, donor atom, acceptor molecule, acceptor atom, score
      P1  H  6896  6908       L1     3  1.00
      P1  H  7997  8009       L1    18  1.00

> <Gold.PLP.Chemscore.Internal.Correction>
0.0053

> <Gold.Rescore>
     Score         DG    S(hbond)    S(metal)    S(lipo)     H(rot)  DE(clash)    DE(int)     intcor
     16.57     -18.04       1.92        0.00      98.69       2.11       0.20       1.27       ----

> <Gold.Chemscore.Fitness>
16.5725

> <Gold.Chemscore.DG>
-18.0415

> <Gold.Chemscore.ZeroCoef>
-5.4800

> <Gold.Chemscore.Hbond>
1.9208

> <Gold.Chemscore.Metal>
0.0000

> <Gold.Chemscore.Lipo>
98.6911

> <Gold.Chemscore.Internal_Hbond>
0.0000

> <Gold.Chemscore.DEClash>
0.1998

> <Gold.Chemscore.DEInternal>
1.2693

> <Gold.Chemscore.Rot>
2.1097

> <Gold.Chemscore.Internal.Correction>
   9.000000E+99

> <Gold.Chemscore.Hbonds>
donor molecule, donor type, donor heavy atom, donor atom, acceptor molecule, acceptor atom, score
      P1  H  6896  6908       L1     3  0.45
      P1  H  7997  8009       L1    18  0.99

> <Gold.Chemscore.Hbond.Weighted>
-6.4156

> <Gold.Chemscore.Metal.Weighted>
-0.0000

> <Gold.Chemscore.Lipo.Weighted>
-11.5469

> <Gold.Chemscore.Internal_Hbond.Weighted>
0.0000

> <Gold.Chemscore.DEClash.Weighted>
0.1998

> <Gold.Chemscore.DEInternal.Weighted>
1.2693

> <Gold.Chemscore.Rot.Weighted>
5.4009

> <Gold.Chemscore.Internal.Correction.Weighted>
   9.000000E+99

> <Gold.Protein.RotatedTorsions>
[ 6907 6896 6895 6894 ] final  -83.00 input  -60.11 | X-H torsion
[ 7974 7965 7964 7962 ] final  149.51 input  175.53 | X-H torsion
[ 8008 7997 7996 7995 ] final   84.35 input   59.86 | X-H torsion
[ 10167 10162 10161 10158 ] final  -59.68 input  -65.29 | X-H torsion
[ 10718 10713 10712 10709 ] final   40.53 input   66.30 | X-H torsion
[ 10763 10752 10751 10750 ] final -150.96 input  -60.55 | X-H torsion
[ 11005 11000 10999 10996 ] final -103.52 input  -57.11 | X-H torsion

> <Gold.Protein.ActiveResidues>
 VAL166  LYS551  ARG553  GLY616  TRP617  ASP618  TYR619  PRO620  LYS621  CYS622 
 ASP623  PHE694  ASN695  SER759  ASP760  ASP761  ALA762  ILE779  LEU786  VAL792 
 PHE793  MET794  SER795  GLU796  ALA797  LYS798  CYS799  TRP800  GLU811  SER814 

> <Gold.Protein.RotatedAtoms>
  150.6890  134.3579  159.4937 H   0  0  0  0  0  0  0  0  0  0  0  0  # atno 6907 bound_to 6896
  152.1412  134.9058  160.0563 H   0  0  0  0  0  0  0  0  0  0  0  0  # atno 6908 bound_to 6896
  152.0191  133.3857  159.4288 H   0  0  0  0  0  0  0  0  0  0  0  0  # atno 6909 bound_to 6896
  144.8432  139.6290  143.6007 H   0  0  0  0  0  0  0  0  0  0  0  0  # atno 7974 bound_to 7965
  155.9359  140.3411  155.6287 H   0  0  0  0  0  0  0  0  0  0  0  0  # atno 8008 bound_to 7997
  155.7100  140.0770  157.2393 H   0  0  0  0  0  0  0  0  0  0  0  0  # atno 8009 bound_to 7997
  154.4093  140.1624  156.2273 H   0  0  0  0  0  0  0  0  0  0  0  0  # atno 8010 bound_to 7997
  140.6120  143.2390  151.5687 H   0  0  0  0  0  0  0  0  0  0  0  0  # atno 10167 bound_to 10162
  157.3832  130.7765  149.7209 H   0  0  0  0  0  0  0  0  0  0  0  0  # atno 10718 bound_to 10713
  154.8087  135.3271  154.7363 H   0  0  0  0  0  0  0  0  0  0  0  0  # atno 10763 bound_to 10752
  153.8016  135.6903  153.4859 H   0  0  0  0  0  0  0  0  0  0  0  0  # atno 10764 bound_to 10752
  153.1850  135.4572  155.0023 H   0  0  0  0  0  0  0  0  0  0  0  0  # atno 10765 bound_to 10752
  141.1142  133.8647  157.1496 H   0  0  0  0  0  0  0  0  0  0  0  0  # atno 11005 bound_to 11000
  146.2721  139.6662  142.9288 LP  0  0  0  0  0  0  0  0  0  0  0  0  # atno 17320 bound_to 7965
  145.4650  141.0434  143.2730 LP  0  0  0  0  0  0  0  0  0  0  0  0  # atno 17321 bound_to 7965
  139.5368  144.2757  152.1269 LP  0  0  0  0  0  0  0  0  0  0  0  0  # atno 17342 bound_to 10162
  140.1958  144.4706  150.6456 LP  0  0  0  0  0  0  0  0  0  0  0  0  # atno 17343 bound_to 10162
  155.9780  130.4056  150.3673 LP  0  0  0  0  0  0  0  0  0  0  0  0  # atno 17370 bound_to 10713
  157.1780  131.0385  151.2763 LP  0  0  0  0  0  0  0  0  0  0  0  0  # atno 17371 bound_to 10713
  140.0054  135.0011  157.0280 LP  0  0  0  0  0  0  0  0  0  0  0  0  # atno 17394 bound_to 11000
  140.4692  134.1404  155.7201 LP  0  0  0  0  0  0  0  0  0  0  0  0  # atno 17395 bound_to 11000

$$$$
