AV-unprocessed.smi:1350|AV-procd|sdf|5522|dock3
  -GOLD-   22720 5113D 1   1.00000     0.00000
 Structure written by MMmdl.
 44 46  0  0  0  0  0  0  0  0  2 V2000
  148.7050  132.3570  158.8013 C   0  0  0  0  0  0  0  0  0  0  0  0
  148.9268  133.7457  159.0000 O   0  0  0  0  0  0  0  0  0  0  0  0
  148.4012  134.3429  160.1282 C   0  0  0  0  0  0  0  0  0  0  0  0
  147.6846  133.6279  161.1229 C   0  0  0  0  0  0  0  0  0  0  0  0
  147.1711  134.2884  162.2547 C   0  0  0  0  0  0  0  0  0  0  0  0
  147.3653  135.6714  162.4121 C   0  0  0  0  0  0  0  0  0  0  0  0
  148.0733  136.3922  161.4343 C   0  0  0  0  0  0  0  0  0  0  0  0
  148.5884  135.7386  160.2950 C   0  0  0  0  0  0  0  0  0  0  0  0
  149.3576  136.5648  159.2769 C   0  0  0  0  0  0  0  0  0  0  0  0
  150.4468  137.2453  159.8786 O   0  0  0  0  0  0  0  0  0  0  0  0
  151.4258  137.6532  158.9372 C   0  0  0  0  0  0  0  0  0  0  0  0
  150.9756  138.9667  158.2828 C   0  0  2  0  0  0  0  0  0  0  0  0
  150.4913  138.6830  156.9850 O   0  0  0  0  0  0  0  0  0  0  0  0
  152.1134  140.0038  158.1971 C   0  0  0  0  0  0  0  0  0  0  0  0
  151.6366  141.3362  157.8056 N   0  0  0  0  0  0  0  0  0  0  0  0
  150.9600  141.7349  156.6943 C   0  0  0  0  0  0  0  0  0  0  0  0
  150.7407  143.0747  156.8053 N   0  3  0  0  0  0  0  0  0  0  0  0
  151.2864  143.5386  158.0045 C   0  0  0  0  0  0  0  0  0  0  0  0
  151.3166  144.8139  158.5602 C   0  0  0  0  0  0  0  0  0  0  0  0
  151.9575  144.9442  159.8101 C   0  0  0  0  0  0  0  0  0  0  0  0
  152.5367  143.8337  160.4589 C   0  0  0  0  0  0  0  0  0  0  0  0
  152.5006  142.5454  159.8860 C   0  0  0  0  0  0  0  0  0  0  0  0
  151.8649  142.4261  158.6510 C   0  0  0  0  0  0  0  0  0  0  0  0
  149.1790  132.0476  157.8699 H   0  0  0  0  0  0  0  0  0  0  0  0
  147.6411  132.1299  158.7198 H   0  0  0  0  0  0  0  0  0  0  0  0
  149.1424  131.7637  159.6053 H   0  0  0  0  0  0  0  0  0  0  0  0
  147.5140  132.5652  161.0429 H   0  0  0  0  0  0  0  0  0  0  0  0
  146.6288  133.7312  163.0041 H   0  0  0  0  0  0  0  0  0  0  0  0
  146.9738  136.1784  163.2817 H   0  0  0  0  0  0  0  0  0  0  0  0
  148.2227  137.4545  161.5608 H   0  0  0  0  0  0  0  0  0  0  0  0
  149.7295  135.8882  158.5062 H   0  0  0  0  0  0  0  0  0  0  0  0
  148.7104  137.2852  158.7768 H   0  0  0  0  0  0  0  0  0  0  0  0
  152.3952  137.7794  159.4225 H   0  0  0  0  0  0  0  0  0  0  0  0
  151.5373  136.8780  158.1770 H   0  0  0  0  0  0  0  0  0  0  0  0
  150.1444  139.3780  158.8565 H   0  0  0  0  0  0  0  0  0  0  0  0
  151.2153  138.7233  156.3792 H   0  0  0  0  0  0  0  0  0  0  0  0
  152.6368  140.0928  159.1502 H   0  0  0  0  0  0  0  0  0  0  0  0
  152.8583  139.6921  157.4638 H   0  0  0  0  0  0  0  0  0  0  0  0
  150.6487  141.1023  155.8756 H   0  0  0  0  0  0  0  0  0  0  0  0
  150.8734  145.6661  158.0664 H   0  0  0  0  0  0  0  0  0  0  0  0
  152.0050  145.9153  160.2813 H   0  0  0  0  0  0  0  0  0  0  0  0
  153.0180  143.9725  161.4161 H   0  0  0  0  0  0  0  0  0  0  0  0
  152.9448  141.6998  160.3903 H   0  0  0  0  0  0  0  0  0  0  0  0
  150.2516  143.6281  156.1135 H   0  0  0  0  0  0  0  0  0  0  0  0
  1  2  1  0  0  0  0
  1 24  1  0  0  0  0
  1 25  1  0  0  0  0
  1 26  1  0  0  0  0
  2  3  1  0  0  0  0
  3  8  1  0  0  0  0
  3  4  2  0  0  0  0
  4  5  1  0  0  0  0
  4 27  1  0  0  0  0
  5  6  2  0  0  0  0
  5 28  1  0  0  0  0
  6  7  1  0  0  0  0
  6 29  1  0  0  0  0
  7  8  2  0  0  0  0
  7 30  1  0  0  0  0
  8  9  1  0  0  0  0
  9 10  1  0  0  0  0
  9 31  1  0  0  0  0
  9 32  1  0  0  0  0
 10 11  1  0  0  0  0
 11 12  1  0  0  0  0
 11 33  1  0  0  0  0
 11 34  1  0  0  0  0
 12 13  1  0  0  0  0
 12 14  1  0  0  0  0
 12 35  1  0  0  0  0
 13 36  1  0  0  0  0
 14 15  1  0  0  0  0
 14 37  1  0  0  0  0
 14 38  1  0  0  0  0
 15 23  1  0  0  0  0
 15 16  1  0  0  0  0
 16 17  2  0  0  0  0
 16 39  1  0  0  0  0
 17 18  1  0  0  0  0
 17 44  1  0  0  0  0
 18 23  2  0  0  0  0
 18 19  1  0  0  0  0
 19 20  2  0  0  0  0
 19 40  1  0  0  0  0
 20 21  1  0  0  0  0
 20 41  1  0  0  0  0
 21 22  2  0  0  0  0
 21 42  1  0  0  0  0
 22 23  1  0  0  0  0
 22 43  1  0  0  0  0
M  CHG  1  17   1
M  END
> <s_m_source_file>
AV-unprocessed.smi

> <i_m_source_file_index>
1350

> <i_lp_mmshare_version>
43012

> <i_f3d_flags>
0

> <s_epik_input>
W0NIM11PYzFbY0hdW2NIXVtjSF1bY0hdYzFbQ0gyXU9bQ0gyXVtDQEhdKFtPSF0pW0NIMl1uKFtjSF1uMiljKGMyMylbY0hdW2NIXVtjSF1bY0hdMw==

> <s_epik_cmdline>
J2VwaWtfcHl0aG9uJywgJy1waCcsICc3LjAnLCAnLXRuJywgJzgnLCAnLW1hJywgJzIwMCcsICctbWV0YWxfYmluZGluZycsICctaW1hZScsICc8aW5maWxlLm1hZT4nLCAnLW9tYWUnLCAnPG91dGZpbGUubWFlPic=

> <r_lp_tautomer_probability>
1

> <r_epik_Ionization_Penalty>
1.28975

> <r_epik_Ionization_Penalty_Charging>
1.28975

> <r_epik_Ionization_Penalty_Neutral>
1.07667e-06

> <r_epik_State_Penalty>
1.36276

> <r_epik_Charging_Adjusted_Penalty>
2.65251

> <i_epik_Tot_Q>
1

> <i_epik_Tot_abs_Q>
1

> <r_epik_Metal_State_Penalty>
5.39298

> <b_epik_Metal_Only>
0

> <s_lp_Force_Field>
OPLS_2005

> <r_lp_Energy>
23.7531

> <b_lp_Chiralities_Consistent>
1

> <s_lp_Variant>
AV-unprocessed.smi:1350-3

> <Gold.Version>
5.8.1

> <Gold.Id.Protein>
6NUR|6NUR_protein|mol2

> <Gold.PLP.Fitness>
58.8680

> <Gold.PLP.PLP>
-51.4629

> <Gold.PLP.part.hbond>
-3.0619

> <Gold.PLP.part.metal>
0.0000

> <Gold.PLP.part.buried>
-5.6081

> <Gold.PLP.part.nonpolar>
-42.7234

> <Gold.PLP.part.repulsive>
0.0428

> <Gold.PLP.ligand.clash>
0.0000

> <Gold.PLP.ligand.torsion>
0.9044

> <Gold.PLP.Chemscore.Hbond>
3.0000

> <Gold.PLP.Chemscore.CHOScore>
0.0000

> <Gold.PLP.Chemscore.Metal>
0.0000

> <Gold.Chemscore.Hbonds>
donor molecule, donor type, donor heavy atom, donor atom, acceptor molecule, acceptor atom, score
      L1  H    17    44       P1  8028  2.00
      P1  H  6896  6908       L1     2  0.99
      P1  H  6896  6909       L1    10  0.01

> <Gold.PLP.Chemscore.Internal.Correction>
0.2139

> <Gold.Rescore>
     Score         DG    S(hbond)    S(metal)    S(lipo)     H(rot)  DE(clash)    DE(int)     intcor
     17.65     -18.74       1.23        0.00     138.05       2.74       0.11       0.97       ----

> <Gold.Chemscore.Fitness>
17.6533

> <Gold.Chemscore.DG>
-18.7382

> <Gold.Chemscore.ZeroCoef>
-5.4800

> <Gold.Chemscore.Hbond>
1.2328

> <Gold.Chemscore.Metal>
0.0000

> <Gold.Chemscore.Lipo>
138.0544

> <Gold.Chemscore.Internal_Hbond>
0.0000

> <Gold.Chemscore.DEClash>
0.1101

> <Gold.Chemscore.DEInternal>
0.9748

> <Gold.Chemscore.Rot>
2.7390

> <Gold.Chemscore.Internal.Correction>
   9.000000E+99

> <Gold.Chemscore.Hbonds>
donor molecule, donor type, donor heavy atom, donor atom, acceptor molecule, acceptor atom, score
      L1  H    17    44       P1  8028  0.94
      P1  H  6896  6908       L1     2  0.14

> <Gold.Chemscore.Hbond.Weighted>
-4.1177

> <Gold.Chemscore.Metal.Weighted>
-0.0000

> <Gold.Chemscore.Lipo.Weighted>
-16.1524

> <Gold.Chemscore.Internal_Hbond.Weighted>
0.0000

> <Gold.Chemscore.DEClash.Weighted>
0.1101

> <Gold.Chemscore.DEInternal.Weighted>
0.9748

> <Gold.Chemscore.Rot.Weighted>
7.0118

> <Gold.Chemscore.Internal.Correction.Weighted>
   9.000000E+99

> <Gold.Protein.RotatedTorsions>
[ 6907 6896 6895 6894 ] final  126.33 input  -60.11 | X-H torsion
[ 7974 7965 7964 7962 ] final  -93.99 input  175.53 | X-H torsion
[ 8008 7997 7996 7995 ] final  177.80 input   59.86 | X-H torsion
[ 10167 10162 10161 10158 ] final   71.11 input  -65.29 | X-H torsion
[ 10718 10713 10712 10709 ] final -114.04 input   66.30 | X-H torsion
[ 10763 10752 10751 10750 ] final -143.51 input  -60.55 | X-H torsion
[ 11005 11000 10999 10996 ] final   18.16 input  -57.11 | X-H torsion

> <Gold.Protein.ActiveResidues>
 VAL166  LYS551  ARG553  GLY616  TRP617  ASP618  TYR619  PRO620  LYS621  CYS622 
 ASP623  PHE694  ASN695  SER759  ASP760  ASP761  ALA762  ILE779  LEU786  VAL792 
 PHE793  MET794  SER795  GLU796  ALA797  LYS798  CYS799  TRP800  GLU811  SER814 

> <Gold.Protein.RotatedAtoms>
  152.3913  133.6682  159.6239 H   0  0  0  0  0  0  0  0  0  0  0  0  # atno 6907 bound_to 6896
  150.7820  133.8950  159.3333 H   0  0  0  0  0  0  0  0  0  0  0  0  # atno 6908 bound_to 6896
  151.6736  135.0974  160.0254 H   0  0  0  0  0  0  0  0  0  0  0  0  # atno 6909 bound_to 6896
  145.3792  140.9515  143.2403 H   0  0  0  0  0  0  0  0  0  0  0  0  # atno 7974 bound_to 7965
  156.0617  140.1349  156.9933 H   0  0  0  0  0  0  0  0  0  0  0  0  # atno 8008 bound_to 7997
  154.4485  140.0990  156.6597 H   0  0  0  0  0  0  0  0  0  0  0  0  # atno 8009 bound_to 7997
  155.5367  140.3460  155.4440 H   0  0  0  0  0  0  0  0  0  0  0  0  # atno 8010 bound_to 7997
  140.0496  144.5322  150.7373 H   0  0  0  0  0  0  0  0  0  0  0  0  # atno 10167 bound_to 10162
  156.0804  130.6005  150.8722 H   0  0  0  0  0  0  0  0  0  0  0  0  # atno 10718 bound_to 10713
  154.8467  135.3466  154.6198 H   0  0  0  0  0  0  0  0  0  0  0  0  # atno 10763 bound_to 10752
  153.6807  135.6980  153.5123 H   0  0  0  0  0  0  0  0  0  0  0  0  # atno 10764 bound_to 10752
  153.2670  135.4305  155.0907 H   0  0  0  0  0  0  0  0  0  0  0  0  # atno 10765 bound_to 10752
  140.4279  134.1451  155.7678 H   0  0  0  0  0  0  0  0  0  0  0  0  # atno 11005 bound_to 11000
  144.8520  139.5308  143.6852 LP  0  0  0  0  0  0  0  0  0  0  0  0  # atno 17320 bound_to 7965
  146.2850  139.6978  142.9202 LP  0  0  0  0  0  0  0  0  0  0  0  0  # atno 17321 bound_to 7965
  140.7223  143.2600  151.4239 LP  0  0  0  0  0  0  0  0  0  0  0  0  # atno 17342 bound_to 10162
  139.5961  144.1394  152.2145 LP  0  0  0  0  0  0  0  0  0  0  0  0  # atno 17343 bound_to 10162
  157.5919  131.0944  150.9105 LP  0  0  0  0  0  0  0  0  0  0  0  0  # atno 17370 bound_to 10713
  156.9279  130.5339  149.5279 LP  0  0  0  0  0  0  0  0  0  0  0  0  # atno 17371 bound_to 10713
  141.1758  133.8517  157.1426 LP  0  0  0  0  0  0  0  0  0  0  0  0  # atno 17394 bound_to 11000
  140.0155  134.9969  157.0484 LP  0  0  0  0  0  0  0  0  0  0  0  0  # atno 17395 bound_to 11000

$$$$
