#       Name:                AV-unprocessed.smi:1911
#       Creating user name   scv26
#       Creation time:       Fri Mar 27 09:48:12 2020


#       File generated by GOLD software.
#

@<TRIPOS>MOLECULE
AV-unprocessed.smi:1911
    57    59     1
SMALL
NO_CHARGES


@<TRIPOS>ATOM
      1 ****        -7.6731  -4.4701   1.8116 N.am           1 S1                 0.0000
      2 ****        -6.4093  -4.4214   1.3850 C.2            1 S1                 0.0000
      3 ****        -5.4976  -5.0055   1.9680 O.2            1 S1                 0.0000
      4 ****        -6.1384  -3.6136   0.1118 C.3            1 S1                 0.0000
      5 ****        -4.7249  -3.1709  -0.0008 N.4            1 S1                 1.0000
      6 ****        -4.4043  -2.0122   0.8751 C.3            1 S1                 0.0000
      7 ****        -2.9025  -1.6866   0.8347 C.3            1 S1                 0.0000
      8 ****        -2.4272  -1.4240  -0.6063 C.3            1 S1                 0.0000
      9 ****        -0.9814  -1.2216  -0.6446 N.am           1 S1                 0.0000
     10 ****        -0.3567  -0.0650  -0.3792 C.2            1 S1                 0.0000
     11 ****        -0.9506   0.9720  -0.0860 O.2            1 S1                 0.0000
     12 ****         0.9771  -0.1967  -0.4874 N.am           1 S1                 0.0000
     13 ****         1.9946   0.7719  -0.2643 C.ar           1 S1                 0.0000
     14 ****         1.8014   1.9965   0.4227 C.ar           1 S1                 0.0000
     15 ****         2.8902   2.8751   0.5993 C.ar           1 S1                 0.0000
     16 ****         4.1652   2.5271   0.0952 C.ar           1 S1                 0.0000
     17 ****         5.2972   3.3510   0.2426 N.pl3          1 S1                 0.0000
     18 ****         6.5079   3.1470  -0.5420 C.3            1 S1                 0.0000
     19 ****         7.1748   4.5243  -0.6324 C.3            1 S1                 0.0000
     20 ****         6.6015   5.2934   0.5581 C.3            1 S1                 0.0000
     21 ****         5.1869   4.7298   0.6890 C.3            1 S1                 0.0000
     22 ****         4.3044   1.3406  -0.5422 N.pl3          1 S1                 1.0000
     23 ****         3.2896   0.4707  -0.7338 C.ar           1 S1                 0.0000
     24 ****        -2.8130  -2.6129  -1.5012 C.3            1 S1                 0.0000
     25 ****        -4.3176  -2.9191  -1.4064 C.3            1 S1                 0.0000
     26 ****        -7.8988  -4.9926   2.6461 H              1 S1                 0.0000
     27 ****        -8.4014  -3.9893   1.3033 H              1 S1                 0.0000
     28 ****        -6.3875  -4.2644  -0.7275 H              1 S1                 0.0000
     29 ****        -6.8071  -2.7531   0.0508 H              1 S1                 0.0000
     30 ****        -4.9840  -1.1436   0.5586 H              1 S1                 0.0000
     31 ****        -4.6946  -2.2256   1.9041 H              1 S1                 0.0000
     32 ****        -2.7005  -0.8185   1.4633 H              1 S1                 0.0000
     33 ****        -2.3414  -2.5173   1.2659 H              1 S1                 0.0000
     34 ****        -2.9261  -0.5316  -0.9899 H              1 S1                 0.0000
     35 ****        -0.4159  -2.0235  -0.8832 H              1 S1                 0.0000
     36 ****         1.3057  -1.0989  -0.7995 H              1 S1                 0.0000
     37 ****         0.8459   2.2810   0.8331 H              1 S1                 0.0000
     38 ****         2.7322   3.8041   1.1267 H              1 S1                 0.0000
     39 ****         7.1507   2.4404  -0.0164 H              1 S1                 0.0000
     40 ****         6.3005   2.7473  -1.5354 H              1 S1                 0.0000
     41 ****         8.2637   4.4691  -0.6195 H              1 S1                 0.0000
     42 ****         6.8759   5.0155  -1.5594 H              1 S1                 0.0000
     43 ****         7.1770   5.0626   1.4558 H              1 S1                 0.0000
     44 ****         6.6165   6.3744   0.4163 H              1 S1                 0.0000
     45 ****         4.4962   5.2682   0.0386 H              1 S1                 0.0000
     46 ****         4.8228   4.7960   1.7145 H              1 S1                 0.0000
     47 ****         3.5465  -0.4380  -1.2592 H              1 S1                 0.0000
     48 ****        -2.5450  -2.4036  -2.5376 H              1 S1                 0.0000
     49 ****        -2.2464  -3.4982  -1.2081 H              1 S1                 0.0000
     50 ****        -4.5425  -3.7936  -2.0182 H              1 S1                 0.0000
     51 ****        -4.8988  -2.0893  -1.8122 H              1 S1                 0.0000
     52 ****        -4.1655  -3.9481   0.3219 H              1 S1                 0.0000
     53 ****         5.2269   1.0890  -0.8974 H              1 S1                 0.0000
     54 ****        -5.6915  -5.5395   2.7909 LP             1 S1                 0.0000
     55 ****        -4.5623  -4.9464   1.6191 LP             1 S1                 0.0000
     56 ****        -1.9493   0.9793  -0.0364 LP             1 S1                 0.0000
     57 ****        -0.4345   1.8076   0.1026 LP             1 S1                 0.0000
@<TRIPOS>BOND
    1    1    2 am    
    2    1   26 1     
    3    1   27 1     
    4    2    3 2     
    5    2    4 1     
    6    4    5 1     
    7    4   28 1     
    8    4   29 1     
    9    5   25 1     
   10    5    6 1     
   11    5   52 1     
   12    6    7 1     
   13    6   30 1     
   14    6   31 1     
   15    7    8 1     
   16    7   32 1     
   17    7   33 1     
   18    8    9 1     
   19    8   24 1     
   20    8   34 1     
   21    9   10 am    
   22    9   35 1     
   23   10   11 2     
   24   10   12 am    
   25   12   13 1     
   26   12   36 1     
   27   13   23 ar    
   28   13   14 ar    
   29   14   15 ar    
   30   14   37 1     
   31   15   16 ar    
   32   15   38 1     
   33   16   17 1     
   34   16   22 ar    
   35   17   21 1     
   36   17   18 1     
   37   18   19 1     
   38   18   39 1     
   39   18   40 1     
   40   19   20 1     
   41   19   41 1     
   42   19   42 1     
   43   20   21 1     
   44   20   43 1     
   45   20   44 1     
   46   21   45 1     
   47   21   46 1     
   48   22   23 ar    
   49   22   53 1     
   50   23   47 1     
   51   24   25 1     
   52   24   48 1     
   53   24   49 1     
   54   25   50 1     
   55   25   51 1     
   56    3   54 1     
   57    3   55 1     
   58   11   56 1     
   59   11   57 1     
@<TRIPOS>SUBSTRUCTURE
      1 S1             1
@<TRIPOS>SET
LONE_PAIRS      STATIC     ATOMS    <user>   **** ""
4 54 55 56 57
DONOR_HYDROGENS      STATIC     ATOMS    <user>   **** ""
6 26 27 52 35 36 53
ATOM$BLUE        STATIC     ATOMS    COLORGROUP SYSTEM
4 54 55 56 57
ATOM$RED        STATIC     ATOMS    COLORGROUP SYSTEM
6 26 27 52 35 36 53
