AV-unprocessed.smi:3241|AV-procd|sdf|12390|dock10
  -GOLD-   2272018263D 1   1.00000     0.00000
 Structure written by MMmdl.
 43 44  0  0  0  0  0  0  0  0  1 V2000
  145.9021  142.7758  154.0884 C   0  0  0  0  0  0  0  0  0  0  0  0
  147.2555  142.1936  154.5251 C   0  0  1  0  0  0  0  0  0  0  0  0
  147.2747  141.8487  156.0280 C   0  0  0  0  0  0  0  0  0  0  0  0
  148.6442  141.3036  156.4643 C   0  0  0  0  0  0  0  0  0  0  0  0
  149.0612  140.0945  155.6136 C   0  0  0  0  0  0  0  0  0  0  0  0
  149.0431  140.4361  154.1144 C   0  0  0  0  0  0  0  0  0  0  0  0
  147.6670  140.9755  153.6682 C   0  0  1  0  0  0  0  0  0  0  0  0
  146.6737  139.9663  153.8121 O   0  0  0  0  0  0  0  0  0  0  0  0
  147.0139  138.7145  153.2355 C   0  0  0  0  0  0  0  0  0  0  0  0
  146.3505  138.6194  151.8584 C   0  0  0  0  0  0  0  0  0  0  0  0
  146.1205  137.2266  151.4932 N   0  0  0  0  0  0  0  0  0  0  0  0
  145.3487  136.4795  152.4817 C   0  0  0  0  0  0  0  0  0  0  0  0
  144.2488  135.6323  151.8211 C   0  0  0  0  0  0  0  0  0  0  0  0
  144.7620  134.3886  151.2743 N   0  0  0  0  0  0  0  0  0  0  0  0
  144.0719  133.4002  150.6051 C   0  0  0  0  0  0  0  0  0  0  0  0
  144.9719  132.4274  150.2762 C   0  0  0  0  0  0  0  0  0  0  0  0
  146.2032  132.9173  150.7940 C   0  0  0  0  0  0  0  0  0  0  0  0
  146.0741  134.0897  151.3936 N   0  0  0  0  0  0  0  0  0  0  0  0
  145.0923  142.0611  154.2381 H   0  0  0  0  0  0  0  0  0  0  0  0
  145.9146  143.0481  153.0328 H   0  0  0  0  0  0  0  0  0  0  0  0
  145.6605  143.6739  154.6573 H   0  0  0  0  0  0  0  0  0  0  0  0
  148.0011  142.9731  154.3610 H   0  0  0  0  0  0  0  0  0  0  0  0
  147.0320  142.7341  156.6165 H   0  0  0  0  0  0  0  0  0  0  0  0
  146.5017  141.1116  156.2498 H   0  0  0  0  0  0  0  0  0  0  0  0
  149.3950  142.0894  156.3741 H   0  0  0  0  0  0  0  0  0  0  0  0
  148.6152  141.0244  157.5178 H   0  0  0  0  0  0  0  0  0  0  0  0
  150.0571  139.7610  155.9067 H   0  0  0  0  0  0  0  0  0  0  0  0
  148.3871  139.2592  155.8075 H   0  0  0  0  0  0  0  0  0  0  0  0
  149.8052  141.1894  153.9109 H   0  0  0  0  0  0  0  0  0  0  0  0
  149.3278  139.5603  153.5324 H   0  0  0  0  0  0  0  0  0  0  0  0
  147.7214  141.2918  152.6248 H   0  0  0  0  0  0  0  0  0  0  0  0
  148.0977  138.6584  153.1255 H   0  0  0  0  0  0  0  0  0  0  0  0
  146.7082  137.8771  153.8635 H   0  0  0  0  0  0  0  0  0  0  0  0
  145.4140  139.1782  151.8593 H   0  0  0  0  0  0  0  0  0  0  0  0
  146.9959  139.0874  151.1144 H   0  0  0  0  0  0  0  0  0  0  0  0
  147.0102  136.7653  151.3300 H   0  0  0  0  0  0  0  0  0  0  0  0
  146.0135  135.8188  153.0393 H   0  0  0  0  0  0  0  0  0  0  0  0
  144.9064  137.1608  153.2094 H   0  0  0  0  0  0  0  0  0  0  0  0
  143.4492  135.4138  152.5310 H   0  0  0  0  0  0  0  0  0  0  0  0
  143.7942  136.1947  151.0049 H   0  0  0  0  0  0  0  0  0  0  0  0
  143.0104  133.4725  150.4191 H   0  0  0  0  0  0  0  0  0  0  0  0
  144.7804  131.5069  149.7452 H   0  0  0  0  0  0  0  0  0  0  0  0
  147.1800  132.4588  150.7527 H   0  0  0  0  0  0  0  0  0  0  0  0
  1  2  1  0  0  0  0
  1 19  1  0  0  0  0
  1 20  1  0  0  0  0
  1 21  1  0  0  0  0
  2  7  1  0  0  0  0
  2  3  1  0  0  0  0
  2 22  1  0  0  0  0
  3  4  1  0  0  0  0
  3 23  1  0  0  0  0
  3 24  1  0  0  0  0
  4  5  1  0  0  0  0
  4 25  1  0  0  0  0
  4 26  1  0  0  0  0
  5  6  1  0  0  0  0
  5 27  1  0  0  0  0
  5 28  1  0  0  0  0
  6  7  1  0  0  0  0
  6 29  1  0  0  0  0
  6 30  1  0  0  0  0
  7  8  1  0  0  0  0
  7 31  1  0  0  0  0
  8  9  1  0  0  0  0
  9 10  1  0  0  0  0
  9 32  1  0  0  0  0
  9 33  1  0  0  0  0
 10 11  1  0  0  0  0
 10 34  1  0  0  0  0
 10 35  1  0  0  0  0
 11 12  1  0  0  0  0
 11 36  1  0  0  0  0
 12 13  1  0  0  0  0
 12 37  1  0  0  0  0
 12 38  1  0  0  0  0
 13 14  1  0  0  0  0
 13 39  1  0  0  0  0
 13 40  1  0  0  0  0
 14 18  1  0  0  0  0
 14 15  1  0  0  0  0
 15 16  2  0  0  0  0
 15 41  1  0  0  0  0
 16 17  1  0  0  0  0
 16 42  1  0  0  0  0
 17 18  2  0  0  0  0
 17 43  1  0  0  0  0
M  END
> <s_m_source_file>
AV-unprocessed.smi

> <i_m_source_file_index>
3241

> <i_lp_mmshare_version>
43012

> <i_f3d_flags>
0

> <s_epik_input>
W0NIM11bQ0BASF0xW0NIMl1bQ0gyXVtDSDJdW0NIMl1bQ0BIXTFPW0NIMl1bQ0gyXVtOSF1bQ0gyXVtDSDJdbjJbY0hdW2NIXVtjSF1uMg==

> <s_epik_cmdline>
J2VwaWtfcHl0aG9uJywgJy1waCcsICc3LjAnLCAnLXRuJywgJzgnLCAnLW1hJywgJzIwMCcsICctbWV0YWxfYmluZGluZycsICctaW1hZScsICc8aW5maWxlLm1hZT4nLCAnLW9tYWUnLCAnPG91dGZpbGUubWFlPic=

> <r_lp_tautomer_probability>
1

> <r_epik_Ionization_Penalty>
2.47055

> <r_epik_Ionization_Penalty_Charging>
0

> <r_epik_Ionization_Penalty_Neutral>
2.47055

> <r_epik_State_Penalty>
2.6322

> <r_epik_Charging_Adjusted_Penalty>
2.6322

> <i_epik_Tot_Q>
0

> <i_epik_Tot_abs_Q>
0

> <r_epik_Metal_State_Penalty>
2.63108

> <b_epik_Metal_Only>
0

> <s_lp_Force_Field>
OPLS_2005

> <r_lp_Energy>
16.4291

> <b_lp_Chiralities_Consistent>
1

> <s_lp_Variant>
AV-unprocessed.smi:3241-6

> <Gold.Version>
5.8.1

> <Gold.Id.Protein>
6NUR|6NUR_protein|mol2

> <Gold.PLP.Fitness>
45.6544

> <Gold.PLP.PLP>
-38.3641

> <Gold.PLP.part.hbond>
-1.8847

> <Gold.PLP.part.metal>
0.0000

> <Gold.PLP.part.buried>
-2.9133

> <Gold.PLP.part.nonpolar>
-34.7119

> <Gold.PLP.part.repulsive>
0.3692

> <Gold.PLP.ligand.clash>
0.0000

> <Gold.PLP.ligand.torsion>
0.8881

> <Gold.PLP.Chemscore.Hbond>
1.0000

> <Gold.PLP.Chemscore.CHOScore>
2.0000

> <Gold.PLP.Chemscore.Metal>
0.0000

> <Gold.Chemscore.Hbonds>
donor molecule, donor type, donor heavy atom, donor atom, acceptor molecule, acceptor atom, score
      L1  H    11    36       P1  7948  0.96
      L1  C    15    41       P1 10186  1.00
      L1  C    17    43       P1 10747  1.00

> <Gold.PLP.Chemscore.Internal.Correction>
0.0665

> <Gold.Rescore>
     Score         DG    S(hbond)    S(metal)    S(lipo)     H(rot)  DE(clash)    DE(int)     intcor
     14.03     -15.21       0.99        0.00      94.03       1.79       0.13       1.05       ----

> <Gold.Chemscore.Fitness>
14.0337

> <Gold.Chemscore.DG>
-15.2091

> <Gold.Chemscore.ZeroCoef>
-5.4800

> <Gold.Chemscore.Hbond>
0.9912

> <Gold.Chemscore.Metal>
0.0000

> <Gold.Chemscore.Lipo>
94.0292

> <Gold.Chemscore.Internal_Hbond>
0.0000

> <Gold.Chemscore.DEClash>
0.1276

> <Gold.Chemscore.DEInternal>
1.0478

> <Gold.Chemscore.Rot>
1.7901

> <Gold.Chemscore.Internal.Correction>
   9.000000E+99

> <Gold.Chemscore.Hbonds>
donor molecule, donor type, donor heavy atom, donor atom, acceptor molecule, acceptor atom, score
      L1  H    11    36       P1  7948  0.89

> <Gold.Chemscore.Hbond.Weighted>
-3.3105

> <Gold.Chemscore.Metal.Weighted>
-0.0000

> <Gold.Chemscore.Lipo.Weighted>
-11.0014

> <Gold.Chemscore.Internal_Hbond.Weighted>
0.0000

> <Gold.Chemscore.DEClash.Weighted>
0.1276

> <Gold.Chemscore.DEInternal.Weighted>
1.0478

> <Gold.Chemscore.Rot.Weighted>
4.5827

> <Gold.Chemscore.Internal.Correction.Weighted>
   9.000000E+99

> <Gold.Protein.RotatedTorsions>
[ 6907 6896 6895 6894 ] final    6.38 input  -60.11 | X-H torsion
[ 7974 7965 7964 7962 ] final  -18.33 input  175.53 | X-H torsion
[ 8008 7997 7996 7995 ] final -163.36 input   59.86 | X-H torsion
[ 10167 10162 10161 10158 ] final   61.77 input  -65.29 | X-H torsion
[ 10718 10713 10712 10709 ] final   10.42 input   66.30 | X-H torsion
[ 10763 10752 10751 10750 ] final  -24.24 input  -60.55 | X-H torsion
[ 11005 11000 10999 10996 ] final   48.46 input  -57.11 | X-H torsion

> <Gold.Protein.ActiveResidues>
 VAL166  LYS551  ARG553  GLY616  TRP617  ASP618  TYR619  PRO620  LYS621  CYS622 
 ASP623  PHE694  ASN695  SER759  ASP760  ASP761  ALA762  ILE779  LEU786  VAL792 
 PHE793  MET794  SER795  GLU796  ALA797  LYS798  CYS799  TRP800  GLU811  SER814 

> <Gold.Protein.RotatedAtoms>
  151.6728  135.0973  160.0201 H   0  0  0  0  0  0  0  0  0  0  0  0  # atno 6907 bound_to 6896
  152.3881  133.6636  159.6224 H   0  0  0  0  0  0  0  0  0  0  0  0  # atno 6908 bound_to 6896
  150.7802  133.8917  159.3356 H   0  0  0  0  0  0  0  0  0  0  0  0  # atno 6909 bound_to 6896
  146.1897  140.3905  142.8462 H   0  0  0  0  0  0  0  0  0  0  0  0  # atno 7974 bound_to 7965
  155.8202  140.0918  157.1853 H   0  0  0  0  0  0  0  0  0  0  0  0  # atno 8008 bound_to 7997
  154.3979  140.1438  156.3550 H   0  0  0  0  0  0  0  0  0  0  0  0  # atno 8009 bound_to 7997
  155.8274  140.3444  155.5554 H   0  0  0  0  0  0  0  0  0  0  0  0  # atno 8010 bound_to 7997
  140.1512  144.4461  150.6758 H   0  0  0  0  0  0  0  0  0  0  0  0  # atno 10167 bound_to 10162
  156.9806  130.6004  149.5676 H   0  0  0  0  0  0  0  0  0  0  0  0  # atno 10718 bound_to 10713
  153.6807  135.6967  153.5119 H   0  0  0  0  0  0  0  0  0  0  0  0  # atno 10763 bound_to 10752
  153.2487  135.4282  155.0774 H   0  0  0  0  0  0  0  0  0  0  0  0  # atno 10764 bound_to 10752
  154.8401  135.3526  154.6350 H   0  0  0  0  0  0  0  0  0  0  0  0  # atno 10765 bound_to 10752
  140.1188  134.4856  155.8614 H   0  0  0  0  0  0  0  0  0  0  0  0  # atno 11005 bound_to 11000
  144.8464  140.6935  143.6196 LP  0  0  0  0  0  0  0  0  0  0  0  0  # atno 17320 bound_to 7965
  145.3829  139.1633  143.4271 LP  0  0  0  0  0  0  0  0  0  0  0  0  # atno 17321 bound_to 7965
  140.6701  143.2282  151.5646 LP  0  0  0  0  0  0  0  0  0  0  0  0  # atno 17342 bound_to 10162
  139.5425  144.2609  152.1378 LP  0  0  0  0  0  0  0  0  0  0  0  0  # atno 17343 bound_to 10162
  156.0246  130.5340  150.8370 LP  0  0  0  0  0  0  0  0  0  0  0  0  # atno 17370 bound_to 10713
  157.5528  131.0944  150.9670 LP  0  0  0  0  0  0  0  0  0  0  0  0  # atno 17371 bound_to 10713
  141.2147  133.6753  156.6849 LP  0  0  0  0  0  0  0  0  0  0  0  0  # atno 17394 bound_to 11000
  140.2992  134.8177  157.4083 LP  0  0  0  0  0  0  0  0  0  0  0  0  # atno 17395 bound_to 11000

$$$$
