AV-unprocessed.smi:40|AV-procd|sdf|367|dock7
  -GOLD-   2262016203D 1   1.00000     0.00000
 Structure written by MMmdl.
 47 48  0  0  0  0  0  0  0  0  1 V2000
  151.2640  145.5093  159.7912 C   0  0  0  0  0  0  0  0  0  0  0  0
  151.5342  144.6267  158.5679 C   0  0  0  0  0  0  0  0  0  0  0  0
  152.8314  143.8165  158.7024 C   0  0  0  0  0  0  0  0  0  0  0  0
  152.7178  142.6876  159.7351 C   0  0  0  0  0  0  0  0  0  0  0  0
  154.0924  142.1684  160.1819 C   0  0  0  0  0  0  0  0  0  0  0  0
  153.9804  140.8512  160.7016 O   0  0  0  0  0  0  0  0  0  0  0  0
  154.1872  139.7718  159.9174 C   0  0  0  0  0  0  0  0  0  0  0  0
  154.2573  139.8155  158.6895 O   0  0  0  0  0  0  0  0  0  0  0  0
  154.3495  138.5596  160.7041 N   0  0  0  0  0  0  0  0  0  0  0  0
  154.5718  137.2886  160.2872 C   0  0  0  0  0  0  0  0  0  0  0  0
  154.4556  136.9200  159.0215 N   0  0  0  0  0  0  0  0  0  0  0  0
  154.6905  135.6505  158.5679 C   0  0  0  0  0  0  0  0  0  0  0  0
  154.5094  135.3680  157.3850 O   0  0  0  0  0  0  0  0  0  0  0  0
  155.1335  134.6882  159.5077 N   0  0  0  0  0  0  0  0  0  0  0  0
  155.3653  133.2638  159.0269 C   0  0  2  0  0  0  0  0  0  0  0  0
  154.4339  132.4120  159.6344 O   0  0  0  0  0  0  0  0  0  0  0  0
  155.0434  131.5816  160.6218 C   0  0  2  0  0  0  0  0  0  0  0  0
  154.9603  132.2191  162.0182 C   0  0  0  0  0  0  0  0  0  0  0  0
  156.4781  131.4175  160.1255 C   0  0  1  0  0  0  0  0  0  0  0  0
  156.5285  130.2958  159.2600 O   0  0  0  0  0  0  0  0  0  0  0  0
  156.7684  132.7413  159.4184 C   0  0  1  0  0  0  0  0  0  0  0  0
  157.6329  132.5595  158.3117 O   0  0  0  0  0  0  0  0  0  0  0  0
  155.2385  135.0516  160.8453 C   0  0  0  0  0  0  0  0  0  0  0  0
  154.9898  136.3103  161.2674 C   0  0  0  0  0  0  0  0  0  0  0  0
  155.1214  136.6377  162.5648 F   0  0  0  0  0  0  0  0  0  0  0  0
  155.1840  133.2982  157.9512 H   0  0  0  0  0  0  0  0  0  0  0  0
  154.5204  130.6247  160.6572 H   0  0  0  0  0  0  0  0  0  0  0  0
  157.1781  131.2353  160.9420 H   0  0  0  0  0  0  0  0  0  0  0  0
  157.2264  133.4308  160.1292 H   0  0  0  0  0  0  0  0  0  0  0  0
  150.3331  146.0642  159.6723 H   0  0  0  0  0  0  0  0  0  0  0  0
  152.0665  146.2322  159.9400 H   0  0  0  0  0  0  0  0  0  0  0  0
  151.1800  144.9090  160.6976 H   0  0  0  0  0  0  0  0  0  0  0  0
  150.6925  143.9484  158.4228 H   0  0  0  0  0  0  0  0  0  0  0  0
  151.5831  145.2529  157.6762 H   0  0  0  0  0  0  0  0  0  0  0  0
  153.0996  143.3946  157.7330 H   0  0  0  0  0  0  0  0  0  0  0  0
  153.6467  144.4836  158.9856 H   0  0  0  0  0  0  0  0  0  0  0  0
  152.1688  143.0457  160.6070 H   0  0  0  0  0  0  0  0  0  0  0  0
  152.1331  141.8678  159.3161 H   0  0  0  0  0  0  0  0  0  0  0  0
  154.8120  142.2108  159.3629 H   0  0  0  0  0  0  0  0  0  0  0  0
  154.4842  142.8080  160.9730 H   0  0  0  0  0  0  0  0  0  0  0  0
  154.2684  138.7032  161.7003 H   0  0  0  0  0  0  0  0  0  0  0  0
  155.4129  131.5691  162.7671 H   0  0  0  0  0  0  0  0  0  0  0  0
  153.9229  132.3830  162.3102 H   0  0  0  0  0  0  0  0  0  0  0  0
  155.4778  133.1776  162.0601 H   0  0  0  0  0  0  0  0  0  0  0  0
  156.3040  129.5249  159.7592 H   0  0  0  0  0  0  0  0  0  0  0  0
  157.1041  132.4034  157.5440 H   0  0  0  0  0  0  0  0  0  0  0  0
  155.5256  134.3336  161.5975 H   0  0  0  0  0  0  0  0  0  0  0  0
  1  2  1  0  0  0  0
  1 30  1  0  0  0  0
  1 31  1  0  0  0  0
  1 32  1  0  0  0  0
  2  3  1  0  0  0  0
  2 33  1  0  0  0  0
  2 34  1  0  0  0  0
  3  4  1  0  0  0  0
  3 35  1  0  0  0  0
  3 36  1  0  0  0  0
  4  5  1  0  0  0  0
  4 37  1  0  0  0  0
  4 38  1  0  0  0  0
  5  6  1  0  0  0  0
  5 39  1  0  0  0  0
  5 40  1  0  0  0  0
  6  7  1  0  0  0  0
  7  8  2  0  0  0  0
  7  9  1  0  0  0  0
  9 10  1  0  0  0  0
  9 41  1  0  0  0  0
 10 24  1  0  0  0  0
 10 11  2  0  0  0  0
 11 12  1  0  0  0  0
 12 13  2  0  0  0  0
 12 14  1  0  0  0  0
 14 15  1  0  0  0  0
 14 23  1  0  0  0  0
 15 26  1  0  0  0  0
 15 21  1  0  0  0  0
 15 16  1  0  0  0  0
 16 17  1  0  0  0  0
 17 27  1  0  0  0  0
 17 18  1  0  0  0  0
 17 19  1  0  0  0  0
 18 42  1  0  0  0  0
 18 43  1  0  0  0  0
 18 44  1  0  0  0  0
 19 28  1  0  0  0  0
 19 20  1  0  0  0  0
 19 21  1  0  0  0  0
 20 45  1  0  0  0  0
 21 29  1  0  0  0  0
 21 22  1  0  0  0  0
 22 46  1  0  0  0  0
 23 24  2  0  0  0  0
 23 47  1  0  0  0  0
 24 25  1  0  0  0  0
M  END
> <s_m_source_file>
AV-unprocessed.smi

> <i_m_source_file_index>
40

> <i_lp_mmshare_version>
43012

> <i_f3d_flags>
0

> <s_epik_input>
W0NIM11bQ0gyXVtDSDJdW0NIMl1bQ0gyXU9DKD1PKVtOSF1jMW5jKD1PKW4oW2NIXWMxRilbQ0BASF0yT1tDQEhdKFtDSDNdKVtDQEBIXShbT0hdKVtDQEhdMltPSF0=

> <s_epik_cmdline>
J2VwaWtfcHl0aG9uJywgJy1waCcsICc3LjAnLCAnLXRuJywgJzgnLCAnLW1hJywgJzIwMCcsICctbWV0YWxfYmluZGluZycsICctaW1hZScsICc8aW5maWxlLm1hZT4nLCAnLW9tYWUnLCAnPG91dGZpbGUubWFlPic=

> <r_lp_tautomer_probability>
1

> <r_epik_Ionization_Penalty>
2.29506e-06

> <r_epik_Ionization_Penalty_Charging>
8.26867e-09

> <r_epik_Ionization_Penalty_Neutral>
2.2868e-06

> <r_epik_State_Penalty>
-0

> <r_epik_Charging_Adjusted_Penalty>
8.26867e-09

> <i_epik_Tot_Q>
0

> <i_epik_Tot_abs_Q>
0

> <r_epik_Metal_State_Penalty>
-0

> <b_epik_Metal_Only>
0

> <s_epik_Chemistry_Notes>
This compound has an ester and may undergo hydrolysis at high or low pH. This compound contains an acetal/aminal-like group ( X-CH(R)-Y where X, Y are N, S, or O) that may be acid/base labile, releasing an aldehyde.

> <s_lp_Force_Field>
OPLS_2005

> <r_lp_Energy>
38.6642

> <b_lp_Chiralities_Consistent>
1

> <s_lp_Variant>
AV-unprocessed.smi:40-1

> <Gold.Version>
5.8.1

> <Gold.Id.Protein>
6NUR|6NUR_protein|mol2

> <Gold.PLP.Fitness>
42.6000

> <Gold.PLP.PLP>
-34.9474

> <Gold.PLP.part.hbond>
-2.9502

> <Gold.PLP.part.metal>
0.0000

> <Gold.PLP.part.buried>
-3.2924

> <Gold.PLP.part.nonpolar>
-28.2456

> <Gold.PLP.part.repulsive>
0.0103

> <Gold.PLP.ligand.clash>
0.0000

> <Gold.PLP.ligand.torsion>
0.6968

> <Gold.PLP.Chemscore.Hbond>
2.9825

> <Gold.PLP.Chemscore.CHOScore>
0.0000

> <Gold.PLP.Chemscore.Metal>
0.0000

> <Gold.Chemscore.Hbonds>
donor molecule, donor type, donor heavy atom, donor atom, acceptor molecule, acceptor atom, score
      P1  H  6896  6909       L1    16  0.26
      P1  H  7997  8009       L1     8  1.00
      P1  H 10752 10764       L1    13  0.99

> <Gold.PLP.Chemscore.Internal.Correction>
0.0987

> <Gold.Rescore>
     Score         DG    S(hbond)    S(metal)    S(lipo)     H(rot)  DE(clash)    DE(int)     intcor
     11.81     -14.04       2.63        0.00      79.06       3.70       0.22       2.01       ----

> <Gold.Chemscore.Fitness>
11.8072

> <Gold.Chemscore.DG>
-14.0392

> <Gold.Chemscore.ZeroCoef>
-5.4800

> <Gold.Chemscore.Hbond>
2.6256

> <Gold.Chemscore.Metal>
0.0000

> <Gold.Chemscore.Lipo>
79.0641

> <Gold.Chemscore.Internal_Hbond>
0.0000

> <Gold.Chemscore.DEClash>
0.2230

> <Gold.Chemscore.DEInternal>
2.0089

> <Gold.Chemscore.Rot>
3.6957

> <Gold.Chemscore.Internal.Correction>
   9.000000E+99

> <Gold.Chemscore.Hbonds>
donor molecule, donor type, donor heavy atom, donor atom, acceptor molecule, acceptor atom, score
      P1  H  6896  6909       L1    16  0.13
      P1  H  7997  8009       L1     8  0.96
      P1  H 10752 10764       L1    13  0.92

> <Gold.Chemscore.Hbond.Weighted>
-8.7696

> <Gold.Chemscore.Metal.Weighted>
-0.0000

> <Gold.Chemscore.Lipo.Weighted>
-9.2505

> <Gold.Chemscore.Internal_Hbond.Weighted>
0.0000

> <Gold.Chemscore.DEClash.Weighted>
0.2230

> <Gold.Chemscore.DEInternal.Weighted>
2.0089

> <Gold.Chemscore.Rot.Weighted>
9.4610

> <Gold.Chemscore.Internal.Correction.Weighted>
   9.000000E+99

> <Gold.Protein.RotatedTorsions>
[ 6907 6896 6895 6894 ] final -112.49 input  -60.11 | X-H torsion
[ 7974 7965 7964 7962 ] final   32.84 input  175.53 | X-H torsion
[ 8008 7997 7996 7995 ] final  124.33 input   59.86 | X-H torsion
[ 10167 10162 10161 10158 ] final   74.39 input  -65.29 | X-H torsion
[ 10718 10713 10712 10709 ] final -114.94 input   66.30 | X-H torsion
[ 10763 10752 10751 10750 ] final   30.72 input  -60.55 | X-H torsion
[ 11005 11000 10999 10996 ] final   24.52 input  -57.11 | X-H torsion

> <Gold.Protein.ActiveResidues>
 VAL166  LYS551  ARG553  GLY616  TRP617  ASP618  TYR619  PRO620  LYS621  CYS622 
 ASP623  PHE694  ASN695  SER759  ASP760  ASP761  ALA762  ILE779  LEU786  VAL792 
 PHE793  MET794  SER795  GLU796  ALA797  LYS798  CYS799  TRP800  GLU811  SER814 

> <Gold.Protein.RotatedAtoms>
  150.7762  133.9082  159.3361 H   0  0  0  0  0  0  0  0  0  0  0  0  # atno 6907 bound_to 6896
  151.6957  135.0937  160.0251 H   0  0  0  0  0  0  0  0  0  0  0  0  # atno 6908 bound_to 6896
  152.3798  133.6493  159.6188 H   0  0  0  0  0  0  0  0  0  0  0  0  # atno 6909 bound_to 6896
  146.1460  139.6474  142.9131 H   0  0  0  0  0  0  0  0  0  0  0  0  # atno 7974 bound_to 7965
  156.2798  140.2742  156.1771 H   0  0  0  0  0  0  0  0  0  0  0  0  # atno 8008 bound_to 7997
  155.0594  140.0386  157.2589 H   0  0  0  0  0  0  0  0  0  0  0  0  # atno 8009 bound_to 7997
  154.7129  140.2672  155.6617 H   0  0  0  0  0  0  0  0  0  0  0  0  # atno 8010 bound_to 7997
  140.0143  144.5590  150.7633 H   0  0  0  0  0  0  0  0  0  0  0  0  # atno 10167 bound_to 10162
  156.0862  130.6054  150.8840 H   0  0  0  0  0  0  0  0  0  0  0  0  # atno 10718 bound_to 10713
  153.0355  135.6457  154.1089 H   0  0  0  0  0  0  0  0  0  0  0  0  # atno 10763 bound_to 10752
  154.0804  135.2873  155.3293 H   0  0  0  0  0  0  0  0  0  0  0  0  # atno 10764 bound_to 10752
  154.6533  135.5418  153.7993 H   0  0  0  0  0  0  0  0  0  0  0  0  # atno 10765 bound_to 10752
  140.3578  134.2158  155.7674 H   0  0  0  0  0  0  0  0  0  0  0  0  # atno 11005 bound_to 11000
  145.4936  141.0438  143.2579 LP  0  0  0  0  0  0  0  0  0  0  0  0  # atno 17320 bound_to 7965
  144.7847  139.6452  143.7139 LP  0  0  0  0  0  0  0  0  0  0  0  0  # atno 17321 bound_to 7965
  140.7369  143.2758  151.3746 LP  0  0  0  0  0  0  0  0  0  0  0  0  # atno 17342 bound_to 10162
  139.6183  144.0957  152.2367 LP  0  0  0  0  0  0  0  0  0  0  0  0  # atno 17343 bound_to 10162
  157.5998  131.0941  150.8980 LP  0  0  0  0  0  0  0  0  0  0  0  0  # atno 17370 bound_to 10713
  156.9140  130.5291  149.5280 LP  0  0  0  0  0  0  0  0  0  0  0  0  # atno 17371 bound_to 10713
  141.1993  133.8014  157.0542 LP  0  0  0  0  0  0  0  0  0  0  0  0  # atno 17394 bound_to 11000
  140.0651  134.9733  157.1372 LP  0  0  0  0  0  0  0  0  0  0  0  0  # atno 17395 bound_to 11000

$$$$
