#       Name:                AV-unprocessed.smi:3141
#       Creating user name   scv26
#       Creation time:       Fri Mar 27 17:36:52 2020


#       File generated by GOLD software.
#

@<TRIPOS>MOLECULE
AV-unprocessed.smi:3141
    38    40     1
SMALL
NO_CHARGES


@<TRIPOS>ATOM
      1 ****        -0.0962   2.6772  -0.3231 O.2            1 S1                 0.0000
      2 ****        -0.5884   1.5509  -0.2531 C.2            1 S1                 0.0000
      3 ****        -1.8961   1.3064  -0.0969 N.am           1 S1                 0.0000
      4 ****        -2.9149   2.2994   0.0109 C.3            1 S1                 0.0000
      5 ****        -4.0966   1.9999   0.9073 C.3            1 S1                 0.0000
      6 ****        -4.2688   1.9833  -0.5864 C.3            1 S1                 0.0000
      7 ****         0.1216   0.4171  -0.3232 N.am           1 S1                 0.0000
      8 ****         1.5769   0.3409  -0.4658 C.3            1 S1                 0.0000
      9 ****         1.9799   0.4099  -1.9540 C.3            1 S1                 0.0000
     10 ****         2.4789  -0.9893  -2.3459 C.3            1 S1                 0.0000
     11 ****         2.0665  -1.9137  -1.2004 C.3            1 S1                 0.0000
     12 ****         2.1325  -1.0087   0.0342 C.3            1 S1                 0.0000
     13 ****         1.4834  -1.5321   1.2327 N.pl3          1 S1                 0.0000
     14 ****         1.3205  -0.8596   2.4387 C.2            1 S1                 0.0000
     15 ****         0.6938  -1.7301   3.3003 C.2            1 S1                 0.0000
     16 ****         0.4862  -2.9494   2.6624 N.2            1 S1                 0.0000
     17 ****         0.9904  -2.7621   1.4497 C.2            1 S1                 0.0000
     18 ****        -2.1957   0.3435  -0.0495 H              1 S1                 0.0000
     19 ****        -2.6038   3.3419  -0.0364 H              1 S1                 0.0000
     20 ****        -4.1134   1.0430   1.4256 H              1 S1                 0.0000
     21 ****        -4.5347   2.8327   1.4539 H              1 S1                 0.0000
     22 ****        -4.8212   2.8051  -1.0373 H              1 S1                 0.0000
     23 ****        -4.4012   1.0151  -1.0654 H              1 S1                 0.0000
     24 ****        -0.3742  -0.4596  -0.2547 H              1 S1                 0.0000
     25 ****         2.0357   1.1556   0.0976 H              1 S1                 0.0000
     26 ****         1.1444   0.7134  -2.5868 H              1 S1                 0.0000
     27 ****         2.7706   1.1455  -2.1053 H              1 S1                 0.0000
     28 ****         2.0796  -1.3197  -3.3051 H              1 S1                 0.0000
     29 ****         3.5663  -0.9769  -2.4304 H              1 S1                 0.0000
     30 ****         1.0456  -2.2611  -1.3663 H              1 S1                 0.0000
     31 ****         2.7117  -2.7891  -1.1185 H              1 S1                 0.0000
     32 ****         3.1856  -0.8673   0.2834 H              1 S1                 0.0000
     33 ****         1.6492   0.1601   2.5776 H              1 S1                 0.0000
     34 ****         0.3897  -1.5775   4.3254 H              1 S1                 0.0000
     35 ****         0.9956  -3.5443   0.7051 H              1 S1                 0.0000
     36 ****        -0.6836   3.4842  -0.2629 LP             1 S1                 0.0000
     37 ****         0.8911   2.7850  -0.4402 LP             1 S1                 0.0000
     38 ****         0.0573  -3.7738   3.0317 LP             1 S1                 0.0000
@<TRIPOS>BOND
    1    1    2 2     
    2    2    3 am    
    3    2    7 am    
    4    3    4 1     
    5    3   18 1     
    6    4    6 1     
    7    4    5 1     
    8    4   19 1     
    9    5    6 1     
   10    5   20 1     
   11    5   21 1     
   12    6   22 1     
   13    6   23 1     
   14    7    8 1     
   15    7   24 1     
   16    8   12 1     
   17    8    9 1     
   18    8   25 1     
   19    9   10 1     
   20    9   26 1     
   21    9   27 1     
   22   10   11 1     
   23   10   28 1     
   24   10   29 1     
   25   11   12 1     
   26   11   30 1     
   27   11   31 1     
   28   12   13 1     
   29   12   32 1     
   30   13   17 1     
   31   13   14 1     
   32   14   15 2     
   33   14   33 1     
   34   15   16 1     
   35   15   34 1     
   36   16   17 2     
   37   17   35 1     
   38    1   36 1     
   39    1   37 1     
   40   16   38 1     
@<TRIPOS>SUBSTRUCTURE
      1 S1             1
@<TRIPOS>SET
LONE_PAIRS      STATIC     ATOMS    <user>   **** ""
3 36 37 38
DONOR_HYDROGENS      STATIC     ATOMS    <user>   **** ""
2 18 24
ATOM$BLUE        STATIC     ATOMS    COLORGROUP SYSTEM
3 36 37 38
ATOM$RED        STATIC     ATOMS    COLORGROUP SYSTEM
2 18 24
