#       Name:                AV-unprocessed.smi:1621
#       Creating user name   scv26
#       Creation time:       Fri Mar 27 07:15:52 2020


#       File generated by GOLD software.
#

@<TRIPOS>MOLECULE
AV-unprocessed.smi:1621
    42    43     1
SMALL
NO_CHARGES


@<TRIPOS>ATOM
      1 ****        -2.1588  -3.5464  -1.9782 C.3            1 S1                 0.0000
      2 ****        -2.2983  -2.0842  -1.8085 N.4            1 S1                 1.0000
      3 ****        -1.8457  -1.3294  -3.0037 C.3            1 S1                 0.0000
      4 ****        -2.1038   0.1804  -2.8397 C.3            1 S1                 0.0000
      5 ****        -1.4589   0.7476  -1.5598 C.3            1 S1                 0.0000
      6 ****         0.0775   0.8759  -1.6920 C.3            1 S1                 0.0000
      7 ****         0.6830   1.5281  -0.5342 N.am           1 S1                 0.0000
      8 ****         1.3378   0.9048   0.4568 C.2            1 S1                 0.0000
      9 ****         1.5079  -0.3136   0.4921 O.2            1 S1                 0.0000
     10 ****         1.7689   1.7836   1.3786 N.am           1 S1                 0.0000
     11 ****         2.4676   1.5468   2.5951 C.ar           1 S1                 0.0000
     12 ****         3.0118   2.6665   3.2580 C.ar           1 S1                 0.0000
     13 ****         3.7000   2.4715   4.4722 C.ar           1 S1                 0.0000
     14 ****         3.8645   1.2608   5.0446 N.ar           1 S1                 0.0000
     15 ****         3.3356   0.1907   4.4149 C.ar           1 S1                 0.0000
     16 ****         2.6289   0.2754   3.1984 C.ar           1 S1                 0.0000
     17 ****        -1.9294  -0.0968  -0.3558 C.3            1 S1                 0.0000
     18 ****        -1.6586  -1.5971  -0.5617 C.3            1 S1                 0.0000
     19 ****        -1.1109  -3.8308  -2.0828 H              1 S1                 0.0000
     20 ****        -2.6963  -3.8843  -2.8649 H              1 S1                 0.0000
     21 ****        -2.5726  -4.0737  -1.1181 H              1 S1                 0.0000
     22 ****        -0.7864  -1.5213  -3.1799 H              1 S1                 0.0000
     23 ****        -2.3790  -1.6921  -3.8834 H              1 S1                 0.0000
     24 ****        -1.7441   0.7192  -3.7171 H              1 S1                 0.0000
     25 ****        -3.1805   0.3521  -2.8026 H              1 S1                 0.0000
     26 ****        -1.8456   1.7584  -1.4222 H              1 S1                 0.0000
     27 ****         0.5414  -0.0936  -1.8759 H              1 S1                 0.0000
     28 ****         0.3152   1.4865  -2.5635 H              1 S1                 0.0000
     29 ****         0.5949   2.5328  -0.4839 H              1 S1                 0.0000
     30 ****         1.5924   2.7559   1.1728 H              1 S1                 0.0000
     31 ****         2.9087   3.6602   2.8466 H              1 S1                 0.0000
     32 ****         4.1286   3.3119   4.9979 H              1 S1                 0.0000
     33 ****         3.4757  -0.7647   4.8984 H              1 S1                 0.0000
     34 ****         2.2259  -0.6284   2.7704 H              1 S1                 0.0000
     35 ****        -1.4685   0.2452   0.5703 H              1 S1                 0.0000
     36 ****        -3.0017   0.0492  -0.2180 H              1 S1                 0.0000
     37 ****        -2.0524  -2.1541   0.2893 H              1 S1                 0.0000
     38 ****        -0.5865  -1.7937  -0.5964 H              1 S1                 0.0000
     39 ****        -3.2870  -1.9011  -1.7123 H              1 S1                 0.0000
     40 ****         1.1499  -0.8899  -0.2426 LP             1 S1                 0.0000
     41 ****         2.0041  -0.7272   1.2554 LP             1 S1                 0.0000
     42 ****         4.3615   1.1599   5.9064 LP             1 S1                 0.0000
@<TRIPOS>BOND
    1    1    2 1     
    2    1   19 1     
    3    1   20 1     
    4    1   21 1     
    5    2   18 1     
    6    2    3 1     
    7    2   39 1     
    8    3    4 1     
    9    3   22 1     
   10    3   23 1     
   11    4    5 1     
   12    4   24 1     
   13    4   25 1     
   14    5    6 1     
   15    5   17 1     
   16    5   26 1     
   17    6    7 1     
   18    6   27 1     
   19    6   28 1     
   20    7    8 am    
   21    7   29 1     
   22    8    9 2     
   23    8   10 am    
   24   10   11 1     
   25   10   30 1     
   26   11   16 ar    
   27   11   12 ar    
   28   12   13 ar    
   29   12   31 1     
   30   13   14 ar    
   31   13   32 1     
   32   14   15 ar    
   33   15   16 ar    
   34   15   33 1     
   35   16   34 1     
   36   17   18 1     
   37   17   35 1     
   38   17   36 1     
   39   18   37 1     
   40   18   38 1     
   41    9   40 1     
   42    9   41 1     
   43   14   42 1     
@<TRIPOS>SUBSTRUCTURE
      1 S1             1
@<TRIPOS>SET
LONE_PAIRS      STATIC     ATOMS    <user>   **** ""
3 40 41 42
DONOR_HYDROGENS      STATIC     ATOMS    <user>   **** ""
3 39 29 30
ATOM$BLUE        STATIC     ATOMS    COLORGROUP SYSTEM
3 40 41 42
ATOM$RED        STATIC     ATOMS    COLORGROUP SYSTEM
3 39 29 30
