AV-unprocessed.smi:884|AV-procd|sdf|4043|dock6
  -GOLD-   22720 1533D 1   1.00000     0.00000
 Structure written by MMmdl.
 48 50  0  0  0  0  0  0  0  0  2 V2000
  146.9285  137.2107  154.6692 O   0  0  0  0  0  0  0  0  0  0  0  0
  146.4093  138.2903  154.3828 C   0  0  0  0  0  0  0  0  0  0  0  0
  145.3998  138.3861  153.4991 N   0  0  0  0  0  0  0  0  0  0  0  0
  144.8152  137.2769  152.7483 C   0  0  0  0  0  0  0  0  0  0  0  0
  145.6764  136.8591  151.5405 C   0  0  0  0  0  0  0  0  0  0  0  0
  145.4978  135.4091  151.1232 C   0  0  0  0  0  0  0  0  0  0  0  0
  144.2643  134.9131  150.6492 C   0  0  0  0  0  0  0  0  0  0  0  0
  144.1581  133.5512  150.2978 C   0  0  0  0  0  0  0  0  0  0  0  0
  145.2874  132.7158  150.4230 C   0  0  0  0  0  0  0  0  0  0  0  0
  146.4946  133.2628  150.9036 C   0  0  0  0  0  0  0  0  0  0  0  0
  146.5537  134.5704  151.2384 N   0  3  0  0  0  0  0  0  0  0  0  0
  146.8048  139.4699  154.9269 N   0  0  0  0  0  0  0  0  0  0  0  0
  146.4663  140.8100  154.4242 C   0  0  0  0  0  0  0  0  0  0  0  0
  147.6555  141.3497  153.6197 C   0  0  0  0  0  0  0  0  0  0  0  0
  149.1201  141.5437  154.6807 S   0  0  0  0  0  0  0  0  0  0  0  0
  149.2049  139.9105  155.5109 C   0  0  0  0  0  0  0  0  0  0  0  0
  149.7596  138.8341  154.5406 C   0  0  0  0  0  0  0  0  0  0  0  0
  151.2353  139.0496  154.1612 C   0  0  0  0  0  0  0  0  0  0  0  0
  152.1237  139.1332  155.4087 C   0  0  0  0  0  0  0  0  0  0  0  0
  151.6254  140.2265  156.3625 C   0  0  0  0  0  0  0  0  0  0  0  0
  150.1471  140.0107  156.7368 C   0  0  0  0  0  0  0  0  0  0  0  0
  147.7857  139.5347  156.0209 C   0  0  0  0  0  0  0  0  0  0  0  0
  145.0110  139.3027  153.3306 H   0  0  0  0  0  0  0  0  0  0  0  0
  144.6529  136.4150  153.3972 H   0  0  0  0  0  0  0  0  0  0  0  0
  143.8264  137.5805  152.4040 H   0  0  0  0  0  0  0  0  0  0  0  0
  145.4473  137.5001  150.6883 H   0  0  0  0  0  0  0  0  0  0  0  0
  146.7289  137.0310  151.7705 H   0  0  0  0  0  0  0  0  0  0  0  0
  143.4076  135.5656  150.5631 H   0  0  0  0  0  0  0  0  0  0  0  0
  143.2213  133.1523  149.9368 H   0  0  0  0  0  0  0  0  0  0  0  0
  145.2265  131.6698  150.1598 H   0  0  0  0  0  0  0  0  0  0  0  0
  147.4043  132.6962  151.0384 H   0  0  0  0  0  0  0  0  0  0  0  0
  145.5653  140.8295  153.8112 H   0  0  0  0  0  0  0  0  0  0  0  0
  146.2490  141.4773  155.2596 H   0  0  0  0  0  0  0  0  0  0  0  0
  147.8937  140.6828  152.7907 H   0  0  0  0  0  0  0  0  0  0  0  0
  147.4109  142.3197  153.1866 H   0  0  0  0  0  0  0  0  0  0  0  0
  149.6610  137.8505  155.0016 H   0  0  0  0  0  0  0  0  0  0  0  0
  149.1636  138.7971  153.6315 H   0  0  0  0  0  0  0  0  0  0  0  0
  151.5745  138.2331  153.5232 H   0  0  0  0  0  0  0  0  0  0  0  0
  151.3415  139.9608  153.5716 H   0  0  0  0  0  0  0  0  0  0  0  0
  152.1247  138.1715  155.9231 H   0  0  0  0  0  0  0  0  0  0  0  0
  153.1561  139.3322  155.1200 H   0  0  0  0  0  0  0  0  0  0  0  0
  152.2359  140.2326  157.2658 H   0  0  0  0  0  0  0  0  0  0  0  0
  151.7575  141.2054  155.9009 H   0  0  0  0  0  0  0  0  0  0  0  0
  149.8190  140.8155  157.3960 H   0  0  0  0  0  0  0  0  0  0  0  0
  150.0734  139.0949  157.3251 H   0  0  0  0  0  0  0  0  0  0  0  0
  147.4500  140.2684  156.7555 H   0  0  0  0  0  0  0  0  0  0  0  0
  147.8241  138.5937  156.5722 H   0  0  0  0  0  0  0  0  0  0  0  0
  147.4360  134.9437  151.5890 H   0  0  0  0  0  0  0  0  0  0  0  0
  1  2  2  0  0  0  0
  2  3  1  0  0  0  0
  2 12  1  0  0  0  0
  3  4  1  0  0  0  0
  3 23  1  0  0  0  0
  4  5  1  0  0  0  0
  4 24  1  0  0  0  0
  4 25  1  0  0  0  0
  5  6  1  0  0  0  0
  5 26  1  0  0  0  0
  5 27  1  0  0  0  0
  6 11  1  0  0  0  0
  6  7  2  0  0  0  0
  7  8  1  0  0  0  0
  7 28  1  0  0  0  0
  8  9  2  0  0  0  0
  8 29  1  0  0  0  0
  9 10  1  0  0  0  0
  9 30  1  0  0  0  0
 10 11  2  0  0  0  0
 10 31  1  0  0  0  0
 11 48  1  0  0  0  0
 12 22  1  0  0  0  0
 12 13  1  0  0  0  0
 13 14  1  0  0  0  0
 13 32  1  0  0  0  0
 13 33  1  0  0  0  0
 14 15  1  0  0  0  0
 14 34  1  0  0  0  0
 14 35  1  0  0  0  0
 15 16  1  0  0  0  0
 16 21  1  0  0  0  0
 16 17  1  0  0  0  0
 16 22  1  0  0  0  0
 17 18  1  0  0  0  0
 17 36  1  0  0  0  0
 17 37  1  0  0  0  0
 18 19  1  0  0  0  0
 18 38  1  0  0  0  0
 18 39  1  0  0  0  0
 19 20  1  0  0  0  0
 19 40  1  0  0  0  0
 19 41  1  0  0  0  0
 20 21  1  0  0  0  0
 20 42  1  0  0  0  0
 20 43  1  0  0  0  0
 21 44  1  0  0  0  0
 21 45  1  0  0  0  0
 22 46  1  0  0  0  0
 22 47  1  0  0  0  0
M  CHG  1  11   1
M  END
> <s_m_source_file>
AV-unprocessed.smi

> <i_m_source_file_index>
884

> <i_lp_mmshare_version>
43012

> <i_f3d_flags>
0

> <s_epik_input>
bjFbY0hdW2NIXVtjSF1bY0hdYzFbQ0gyXVtDSDJdW05IXUMoPU8pTihbQ0gyXTIpW0NIMl1bQ0gyXVNDMjNbQ0gyXVtDSDJdW0NIMl1bQ0gyXVtDSDJdMw==

> <s_epik_cmdline>
J2VwaWtfcHl0aG9uJywgJy1waCcsICc3LjAnLCAnLXRuJywgJzgnLCAnLW1hJywgJzIwMCcsICctbWV0YWxfYmluZGluZycsICctaW1hZScsICc8aW5maWxlLm1hZT4nLCAnLW9tYWUnLCAnPG91dGZpbGUubWFlPic=

> <r_epik_Ionization_Penalty>
1.55139

> <r_epik_Ionization_Penalty_Charging>
1.55135

> <r_epik_Ionization_Penalty_Neutral>
4.66963e-05

> <r_epik_State_Penalty>
1.64559

> <r_epik_Charging_Adjusted_Penalty>
3.19693

> <i_epik_Tot_Q>
1

> <i_epik_Tot_abs_Q>
1

> <r_epik_Metal_State_Penalty>
1.68773

> <b_epik_Metal_Only>
0

> <s_lp_Force_Field>
OPLS_2005

> <r_lp_Energy>
36.5944

> <b_lp_Chiralities_Consistent>
1

> <s_lp_Variant>
AV-unprocessed.smi:884-2

> <Gold.Version>
5.8.1

> <Gold.Id.Protein>
6NUR|6NUR_protein|mol2

> <Gold.PLP.Fitness>
45.0275

> <Gold.PLP.PLP>
-36.7224

> <Gold.PLP.part.hbond>
-2.0000

> <Gold.PLP.part.metal>
0.0000

> <Gold.PLP.part.buried>
-3.3817

> <Gold.PLP.part.nonpolar>
-32.2098

> <Gold.PLP.part.repulsive>
0.1371

> <Gold.PLP.ligand.clash>
0.0000

> <Gold.PLP.ligand.torsion>
0.3597

> <Gold.PLP.Chemscore.Hbond>
3.0000

> <Gold.PLP.Chemscore.CHOScore>
0.0000

> <Gold.PLP.Chemscore.Metal>
0.0000

> <Gold.Chemscore.Hbonds>
donor molecule, donor type, donor heavy atom, donor atom, acceptor molecule, acceptor atom, score
      L1  H     3    23       P1 10175  1.00
      L1  H    11    48       P1  7948  2.00

> <Gold.PLP.Chemscore.Internal.Correction>
0.0244

> <Gold.Rescore>
     Score         DG    S(hbond)    S(metal)    S(lipo)     H(rot)  DE(clash)    DE(int)     intcor
     19.53     -20.29       1.73        0.00     105.54       1.30       0.34       0.41       ----

> <Gold.Chemscore.Fitness>
19.5301

> <Gold.Chemscore.DG>
-20.2859

> <Gold.Chemscore.ZeroCoef>
-5.4800

> <Gold.Chemscore.Hbond>
1.7285

> <Gold.Chemscore.Metal>
0.0000

> <Gold.Chemscore.Lipo>
105.5434

> <Gold.Chemscore.Internal_Hbond>
0.0000

> <Gold.Chemscore.DEClash>
0.3427

> <Gold.Chemscore.DEInternal>
0.4131

> <Gold.Chemscore.Rot>
1.2953

> <Gold.Chemscore.Internal.Correction>
   9.000000E+99

> <Gold.Chemscore.Hbonds>
donor molecule, donor type, donor heavy atom, donor atom, acceptor molecule, acceptor atom, score
      L1  H     3    23       P1 10175  0.93
      L1  H    11    48       P1  7948  0.64

> <Gold.Chemscore.Hbond.Weighted>
-5.7732

> <Gold.Chemscore.Metal.Weighted>
-0.0000

> <Gold.Chemscore.Lipo.Weighted>
-12.3486

> <Gold.Chemscore.Internal_Hbond.Weighted>
0.0000

> <Gold.Chemscore.DEClash.Weighted>
0.3427

> <Gold.Chemscore.DEInternal.Weighted>
0.4131

> <Gold.Chemscore.Rot.Weighted>
3.3159

> <Gold.Chemscore.Internal.Correction.Weighted>
   9.000000E+99

> <Gold.Protein.RotatedTorsions>
[ 6907 6896 6895 6894 ] final  103.12 input  -60.11 | X-H torsion
[ 7974 7965 7964 7962 ] final  -32.42 input  175.53 | X-H torsion
[ 8008 7997 7996 7995 ] final  108.96 input   59.86 | X-H torsion
[ 10167 10162 10161 10158 ] final   20.04 input  -65.29 | X-H torsion
[ 10718 10713 10712 10709 ] final  175.46 input   66.30 | X-H torsion
[ 10763 10752 10751 10750 ] final   31.26 input  -60.55 | X-H torsion
[ 11005 11000 10999 10996 ] final  146.92 input  -57.11 | X-H torsion

> <Gold.Protein.ActiveResidues>
 VAL166  LYS551  ARG553  GLY616  TRP617  ASP618  TYR619  PRO620  LYS621  CYS622 
 ASP623  PHE694  ASN695  SER759  ASP760  ASP761  ALA762  ILE779  LEU786  VAL792 
 PHE793  MET794  SER795  GLU796  ALA797  LYS798  CYS799  TRP800  GLU811  SER814 

> <Gold.Protein.RotatedAtoms>
  152.5305  133.9874  159.7834 H   0  0  0  0  0  0  0  0  0  0  0  0  # atno 6907 bound_to 6896
  151.0116  133.5952  159.2689 H   0  0  0  0  0  0  0  0  0  0  0  0  # atno 6908 bound_to 6896
  151.3024  135.0779  159.9297 H   0  0  0  0  0  0  0  0  0  0  0  0  # atno 6909 bound_to 6896
  146.0991  140.5790  142.8829 H   0  0  0  0  0  0  0  0  0  0  0  0  # atno 7974 bound_to 7965
  156.1943  140.3066  155.9395 H   0  0  0  0  0  0  0  0  0  0  0  0  # atno 8008 bound_to 7997
  155.3102  140.0450  157.3051 H   0  0  0  0  0  0  0  0  0  0  0  0  # atno 8009 bound_to 7997
  154.5490  140.2285  155.8525 H   0  0  0  0  0  0  0  0  0  0  0  0  # atno 8010 bound_to 7997
  140.5534  143.9468  150.6593 H   0  0  0  0  0  0  0  0  0  0  0  0  # atno 10167 bound_to 10162
  156.9345  130.9982  151.2980 H   0  0  0  0  0  0  0  0  0  0  0  0  # atno 10718 bound_to 10713
  153.0325  135.6443  154.1172 H   0  0  0  0  0  0  0  0  0  0  0  0  # atno 10763 bound_to 10752
  154.0892  135.2867  155.3276 H   0  0  0  0  0  0  0  0  0  0  0  0  # atno 10764 bound_to 10752
  154.6477  135.5437  153.7927 H   0  0  0  0  0  0  0  0  0  0  0  0  # atno 10765 bound_to 10752
  140.0833  134.9084  157.1536 H   0  0  0  0  0  0  0  0  0  0  0  0  # atno 11005 bound_to 11000
  144.7418  140.4963  143.6863 LP  0  0  0  0  0  0  0  0  0  0  0  0  # atno 17320 bound_to 7965
  145.5890  139.1494  143.3193 LP  0  0  0  0  0  0  0  0  0  0  0  0  # atno 17321 bound_to 7965
  140.2900  143.3331  152.1071 LP  0  0  0  0  0  0  0  0  0  0  0  0  # atno 17342 bound_to 10162
  139.5037  144.6761  151.6125 LP  0  0  0  0  0  0  0  0  0  0  0  0  # atno 17343 bound_to 10162
  157.5825  130.8386  149.8542 LP  0  0  0  0  0  0  0  0  0  0  0  0  # atno 17370 bound_to 10713
  156.0432  130.3734  150.1383 LP  0  0  0  0  0  0  0  0  0  0  0  0  # atno 17371 bound_to 10713
  140.3456  134.2655  155.7205 LP  0  0  0  0  0  0  0  0  0  0  0  0  # atno 17394 bound_to 11000
  141.2054  133.7861  157.0234 LP  0  0  0  0  0  0  0  0  0  0  0  0  # atno 17395 bound_to 11000

$$$$
