AV-unprocessed.smi:1760|AV-procd|sdf|7089|dock2
  -GOLD-   22720 8303D 1   1.00000     0.00000
 Structure written by MMmdl.
 44 46  0  0  0  0  0  0  0  0  2 V2000
  150.5157  134.5044  155.7276 O   0  0  0  0  0  0  0  0  0  0  0  0
  150.0289  135.0218  154.7227 C   0  0  0  0  0  0  0  0  0  0  0  0
  149.2668  134.3962  153.8067 N   0  0  0  0  0  0  0  0  0  0  0  0
  148.8903  133.0441  153.7398 C   0  0  0  0  0  0  0  0  0  0  0  0
  149.5546  132.0238  154.3428 C   0  0  0  0  0  0  0  0  0  0  0  0
  149.1207  130.6423  154.2211 C   0  0  0  0  0  0  0  0  0  0  0  0
  149.8248  129.5184  154.9651 C   0  0  0  0  0  0  0  0  0  0  0  0
  149.0369  128.9916  155.9034 F   0  0  0  0  0  0  0  0  0  0  0  0
  150.1581  128.5507  154.1120 F   0  0  0  0  0  0  0  0  0  0  0  0
  150.9389  129.9564  155.5518 F   0  0  0  0  0  0  0  0  0  0  0  0
  148.0163  130.4226  153.4843 C   0  0  0  0  0  0  0  0  0  0  0  0
  147.3400  131.4631  152.8435 N   0  0  0  0  0  0  0  0  0  0  0  0
  147.7023  132.7636  152.9167 C   0  0  0  0  0  0  0  0  0  0  0  0
  147.0542  133.6240  152.3214 O   0  0  0  0  0  0  0  0  0  0  0  0
  150.1808  136.3176  154.4118 N   0  0  0  0  0  0  0  0  0  0  0  0
  150.9197  137.3040  155.1963 C   0  0  2  0  0  0  0  0  0  0  0  0
  150.3309  137.3938  156.6141 C   0  0  0  0  0  0  0  0  0  0  0  0
  151.0143  138.5044  157.4288 C   0  0  0  0  0  0  0  0  0  0  0  0
  150.9152  139.8119  156.7338 N   0  3  1  0  0  0  0  0  0  0  0  0
  151.4593  140.9184  157.5501 C   0  0  0  0  0  0  0  0  0  0  0  0
  150.4031  141.6822  158.3142 C   0  0  0  0  0  0  0  0  0  0  0  0
  151.0324  142.2893  157.0798 C   0  0  0  0  0  0  0  0  0  0  0  0
  151.5216  139.7615  155.3801 C   0  0  0  0  0  0  0  0  0  0  0  0
  150.8507  138.6811  154.5149 C   0  0  0  0  0  0  0  0  0  0  0  0
  146.5284  131.2145  152.2964 H   0  0  0  0  0  0  0  0  0  0  0  0
  148.8738  134.9750  153.0785 H   0  0  0  0  0  0  0  0  0  0  0  0
  150.4475  132.2065  154.9180 H   0  0  0  0  0  0  0  0  0  0  0  0
  147.5690  129.4510  153.3343 H   0  0  0  0  0  0  0  0  0  0  0  0
  149.7406  136.6498  153.5661 H   0  0  0  0  0  0  0  0  0  0  0  0
  151.9701  137.0188  155.2804 H   0  0  0  0  0  0  0  0  0  0  0  0
  149.2592  137.5921  156.5605 H   0  0  0  0  0  0  0  0  0  0  0  0
  150.4435  136.4380  157.1275 H   0  0  0  0  0  0  0  0  0  0  0  0
  150.5467  138.5750  158.4118 H   0  0  0  0  0  0  0  0  0  0  0  0
  152.0641  138.2576  157.5950 H   0  0  0  0  0  0  0  0  0  0  0  0
  152.4485  140.7642  157.9779 H   0  0  0  0  0  0  0  0  0  0  0  0
  149.3694  141.3496  158.2386 H   0  0  0  0  0  0  0  0  0  0  0  0
  150.6859  142.1035  159.2768 H   0  0  0  0  0  0  0  0  0  0  0  0
  151.7304  143.1104  157.2289 H   0  0  0  0  0  0  0  0  0  0  0  0
  150.4169  142.3594  156.1847 H   0  0  0  0  0  0  0  0  0  0  0  0
  151.4172  140.7327  154.8947 H   0  0  0  0  0  0  0  0  0  0  0  0
  152.5914  139.5645  155.4661 H   0  0  0  0  0  0  0  0  0  0  0  0
  151.3330  138.6398  153.5374 H   0  0  0  0  0  0  0  0  0  0  0  0
  149.8102  138.9564  154.3355 H   0  0  0  0  0  0  0  0  0  0  0  0
  149.9315  140.0025  156.6070 H   0  0  0  0  0  0  0  0  0  0  0  0
  1  2  2  0  0  0  0
  2  3  1  0  0  0  0
  2 15  1  0  0  0  0
  3  4  1  0  0  0  0
  3 26  1  0  0  0  0
  4 13  1  0  0  0  0
  4  5  2  0  0  0  0
  5  6  1  0  0  0  0
  5 27  1  0  0  0  0
  6  7  1  0  0  0  0
  6 11  2  0  0  0  0
  7  8  1  0  0  0  0
  7  9  1  0  0  0  0
  7 10  1  0  0  0  0
 11 12  1  0  0  0  0
 11 28  1  0  0  0  0
 12 25  1  0  0  0  0
 12 13  1  0  0  0  0
 13 14  2  0  0  0  0
 15 16  1  0  0  0  0
 15 29  1  0  0  0  0
 16 24  1  0  0  0  0
 16 17  1  0  0  0  0
 16 30  1  0  0  0  0
 17 18  1  0  0  0  0
 17 31  1  0  0  0  0
 17 32  1  0  0  0  0
 18 19  1  0  0  0  0
 18 33  1  0  0  0  0
 18 34  1  0  0  0  0
 19 20  1  0  0  0  0
 19 23  1  0  0  0  0
 19 44  1  0  0  0  0
 20 22  1  0  0  0  0
 20 21  1  0  0  0  0
 20 35  1  0  0  0  0
 21 22  1  0  0  0  0
 21 36  1  0  0  0  0
 21 37  1  0  0  0  0
 22 38  1  0  0  0  0
 22 39  1  0  0  0  0
 23 24  1  0  0  0  0
 23 40  1  0  0  0  0
 23 41  1  0  0  0  0
 24 42  1  0  0  0  0
 24 43  1  0  0  0  0
M  CHG  1  19   1
M  END
> <s_m_source_file>
AV-unprocessed.smi

> <i_m_source_file_index>
1760

> <i_lp_mmshare_version>
43012

> <i_f3d_flags>
0

> <s_epik_input>
W0NIMl0xW0NIMl1bQ0hdMU4oW0NIMl1bQ0gyXTIpW0NIMl1bQ0gyXVtDSF0yW05IXUMoPU8pW05IXWMzW2NIXWMoQyhGKShGKUYpW2NIXVtuSF1jMz1P

> <s_epik_cmdline>
J2VwaWtfcHl0aG9uJywgJy1waCcsICc3LjAnLCAnLXRuJywgJzgnLCAnLW1hJywgJzIwMCcsICctbWV0YWxfYmluZGluZycsICctaW1hZScsICc8aW5maWxlLm1hZT4nLCAnLW9tYWUnLCAnPG91dGZpbGUubWFlPic=

> <r_lp_tautomer_probability>
0.999

> <r_epik_Ionization_Penalty>
0.131122

> <r_epik_Ionization_Penalty_Charging>
0.131104

> <r_epik_Ionization_Penalty_Neutral>
1.84439e-05

> <r_epik_State_Penalty>
0.116042

> <r_epik_Charging_Adjusted_Penalty>
0.247146

> <i_epik_Tot_Q>
1

> <i_epik_Tot_abs_Q>
1

> <r_epik_Metal_State_Penalty>
0.492282

> <b_epik_Metal_Only>
0

> <s_lp_Force_Field>
OPLS_2005

> <r_lp_Energy>
37.3321

> <b_lp_Chiralities_Consistent>
1

> <s_lp_Variant>
AV-unprocessed.smi:1760-1

> <Gold.Version>
5.8.1

> <Gold.Id.Protein>
6NUR|6NUR_protein|mol2

> <Gold.PLP.Fitness>
41.9972

> <Gold.PLP.PLP>
-36.5625

> <Gold.PLP.part.hbond>
-3.6157

> <Gold.PLP.part.metal>
0.0000

> <Gold.PLP.part.buried>
-1.4701

> <Gold.PLP.part.nonpolar>
-31.9616

> <Gold.PLP.part.repulsive>
0.3518

> <Gold.PLP.ligand.clash>
0.0000

> <Gold.PLP.ligand.torsion>
0.8715

> <Gold.PLP.Chemscore.Hbond>
1.9600

> <Gold.PLP.Chemscore.CHOScore>
0.0000

> <Gold.PLP.Chemscore.Metal>
0.0000

> <Gold.Chemscore.Hbonds>
donor molecule, donor type, donor heavy atom, donor atom, acceptor molecule, acceptor atom, score
      L1  H     3    26       P1  7948  1.00
      L1  H    15    29       P1  7948  0.96

> <Gold.PLP.Chemscore.Internal.Correction>
1.2977

> <Gold.Rescore>
     Score         DG    S(hbond)    S(metal)    S(lipo)     H(rot)  DE(clash)    DE(int)     intcor
     12.31     -15.10       1.34        0.00      72.14       1.29       0.07       2.71       ----

> <Gold.Chemscore.Fitness>
12.3114

> <Gold.Chemscore.DG>
-15.0951

> <Gold.Chemscore.ZeroCoef>
-5.4800

> <Gold.Chemscore.Hbond>
1.3385

> <Gold.Chemscore.Metal>
0.0000

> <Gold.Chemscore.Lipo>
72.1411

> <Gold.Chemscore.Internal_Hbond>
0.0000

> <Gold.Chemscore.DEClash>
0.0713

> <Gold.Chemscore.DEInternal>
2.7124

> <Gold.Chemscore.Rot>
1.2875

> <Gold.Chemscore.Internal.Correction>
   9.000000E+99

> <Gold.Chemscore.Hbonds>
donor molecule, donor type, donor heavy atom, donor atom, acceptor molecule, acceptor atom, score
      L1  H     3    26       P1  7948  0.25
      L1  H    15    29       P1  7948  0.46

> <Gold.Chemscore.Hbond.Weighted>
-4.4706

> <Gold.Chemscore.Metal.Weighted>
-0.0000

> <Gold.Chemscore.Lipo.Weighted>
-8.4405

> <Gold.Chemscore.Internal_Hbond.Weighted>
0.0000

> <Gold.Chemscore.DEClash.Weighted>
0.0713

> <Gold.Chemscore.DEInternal.Weighted>
2.7124

> <Gold.Chemscore.Rot.Weighted>
3.2960

> <Gold.Chemscore.Internal.Correction.Weighted>
   9.000000E+99

> <Gold.Protein.RotatedTorsions>
[ 6907 6896 6895 6894 ] final -109.96 input  -60.11 | X-H torsion
[ 7974 7965 7964 7962 ] final -143.38 input  175.53 | X-H torsion
[ 8008 7997 7996 7995 ] final   -3.36 input   59.86 | X-H torsion
[ 10167 10162 10161 10158 ] final  105.08 input  -65.29 | X-H torsion
[ 10718 10713 10712 10709 ] final   -2.00 input   66.30 | X-H torsion
[ 10763 10752 10751 10750 ] final   62.59 input  -60.55 | X-H torsion
[ 11005 11000 10999 10996 ] final  137.64 input  -57.11 | X-H torsion

> <Gold.Protein.ActiveResidues>
 VAL166  LYS551  ARG553  GLY616  TRP617  ASP618  TYR619  PRO620  LYS621  CYS622 
 ASP623  PHE694  ASN695  SER759  ASP760  ASP761  ALA762  ILE779  LEU786  VAL792 
 PHE793  MET794  SER795  GLU796  ALA797  LYS798  CYS799  TRP800  GLU811  SER814 

> <Gold.Protein.RotatedAtoms>
  150.7595  133.9452  159.3468 H   0  0  0  0  0  0  0  0  0  0  0  0  # atno 6907 bound_to 6896
  151.7364  135.0862  160.0318 H   0  0  0  0  0  0  0  0  0  0  0  0  # atno 6908 bound_to 6896
  152.3557  133.6196  159.6013 H   0  0  0  0  0  0  0  0  0  0  0  0  # atno 6909 bound_to 6896
  144.8374  140.5842  143.5475 H   0  0  0  0  0  0  0  0  0  0  0  0  # atno 7974 bound_to 7965
  154.6257  140.2511  155.7494 H   0  0  0  0  0  0  0  0  0  0  0  0  # atno 8008 bound_to 7997
  156.2452  140.2917  156.0506 H   0  0  0  0  0  0  0  0  0  0  0  0  # atno 8009 bound_to 7997
  155.1825  140.0389  157.2875 H   0  0  0  0  0  0  0  0  0  0  0  0  # atno 8010 bound_to 7997
  139.7123  144.7075  151.1007 H   0  0  0  0  0  0  0  0  0  0  0  0  # atno 10167 bound_to 10162
  156.7973  130.5381  149.5727 H   0  0  0  0  0  0  0  0  0  0  0  0  # atno 10718 bound_to 10713
  152.9988  135.5459  154.6218 H   0  0  0  0  0  0  0  0  0  0  0  0  # atno 10763 bound_to 10752
  154.5515  135.2827  155.1006 H   0  0  0  0  0  0  0  0  0  0  0  0  # atno 10764 bound_to 10752
  154.2244  135.6445  153.5207 H   0  0  0  0  0  0  0  0  0  0  0  0  # atno 10765 bound_to 10752
  140.0128  134.9431  157.0313 H   0  0  0  0  0  0  0  0  0  0  0  0  # atno 11005 bound_to 11000
  145.4766  139.1499  143.3785 LP  0  0  0  0  0  0  0  0  0  0  0  0  # atno 17320 bound_to 7965
  146.2671  140.4901  142.8829 LP  0  0  0  0  0  0  0  0  0  0  0  0  # atno 17321 bound_to 7965
  140.7736  143.5277  150.9461 LP  0  0  0  0  0  0  0  0  0  0  0  0  # atno 17342 bound_to 10162
  139.8962  143.6892  152.3138 LP  0  0  0  0  0  0  0  0  0  0  0  0  # atno 17343 bound_to 10162
  156.1123  130.6049  151.0066 LP  0  0  0  0  0  0  0  0  0  0  0  0  # atno 17370 bound_to 10713
  157.6571  131.0887  150.7922 LP  0  0  0  0  0  0  0  0  0  0  0  0  # atno 17371 bound_to 10713
  140.4524  134.1568  155.7183 LP  0  0  0  0  0  0  0  0  0  0  0  0  # atno 17394 bound_to 11000
  141.1722  133.8585  157.1533 LP  0  0  0  0  0  0  0  0  0  0  0  0  # atno 17395 bound_to 11000

$$$$
