AV-unprocessed.smi:781|AV-procd|sdf|3712|dock1
  -GOLD-   22720 1133D 1   1.00000     0.00000
 Structure written by MMmdl.
 38 40  0  0  0  0  0  0  0  0  1 V2000
  146.9185  133.7988  162.5486 C   0  0  0  0  0  0  0  0  0  0  0  0
  147.3839  134.9480  161.7216 C   0  0  0  0  0  0  0  0  0  0  0  0
  147.9836  135.0297  160.4964 C   0  0  0  0  0  0  0  0  0  0  0  0
  148.1481  136.4286  160.3139 C   0  0  0  0  0  0  0  0  0  0  0  0
  148.7476  136.9428  159.1364 N   0  0  0  0  0  0  0  0  0  0  0  0
  148.3430  137.9936  158.4030 C   0  0  0  0  0  0  0  0  0  0  0  0
  147.3662  138.7006  158.6528 O   0  0  0  0  0  0  0  0  0  0  0  0
  149.1470  138.1883  157.3486 N   0  0  0  0  0  0  0  0  0  0  0  0
  148.9784  139.2464  156.3556 C   0  0  1  0  0  0  0  0  0  0  0  0
  150.0825  140.3326  156.4148 C   0  0  1  0  0  0  0  0  0  0  0  0
  151.4935  139.7066  156.3917 C   0  0  0  0  0  0  0  0  0  0  0  0
  151.5977  139.1661  154.9534 C   0  0  0  0  0  0  0  0  0  0  0  0
  150.2487  139.5816  154.3340 C   0  0  2  0  0  0  0  0  0  0  0  0
  150.0035  140.9240  155.0132 C   0  0  0  0  0  0  0  0  0  0  0  0
  149.1220  138.6943  154.9123 C   0  0  2  0  0  0  0  0  0  0  0  0
  147.8189  138.7744  154.0938 C   0  0  0  0  0  0  0  0  0  0  0  0
  148.0714  138.4432  152.7447 O   0  0  0  0  0  0  0  0  0  0  0  0
  147.6892  137.1370  161.3345 N   0  0  0  0  0  0  0  0  0  0  0  0
  147.1965  136.1915  162.2416 O   0  0  0  0  0  0  0  0  0  0  0  0
  147.4073  132.8743  162.2409 H   0  0  0  0  0  0  0  0  0  0  0  0
  145.8419  133.6624  162.4475 H   0  0  0  0  0  0  0  0  0  0  0  0
  147.1415  133.9635  163.6031 H   0  0  0  0  0  0  0  0  0  0  0  0
  148.2588  134.2178  159.8396 H   0  0  0  0  0  0  0  0  0  0  0  0
  149.5714  136.4562  158.8160 H   0  0  0  0  0  0  0  0  0  0  0  0
  149.9261  137.5603  157.2165 H   0  0  0  0  0  0  0  0  0  0  0  0
  148.0004  139.7143  156.4858 H   0  0  0  0  0  0  0  0  0  0  0  0
  149.9407  141.0532  157.2208 H   0  0  0  0  0  0  0  0  0  0  0  0
  152.2520  140.4715  156.5637 H   0  0  0  0  0  0  0  0  0  0  0  0
  151.6403  138.9321  157.1445 H   0  0  0  0  0  0  0  0  0  0  0  0
  152.4288  139.6377  154.4275 H   0  0  0  0  0  0  0  0  0  0  0  0
  151.7551  138.0874  154.9243 H   0  0  0  0  0  0  0  0  0  0  0  0
  150.2694  139.6136  153.2441 H   0  0  0  0  0  0  0  0  0  0  0  0
  149.0316  141.3630  154.7825 H   0  0  0  0  0  0  0  0  0  0  0  0
  150.7822  141.6612  154.8089 H   0  0  0  0  0  0  0  0  0  0  0  0
  149.4555  137.6547  154.9146 H   0  0  0  0  0  0  0  0  0  0  0  0
  147.0539  138.1067  154.4910 H   0  0  0  0  0  0  0  0  0  0  0  0
  147.4123  139.7854  154.1274 H   0  0  0  0  0  0  0  0  0  0  0  0
  148.4676  139.1893  152.3210 H   0  0  0  0  0  0  0  0  0  0  0  0
  1  2  1  0  0  0  0
  1 20  1  0  0  0  0
  1 21  1  0  0  0  0
  1 22  1  0  0  0  0
  2 19  1  0  0  0  0
  2  3  2  0  0  0  0
  3  4  1  0  0  0  0
  3 23  1  0  0  0  0
  4  5  1  0  0  0  0
  4 18  2  0  0  0  0
  5  6  1  0  0  0  0
  5 24  1  0  0  0  0
  6  7  2  0  0  0  0
  6  8  1  0  0  0  0
  8  9  1  0  0  0  0
  8 25  1  0  0  0  0
  9 15  1  0  0  0  0
  9 10  1  0  0  0  0
  9 26  1  0  0  0  0
 10 14  1  0  0  0  0
 10 11  1  0  0  0  0
 10 27  1  0  0  0  0
 11 12  1  0  0  0  0
 11 28  1  0  0  0  0
 11 29  1  0  0  0  0
 12 13  1  0  0  0  0
 12 30  1  0  0  0  0
 12 31  1  0  0  0  0
 13 14  1  0  0  0  0
 13 15  1  0  0  0  0
 13 32  1  0  0  0  0
 14 33  1  0  0  0  0
 14 34  1  0  0  0  0
 15 16  1  0  0  0  0
 15 35  1  0  0  0  0
 16 17  1  0  0  0  0
 16 36  1  0  0  0  0
 16 37  1  0  0  0  0
 17 38  1  0  0  0  0
 18 19  1  0  0  0  0
M  END
> <s_m_source_file>
AV-unprocessed.smi

> <i_m_source_file_index>
781

> <i_lp_mmshare_version>
43012

> <i_f3d_flags>
0

> <s_epik_input>
W0NIM11jMVtjSF1jKG5vMSlbTkhdQyg9TylbTkhdW0NASF0oW0NAQEhdMjMpW0NASF0oW0NIMl1bT0hdKVtDQEBIXShbQ0gyXTMpW0NIMl1bQ0gyXTI=

> <s_epik_cmdline>
J2VwaWtfcHl0aG9uJywgJy1waCcsICc3LjAnLCAnLXRuJywgJzgnLCAnLW1hJywgJzIwMCcsICctbWV0YWxfYmluZGluZycsICctaW1hZScsICc8aW5maWxlLm1hZT4nLCAnLW9tYWUnLCAnPG91dGZpbGUubWFlPic=

> <r_lp_tautomer_probability>
1

> <r_epik_Ionization_Penalty>
2.32222e-05

> <r_epik_Ionization_Penalty_Charging>
0

> <r_epik_Ionization_Penalty_Neutral>
2.32222e-05

> <r_epik_State_Penalty>
-0

> <r_epik_Charging_Adjusted_Penalty>
0

> <i_epik_Tot_Q>
0

> <i_epik_Tot_abs_Q>
0

> <r_epik_Metal_State_Penalty>
-0

> <b_epik_Metal_Only>
0

> <s_lp_Force_Field>
OPLS_2005

> <r_lp_Energy>
46.3898

> <b_lp_Chiralities_Consistent>
1

> <s_lp_Variant>
AV-unprocessed.smi:781-6

> <Gold.Version>
5.8.1

> <Gold.Id.Protein>
6NUR|6NUR_protein|mol2

> <Gold.PLP.Fitness>
37.8312

> <Gold.PLP.PLP>
-30.2122

> <Gold.PLP.part.hbond>
-5.0000

> <Gold.PLP.part.metal>
0.0000

> <Gold.PLP.part.buried>
-1.4274

> <Gold.PLP.part.nonpolar>
-24.0152

> <Gold.PLP.part.repulsive>
0.2255

> <Gold.PLP.ligand.clash>
0.0000

> <Gold.PLP.ligand.torsion>
0.4954

> <Gold.PLP.Chemscore.Hbond>
2.8640

> <Gold.PLP.Chemscore.CHOScore>
0.0000

> <Gold.PLP.Chemscore.Metal>
0.0000

> <Gold.Chemscore.Hbonds>
donor molecule, donor type, donor heavy atom, donor atom, acceptor molecule, acceptor atom, score
      L1  H    17    38       P1  7957  1.00
      P1  H  6931  6943       L1    18  1.00
      P1  H  6934  6947       L1    18  0.83

> <Gold.PLP.Chemscore.Internal.Correction>
0.0178

> <Gold.Rescore>
     Score         DG    S(hbond)    S(metal)    S(lipo)     H(rot)  DE(clash)    DE(int)     intcor
     16.11     -17.24       2.54        0.00      68.63       1.86       0.59       0.54       ----

> <Gold.Chemscore.Fitness>
16.1079

> <Gold.Chemscore.DG>
-17.2377

> <Gold.Chemscore.ZeroCoef>
-5.4800

> <Gold.Chemscore.Hbond>
2.5409

> <Gold.Chemscore.Metal>
0.0000

> <Gold.Chemscore.Lipo>
68.6264

> <Gold.Chemscore.Internal_Hbond>
0.0000

> <Gold.Chemscore.DEClash>
0.5944

> <Gold.Chemscore.DEInternal>
0.5355

> <Gold.Chemscore.Rot>
1.8587

> <Gold.Chemscore.Internal.Correction>
   9.000000E+99

> <Gold.Chemscore.Hbonds>
donor molecule, donor type, donor heavy atom, donor atom, acceptor molecule, acceptor atom, score
      L1  H    17    38       P1  7957  0.98
      P1  H  6931  6943       L1    18  0.59
      P1  H  6934  6947       L1    18  0.75

> <Gold.Chemscore.Hbond.Weighted>
-8.4867

> <Gold.Chemscore.Metal.Weighted>
-0.0000

> <Gold.Chemscore.Lipo.Weighted>
-8.0293

> <Gold.Chemscore.Internal_Hbond.Weighted>
0.0000

> <Gold.Chemscore.DEClash.Weighted>
0.5944

> <Gold.Chemscore.DEInternal.Weighted>
0.5355

> <Gold.Chemscore.Rot.Weighted>
4.7583

> <Gold.Chemscore.Internal.Correction.Weighted>
   9.000000E+99

> <Gold.Protein.RotatedTorsions>
[ 6907 6896 6895 6894 ] final   -9.66 input  -60.11 | X-H torsion
[ 7974 7965 7964 7962 ] final  138.87 input  175.53 | X-H torsion
[ 8008 7997 7996 7995 ] final  -39.13 input   59.86 | X-H torsion
[ 10167 10162 10161 10158 ] final  -31.48 input  -65.29 | X-H torsion
[ 10718 10713 10712 10709 ] final  102.37 input   66.30 | X-H torsion
[ 10763 10752 10751 10750 ] final   -6.31 input  -60.55 | X-H torsion
[ 11005 11000 10999 10996 ] final  -98.19 input  -57.11 | X-H torsion

> <Gold.Protein.ActiveResidues>
 VAL166  LYS551  ARG553  GLY616  TRP617  ASP618  TYR619  PRO620  LYS621  CYS622 
 ASP623  PHE694  ASN695  SER759  ASP760  ASP761  ALA762  ILE779  LEU786  VAL792 
 PHE793  MET794  SER795  GLU796  ALA797  LYS798  CYS799  TRP800  GLU811  SER814 

> <Gold.Protein.RotatedAtoms>
  151.4143  135.0989  159.9594 H   0  0  0  0  0  0  0  0  0  0  0  0  # atno 6907 bound_to 6896
  152.5010  133.8768  159.7336 H   0  0  0  0  0  0  0  0  0  0  0  0  # atno 6908 bound_to 6896
  150.9270  133.6755  159.2847 H   0  0  0  0  0  0  0  0  0  0  0  0  # atno 6909 bound_to 6896
  144.9332  139.5021  143.5607 H   0  0  0  0  0  0  0  0  0  0  0  0  # atno 7974 bound_to 7965
  154.4027  140.1559  156.2813 H   0  0  0  0  0  0  0  0  0  0  0  0  # atno 8008 bound_to 7997
  155.8867  140.3441  155.5904 H   0  0  0  0  0  0  0  0  0  0  0  0  # atno 8009 bound_to 7997
  155.7606  140.0817  157.2148 H   0  0  0  0  0  0  0  0  0  0  0  0  # atno 8010 bound_to 7997
  140.7235  143.3768  151.1675 H   0  0  0  0  0  0  0  0  0  0  0  0  # atno 10167 bound_to 10162
  157.6804  131.0751  150.5393 H   0  0  0  0  0  0  0  0  0  0  0  0  # atno 10718 bound_to 10713
  153.4107  135.7007  153.6361 H   0  0  0  0  0  0  0  0  0  0  0  0  # atno 10763 bound_to 10752
  153.4857  135.3684  155.2466 H   0  0  0  0  0  0  0  0  0  0  0  0  # atno 10764 bound_to 10752
  154.8717  135.4077  154.3458 H   0  0  0  0  0  0  0  0  0  0  0  0  # atno 10765 bound_to 10752
  141.1353  133.8226  157.0806 H   0  0  0  0  0  0  0  0  0  0  0  0  # atno 11005 bound_to 11000
  146.3256  139.8298  142.8910 LP  0  0  0  0  0  0  0  0  0  0  0  0  # atno 17320 bound_to 7965
  145.3108  141.0219  143.3555 LP  0  0  0  0  0  0  0  0  0  0  0  0  # atno 17321 bound_to 7965
  139.7349  143.9014  152.3031 LP  0  0  0  0  0  0  0  0  0  0  0  0  # atno 17342 bound_to 10162
  139.8816  144.7014  150.8871 LP  0  0  0  0  0  0  0  0  0  0  0  0  # atno 17343 bound_to 10162
  156.5700  130.4277  149.6023 LP  0  0  0  0  0  0  0  0  0  0  0  0  # atno 17370 bound_to 10713
  156.2748  130.7037  151.1845 LP  0  0  0  0  0  0  0  0  0  0  0  0  # atno 17371 bound_to 10713
  140.0454  134.9833  157.1039 LP  0  0  0  0  0  0  0  0  0  0  0  0  # atno 17394 bound_to 11000
  140.4071  134.2020  155.7163 LP  0  0  0  0  0  0  0  0  0  0  0  0  # atno 17395 bound_to 11000

$$$$
