AV-unprocessed.smi:2007|AV-procd|sdf|8137|dock3
  -GOLD-   2272010373D 1   1.00000     0.00000
 Structure written by MMmdl.
 35 36  0  0  0  0  0  0  0  0  2 V2000
  151.8632  136.6332  156.2844 C   0  0  0  0  0  0  0  0  0  0  0  0
  151.5371  138.1325  156.2750 C   0  0  2  0  0  0  0  0  0  0  0  0
  151.4109  138.6625  154.8294 C   0  0  0  0  0  0  0  0  0  0  0  0
  150.5156  139.8058  154.6458 N   0  0  0  0  0  0  0  0  0  0  0  0
  149.1388  139.3725  154.4404 C   0  0  0  0  0  0  0  0  0  0  0  0
  148.1900  140.5647  154.2265 C   0  0  0  0  0  0  0  0  0  0  0  0
  148.2795  141.4515  155.3371 O   0  0  0  0  0  0  0  0  0  0  0  0
  149.6036  141.9313  155.5492 C   0  0  0  0  0  0  0  0  0  0  0  0
  150.5554  140.7426  155.7663 C   0  0  0  0  0  0  0  0  0  0  0  0
  152.5939  138.8489  156.9891 N   0  0  0  0  0  0  0  0  0  0  0  0
  152.4618  139.5492  158.1256 C   0  0  0  0  0  0  0  0  0  0  0  0
  151.3659  139.6200  158.6867 O   0  0  0  0  0  0  0  0  0  0  0  0
  153.6104  140.1312  158.5401 N   0  5  0  0  0  0  0  0  0  0  0  0
  153.5900  141.0030  159.5611 C   0  0  0  0  0  0  0  0  0  0  0  0
  152.9073  142.1531  159.5253 N   0  0  0  0  0  0  0  0  0  0  0  0
  153.0220  142.9030  160.6972 C   0  0  0  0  0  0  0  0  0  0  0  0
  153.8027  142.3057  161.6510 C   0  0  0  0  0  0  0  0  0  0  0  0
  154.4215  140.7743  161.1023 S   0  0  0  0  0  0  0  0  0  0  0  0
  151.0848  136.0597  155.7807 H   0  0  0  0  0  0  0  0  0  0  0  0
  151.9415  136.2555  157.3043 H   0  0  0  0  0  0  0  0  0  0  0  0
  152.8079  136.4276  155.7797 H   0  0  0  0  0  0  0  0  0  0  0  0
  150.5863  138.2450  156.7963 H   0  0  0  0  0  0  0  0  0  0  0  0
  152.4107  138.9392  154.4914 H   0  0  0  0  0  0  0  0  0  0  0  0
  151.0931  137.8503  154.1738 H   0  0  0  0  0  0  0  0  0  0  0  0
  149.0839  138.7110  153.5751 H   0  0  0  0  0  0  0  0  0  0  0  0
  148.8014  138.7914  155.3001 H   0  0  0  0  0  0  0  0  0  0  0  0
  148.4392  141.0963  153.3066 H   0  0  0  0  0  0  0  0  0  0  0  0
  147.1612  140.2183  154.1285 H   0  0  0  0  0  0  0  0  0  0  0  0
  149.9237  142.5294  154.6943 H   0  0  0  0  0  0  0  0  0  0  0  0
  149.6108  142.5871  156.4198 H   0  0  0  0  0  0  0  0  0  0  0  0
  150.2864  140.2275  156.6896 H   0  0  0  0  0  0  0  0  0  0  0  0
  151.5638  141.1283  155.9074 H   0  0  0  0  0  0  0  0  0  0  0  0
  153.5132  138.8259  156.5734 H   0  0  0  0  0  0  0  0  0  0  0  0
  152.5114  143.8519  160.7663 H   0  0  0  0  0  0  0  0  0  0  0  0
  154.0495  142.6692  162.6370 H   0  0  0  0  0  0  0  0  0  0  0  0
  1  2  1  0  0  0  0
  1 19  1  0  0  0  0
  1 20  1  0  0  0  0
  1 21  1  0  0  0  0
  2  3  1  0  0  0  0
  2 10  1  0  0  0  0
  2 22  1  0  0  0  0
  3  4  1  0  0  0  0
  3 23  1  0  0  0  0
  3 24  1  0  0  0  0
  4  9  1  0  0  0  0
  4  5  1  0  0  0  0
  5  6  1  0  0  0  0
  5 25  1  0  0  0  0
  5 26  1  0  0  0  0
  6  7  1  0  0  0  0
  6 27  1  0  0  0  0
  6 28  1  0  0  0  0
  7  8  1  0  0  0  0
  8  9  1  0  0  0  0
  8 29  1  0  0  0  0
  8 30  1  0  0  0  0
  9 31  1  0  0  0  0
  9 32  1  0  0  0  0
 10 11  1  0  0  0  0
 10 33  1  0  0  0  0
 11 12  2  0  0  0  0
 11 13  1  0  0  0  0
 13 14  1  0  0  0  0
 14 18  1  0  0  0  0
 14 15  2  0  0  0  0
 15 16  1  0  0  0  0
 16 17  2  0  0  0  0
 16 34  1  0  0  0  0
 17 18  1  0  0  0  0
 17 35  1  0  0  0  0
M  CHG  1  13  -1
M  END
> <s_m_source_file>
AV-unprocessed.smi

> <i_m_source_file_index>
2007

> <i_lp_mmshare_version>
43012

> <i_f3d_flags>
0

> <s_epik_input>
W0NIMl0xW0NIMl1PW0NIMl1bQ0gyXU4xW0NIMl1bQ0BASF0oW0NIM10pW05IXUMoPU8pW05IXWMybltjSF1bY0hdczI=

> <s_epik_cmdline>
J2VwaWtfcHl0aG9uJywgJy1waCcsICc3LjAnLCAnLXRuJywgJzgnLCAnLW1hJywgJzIwMCcsICctbWV0YWxfYmluZGluZycsICctaW1hZScsICc8aW5maWxlLm1hZT4nLCAnLW9tYWUnLCAnPG91dGZpbGUubWFlPic=

> <r_lp_tautomer_probability>
0.999

> <r_epik_Ionization_Penalty>
7.09127

> <r_epik_Ionization_Penalty_Charging>
5.74083

> <r_epik_Ionization_Penalty_Neutral>
1.35044

> <r_epik_State_Penalty>
5.95014

> <r_epik_Charging_Adjusted_Penalty>
11.691

> <i_epik_Tot_Q>
-1

> <i_epik_Tot_abs_Q>
1

> <r_epik_Metal_State_Penalty>
1.93831

> <b_epik_Metal_Only>
1

> <s_lp_Force_Field>
OPLS_2005

> <r_lp_Energy>
21.0216

> <b_lp_Chiralities_Consistent>
1

> <s_lp_Variant>
AV-unprocessed.smi:2007-5

> <Gold.Version>
5.8.1

> <Gold.Id.Protein>
6NUR|6NUR_protein|mol2

> <Gold.PLP.Fitness>
37.8313

> <Gold.PLP.PLP>
-31.0955

> <Gold.PLP.part.hbond>
-2.0000

> <Gold.PLP.part.metal>
0.0000

> <Gold.PLP.part.buried>
-1.7746

> <Gold.PLP.part.nonpolar>
-27.3839

> <Gold.PLP.part.repulsive>
0.7398

> <Gold.PLP.ligand.clash>
0.0000

> <Gold.PLP.ligand.torsion>
1.2366

> <Gold.PLP.Chemscore.Hbond>
3.0000

> <Gold.PLP.Chemscore.CHOScore>
0.0000

> <Gold.PLP.Chemscore.Metal>
0.0000

> <Gold.Chemscore.Hbonds>
donor molecule, donor type, donor heavy atom, donor atom, acceptor molecule, acceptor atom, score
      P1  H  7989  7998       L1     4  0.71
      P1  H  7997  8008       L1    13  1.95

> <Gold.PLP.Chemscore.Internal.Correction>
0.2089

> <Gold.Rescore>
     Score         DG    S(hbond)    S(metal)    S(lipo)     H(rot)  DE(clash)    DE(int)     intcor
     11.82     -13.12       0.86        0.00      74.72       1.55       0.04       1.26       ----

> <Gold.Chemscore.Fitness>
11.8158

> <Gold.Chemscore.DG>
-13.1167

> <Gold.Chemscore.ZeroCoef>
-5.4800

> <Gold.Chemscore.Hbond>
0.8579

> <Gold.Chemscore.Metal>
0.0000

> <Gold.Chemscore.Lipo>
74.7167

> <Gold.Chemscore.Internal_Hbond>
0.0000

> <Gold.Chemscore.DEClash>
0.0368

> <Gold.Chemscore.DEInternal>
1.2641

> <Gold.Chemscore.Rot>
1.5510

> <Gold.Chemscore.Internal.Correction>
   9.000000E+99

> <Gold.Chemscore.Hbonds>
donor molecule, donor type, donor heavy atom, donor atom, acceptor molecule, acceptor atom, score
      P1  H  7989  7998       L1     4  0.02
      P1  H  7997  8008       L1    13  0.41

> <Gold.Chemscore.Hbond.Weighted>
-2.8654

> <Gold.Chemscore.Metal.Weighted>
-0.0000

> <Gold.Chemscore.Lipo.Weighted>
-8.7419

> <Gold.Chemscore.Internal_Hbond.Weighted>
0.0000

> <Gold.Chemscore.DEClash.Weighted>
0.0368

> <Gold.Chemscore.DEInternal.Weighted>
1.2641

> <Gold.Chemscore.Rot.Weighted>
3.9706

> <Gold.Chemscore.Internal.Correction.Weighted>
   9.000000E+99

> <Gold.Protein.RotatedTorsions>
[ 6907 6896 6895 6894 ] final  166.84 input  -60.11 | X-H torsion
[ 7974 7965 7964 7962 ] final  166.61 input  175.53 | X-H torsion
[ 8008 7997 7996 7995 ] final  -90.70 input   59.86 | X-H torsion
[ 10167 10162 10161 10158 ] final  -53.29 input  -65.29 | X-H torsion
[ 10718 10713 10712 10709 ] final  -49.19 input   66.30 | X-H torsion
[ 10763 10752 10751 10750 ] final    4.81 input  -60.55 | X-H torsion
[ 11005 11000 10999 10996 ] final  -25.10 input  -57.11 | X-H torsion

> <Gold.Protein.ActiveResidues>
 VAL166  LYS551  ARG553  GLY616  TRP617  ASP618  TYR619  PRO620  LYS621  CYS622 
 ASP623  PHE694  ASN695  SER759  ASP760  ASP761  ALA762  ILE779  LEU786  VAL792 
 PHE793  MET794  SER795  GLU796  ALA797  LYS798  CYS799  TRP800  GLU811  SER814 

> <Gold.Protein.RotatedAtoms>
  151.8727  133.3479  159.3739 H   0  0  0  0  0  0  0  0  0  0  0  0  # atno 6907 bound_to 6896
  150.7148  134.5097  159.5610 H   0  0  0  0  0  0  0  0  0  0  0  0  # atno 6908 bound_to 6896
  152.2633  134.8011  160.0478 H   0  0  0  0  0  0  0  0  0  0  0  0  # atno 6909 bound_to 6896
  144.7456  139.8640  143.6383 H   0  0  0  0  0  0  0  0  0  0  0  0  # atno 7974 bound_to 7965
  154.7017  140.0527  157.0464 H   0  0  0  0  0  0  0  0  0  0  0  0  # atno 8008 bound_to 7997
  155.0675  140.3196  155.4622 H   0  0  0  0  0  0  0  0  0  0  0  0  # atno 8009 bound_to 7997
  156.2762  140.2087  156.5803 H   0  0  0  0  0  0  0  0  0  0  0  0  # atno 8010 bound_to 7997
  140.6492  143.2555  151.4771 H   0  0  0  0  0  0  0  0  0  0  0  0  # atno 10167 bound_to 10162
  156.1916  130.4153  149.9363 H   0  0  0  0  0  0  0  0  0  0  0  0  # atno 10718 bound_to 10713
  153.2669  135.6928  153.7521 H   0  0  0  0  0  0  0  0  0  0  0  0  # atno 10763 bound_to 10752
  153.6559  135.3368  155.3114 H   0  0  0  0  0  0  0  0  0  0  0  0  # atno 10764 bound_to 10752
  154.8450  135.4465  154.1678 H   0  0  0  0  0  0  0  0  0  0  0  0  # atno 10765 bound_to 10752
  140.8906  133.7591  156.0416 H   0  0  0  0  0  0  0  0  0  0  0  0  # atno 11005 bound_to 11000
  146.1328  139.4367  143.0158 LP  0  0  0  0  0  0  0  0  0  0  0  0  # atno 17320 bound_to 7965
  145.7137  141.0098  143.1439 LP  0  0  0  0  0  0  0  0  0  0  0  0  # atno 17321 bound_to 7965
  139.5706  144.1938  152.1830 LP  0  0  0  0  0  0  0  0  0  0  0  0  # atno 17342 bound_to 10162
  140.1233  144.5353  150.6849 LP  0  0  0  0  0  0  0  0  0  0  0  0  # atno 17343 bound_to 10162
  156.7102  130.8967  151.3608 LP  0  0  0  0  0  0  0  0  0  0  0  0  # atno 17370 bound_to 10713
  157.6932  130.9255  150.0573 LP  0  0  0  0  0  0  0  0  0  0  0  0  # atno 17371 bound_to 10713
  140.8351  134.3132  157.5334 LP  0  0  0  0  0  0  0  0  0  0  0  0  # atno 17394 bound_to 11000
  139.8729  134.9385  156.3716 LP  0  0  0  0  0  0  0  0  0  0  0  0  # atno 17395 bound_to 11000

$$$$
