#       Name:                AV-unprocessed.smi:2066
#       Creating user name   scv26
#       Creation time:       Fri Mar 27 11:11:29 2020


#       File generated by GOLD software.
#

@<TRIPOS>MOLECULE
AV-unprocessed.smi:2066
    45    46     1
SMALL
NO_CHARGES


@<TRIPOS>ATOM
      1 ****        -1.3474  -0.2549   0.8001 C.3            1 S1                 0.0000
      2 ****        -0.8176   0.4134  -0.4935 C.3            1 S1                 0.0000
      3 ****        -1.2584   1.8971  -0.4182 C.3            1 S1                 0.0000
      4 ****         0.7378   0.3318  -0.5595 C.3            1 S1                 0.0000
      5 ****         1.4023   0.9982   0.5599 N.am           1 S1                 0.0000
      6 ****         1.8687   0.4132   1.6726 C.2            1 S1                 0.0000
      7 ****         1.7638  -0.8066   1.8191 O.2            1 S1                 0.0000
      8 ****         2.4163   1.2817   2.5516 N.pl3          1 S1                -1.0000
      9 ****         2.8922   0.8359   3.7257 C.2            1 S1                 0.0000
     10 ****         4.1891   0.5887   3.9425 N.2            1 S1                 0.0000
     11 ****         4.4587   0.1344   5.2347 C.2            1 S1                 0.0000
     12 ****         3.3424   0.0438   6.0233 C.2            1 S1                 0.0000
     13 ****         1.9103   0.5279   5.1608 S.3            1 S1                 0.0000
     14 ****        -1.4514  -0.2515  -1.6885 N.4            1 S1                 1.0000
     15 ****        -1.2246   0.4146  -3.0022 C.3            1 S1                 0.0000
     16 ****        -2.0744  -0.2497  -4.0984 C.3            1 S1                 0.0000
     17 ****        -1.7644  -1.6338  -4.1759 O.3            1 S1                 0.0000
     18 ****        -2.0561  -2.3055  -2.9587 C.3            1 S1                 0.0000
     19 ****        -1.2024  -1.7150  -1.8246 C.3            1 S1                 0.0000
     20 ****        -1.0879   0.3216   1.6887 H              1 S1                 0.0000
     21 ****        -0.9313  -1.2501   0.9541 H              1 S1                 0.0000
     22 ****        -2.4343  -0.3426   0.7870 H              1 S1                 0.0000
     23 ****        -0.9834   2.3517   0.5344 H              1 S1                 0.0000
     24 ****        -2.3398   1.9967  -0.5188 H              1 S1                 0.0000
     25 ****        -0.7897   2.5085  -1.1889 H              1 S1                 0.0000
     26 ****         1.0781  -0.7018  -0.6215 H              1 S1                 0.0000
     27 ****         1.1043   0.8180  -1.4628 H              1 S1                 0.0000
     28 ****         1.5165   1.9987   0.4884 H              1 S1                 0.0000
     29 ****         5.4765  -0.1002   5.5085 H              1 S1                 0.0000
     30 ****         3.2747  -0.2752   7.0523 H              1 S1                 0.0000
     31 ****        -1.4954   1.4679  -2.9712 H              1 S1                 0.0000
     32 ****        -0.1710   0.3600  -3.2768 H              1 S1                 0.0000
     33 ****        -3.1393  -0.1127  -3.9027 H              1 S1                 0.0000
     34 ****        -1.8677   0.2118  -5.0641 H              1 S1                 0.0000
     35 ****        -3.1198  -2.2274  -2.7284 H              1 S1                 0.0000
     36 ****        -1.8344  -3.3657  -3.0813 H              1 S1                 0.0000
     37 ****        -0.1499  -1.9030  -2.0372 H              1 S1                 0.0000
     38 ****        -1.4457  -2.2507  -0.9092 H              1 S1                 0.0000
     39 ****        -2.4439  -0.1689  -1.5218 H              1 S1                 0.0000
     40 ****         1.3306  -1.3602   1.1078 LP             1 S1                 0.0000
     41 ****         2.1118  -1.2423   2.6492 LP             1 S1                 0.0000
     42 ****         2.4670   2.2550   2.3280 LP             1 S1                 0.0000
     43 ****         4.8961   0.7168   3.2470 LP             1 S1                 0.0000
     44 ****        -0.7905  -1.7371  -4.3779 LP             1 S1                 0.0000
     45 ****        -2.3029  -2.0460  -4.9108 LP             1 S1                 0.0000
@<TRIPOS>BOND
    1    1    2 1     
    2    1   20 1     
    3    1   21 1     
    4    1   22 1     
    5    2    3 1     
    6    2    4 1     
    7    2   14 1     
    8    3   23 1     
    9    3   24 1     
   10    3   25 1     
   11    4    5 1     
   12    4   26 1     
   13    4   27 1     
   14    5    6 am    
   15    5   28 1     
   16    6    7 2     
   17    6    8 1     
   18    8    9 1     
   19    9   13 1     
   20    9   10 2     
   21   10   11 1     
   22   11   12 2     
   23   11   29 1     
   24   12   13 1     
   25   12   30 1     
   26   14   19 1     
   27   14   15 1     
   28   14   39 1     
   29   15   16 1     
   30   15   31 1     
   31   15   32 1     
   32   16   17 1     
   33   16   33 1     
   34   16   34 1     
   35   17   18 1     
   36   18   19 1     
   37   18   35 1     
   38   18   36 1     
   39   19   37 1     
   40   19   38 1     
   41    7   40 1     
   42    7   41 1     
   43    8   42 1     
   44   10   43 1     
   45   17   44 1     
   46   17   45 1     
@<TRIPOS>SUBSTRUCTURE
      1 S1             1
@<TRIPOS>SET
LONE_PAIRS      STATIC     ATOMS    <user>   **** ""
6 40 41 42 43 44 45
DONOR_HYDROGENS      STATIC     ATOMS    <user>   **** ""
2 28 39
ATOM$BLUE        STATIC     ATOMS    COLORGROUP SYSTEM
6 40 41 42 43 44 45
ATOM$RED        STATIC     ATOMS    COLORGROUP SYSTEM
2 28 39
