AV-unprocessed.smi:3251|AV-procd|sdf|12438|dock2
  -GOLD-   2272018333D 1   1.00000     0.00000
 Structure written by MMmdl.
 40 41  0  0  0  0  0  0  0  0  1 V2000
  152.6497  143.0329  162.5022 C   0  0  0  0  0  0  0  0  0  0  0  0
  152.2631  143.6185  161.1746 C   0  0  0  0  0  0  0  0  0  0  0  0
  151.8861  144.9612  160.8860 C   0  0  0  0  0  0  0  0  0  0  0  0
  151.6019  145.1524  159.6083 N   0  0  0  0  0  0  0  0  0  0  0  0
  151.7873  143.9435  159.0371 N   0  0  0  0  0  0  0  0  0  0  0  0
  151.5630  143.7763  157.6143 C   0  0  0  0  0  0  0  0  0  0  0  0
  150.5621  142.6478  157.3267 C   0  0  0  0  0  0  0  0  0  0  0  0
  150.3951  142.5087  155.8841 N   0  0  0  0  0  0  0  0  0  0  0  0
  149.6749  141.2833  155.4898 C   0  0  1  0  0  0  0  0  0  0  0  0
  148.8899  141.5448  154.1952 C   0  0  0  0  0  0  0  0  0  0  0  0
  150.5975  140.0567  155.3030 C   0  0  0  0  0  0  0  0  0  0  0  0
  150.8997  139.7094  154.1599 O   0  0  0  0  0  0  0  0  0  0  0  0
  151.0486  139.3917  156.3891 N   0  0  0  0  0  0  0  0  0  0  0  0
  151.9412  138.2366  156.3037 C   0  0  0  0  0  0  0  0  0  0  0  0
  152.3816  137.9418  157.7374 C   0  0  0  0  0  0  0  0  0  0  0  0
  151.2523  138.4974  158.5923 C   0  0  0  0  0  0  0  0  0  0  0  0
  150.7217  139.6823  157.7850 C   0  0  0  0  0  0  0  0  0  0  0  0
  152.1863  142.9994  159.9591 C   0  0  0  0  0  0  0  0  0  0  0  0
  152.7661  143.8019  163.2663 H   0  0  0  0  0  0  0  0  0  0  0  0
  153.5947  142.4926  162.4445 H   0  0  0  0  0  0  0  0  0  0  0  0
  151.8988  142.3310  162.8649 H   0  0  0  0  0  0  0  0  0  0  0  0
  151.8106  145.7982  161.5644 H   0  0  0  0  0  0  0  0  0  0  0  0
  151.1997  144.7220  157.2094 H   0  0  0  0  0  0  0  0  0  0  0  0
  152.5211  143.5721  157.1331 H   0  0  0  0  0  0  0  0  0  0  0  0
  150.9203  141.7182  157.7704 H   0  0  0  0  0  0  0  0  0  0  0  0
  149.6000  142.8799  157.7858 H   0  0  0  0  0  0  0  0  0  0  0  0
  149.9397  143.3337  155.5216 H   0  0  0  0  0  0  0  0  0  0  0  0
  148.9475  141.0840  156.2760 H   0  0  0  0  0  0  0  0  0  0  0  0
  148.3120  140.6695  153.8958 H   0  0  0  0  0  0  0  0  0  0  0  0
  149.5545  141.8020  153.3691 H   0  0  0  0  0  0  0  0  0  0  0  0
  148.1872  142.3687  154.3231 H   0  0  0  0  0  0  0  0  0  0  0  0
  151.3882  137.3912  155.8915 H   0  0  0  0  0  0  0  0  0  0  0  0
  152.7996  138.4281  155.6578 H   0  0  0  0  0  0  0  0  0  0  0  0
  152.5653  136.8816  157.9144 H   0  0  0  0  0  0  0  0  0  0  0  0
  153.3037  138.4821  157.9554 H   0  0  0  0  0  0  0  0  0  0  0  0
  150.4692  137.7450  158.6950 H   0  0  0  0  0  0  0  0  0  0  0  0
  151.5782  138.7795  159.5938 H   0  0  0  0  0  0  0  0  0  0  0  0
  151.2267  140.6019  158.0847 H   0  0  0  0  0  0  0  0  0  0  0  0
  149.6500  139.8113  157.9418 H   0  0  0  0  0  0  0  0  0  0  0  0
  152.3809  141.9750  159.6768 H   0  0  0  0  0  0  0  0  0  0  0  0
  1  2  1  0  0  0  0
  1 19  1  0  0  0  0
  1 20  1  0  0  0  0
  1 21  1  0  0  0  0
  2 18  2  0  0  0  0
  2  3  1  0  0  0  0
  3  4  2  0  0  0  0
  3 22  1  0  0  0  0
  4  5  1  0  0  0  0
  5  6  1  0  0  0  0
  5 18  1  0  0  0  0
  6  7  1  0  0  0  0
  6 23  1  0  0  0  0
  6 24  1  0  0  0  0
  7  8  1  0  0  0  0
  7 25  1  0  0  0  0
  7 26  1  0  0  0  0
  8  9  1  0  0  0  0
  8 27  1  0  0  0  0
  9 10  1  0  0  0  0
  9 11  1  0  0  0  0
  9 28  1  0  0  0  0
 10 29  1  0  0  0  0
 10 30  1  0  0  0  0
 10 31  1  0  0  0  0
 11 12  2  0  0  0  0
 11 13  1  0  0  0  0
 13 17  1  0  0  0  0
 13 14  1  0  0  0  0
 14 15  1  0  0  0  0
 14 32  1  0  0  0  0
 14 33  1  0  0  0  0
 15 16  1  0  0  0  0
 15 34  1  0  0  0  0
 15 35  1  0  0  0  0
 16 17  1  0  0  0  0
 16 36  1  0  0  0  0
 16 37  1  0  0  0  0
 17 38  1  0  0  0  0
 17 39  1  0  0  0  0
 18 40  1  0  0  0  0
M  END
> <s_m_source_file>
AV-unprocessed.smi

> <i_m_source_file_index>
3251

> <i_lp_mmshare_version>
43012

> <i_f3d_flags>
0

> <s_epik_input>
W0NIM11jMVtjSF1ubihbY0hdMSlbQ0gyXVtDSDJdW05IXVtDQEhdKFtDSDNdKUMoPU8pTjJbQ0gyXVtDSDJdW0NIMl1bQ0gyXTI=

> <s_epik_cmdline>
J2VwaWtfcHl0aG9uJywgJy1waCcsICc3LjAnLCAnLXRuJywgJzgnLCAnLW1hJywgJzIwMCcsICctbWV0YWxfYmluZGluZycsICctaW1hZScsICc8aW5maWxlLm1hZT4nLCAnLW9tYWUnLCAnPG91dGZpbGUubWFlPic=

> <r_lp_tautomer_probability>
1

> <r_epik_Ionization_Penalty>
0.734676

> <r_epik_Ionization_Penalty_Charging>
0

> <r_epik_Ionization_Penalty_Neutral>
0.734676

> <r_epik_State_Penalty>
0.75825

> <r_epik_Charging_Adjusted_Penalty>
0.75825

> <i_epik_Tot_Q>
0

> <i_epik_Tot_abs_Q>
0

> <r_epik_Metal_State_Penalty>
0.756914

> <b_epik_Metal_Only>
0

> <s_lp_Force_Field>
OPLS_2005

> <r_lp_Energy>
31.4715

> <b_lp_Chiralities_Consistent>
1

> <s_lp_Variant>
AV-unprocessed.smi:3251-4

> <Gold.Version>
5.8.1

> <Gold.Id.Protein>
6NUR|6NUR_protein|mol2

> <Gold.PLP.Fitness>
45.0488

> <Gold.PLP.PLP>
-40.9175

> <Gold.PLP.part.hbond>
-2.0000

> <Gold.PLP.part.metal>
0.0000

> <Gold.PLP.part.buried>
-3.1204

> <Gold.PLP.part.nonpolar>
-34.7715

> <Gold.PLP.part.repulsive>
0.2549

> <Gold.PLP.ligand.clash>
0.0000

> <Gold.PLP.ligand.torsion>
0.9567

> <Gold.PLP.Chemscore.Hbond>
2.0000

> <Gold.PLP.Chemscore.CHOScore>
0.0000

> <Gold.PLP.Chemscore.Metal>
0.0000

> <Gold.Chemscore.Hbonds>
donor molecule, donor type, donor heavy atom, donor atom, acceptor molecule, acceptor atom, score
      L1  H     8    27       P1  8028  1.00
      P1  H  7989  7998       L1    12  0.98

> <Gold.PLP.Chemscore.Internal.Correction>
0.0449

> <Gold.Rescore>
     Score         DG    S(hbond)    S(metal)    S(lipo)     H(rot)  DE(clash)    DE(int)     intcor
     17.72     -19.41       1.97        0.00      99.82       1.70       0.22       1.47       ----

> <Gold.Chemscore.Fitness>
17.7159

> <Gold.Chemscore.DG>
-19.4110

> <Gold.Chemscore.ZeroCoef>
-5.4800

> <Gold.Chemscore.Hbond>
1.9735

> <Gold.Chemscore.Metal>
0.0000

> <Gold.Chemscore.Lipo>
99.8205

> <Gold.Chemscore.Internal_Hbond>
0.0000

> <Gold.Chemscore.DEClash>
0.2207

> <Gold.Chemscore.DEInternal>
1.4743

> <Gold.Chemscore.Rot>
1.6951

> <Gold.Chemscore.Internal.Correction>
   9.000000E+99

> <Gold.Chemscore.Hbonds>
donor molecule, donor type, donor heavy atom, donor atom, acceptor molecule, acceptor atom, score
      L1  H     8    27       P1  8028  0.98
      P1  H  7989  7998       L1    12  0.64

> <Gold.Chemscore.Hbond.Weighted>
-6.5915

> <Gold.Chemscore.Metal.Weighted>
-0.0000

> <Gold.Chemscore.Lipo.Weighted>
-11.6790

> <Gold.Chemscore.Internal_Hbond.Weighted>
0.0000

> <Gold.Chemscore.DEClash.Weighted>
0.2207

> <Gold.Chemscore.DEInternal.Weighted>
1.4743

> <Gold.Chemscore.Rot.Weighted>
4.3395

> <Gold.Chemscore.Internal.Correction.Weighted>
   9.000000E+99

> <Gold.Protein.RotatedTorsions>
[ 6907 6896 6895 6894 ] final  -43.16 input  -60.11 | X-H torsion
[ 7974 7965 7964 7962 ] final   81.68 input  175.53 | X-H torsion
[ 8008 7997 7996 7995 ] final    4.52 input   59.86 | X-H torsion
[ 10167 10162 10161 10158 ] final -103.36 input  -65.29 | X-H torsion
[ 10718 10713 10712 10709 ] final  178.00 input   66.30 | X-H torsion
[ 10763 10752 10751 10750 ] final  169.09 input  -60.55 | X-H torsion
[ 11005 11000 10999 10996 ] final  -10.07 input  -57.11 | X-H torsion

> <Gold.Protein.ActiveResidues>
 VAL166  LYS551  ARG553  GLY616  TRP617  ASP618  TYR619  PRO620  LYS621  CYS622 
 ASP623  PHE694  ASN695  SER759  ASP760  ASP761  ALA762  ILE779  LEU786  VAL792 
 PHE793  MET794  SER795  GLU796  ALA797  LYS798  CYS799  TRP800  GLU811  SER814 

> <Gold.Protein.RotatedAtoms>
  150.9470  134.8874  159.7647 H   0  0  0  0  0  0  0  0  0  0  0  0  # atno 6907 bound_to 6896
  152.5104  134.3860  159.9377 H   0  0  0  0  0  0  0  0  0  0  0  0  # atno 6908 bound_to 6896
  151.3878  133.3759  159.2752 H   0  0  0  0  0  0  0  0  0  0  0  0  # atno 6909 bound_to 6896
  145.6350  139.2413  143.2063 H   0  0  0  0  0  0  0  0  0  0  0  0  # atno 7974 bound_to 7965
  154.7169  140.2704  155.6577 H   0  0  0  0  0  0  0  0  0  0  0  0  # atno 8008 bound_to 7997
  156.2812  140.2742  156.1753 H   0  0  0  0  0  0  0  0  0  0  0  0  # atno 8009 bound_to 7997
  155.0559  140.0371  157.2550 H   0  0  0  0  0  0  0  0  0  0  0  0  # atno 8010 bound_to 7997
  140.2209  143.3677  152.0971 H   0  0  0  0  0  0  0  0  0  0  0  0  # atno 10167 bound_to 10162
  156.8970  130.9866  151.3041 H   0  0  0  0  0  0  0  0  0  0  0  0  # atno 10718 bound_to 10713
  154.3781  135.2753  155.2227 H   0  0  0  0  0  0  0  0  0  0  0  0  # atno 10763 bound_to 10752
  154.4345  135.5969  153.6093 H   0  0  0  0  0  0  0  0  0  0  0  0  # atno 10764 bound_to 10752
  152.9835  135.6004  154.4021 H   0  0  0  0  0  0  0  0  0  0  0  0  # atno 10765 bound_to 10752
  140.7408  133.8672  155.8966 H   0  0  0  0  0  0  0  0  0  0  0  0  # atno 11005 bound_to 11000
  146.1326  140.7165  142.9405 LP  0  0  0  0  0  0  0  0  0  0  0  0  # atno 17320 bound_to 7965
  144.7179  140.4273  143.7030 LP  0  0  0  0  0  0  0  0  0  0  0  0  # atno 17321 bound_to 7965
  139.5145  144.6948  151.5660 LP  0  0  0  0  0  0  0  0  0  0  0  0  # atno 17342 bound_to 10162
  140.6256  143.9175  150.6562 LP  0  0  0  0  0  0  0  0  0  0  0  0  # atno 17343 bound_to 10162
  157.6049  130.8540  149.8860 LP  0  0  0  0  0  0  0  0  0  0  0  0  # atno 17370 bound_to 10713
  156.0601  130.3701  150.1002 LP  0  0  0  0  0  0  0  0  0  0  0  0  # atno 17371 bound_to 10713
  140.9838  134.1370  157.4470 LP  0  0  0  0  0  0  0  0  0  0  0  0  # atno 17394 bound_to 11000
  139.8806  135.0019  156.6095 LP  0  0  0  0  0  0  0  0  0  0  0  0  # atno 17395 bound_to 11000

$$$$
