AV-unprocessed.smi:914|AV-procd|sdf|4153|dock2
  -GOLD-   22720 2 53D 1   1.00000     0.00000
 Structure written by MMmdl.
 32 33  0  0  0  0  0  0  0  0  2 V2000
  152.0931  136.4072  156.3334 O   0  0  0  0  0  0  0  0  0  0  0  0
  151.7363  137.5845  156.3538 C   0  0  0  0  0  0  0  0  0  0  0  0
  151.3070  138.2436  155.2381 N   0  5  0  0  0  0  0  0  0  0  0  0
  150.9005  139.5509  155.2417 C   0  0  0  0  0  0  0  0  0  0  0  0
  150.5216  140.1228  154.2194 O   0  0  0  0  0  0  0  0  0  0  0  0
  150.9147  140.2404  156.4215 N   0  0  0  0  0  0  0  0  0  0  0  0
  150.4970  141.6459  156.5262 C   0  0  0  0  0  0  0  0  0  0  0  0
  151.4879  142.4741  157.3591 C   0  0  0  0  0  0  0  0  0  0  0  0
  150.8860  143.7004  157.7373 O   0  0  0  0  0  0  0  0  0  0  0  0
  151.8319  144.7126  158.0335 C   0  0  0  0  0  0  0  0  0  0  0  0
  152.2971  144.5414  159.4842 C   0  0  1  0  0  0  0  0  0  0  0  0
  151.1586  144.5600  160.5002 C   0  0  0  0  0  0  0  0  0  0  0  0
  151.7914  143.8523  161.6773 C   0  0  0  0  0  0  0  0  0  0  0  0
  152.6671  142.7999  160.9982 C   0  0  0  0  0  0  0  0  0  0  0  0
  152.8887  143.2596  159.6670 O   0  0  0  0  0  0  0  0  0  0  0  0
  151.3563  139.6109  157.5973 C   0  0  0  0  0  0  0  0  0  0  0  0
  151.7637  138.3269  157.6124 C   0  0  0  0  0  0  0  0  0  0  0  0
  152.3041  137.5804  159.0737 Cl  0  0  0  0  0  0  0  0  0  0  0  0
  150.3608  142.1025  155.5447 H   0  0  0  0  0  0  0  0  0  0  0  0
  149.5129  141.6884  156.9947 H   0  0  0  0  0  0  0  0  0  0  0  0
  151.7687  141.9150  158.2528 H   0  0  0  0  0  0  0  0  0  0  0  0
  152.4012  142.6577  156.7912 H   0  0  0  0  0  0  0  0  0  0  0  0
  152.6812  144.6129  157.3557 H   0  0  0  0  0  0  0  0  0  0  0  0
  151.4058  145.7062  157.8857 H   0  0  0  0  0  0  0  0  0  0  0  0
  153.0266  145.3096  159.7470 H   0  0  0  0  0  0  0  0  0  0  0  0
  150.8180  145.5677  160.7401 H   0  0  0  0  0  0  0  0  0  0  0  0
  150.3060  143.9867  160.1329 H   0  0  0  0  0  0  0  0  0  0  0  0
  152.4140  144.5503  162.2384 H   0  0  0  0  0  0  0  0  0  0  0  0
  151.0606  143.4217  162.3622 H   0  0  0  0  0  0  0  0  0  0  0  0
  153.6104  142.6562  161.5253 H   0  0  0  0  0  0  0  0  0  0  0  0
  152.1554  141.8381  160.9523 H   0  0  0  0  0  0  0  0  0  0  0  0
  151.3472  140.2353  158.4787 H   0  0  0  0  0  0  0  0  0  0  0  0
  1  2  2  0  0  0  0
  2 17  1  0  0  0  0
  2  3  1  0  0  0  0
  3  4  1  0  0  0  0
  4  5  2  0  0  0  0
  4  6  1  0  0  0  0
  6  7  1  0  0  0  0
  6 16  1  0  0  0  0
  7  8  1  0  0  0  0
  7 19  1  0  0  0  0
  7 20  1  0  0  0  0
  8  9  1  0  0  0  0
  8 21  1  0  0  0  0
  8 22  1  0  0  0  0
  9 10  1  0  0  0  0
 10 11  1  0  0  0  0
 10 23  1  0  0  0  0
 10 24  1  0  0  0  0
 11 15  1  0  0  0  0
 11 12  1  0  0  0  0
 11 25  1  0  0  0  0
 12 13  1  0  0  0  0
 12 26  1  0  0  0  0
 12 27  1  0  0  0  0
 13 14  1  0  0  0  0
 13 28  1  0  0  0  0
 13 29  1  0  0  0  0
 14 15  1  0  0  0  0
 14 30  1  0  0  0  0
 14 31  1  0  0  0  0
 16 17  2  0  0  0  0
 16 32  1  0  0  0  0
 17 18  1  0  0  0  0
M  CHG  1   3  -1
M  END
> <s_m_source_file>
AV-unprocessed.smi

> <i_m_source_file_index>
914

> <i_lp_mmshare_version>
43012

> <i_f3d_flags>
0

> <s_epik_input>
Tz1jMVtuSF1jKD1PKW4oW2NIXWMxQ2wpW0NIMl1bQ0gyXU9bQ0gyXVtDQEBIXTJbQ0gyXVtDSDJdW0NIMl1PMg==

> <s_epik_cmdline>
J2VwaWtfcHl0aG9uJywgJy1waCcsICc3LjAnLCAnLXRuJywgJzgnLCAnLW1hJywgJzIwMCcsICctbWV0YWxfYmluZGluZycsICctaW1hZScsICc8aW5maWxlLm1hZT4nLCAnLW9tYWUnLCAnPG91dGZpbGUubWFlPic=

> <r_epik_Ionization_Penalty>
1.76812

> <r_epik_Ionization_Penalty_Charging>
1.60097e-08

> <r_epik_Ionization_Penalty_Neutral>
1.76812

> <r_epik_State_Penalty>
1.87929

> <r_epik_Charging_Adjusted_Penalty>
1.87929

> <i_epik_Tot_Q>
-1

> <i_epik_Tot_abs_Q>
1

> <r_epik_Metal_State_Penalty>
0.0133872

> <b_epik_Metal_Only>
0

> <s_lp_Force_Field>
OPLS_2005

> <r_lp_Energy>
30.6138

> <b_lp_Chiralities_Consistent>
1

> <s_lp_Variant>
AV-unprocessed.smi:914-4

> <Gold.Version>
5.8.1

> <Gold.Id.Protein>
6NUR|6NUR_protein|mol2

> <Gold.PLP.Fitness>
42.2408

> <Gold.PLP.PLP>
-37.1872

> <Gold.PLP.part.hbond>
-1.8543

> <Gold.PLP.part.metal>
0.0000

> <Gold.PLP.part.buried>
-6.6408

> <Gold.PLP.part.nonpolar>
-29.0510

> <Gold.PLP.part.repulsive>
1.0271

> <Gold.PLP.ligand.clash>
0.0000

> <Gold.PLP.ligand.torsion>
0.4905

> <Gold.PLP.Chemscore.Hbond>
2.0000

> <Gold.PLP.Chemscore.CHOScore>
0.0000

> <Gold.PLP.Chemscore.Metal>
0.0000

> <Gold.Chemscore.Hbonds>
donor molecule, donor type, donor heavy atom, donor atom, acceptor molecule, acceptor atom, score
      P1  H  7989  7998       L1     5  0.96
      P1  H 10752 10763       L1     1  0.99

> <Gold.PLP.Chemscore.Internal.Correction>
0.0345

> <Gold.Rescore>
     Score         DG    S(hbond)    S(metal)    S(lipo)     H(rot)  DE(clash)    DE(int)     intcor
     15.76     -17.06       1.81        0.00      92.54       2.07       0.62       0.67       ----

> <Gold.Chemscore.Fitness>
15.7612

> <Gold.Chemscore.DG>
-17.0564

> <Gold.Chemscore.ZeroCoef>
-5.4800

> <Gold.Chemscore.Hbond>
1.8092

> <Gold.Chemscore.Metal>
0.0000

> <Gold.Chemscore.Lipo>
92.5397

> <Gold.Chemscore.Internal_Hbond>
0.0000

> <Gold.Chemscore.DEClash>
0.6217

> <Gold.Chemscore.DEInternal>
0.6734

> <Gold.Chemscore.Rot>
2.0678

> <Gold.Chemscore.Internal.Correction>
   9.000000E+99

> <Gold.Chemscore.Hbonds>
donor molecule, donor type, donor heavy atom, donor atom, acceptor molecule, acceptor atom, score
      P1  H  7989  7998       L1     5  0.80
      P1  H 10752 10763       L1     1  0.91

> <Gold.Chemscore.Hbond.Weighted>
-6.0428

> <Gold.Chemscore.Metal.Weighted>
-0.0000

> <Gold.Chemscore.Lipo.Weighted>
-10.8272

> <Gold.Chemscore.Internal_Hbond.Weighted>
0.0000

> <Gold.Chemscore.DEClash.Weighted>
0.6217

> <Gold.Chemscore.DEInternal.Weighted>
0.6734

> <Gold.Chemscore.Rot.Weighted>
5.2935

> <Gold.Chemscore.Internal.Correction.Weighted>
   9.000000E+99

> <Gold.Protein.RotatedTorsions>
[ 6907 6896 6895 6894 ] final -149.78 input  -60.11 | X-H torsion
[ 7974 7965 7964 7962 ] final  -39.91 input  175.53 | X-H torsion
[ 8008 7997 7996 7995 ] final   61.63 input   59.86 | X-H torsion
[ 10167 10162 10161 10158 ] final -115.04 input  -65.29 | X-H torsion
[ 10718 10713 10712 10709 ] final -127.90 input   66.30 | X-H torsion
[ 10763 10752 10751 10750 ] final   71.46 input  -60.55 | X-H torsion
[ 11005 11000 10999 10996 ] final  141.86 input  -57.11 | X-H torsion

> <Gold.Protein.ActiveResidues>
 VAL166  LYS551  ARG553  GLY616  TRP617  ASP618  TYR619  PRO620  LYS621  CYS622 
 ASP623  PHE694  ASN695  SER759  ASP760  ASP761  ALA762  ILE779  LEU786  VAL792 
 PHE793  MET794  SER795  GLU796  ALA797  LYS798  CYS799  TRP800  GLU811  SER814 

> <Gold.Protein.RotatedAtoms>
  151.1890  133.4679  159.2594 H   0  0  0  0  0  0  0  0  0  0  0  0  # atno 6907 bound_to 6896
  151.1183  135.0065  159.8536 H   0  0  0  0  0  0  0  0  0  0  0  0  # atno 6908 bound_to 6896
  152.5454  134.1803  159.8686 H   0  0  0  0  0  0  0  0  0  0  0  0  # atno 6909 bound_to 6896
  146.0353  140.6680  142.9113 H   0  0  0  0  0  0  0  0  0  0  0  0  # atno 7974 bound_to 7965
  155.6015  140.3494  155.4595 H   0  0  0  0  0  0  0  0  0  0  0  0  # atno 8008 bound_to 7997
  156.0224  140.1256  157.0368 H   0  0  0  0  0  0  0  0  0  0  0  0  # atno 8009 bound_to 7997
  154.4320  140.1060  156.5969 H   0  0  0  0  0  0  0  0  0  0  0  0  # atno 8010 bound_to 7997
  140.0944  143.4670  152.1850 H   0  0  0  0  0  0  0  0  0  0  0  0  # atno 10167 bound_to 10162
  156.1900  130.6789  151.0412 H   0  0  0  0  0  0  0  0  0  0  0  0  # atno 10718 bound_to 10713
  153.0400  135.5136  154.7596 H   0  0  0  0  0  0  0  0  0  0  0  0  # atno 10763 bound_to 10752
  154.6541  135.2929  154.9952 H   0  0  0  0  0  0  0  0  0  0  0  0  # atno 10764 bound_to 10752
  154.0825  135.6662  153.4892 H   0  0  0  0  0  0  0  0  0  0  0  0  # atno 10765 bound_to 10752
  140.0433  134.9293  157.0883 H   0  0  0  0  0  0  0  0  0  0  0  0  # atno 11005 bound_to 11000
  144.7049  140.3809  143.7126 LP  0  0  0  0  0  0  0  0  0  0  0  0  # atno 17320 bound_to 7965
  145.6974  139.1653  143.2612 LP  0  0  0  0  0  0  0  0  0  0  0  0  # atno 17321 bound_to 7965
  139.5706  144.7460  151.3901 LP  0  0  0  0  0  0  0  0  0  0  0  0  # atno 17342 bound_to 10162
  140.7011  143.7629  150.7405 LP  0  0  0  0  0  0  0  0  0  0  0  0  # atno 17343 bound_to 10162
  157.6923  131.0806  150.7071 LP  0  0  0  0  0  0  0  0  0  0  0  0  # atno 17370 bound_to 10713
  156.7128  130.4657  149.5543 LP  0  0  0  0  0  0  0  0  0  0  0  0  # atno 17371 bound_to 10713
  140.4034  134.2058  155.7163 LP  0  0  0  0  0  0  0  0  0  0  0  0  # atno 17394 bound_to 11000
  141.1894  133.8239  157.0958 LP  0  0  0  0  0  0  0  0  0  0  0  0  # atno 17395 bound_to 11000

$$$$
