AV-unprocessed.smi:1829|AV-procd|sdf|7430|dock2
  -GOLD-   22720 9113D 1   1.00000     0.00000
 Structure written by MMmdl.
 46 48  0  0  0  0  0  0  0  0  2 V2000
  154.0999  136.7137  163.4272 C   0  0  0  0  0  0  0  0  0  0  0  0
  154.9554  137.6373  162.5464 C   0  0  0  0  0  0  0  0  0  0  0  0
  155.3753  138.9115  163.2965 C   0  0  0  0  0  0  0  0  0  0  0  0
  154.2536  137.9570  161.2330 C   0  0  0  0  0  0  0  0  0  0  0  0
  152.9787  137.4151  160.9649 C   0  0  0  0  0  0  0  0  0  0  0  0
  152.3151  137.7209  159.7619 C   0  0  0  0  0  0  0  0  0  0  0  0
  152.9174  138.5716  158.8114 C   0  0  0  0  0  0  0  0  0  0  0  0
  152.1672  138.9310  157.5368 C   0  0  2  0  0  0  0  0  0  0  0  0
  152.9136  139.7830  156.6931 O   0  0  0  0  0  0  0  0  0  0  0  0
  150.8131  139.6106  157.8302 C   0  0  0  0  0  0  0  0  0  0  0  0
  150.8066  141.0419  157.4864 N   0  0  0  0  0  0  0  0  0  0  0  0
  150.2647  141.6958  156.4173 C   0  0  0  0  0  0  0  0  0  0  0  0
  149.4923  141.0962  155.2892 C   0  0  0  0  0  0  0  0  0  0  0  0
  149.1519  142.0484  154.3066 O   0  0  0  0  0  0  0  0  0  0  0  0
  150.5533  143.0193  156.5658 N   0  3  0  0  0  0  0  0  0  0  0  0
  151.2820  143.2159  157.7391 C   0  0  0  0  0  0  0  0  0  0  0  0
  151.7986  144.3761  158.3077 C   0  0  0  0  0  0  0  0  0  0  0  0
  152.4965  144.2276  159.5242 C   0  0  0  0  0  0  0  0  0  0  0  0
  152.6574  142.9639  160.1293 C   0  0  0  0  0  0  0  0  0  0  0  0
  152.1293  141.7947  159.5430 C   0  0  0  0  0  0  0  0  0  0  0  0
  151.4433  141.9503  158.3390 C   0  0  0  0  0  0  0  0  0  0  0  0
  154.1965  139.1075  159.0742 C   0  0  0  0  0  0  0  0  0  0  0  0
  154.8590  138.8038  160.2787 C   0  0  0  0  0  0  0  0  0  0  0  0
  153.8586  135.7879  162.9038 H   0  0  0  0  0  0  0  0  0  0  0  0
  153.1610  137.1881  163.7141 H   0  0  0  0  0  0  0  0  0  0  0  0
  154.6277  136.4452  164.3426 H   0  0  0  0  0  0  0  0  0  0  0  0
  155.8709  137.0940  162.3076 H   0  0  0  0  0  0  0  0  0  0  0  0
  156.0163  139.5376  162.6750 H   0  0  0  0  0  0  0  0  0  0  0  0
  155.9328  138.6666  164.2008 H   0  0  0  0  0  0  0  0  0  0  0  0
  154.5133  139.5089  163.5943 H   0  0  0  0  0  0  0  0  0  0  0  0
  152.4989  136.7676  161.6843 H   0  0  0  0  0  0  0  0  0  0  0  0
  151.3334  137.3101  159.5773 H   0  0  0  0  0  0  0  0  0  0  0  0
  151.9967  138.0155  156.9695 H   0  0  0  0  0  0  0  0  0  0  0  0
  152.3114  140.3223  156.2031 H   0  0  0  0  0  0  0  0  0  0  0  0
  150.0129  139.1261  157.2695 H   0  0  0  0  0  0  0  0  0  0  0  0
  150.5492  139.5154  158.8844 H   0  0  0  0  0  0  0  0  0  0  0  0
  150.0837  140.3060  154.8260 H   0  0  0  0  0  0  0  0  0  0  0  0
  148.5833  140.6317  155.6683 H   0  0  0  0  0  0  0  0  0  0  0  0
  149.1531  142.9052  154.7055 H   0  0  0  0  0  0  0  0  0  0  0  0
  151.6757  145.3451  157.8467 H   0  0  0  0  0  0  0  0  0  0  0  0
  152.9163  145.1005  160.0029 H   0  0  0  0  0  0  0  0  0  0  0  0
  153.1972  142.8894  161.0622 H   0  0  0  0  0  0  0  0  0  0  0  0
  152.2580  140.8313  160.0139 H   0  0  0  0  0  0  0  0  0  0  0  0
  154.6678  139.7680  158.3611 H   0  0  0  0  0  0  0  0  0  0  0  0
  155.8319  139.2321  160.4696 H   0  0  0  0  0  0  0  0  0  0  0  0
  150.2669  143.7343  155.9094 H   0  0  0  0  0  0  0  0  0  0  0  0
  1  2  1  0  0  0  0
  1 24  1  0  0  0  0
  1 25  1  0  0  0  0
  1 26  1  0  0  0  0
  2  3  1  0  0  0  0
  2  4  1  0  0  0  0
  2 27  1  0  0  0  0
  3 28  1  0  0  0  0
  3 29  1  0  0  0  0
  3 30  1  0  0  0  0
  4 23  1  0  0  0  0
  4  5  2  0  0  0  0
  5  6  1  0  0  0  0
  5 31  1  0  0  0  0
  6  7  2  0  0  0  0
  6 32  1  0  0  0  0
  7  8  1  0  0  0  0
  7 22  1  0  0  0  0
  8  9  1  0  0  0  0
  8 10  1  0  0  0  0
  8 33  1  0  0  0  0
  9 34  1  0  0  0  0
 10 11  1  0  0  0  0
 10 35  1  0  0  0  0
 10 36  1  0  0  0  0
 11 21  1  0  0  0  0
 11 12  1  0  0  0  0
 12 13  1  0  0  0  0
 12 15  2  0  0  0  0
 13 14  1  0  0  0  0
 13 37  1  0  0  0  0
 13 38  1  0  0  0  0
 14 39  1  0  0  0  0
 15 16  1  0  0  0  0
 15 46  1  0  0  0  0
 16 21  2  0  0  0  0
 16 17  1  0  0  0  0
 17 18  2  0  0  0  0
 17 40  1  0  0  0  0
 18 19  1  0  0  0  0
 18 41  1  0  0  0  0
 19 20  2  0  0  0  0
 19 42  1  0  0  0  0
 20 21  1  0  0  0  0
 20 43  1  0  0  0  0
 22 23  2  0  0  0  0
 22 44  1  0  0  0  0
 23 45  1  0  0  0  0
M  CHG  1  15   1
M  END
> <s_m_source_file>
AV-unprocessed.smi

> <i_m_source_file_index>
1829

> <i_lp_mmshare_version>
43012

> <i_f3d_flags>
0

> <s_epik_input>
W0NIM11bQ0hdKFtDSDNdKWMxW2NIXVtjSF1jKFtjSF1bY0hdMSlbQ0BIXShbT0hdKVtDSDJdbihjKG4yKVtDSDJdW09IXSljKGMyMylbY0hdW2NIXVtjSF1bY0hdMw==

> <s_epik_cmdline>
J2VwaWtfcHl0aG9uJywgJy1waCcsICc3LjAnLCAnLXRuJywgJzgnLCAnLW1hJywgJzIwMCcsICctbWV0YWxfYmluZGluZycsICctaW1hZScsICc8aW5maWxlLm1hZT4nLCAnLW9tYWUnLCAnPG91dGZpbGUubWFlPic=

> <r_epik_Ionization_Penalty>
1.35642

> <r_epik_Ionization_Penalty_Charging>
1.35557

> <r_epik_Ionization_Penalty_Neutral>
0.000856322

> <r_epik_State_Penalty>
1.43401

> <r_epik_Charging_Adjusted_Penalty>
2.78958

> <i_epik_Tot_Q>
1

> <i_epik_Tot_abs_Q>
1

> <r_epik_Metal_State_Penalty>
5.47166

> <b_epik_Metal_Only>
0

> <s_lp_Force_Field>
OPLS_2005

> <r_lp_Energy>
15.3194

> <b_lp_Chiralities_Consistent>
1

> <s_lp_Variant>
AV-unprocessed.smi:1829-3

> <Gold.Version>
5.8.1

> <Gold.Id.Protein>
6NUR|6NUR_protein|mol2

> <Gold.PLP.Fitness>
56.8728

> <Gold.PLP.PLP>
-47.5555

> <Gold.PLP.part.hbond>
-4.0382

> <Gold.PLP.part.metal>
0.0000

> <Gold.PLP.part.buried>
-5.0399

> <Gold.PLP.part.nonpolar>
-39.1110

> <Gold.PLP.part.repulsive>
0.0709

> <Gold.PLP.ligand.clash>
0.0000

> <Gold.PLP.ligand.torsion>
0.9438

> <Gold.PLP.Chemscore.Hbond>
3.6917

> <Gold.PLP.Chemscore.CHOScore>
0.0000

> <Gold.PLP.Chemscore.Metal>
0.0000

> <Gold.Chemscore.Hbonds>
donor molecule, donor type, donor heavy atom, donor atom, acceptor molecule, acceptor atom, score
      L1  H    14    39       P1  8028  0.96
      L1  H    15    46       P1  8028  1.50
      P1  H  7997  8009       L1     9  1.00
      P1  H  8011  8017       L1    14  0.29

> <Gold.PLP.Chemscore.Internal.Correction>
0.1300

> <Gold.Rescore>
     Score         DG    S(hbond)    S(metal)    S(lipo)     H(rot)  DE(clash)    DE(int)     intcor
     21.99     -23.05       2.90        0.00     127.68       2.75       0.03       1.03       ----

> <Gold.Chemscore.Fitness>
21.9926

> <Gold.Chemscore.DG>
-23.0466

> <Gold.Chemscore.ZeroCoef>
-5.4800

> <Gold.Chemscore.Hbond>
2.8983

> <Gold.Chemscore.Metal>
0.0000

> <Gold.Chemscore.Lipo>
127.6831

> <Gold.Chemscore.Internal_Hbond>
0.0000

> <Gold.Chemscore.DEClash>
0.0270

> <Gold.Chemscore.DEInternal>
1.0270

> <Gold.Chemscore.Rot>
2.7550

> <Gold.Chemscore.Internal.Correction>
   9.000000E+99

> <Gold.Chemscore.Hbonds>
donor molecule, donor type, donor heavy atom, donor atom, acceptor molecule, acceptor atom, score
      L1  H    14    39       P1  8028  0.90
      L1  H    15    46       P1  8028  0.76
      P1  H  7997  8009       L1     9  0.60
      P1  H  8011  8017       L1    14  0.12

> <Gold.Chemscore.Hbond.Weighted>
-9.6804

> <Gold.Chemscore.Metal.Weighted>
-0.0000

> <Gold.Chemscore.Lipo.Weighted>
-14.9389

> <Gold.Chemscore.Internal_Hbond.Weighted>
0.0000

> <Gold.Chemscore.DEClash.Weighted>
0.0270

> <Gold.Chemscore.DEInternal.Weighted>
1.0270

> <Gold.Chemscore.Rot.Weighted>
7.0527

> <Gold.Chemscore.Internal.Correction.Weighted>
   9.000000E+99

> <Gold.Protein.RotatedTorsions>
[ 6907 6896 6895 6894 ] final  138.44 input  -60.11 | X-H torsion
[ 7974 7965 7964 7962 ] final   -9.12 input  175.53 | X-H torsion
[ 8008 7997 7996 7995 ] final -156.98 input   59.86 | X-H torsion
[ 10167 10162 10161 10158 ] final -135.13 input  -65.29 | X-H torsion
[ 10718 10713 10712 10709 ] final  -69.02 input   66.30 | X-H torsion
[ 10763 10752 10751 10750 ] final  120.31 input  -60.55 | X-H torsion
[ 11005 11000 10999 10996 ] final   65.64 input  -57.11 | X-H torsion

> <Gold.Protein.ActiveResidues>
 VAL166  LYS551  ARG553  GLY616  TRP617  ASP618  TYR619  PRO620  LYS621  CYS622 
 ASP623  PHE694  ASN695  SER759  ASP760  ASP761  ALA762  ILE779  LEU786  VAL792 
 PHE793  MET794  SER795  GLU796  ALA797  LYS798  CYS799  TRP800  GLU811  SER814 

> <Gold.Protein.RotatedAtoms>
  152.2666  133.5344  159.5413 H   0  0  0  0  0  0  0  0  0  0  0  0  # atno 6907 bound_to 6896
  150.7144  134.0756  159.3889 H   0  0  0  0  0  0  0  0  0  0  0  0  # atno 6908 bound_to 6896
  151.8672  135.0502  160.0526 H   0  0  0  0  0  0  0  0  0  0  0  0  # atno 6909 bound_to 6896
  146.2261  140.2569  142.8350 H   0  0  0  0  0  0  0  0  0  0  0  0  # atno 7974 bound_to 7965
  155.7254  140.0795  157.2312 H   0  0  0  0  0  0  0  0  0  0  0  0  # atno 8008 bound_to 7997
  154.4039  140.1605  156.2503 H   0  0  0  0  0  0  0  0  0  0  0  0  # atno 8009 bound_to 7997
  155.9158  140.3401  155.6137 H   0  0  0  0  0  0  0  0  0  0  0  0  # atno 8010 bound_to 7997
  139.8810  143.6839  152.2627 H   0  0  0  0  0  0  0  0  0  0  0  0  # atno 10167 bound_to 10162
  156.0476  130.4305  150.2086 H   0  0  0  0  0  0  0  0  0  0  0  0  # atno 10718 bound_to 10713
  153.5965  135.3456  155.2930 H   0  0  0  0  0  0  0  0  0  0  0  0  # atno 10763 bound_to 10752
  154.8643  135.4217  154.2459 H   0  0  0  0  0  0  0  0  0  0  0  0  # atno 10764 bound_to 10752
  153.3278  135.7042  153.7045 H   0  0  0  0  0  0  0  0  0  0  0  0  # atno 10765 bound_to 10752
  139.9882  134.6634  156.0138 H   0  0  0  0  0  0  0  0  0  0  0  0  # atno 11005 bound_to 11000
  144.9369  140.8036  143.5654 LP  0  0  0  0  0  0  0  0  0  0  0  0  # atno 17320 bound_to 7965
  145.2517  139.2029  143.4939 LP  0  0  0  0  0  0  0  0  0  0  0  0  # atno 17321 bound_to 7965
  139.7196  144.7605  151.0977 LP  0  0  0  0  0  0  0  0  0  0  0  0  # atno 17342 bound_to 10162
  140.7744  143.5224  150.9520 LP  0  0  0  0  0  0  0  0  0  0  0  0  # atno 17343 bound_to 10162
  157.0174  130.9969  151.3349 LP  0  0  0  0  0  0  0  0  0  0  0  0  # atno 17370 bound_to 10713
  157.5368  130.8094  149.7981 LP  0  0  0  0  0  0  0  0  0  0  0  0  # atno 17371 bound_to 10713
  141.1543  133.6544  156.4111 LP  0  0  0  0  0  0  0  0  0  0  0  0  # atno 17394 bound_to 11000
  140.4961  134.6530  157.5230 LP  0  0  0  0  0  0  0  0  0  0  0  0  # atno 17395 bound_to 11000

$$$$
