#       Name:                AV-unprocessed.smi:1605
#       Creating user name   scv26
#       Creation time:       Fri Mar 27 07:11:01 2020


#       File generated by GOLD software.
#

@<TRIPOS>MOLECULE
AV-unprocessed.smi:1605
    56    58     1
SMALL
NO_CHARGES


@<TRIPOS>ATOM
      1 ****        -3.5978   5.3726  -3.6080 C.3            1 S1                 0.0000
      2 ****        -3.3047   4.7876  -2.3484 O.3            1 S1                 0.0000
      3 ****        -2.9285   3.4184  -2.4105 C.3            1 S1                 0.0000
      4 ****        -3.0862   2.8290  -1.0012 C.3            1 S1                 0.0000
      5 ****        -2.5978   1.3722  -0.9470 C.3            1 S1                 0.0000
      6 ****        -1.1846   1.2657  -1.3929 N.4            1 S1                 1.0000
      7 ****        -0.6379  -0.1043  -1.2116 C.3            1 S1                 0.0000
      8 ****         0.9012  -0.1255  -1.0779 C.3            1 S1                 0.0000
      9 ****         1.2641   0.5177   0.1283 O.3            1 S1                 0.0000
     10 ****         1.4958  -1.5526  -1.0968 C.3            1 S1                 0.0000
     11 ****         0.9639  -2.4478  -0.0555 N.pl3          1 S1                 0.0000
     12 ****        -0.0944  -3.3034  -0.0968 C.2            1 S1                 0.0000
     13 ****        -0.1784  -3.9137   1.1175 N.pl3          1 S1                 1.0000
     14 ****         0.8467  -3.4502   1.9444 C.ar           1 S1                 0.0000
     15 ****         1.1722  -3.7710   3.2571 C.ar           1 S1                 0.0000
     16 ****         2.2908  -3.1181   3.8225 C.ar           1 S1                 0.0000
     17 ****         2.6700  -3.4398   5.2581 C.3            1 S1                 0.0000
     18 ****         3.0463  -2.1821   3.0700 C.ar           1 S1                 0.0000
     19 ****         4.2495  -1.4876   3.6848 C.3            1 S1                 0.0000
     20 ****         2.6997  -1.8714   1.7359 C.ar           1 S1                 0.0000
     21 ****         1.5893  -2.5164   1.1959 C.ar           1 S1                 0.0000
     22 ****        -1.0119   1.7937  -2.7727 C.3            1 S1                 0.0000
     23 ****        -1.4661   3.2599  -2.8663 C.3            1 S1                 0.0000
     24 ****        -3.9139   6.4054  -3.4616 H              1 S1                 0.0000
     25 ****        -4.4088   4.8440  -4.1104 H              1 S1                 0.0000
     26 ****        -2.7276   5.3848  -4.2637 H              1 S1                 0.0000
     27 ****        -3.5923   2.8789  -3.0888 H              1 S1                 0.0000
     28 ****        -2.5217   3.4280  -0.2852 H              1 S1                 0.0000
     29 ****        -4.1305   2.8812  -0.6913 H              1 S1                 0.0000
     30 ****        -2.6919   1.0054   0.0758 H              1 S1                 0.0000
     31 ****        -3.2284   0.7376  -1.5719 H              1 S1                 0.0000
     32 ****        -1.0714  -0.5527  -0.3164 H              1 S1                 0.0000
     33 ****        -0.9569  -0.7286  -2.0478 H              1 S1                 0.0000
     34 ****         1.3626   0.4272  -1.8952 H              1 S1                 0.0000
     35 ****         1.0733   1.4404   0.0555 H              1 S1                 0.0000
     36 ****         1.2814  -2.0220  -2.0578 H              1 S1                 0.0000
     37 ****         2.5830  -1.5237  -1.0163 H              1 S1                 0.0000
     38 ****        -0.7511  -3.4675  -0.9389 H              1 S1                 0.0000
     39 ****         0.5949  -4.4877   3.8228 H              1 S1                 0.0000
     40 ****         3.6704  -3.8705   5.3023 H              1 S1                 0.0000
     41 ****         1.9781  -4.1555   5.7030 H              1 S1                 0.0000
     42 ****         2.6537  -2.5378   5.8705 H              1 S1                 0.0000
     43 ****         4.7280  -0.8144   2.9728 H              1 S1                 0.0000
     44 ****         4.9932  -2.2184   4.0029 H              1 S1                 0.0000
     45 ****         3.9492  -0.8976   4.5511 H              1 S1                 0.0000
     46 ****         3.2738  -1.1558   1.1664 H              1 S1                 0.0000
     47 ****         0.0311   1.7304  -3.0795 H              1 S1                 0.0000
     48 ****        -1.5821   1.1806  -3.4726 H              1 S1                 0.0000
     49 ****        -1.3423   3.6084  -3.8913 H              1 S1                 0.0000
     50 ****        -0.8184   3.8825  -2.2473 H              1 S1                 0.0000
     51 ****        -0.6547   1.8663  -0.7776 H              1 S1                 0.0000
     52 ****        -0.8813  -4.6003   1.3604 H              1 S1                 0.0000
     53 ****        -4.1183   4.8626  -1.7717 LP             1 S1                 0.0000
     54 ****        -2.5532   5.2999  -1.9328 LP             1 S1                 0.0000
     55 ****         2.2417   0.3899   0.2952 LP             1 S1                 0.0000
     56 ****         0.7426   0.1265   0.8866 LP             1 S1                 0.0000
@<TRIPOS>BOND
    1    1    2 1     
    2    1   24 1     
    3    1   25 1     
    4    1   26 1     
    5    2    3 1     
    6    3   23 1     
    7    3    4 1     
    8    3   27 1     
    9    4    5 1     
   10    4   28 1     
   11    4   29 1     
   12    5    6 1     
   13    5   30 1     
   14    5   31 1     
   15    6    7 1     
   16    6   22 1     
   17    6   51 1     
   18    7    8 1     
   19    7   32 1     
   20    7   33 1     
   21    8    9 1     
   22    8   10 1     
   23    8   34 1     
   24    9   35 1     
   25   10   11 1     
   26   10   36 1     
   27   10   37 1     
   28   11   21 1     
   29   11   12 1     
   30   12   13 2     
   31   12   38 1     
   32   13   14 1     
   33   13   52 1     
   34   14   21 ar    
   35   14   15 ar    
   36   15   16 ar    
   37   15   39 1     
   38   16   17 1     
   39   16   18 ar    
   40   17   40 1     
   41   17   41 1     
   42   17   42 1     
   43   18   19 1     
   44   18   20 ar    
   45   19   43 1     
   46   19   44 1     
   47   19   45 1     
   48   20   21 ar    
   49   20   46 1     
   50   22   23 1     
   51   22   47 1     
   52   22   48 1     
   53   23   49 1     
   54   23   50 1     
   55    2   53 1     
   56    2   54 1     
   57    9   55 1     
   58    9   56 1     
@<TRIPOS>SUBSTRUCTURE
      1 S1             1
@<TRIPOS>SET
LONE_PAIRS      STATIC     ATOMS    <user>   **** ""
4 53 54 55 56
DONOR_HYDROGENS      STATIC     ATOMS    <user>   **** ""
3 51 35 52
ATOM$BLUE        STATIC     ATOMS    COLORGROUP SYSTEM
4 53 54 55 56
ATOM$RED        STATIC     ATOMS    COLORGROUP SYSTEM
3 51 35 52
