AV-unprocessed.smi:3274|AV-procd|sdf|12523|dock5
  -GOLD-   2272018433D 1   1.00000     0.00000
 Structure written by MMmdl.
 43 44  0  0  0  0  0  0  0  0  2 V2000
  151.7936  144.8040  158.8704 C   0  0  0  0  0  0  0  0  0  0  0  0
  152.2522  143.7315  159.8450 C   0  0  0  0  0  0  0  0  0  0  0  0
  152.2843  143.9991  161.1646 C   0  0  0  0  0  0  0  0  0  0  0  0
  152.7941  143.0412  162.2158 C   0  0  0  0  0  0  0  0  0  0  0  0
  153.7166  141.9891  161.5965 C   0  0  0  0  0  0  0  0  0  0  0  0
  153.0709  141.3321  160.3658 C   0  0  2  0  0  0  0  0  0  0  0  0
  153.9962  140.2197  159.8351 C   0  0  0  0  0  0  0  0  0  0  0  0
  152.6939  142.3715  159.2645 C   0  0  1  0  0  0  0  0  0  0  0  0
  151.6452  141.7608  158.2970 C   0  0  0  0  0  0  0  0  0  0  0  0
  152.2098  140.7012  157.4326 N   0  3  0  0  0  0  0  0  0  0  0  0
  151.3052  140.1835  156.3820 C   0  0  2  0  0  0  0  0  0  0  0  0
  152.0757  139.3236  155.3608 C   0  0  0  0  0  0  0  0  0  0  0  0
  150.5675  141.3681  155.7254 C   0  0  0  0  0  0  0  0  0  0  0  0
  149.4234  140.9551  154.9327 N   0  0  0  0  0  0  0  0  0  0  0  0
  148.4466  141.6746  154.3774 C   0  0  0  0  0  0  0  0  0  0  0  0
  147.5592  140.9487  153.7125 N   0  0  0  0  0  0  0  0  0  0  0  0
  148.0900  139.7044  153.9061 C   0  0  0  0  0  0  0  0  0  0  0  0
  149.2081  139.6532  154.6306 N   0  0  0  0  0  0  0  0  0  0  0  0
  152.5207  144.9273  158.0675 H   0  0  0  0  0  0  0  0  0  0  0  0
  151.6860  145.7692  159.3666 H   0  0  0  0  0  0  0  0  0  0  0  0
  150.8248  144.5523  158.4396 H   0  0  0  0  0  0  0  0  0  0  0  0
  151.9458  144.9582  161.5294 H   0  0  0  0  0  0  0  0  0  0  0  0
  153.3346  143.6021  162.9787 H   0  0  0  0  0  0  0  0  0  0  0  0
  151.9408  142.5718  162.7063 H   0  0  0  0  0  0  0  0  0  0  0  0
  154.6599  142.4562  161.3085 H   0  0  0  0  0  0  0  0  0  0  0  0
  153.9620  141.2372  162.3474 H   0  0  0  0  0  0  0  0  0  0  0  0
  152.1503  140.8583  160.7111 H   0  0  0  0  0  0  0  0  0  0  0  0
  154.9345  140.6313  159.4619 H   0  0  0  0  0  0  0  0  0  0  0  0
  153.5417  139.6480  159.0277 H   0  0  0  0  0  0  0  0  0  0  0  0
  154.2424  139.5087  160.6245 H   0  0  0  0  0  0  0  0  0  0  0  0
  153.6020  142.5813  158.6970 H   0  0  0  0  0  0  0  0  0  0  0  0
  150.8177  141.3244  158.8519 H   0  0  0  0  0  0  0  0  0  0  0  0
  151.2162  142.5516  157.6800 H   0  0  0  0  0  0  0  0  0  0  0  0
  153.0136  141.1002  156.9690 H   0  0  0  0  0  0  0  0  0  0  0  0
  150.5535  139.5567  156.8643 H   0  0  0  0  0  0  0  0  0  0  0  0
  151.4104  138.9119  154.6018 H   0  0  0  0  0  0  0  0  0  0  0  0
  152.5686  138.4751  155.8347 H   0  0  0  0  0  0  0  0  0  0  0  0
  152.8396  139.9088  154.8480 H   0  0  0  0  0  0  0  0  0  0  0  0
  150.2121  142.0599  156.4905 H   0  0  0  0  0  0  0  0  0  0  0  0
  151.2510  141.9335  155.0892 H   0  0  0  0  0  0  0  0  0  0  0  0
  148.3806  142.7494  154.4642 H   0  0  0  0  0  0  0  0  0  0  0  0
  147.6391  138.8102  153.5012 H   0  0  0  0  0  0  0  0  0  0  0  0
  152.5238  139.9317  158.0067 H   0  0  0  0  0  0  0  0  0  0  0  0
  1  2  1  0  0  0  0
  1 19  1  0  0  0  0
  1 20  1  0  0  0  0
  1 21  1  0  0  0  0
  2  8  1  0  0  0  0
  2  3  2  0  0  0  0
  3  4  1  0  0  0  0
  3 22  1  0  0  0  0
  4  5  1  0  0  0  0
  4 23  1  0  0  0  0
  4 24  1  0  0  0  0
  5  6  1  0  0  0  0
  5 25  1  0  0  0  0
  5 26  1  0  0  0  0
  6  7  1  0  0  0  0
  6  8  1  0  0  0  0
  6 27  1  0  0  0  0
  7 28  1  0  0  0  0
  7 29  1  0  0  0  0
  7 30  1  0  0  0  0
  8  9  1  0  0  0  0
  8 31  1  0  0  0  0
  9 10  1  0  0  0  0
  9 32  1  0  0  0  0
  9 33  1  0  0  0  0
 10 11  1  0  0  0  0
 10 34  1  0  0  0  0
 10 43  1  0  0  0  0
 11 12  1  0  0  0  0
 11 13  1  0  0  0  0
 11 35  1  0  0  0  0
 12 36  1  0  0  0  0
 12 37  1  0  0  0  0
 12 38  1  0  0  0  0
 13 14  1  0  0  0  0
 13 39  1  0  0  0  0
 13 40  1  0  0  0  0
 14 18  1  0  0  0  0
 14 15  1  0  0  0  0
 15 16  2  0  0  0  0
 15 41  1  0  0  0  0
 16 17  1  0  0  0  0
 17 18  2  0  0  0  0
 17 42  1  0  0  0  0
M  CHG  1  10   1
M  END
> <s_m_source_file>
AV-unprocessed.smi

> <i_m_source_file_index>
3274

> <i_lp_mmshare_version>
43012

> <i_f3d_flags>
0

> <s_epik_input>
W0NIM11DMT1bQ0hdW0NIMl1bQ0gyXVtDQEBIXShbQ0gzXSlbQ0BIXTFbQ0gyXVtOSF1bQ0BIXShbQ0gzXSlbQ0gyXW4yW2NIXW5bY0hdbjI=

> <s_epik_cmdline>
J2VwaWtfcHl0aG9uJywgJy1waCcsICc3LjAnLCAnLXRuJywgJzgnLCAnLW1hJywgJzIwMCcsICctbWV0YWxfYmluZGluZycsICctaW1hZScsICc8aW5maWxlLm1hZT4nLCAnLW9tYWUnLCAnPG91dGZpbGUubWFlPic=

> <r_lp_tautomer_probability>
1

> <r_epik_Ionization_Penalty>
0.0017527

> <r_epik_Ionization_Penalty_Charging>
0.00175191

> <r_epik_Ionization_Penalty_Neutral>
7.94565e-07

> <r_epik_State_Penalty>
0.00118605

> <r_epik_Charging_Adjusted_Penalty>
0.00293796

> <i_epik_Tot_Q>
1

> <i_epik_Tot_abs_Q>
1

> <r_epik_Metal_State_Penalty>
-0

> <b_epik_Metal_Only>
0

> <s_lp_Force_Field>
OPLS_2005

> <r_lp_Energy>
18.9317

> <b_lp_Chiralities_Consistent>
1

> <s_lp_Variant>
AV-unprocessed.smi:3274-2

> <Gold.Version>
5.8.1

> <Gold.Id.Protein>
6NUR|6NUR_protein|mol2

> <Gold.PLP.Fitness>
50.0213

> <Gold.PLP.PLP>
-47.7454

> <Gold.PLP.part.hbond>
0.0000

> <Gold.PLP.part.metal>
0.0000

> <Gold.PLP.part.buried>
-2.9463

> <Gold.PLP.part.nonpolar>
-43.5510

> <Gold.PLP.part.repulsive>
0.3816

> <Gold.PLP.ligand.clash>
0.0000

> <Gold.PLP.ligand.torsion>
0.4129

> <Gold.PLP.Chemscore.Hbond>
0.0000

> <Gold.PLP.Chemscore.CHOScore>
1.0000

> <Gold.PLP.Chemscore.Metal>
0.0000

> <Gold.Chemscore.Hbonds>
donor molecule, donor type, donor heavy atom, donor atom, acceptor molecule, acceptor atom, score
      L1  C    15    41       P1  8028  1.00

> <Gold.PLP.Chemscore.Internal.Correction>
0.1017

> <Gold.Rescore>
     Score         DG    S(hbond)    S(metal)    S(lipo)     H(rot)  DE(clash)    DE(int)     intcor
     12.87     -13.57       0.00        0.00     120.81       2.36       0.05       0.65       ----

> <Gold.Chemscore.Fitness>
12.8713

> <Gold.Chemscore.DG>
-13.5699

> <Gold.Chemscore.ZeroCoef>
-5.4800

> <Gold.Chemscore.Hbond>
0.0000

> <Gold.Chemscore.Metal>
0.0000

> <Gold.Chemscore.Lipo>
120.8148

> <Gold.Chemscore.Internal_Hbond>
0.0000

> <Gold.Chemscore.DEClash>
0.0476

> <Gold.Chemscore.DEInternal>
0.6510

> <Gold.Chemscore.Rot>
2.3615

> <Gold.Chemscore.Internal.Correction>
   9.000000E+99

> <Gold.Chemscore.Hbond.Weighted>
-0.0000

> <Gold.Chemscore.Metal.Weighted>
-0.0000

> <Gold.Chemscore.Lipo.Weighted>
-14.1353

> <Gold.Chemscore.Internal_Hbond.Weighted>
0.0000

> <Gold.Chemscore.DEClash.Weighted>
0.0476

> <Gold.Chemscore.DEInternal.Weighted>
0.6510

> <Gold.Chemscore.Rot.Weighted>
6.0454

> <Gold.Chemscore.Internal.Correction.Weighted>
   9.000000E+99

> <Gold.Protein.RotatedTorsions>
[ 6907 6896 6895 6894 ] final  -27.17 input  -60.11 | X-H torsion
[ 7974 7965 7964 7962 ] final  170.57 input  175.53 | X-H torsion
[ 8008 7997 7996 7995 ] final -113.98 input   59.86 | X-H torsion
[ 10167 10162 10161 10158 ] final -173.18 input  -65.29 | X-H torsion
[ 10718 10713 10712 10709 ] final  -58.15 input   66.30 | X-H torsion
[ 10763 10752 10751 10750 ] final  121.14 input  -60.55 | X-H torsion
[ 11005 11000 10999 10996 ] final   95.68 input  -57.11 | X-H torsion

> <Gold.Protein.ActiveResidues>
 VAL166  LYS551  ARG553  GLY616  TRP617  ASP618  TYR619  PRO620  LYS621  CYS622 
 ASP623  PHE694  ASN695  SER759  ASP760  ASP761  ALA762  ILE779  LEU786  VAL792 
 PHE793  MET794  SER795  GLU796  ALA797  LYS798  CYS799  TRP800  GLU811  SER814 

> <Gold.Protein.RotatedAtoms>
  151.1507  135.0225  159.8666 H   0  0  0  0  0  0  0  0  0  0  0  0  # atno 6907 bound_to 6896
  152.5452  134.1392  159.8482 H   0  0  0  0  0  0  0  0  0  0  0  0  # atno 6908 bound_to 6896
  151.1477  133.4882  159.2628 H   0  0  0  0  0  0  0  0  0  0  0  0  # atno 6909 bound_to 6896
  144.7320  139.9221  143.6420 H   0  0  0  0  0  0  0  0  0  0  0  0  # atno 7974 bound_to 7965
  155.0292  140.0393  157.2467 H   0  0  0  0  0  0  0  0  0  0  0  0  # atno 8008 bound_to 7997
  154.7311  140.2731  155.6431 H   0  0  0  0  0  0  0  0  0  0  0  0  # atno 8009 bound_to 7997
  156.2841  140.2684  156.2012 H   0  0  0  0  0  0  0  0  0  0  0  0  # atno 8010 bound_to 7997
  139.5702  144.1659  152.1373 H   0  0  0  0  0  0  0  0  0  0  0  0  # atno 10167 bound_to 10162
  156.1157  130.4170  150.0538 H   0  0  0  0  0  0  0  0  0  0  0  0  # atno 10718 bound_to 10713
  153.6095  135.3433  155.2973 H   0  0  0  0  0  0  0  0  0  0  0  0  # atno 10763 bound_to 10752
  154.8621  135.4247  154.2325 H   0  0  0  0  0  0  0  0  0  0  0  0  # atno 10764 bound_to 10752
  153.3172  135.7036  153.7134 H   0  0  0  0  0  0  0  0  0  0  0  0  # atno 10765 bound_to 10752
  139.8787  134.8911  156.4047 H   0  0  0  0  0  0  0  0  0  0  0  0  # atno 11005 bound_to 11000
  146.0921  139.3912  143.0399 LP  0  0  0  0  0  0  0  0  0  0  0  0  # atno 17320 bound_to 7965
  145.7696  140.9902  143.1157 LP  0  0  0  0  0  0  0  0  0  0  0  0  # atno 17321 bound_to 7965
  140.1190  144.5390  150.6875 LP  0  0  0  0  0  0  0  0  0  0  0  0  # atno 17342 bound_to 10162
  140.6987  143.2420  151.4927 LP  0  0  0  0  0  0  0  0  0  0  0  0  # atno 17343 bound_to 10162
  156.8490  130.9452  151.3627 LP  0  0  0  0  0  0  0  0  0  0  0  0  # atno 17370 bound_to 10713
  157.6340  130.8752  149.9325 LP  0  0  0  0  0  0  0  0  0  0  0  0  # atno 17371 bound_to 10713
  140.9242  133.7624  155.9944 LP  0  0  0  0  0  0  0  0  0  0  0  0  # atno 17394 bound_to 11000
  140.8404  134.3073  157.5315 LP  0  0  0  0  0  0  0  0  0  0  0  0  # atno 17395 bound_to 11000

$$$$
