AV-unprocessed.smi:2424|AV-procd|sdf|9565|dock4
  -GOLD-   2272013193D 1   1.00000     0.00000
 Structure written by MMmdl.
 50 51  0  0  0  0  0  0  0  0  1 V2000
  150.6489  139.4990  154.5246 C   0  0  0  0  0  0  0  0  0  0  0  0
  149.3922  138.7877  153.9955 C   0  0  0  0  0  0  0  0  0  0  0  0
  148.0446  139.4652  154.3615 C   0  0  0  0  0  0  0  0  0  0  0  0
  148.0284  140.8970  153.7785 C   0  0  0  0  0  0  0  0  0  0  0  0
  146.6745  141.6210  153.8560 C   0  0  0  0  0  0  0  0  0  0  0  0
  146.7548  138.6451  154.0894 C   0  0  1  0  0  0  0  0  0  0  0  0
  146.8956  137.6213  153.0571 N   0  0  0  0  0  0  0  0  0  0  0  0
  145.9592  136.7217  152.7281 C   0  0  0  0  0  0  0  0  0  0  0  0
  144.8635  136.6539  153.2830 O   0  0  0  0  0  0  0  0  0  0  0  0
  146.3897  135.9321  151.7276 N   0  0  0  0  0  0  0  0  0  0  0  0
  145.7297  134.8775  151.0810 C   0  0  0  0  0  0  0  0  0  0  0  0
  144.4757  135.0976  150.6498 C   0  0  0  0  0  0  0  0  0  0  0  0
  143.7405  134.1071  149.9946 N   0  0  0  0  0  0  0  0  0  0  0  0
  144.2027  132.8627  149.7369 C   0  0  0  0  0  0  0  0  0  0  0  0
  143.4946  132.0435  149.1543 O   0  0  0  0  0  0  0  0  0  0  0  0
  145.5732  132.5888  150.1988 C   0  0  0  0  0  0  0  0  0  0  0  0
  146.1489  131.2072  149.9427 C   0  0  0  0  0  0  0  0  0  0  0  0
  146.2842  133.5501  150.8333 C   0  0  0  0  0  0  0  0  0  0  0  0
  146.8405  138.0628  155.5029 C   0  0  2  0  0  0  0  0  0  0  0  0
  145.5651  137.7272  156.2659 C   0  0  0  0  0  0  0  0  0  0  0  0
  147.6484  139.3203  155.8614 C   0  0  2  0  0  0  0  0  0  0  0  0
  146.7876  140.3470  156.3410 O   0  0  0  0  0  0  0  0  0  0  0  0
  147.4884  141.5125  156.7414 C   0  0  0  0  0  0  0  0  0  0  0  0
  142.8057  134.3489  149.6992 H   0  0  0  0  0  0  0  0  0  0  0  0
  151.5360  138.8945  154.3357 H   0  0  0  0  0  0  0  0  0  0  0  0
  150.5937  139.6713  155.5993 H   0  0  0  0  0  0  0  0  0  0  0  0
  150.8088  140.4597  154.0362 H   0  0  0  0  0  0  0  0  0  0  0  0
  149.4850  138.6610  152.9175 H   0  0  0  0  0  0  0  0  0  0  0  0
  149.4146  137.7715  154.3893 H   0  0  0  0  0  0  0  0  0  0  0  0
  148.7440  141.5176  154.3182 H   0  0  0  0  0  0  0  0  0  0  0  0
  148.3803  140.9048  152.7480 H   0  0  0  0  0  0  0  0  0  0  0  0
  146.7730  142.6494  153.5088 H   0  0  0  0  0  0  0  0  0  0  0  0
  146.2996  141.6582  154.8779 H   0  0  0  0  0  0  0  0  0  0  0  0
  145.9180  141.1453  153.2331 H   0  0  0  0  0  0  0  0  0  0  0  0
  145.8750  139.2839  153.9801 H   0  0  0  0  0  0  0  0  0  0  0  0
  147.7688  137.6054  152.5511 H   0  0  0  0  0  0  0  0  0  0  0  0
  147.3207  136.1186  151.3850 H   0  0  0  0  0  0  0  0  0  0  0  0
  143.9452  136.0314  150.7680 H   0  0  0  0  0  0  0  0  0  0  0  0
  147.1680  131.1222  150.3212 H   0  0  0  0  0  0  0  0  0  0  0  0
  146.1682  130.9942  148.8734 H   0  0  0  0  0  0  0  0  0  0  0  0
  145.5430  130.4453  150.4340 H   0  0  0  0  0  0  0  0  0  0  0  0
  147.2812  133.2969  151.1540 H   0  0  0  0  0  0  0  0  0  0  0  0
  147.5145  137.2041  155.5148 H   0  0  0  0  0  0  0  0  0  0  0  0
  144.8337  138.5333  156.2017 H   0  0  0  0  0  0  0  0  0  0  0  0
  145.7722  137.5519  157.3216 H   0  0  0  0  0  0  0  0  0  0  0  0
  145.0953  136.8280  155.8671 H   0  0  0  0  0  0  0  0  0  0  0  0
  148.4706  139.0927  156.5419 H   0  0  0  0  0  0  0  0  0  0  0  0
  146.7777  142.2780  157.0530 H   0  0  0  0  0  0  0  0  0  0  0  0
  148.0888  141.9209  155.9286 H   0  0  0  0  0  0  0  0  0  0  0  0
  148.1451  141.3012  157.5860 H   0  0  0  0  0  0  0  0  0  0  0  0
  1  2  1  0  0  0  0
  1 25  1  0  0  0  0
  1 26  1  0  0  0  0
  1 27  1  0  0  0  0
  2  3  1  0  0  0  0
  2 28  1  0  0  0  0
  2 29  1  0  0  0  0
  3 21  1  0  0  0  0
  3  4  1  0  0  0  0
  3  6  1  0  0  0  0
  4  5  1  0  0  0  0
  4 30  1  0  0  0  0
  4 31  1  0  0  0  0
  5 32  1  0  0  0  0
  5 33  1  0  0  0  0
  5 34  1  0  0  0  0
  6  7  1  0  0  0  0
  6 19  1  0  0  0  0
  6 35  1  0  0  0  0
  7  8  1  0  0  0  0
  7 36  1  0  0  0  0
  8  9  2  0  0  0  0
  8 10  1  0  0  0  0
 10 11  1  0  0  0  0
 10 37  1  0  0  0  0
 11 18  1  0  0  0  0
 11 12  2  0  0  0  0
 12 13  1  0  0  0  0
 12 38  1  0  0  0  0
 13 24  1  0  0  0  0
 13 14  1  0  0  0  0
 14 15  2  0  0  0  0
 14 16  1  0  0  0  0
 16 17  1  0  0  0  0
 16 18  2  0  0  0  0
 17 39  1  0  0  0  0
 17 40  1  0  0  0  0
 17 41  1  0  0  0  0
 18 42  1  0  0  0  0
 19 20  1  0  0  0  0
 19 21  1  0  0  0  0
 19 43  1  0  0  0  0
 20 44  1  0  0  0  0
 20 45  1  0  0  0  0
 20 46  1  0  0  0  0
 21 22  1  0  0  0  0
 21 47  1  0  0  0  0
 22 23  1  0  0  0  0
 23 48  1  0  0  0  0
 23 49  1  0  0  0  0
 23 50  1  0  0  0  0
M  END
> <s_m_source_file>
AV-unprocessed.smi

> <i_m_source_file_index>
2424

> <i_lp_mmshare_version>
43012

> <i_f3d_flags>
0

> <s_epik_input>
W0NIM11PW0NAQEhdMVtDQEhdKFtDSDNdKVtDQEBIXShDMShbQ0gyXVtDSDNdKVtDSDJdW0NIM10pW05IXUMoPU8pW05IXWMyW2NIXVtuSF1jKD1PKWMoW0NIM10pW2NIXTI=

> <s_epik_cmdline>
J2VwaWtfcHl0aG9uJywgJy1waCcsICc3LjAnLCAnLXRuJywgJzgnLCAnLW1hJywgJzIwMCcsICctbWV0YWxfYmluZGluZycsICctaW1hZScsICc8aW5maWxlLm1hZT4nLCAnLW9tYWUnLCAnPG91dGZpbGUubWFlPic=

> <r_lp_tautomer_probability>
1

> <r_epik_Ionization_Penalty>
4.7326e-05

> <r_epik_Ionization_Penalty_Charging>
2.70169e-05

> <r_epik_Ionization_Penalty_Neutral>
2.0309e-05

> <r_epik_State_Penalty>
-0

> <r_epik_Charging_Adjusted_Penalty>
2.70169e-05

> <i_epik_Tot_Q>
0

> <i_epik_Tot_abs_Q>
0

> <r_epik_Metal_State_Penalty>
0.0198736

> <b_epik_Metal_Only>
0

> <s_lp_Force_Field>
OPLS_2005

> <r_lp_Energy>
37.615

> <b_lp_Chiralities_Consistent>
1

> <s_lp_Variant>
AV-unprocessed.smi:2424-7

> <Gold.Version>
5.8.1

> <Gold.Id.Protein>
6NUR|6NUR_protein|mol2

> <Gold.PLP.Fitness>
47.6117

> <Gold.PLP.PLP>
-34.6887

> <Gold.PLP.part.hbond>
-4.1907

> <Gold.PLP.part.metal>
0.0000

> <Gold.PLP.part.buried>
-3.4451

> <Gold.PLP.part.nonpolar>
-28.1365

> <Gold.PLP.part.repulsive>
0.5981

> <Gold.PLP.ligand.clash>
0.0001

> <Gold.PLP.ligand.torsion>
0.8642

> <Gold.PLP.Chemscore.Hbond>
3.6596

> <Gold.PLP.Chemscore.CHOScore>
0.9951

> <Gold.PLP.Chemscore.Metal>
0.0000

> <Gold.Chemscore.Hbonds>
donor molecule, donor type, donor heavy atom, donor atom, acceptor molecule, acceptor atom, score
      L1  H     7    36       P1  7948  0.74
      L1  H    10    37       P1  7948  0.90
      L1  H    13    24       P1 10186  1.00
      P1  H 10785 10796       L1    15  0.94
      L1  C    12    38       P1 10171  0.54

> <Gold.PLP.Chemscore.Internal.Correction>
0.6874

> <Gold.Rescore>
     Score         DG    S(hbond)    S(metal)    S(lipo)     H(rot)  DE(clash)    DE(int)     intcor
     20.43     -23.02       3.68        0.00      78.85       1.55       0.26       2.32       ----

> <Gold.Chemscore.Fitness>
20.4336

> <Gold.Chemscore.DG>
-23.0182

> <Gold.Chemscore.ZeroCoef>
-5.4800

> <Gold.Chemscore.Hbond>
3.6772

> <Gold.Chemscore.Metal>
0.0000

> <Gold.Chemscore.Lipo>
78.8462

> <Gold.Chemscore.Internal_Hbond>
0.0000

> <Gold.Chemscore.DEClash>
0.2645

> <Gold.Chemscore.DEInternal>
2.3201

> <Gold.Chemscore.Rot>
1.5502

> <Gold.Chemscore.Internal.Correction>
   9.000000E+99

> <Gold.Chemscore.Hbonds>
donor molecule, donor type, donor heavy atom, donor atom, acceptor molecule, acceptor atom, score
      L1  H     7    36       P1  7948  0.74
      L1  H    10    37       P1  7948  0.88
      L1  H    13    24       P1 10186  0.99
      P1  H 10785 10796       L1    15  0.89

> <Gold.Chemscore.Hbond.Weighted>
-12.2817

> <Gold.Chemscore.Metal.Weighted>
-0.0000

> <Gold.Chemscore.Lipo.Weighted>
-9.2250

> <Gold.Chemscore.Internal_Hbond.Weighted>
0.0000

> <Gold.Chemscore.DEClash.Weighted>
0.2645

> <Gold.Chemscore.DEInternal.Weighted>
2.3201

> <Gold.Chemscore.Rot.Weighted>
3.9685

> <Gold.Chemscore.Internal.Correction.Weighted>
   9.000000E+99

> <Gold.Protein.RotatedTorsions>
[ 6907 6896 6895 6894 ] final  165.49 input  -60.11 | X-H torsion
[ 7974 7965 7964 7962 ] final -126.62 input  175.53 | X-H torsion
[ 8008 7997 7996 7995 ] final   60.89 input   59.86 | X-H torsion
[ 10167 10162 10161 10158 ] final   96.17 input  -65.29 | X-H torsion
[ 10718 10713 10712 10709 ] final   53.39 input   66.30 | X-H torsion
[ 10763 10752 10751 10750 ] final -163.94 input  -60.55 | X-H torsion
[ 11005 11000 10999 10996 ] final   26.97 input  -57.11 | X-H torsion

> <Gold.Protein.ActiveResidues>
 VAL166  LYS551  ARG553  GLY616  TRP617  ASP618  TYR619  PRO620  LYS621  CYS622 
 ASP623  PHE694  ASN695  SER759  ASP760  ASP761  ALA762  ILE779  LEU786  VAL792 
 PHE793  MET794  SER795  GLU796  ALA797  LYS798  CYS799  TRP800  GLU811  SER814 

> <Gold.Protein.RotatedAtoms>
  151.8937  133.3522  159.3806 H   0  0  0  0  0  0  0  0  0  0  0  0  # atno 6907 bound_to 6896
  150.7097  134.4898  159.5519 H   0  0  0  0  0  0  0  0  0  0  0  0  # atno 6908 bound_to 6896
  152.2473  134.8168  160.0502 H   0  0  0  0  0  0  0  0  0  0  0  0  # atno 6909 bound_to 6896
  144.9854  140.7681  143.4586 H   0  0  0  0  0  0  0  0  0  0  0  0  # atno 7974 bound_to 7965
  155.5897  140.3492  155.4563 H   0  0  0  0  0  0  0  0  0  0  0  0  # atno 8008 bound_to 7997
  156.0311  140.1275  157.0282 H   0  0  0  0  0  0  0  0  0  0  0  0  # atno 8009 bound_to 7997
  154.4352  140.1043  156.6086 H   0  0  0  0  0  0  0  0  0  0  0  0  # atno 8010 bound_to 7997
  139.7919  144.6848  150.9880 H   0  0  0  0  0  0  0  0  0  0  0  0  # atno 10167 bound_to 10162
  157.5163  130.8534  149.8500 H   0  0  0  0  0  0  0  0  0  0  0  0  # atno 10718 bound_to 10713
  154.7075  135.3000  154.9247 H   0  0  0  0  0  0  0  0  0  0  0  0  # atno 10763 bound_to 10752
  154.0160  135.6689  153.4773 H   0  0  0  0  0  0  0  0  0  0  0  0  # atno 10764 bound_to 10752
  153.0729  135.5051  154.8255 H   0  0  0  0  0  0  0  0  0  0  0  0  # atno 10765 bound_to 10752
  140.3313  134.2435  155.7702 H   0  0  0  0  0  0  0  0  0  0  0  0  # atno 11005 bound_to 11000
  145.2361  139.2093  143.5017 LP  0  0  0  0  0  0  0  0  0  0  0  0  # atno 17320 bound_to 7965
  146.3418  140.2247  142.8592 LP  0  0  0  0  0  0  0  0  0  0  0  0  # atno 17321 bound_to 7965
  140.7820  143.4371  151.0606 LP  0  0  0  0  0  0  0  0  0  0  0  0  # atno 17342 bound_to 10162
  139.8048  143.8034  152.3166 LP  0  0  0  0  0  0  0  0  0  0  0  0  # atno 17343 bound_to 10162
  156.0322  130.3761  150.1656 LP  0  0  0  0  0  0  0  0  0  0  0  0  # atno 17370 bound_to 10713
  156.9844  130.9874  151.3429 LP  0  0  0  0  0  0  0  0  0  0  0  0  # atno 17371 bound_to 10713
  141.2062  133.7838  157.0187 LP  0  0  0  0  0  0  0  0  0  0  0  0  # atno 17394 bound_to 11000
  140.0858  134.9621  157.1698 LP  0  0  0  0  0  0  0  0  0  0  0  0  # atno 17395 bound_to 11000

$$$$
