AV-unprocessed.smi:1639|AV-procd|sdf|6548|dock2
  -GOLD-   22720 7233D 1   1.00000     0.00000
 Structure written by MMmdl.
 37 38  0  0  0  0  0  0  0  0  1 V2000
  152.0515  145.3299  159.1704 C   0  0  0  0  0  0  0  0  0  0  0  0
  151.4724  144.6787  160.4280 C   0  0  0  0  0  0  0  0  0  0  0  0
  152.4722  143.8630  161.0208 O   0  0  0  0  0  0  0  0  0  0  0  0
  152.4143  142.4918  160.6481 C   0  0  2  0  0  0  0  0  0  0  0  0
  153.7173  141.8300  161.1238 C   0  0  0  0  0  0  0  0  0  0  0  0
  153.7577  140.3606  160.6818 C   0  0  0  0  0  0  0  0  0  0  0  0
  153.5780  140.2388  159.1600 C   0  0  0  0  0  0  0  0  0  0  0  0
  152.3660  140.9286  158.7146 N   0  0  0  0  0  0  0  0  0  0  0  0
  151.9143  140.5860  157.4215 C   0  0  0  0  0  0  0  0  0  0  0  0
  150.7647  141.1990  156.8670 C   0  0  0  0  0  0  0  0  0  0  0  0
  150.3871  140.7922  155.5699 C   0  0  0  0  0  0  0  0  0  0  0  0
  149.1751  141.3815  154.8803 C   0  0  0  0  0  0  0  0  0  0  0  0
  151.0830  139.8603  154.8840 N   0  0  0  0  0  0  0  0  0  0  0  0
  152.1524  139.3484  155.4937 C   0  0  0  0  0  0  0  0  0  0  0  0
  152.8635  138.4029  154.7965 N   0  0  0  0  0  0  0  0  0  0  0  0
  152.6033  139.6576  156.7107 N   0  0  0  0  0  0  0  0  0  0  0  0
  152.2577  142.3328  159.1203 C   0  0  0  0  0  0  0  0  0  0  0  0
  151.3127  145.9701  158.6883 H   0  0  0  0  0  0  0  0  0  0  0  0
  152.3637  144.5759  158.4476 H   0  0  0  0  0  0  0  0  0  0  0  0
  152.9196  145.9436  159.4120 H   0  0  0  0  0  0  0  0  0  0  0  0
  151.1515  145.4522  161.1274 H   0  0  0  0  0  0  0  0  0  0  0  0
  150.5961  144.0876  160.1625 H   0  0  0  0  0  0  0  0  0  0  0  0
  151.5788  142.0064  161.1560 H   0  0  0  0  0  0  0  0  0  0  0  0
  154.5758  142.3606  160.7099 H   0  0  0  0  0  0  0  0  0  0  0  0
  153.8006  141.8976  162.2089 H   0  0  0  0  0  0  0  0  0  0  0  0
  154.7011  139.9053  160.9834 H   0  0  0  0  0  0  0  0  0  0  0  0
  152.9683  139.8044  161.1890 H   0  0  0  0  0  0  0  0  0  0  0  0
  154.4351  140.6802  158.6494 H   0  0  0  0  0  0  0  0  0  0  0  0
  153.5657  139.1833  158.8919 H   0  0  0  0  0  0  0  0  0  0  0  0
  150.2031  141.9543  157.3960 H   0  0  0  0  0  0  0  0  0  0  0  0
  148.9124  142.3476  155.3126 H   0  0  0  0  0  0  0  0  0  0  0  0
  148.3205  140.7132  154.9869 H   0  0  0  0  0  0  0  0  0  0  0  0
  149.3678  141.5283  153.8170 H   0  0  0  0  0  0  0  0  0  0  0  0
  152.5722  138.1254  153.8706 H   0  0  0  0  0  0  0  0  0  0  0  0
  153.7083  138.0105  155.1854 H   0  0  0  0  0  0  0  0  0  0  0  0
  151.2898  142.7270  158.8109 H   0  0  0  0  0  0  0  0  0  0  0  0
  153.0240  142.9121  158.6034 H   0  0  0  0  0  0  0  0  0  0  0  0
  1  2  1  0  0  0  0
  1 18  1  0  0  0  0
  1 19  1  0  0  0  0
  1 20  1  0  0  0  0
  2  3  1  0  0  0  0
  2 21  1  0  0  0  0
  2 22  1  0  0  0  0
  3  4  1  0  0  0  0
  4 17  1  0  0  0  0
  4  5  1  0  0  0  0
  4 23  1  0  0  0  0
  5  6  1  0  0  0  0
  5 24  1  0  0  0  0
  5 25  1  0  0  0  0
  6  7  1  0  0  0  0
  6 26  1  0  0  0  0
  6 27  1  0  0  0  0
  7  8  1  0  0  0  0
  7 28  1  0  0  0  0
  7 29  1  0  0  0  0
  8  9  1  0  0  0  0
  8 17  1  0  0  0  0
  9 16  1  0  0  0  0
  9 10  2  0  0  0  0
 10 11  1  0  0  0  0
 10 30  1  0  0  0  0
 11 12  1  0  0  0  0
 11 13  2  0  0  0  0
 12 31  1  0  0  0  0
 12 32  1  0  0  0  0
 12 33  1  0  0  0  0
 13 14  1  0  0  0  0
 14 15  1  0  0  0  0
 14 16  2  0  0  0  0
 15 34  1  0  0  0  0
 15 35  1  0  0  0  0
 17 36  1  0  0  0  0
 17 37  1  0  0  0  0
M  END
> <s_m_source_file>
AV-unprocessed.smi

> <i_m_source_file_index>
1639

> <i_lp_mmshare_version>
43012

> <i_f3d_flags>
0

> <s_epik_input>
W0NIM11bQ0gyXU9bQ0BASF0xW0NIMl1bQ0gyXVtDSDJdTihbQ0gyXTEpYzJbY0hdYyhbQ0gzXSluYyhuMilbTkgyXQ==

> <s_epik_cmdline>
J2VwaWtfcHl0aG9uJywgJy1waCcsICc3LjAnLCAnLXRuJywgJzgnLCAnLW1hJywgJzIwMCcsICctbWV0YWxfYmluZGluZycsICctaW1hZScsICc8aW5maWxlLm1hZT4nLCAnLW9tYWUnLCAnPG91dGZpbGUubWFlPic=

> <r_lp_tautomer_probability>
1

> <r_epik_Ionization_Penalty>
0.383805

> <r_epik_Ionization_Penalty_Charging>
0

> <r_epik_Ionization_Penalty_Neutral>
0.383805

> <r_epik_State_Penalty>
0.0922942

> <r_epik_Charging_Adjusted_Penalty>
0.0922942

> <i_epik_Tot_Q>
0

> <i_epik_Tot_abs_Q>
0

> <r_epik_Metal_State_Penalty>
0.050432

> <b_epik_Metal_Only>
0

> <s_lp_Force_Field>
OPLS_2005

> <r_lp_Energy>
9.62656

> <b_lp_Chiralities_Consistent>
1

> <s_lp_Variant>
AV-unprocessed.smi:1639-1

> <Gold.Version>
5.8.1

> <Gold.Id.Protein>
6NUR|6NUR_protein|mol2

> <Gold.PLP.Fitness>
44.5506

> <Gold.PLP.PLP>
-39.3808

> <Gold.PLP.part.hbond>
-2.0000

> <Gold.PLP.part.metal>
0.0000

> <Gold.PLP.part.buried>
-5.4270

> <Gold.PLP.part.nonpolar>
-33.1056

> <Gold.PLP.part.repulsive>
0.3852

> <Gold.PLP.ligand.clash>
0.0000

> <Gold.PLP.ligand.torsion>
0.6304

> <Gold.PLP.Chemscore.Hbond>
2.0000

> <Gold.PLP.Chemscore.CHOScore>
0.0000

> <Gold.PLP.Chemscore.Metal>
0.0000

> <Gold.Chemscore.Hbonds>
donor molecule, donor type, donor heavy atom, donor atom, acceptor molecule, acceptor atom, score
      P1  H  7989  7998       L1    13  1.00
      P1  H  7997  8009       L1    16  1.00

> <Gold.PLP.Chemscore.Internal.Correction>
0.4307

> <Gold.Rescore>
     Score         DG    S(hbond)    S(metal)    S(lipo)     H(rot)  DE(clash)    DE(int)     intcor
     15.81     -16.47       1.15        0.00      92.29       1.43       0.03       0.63       ----

> <Gold.Chemscore.Fitness>
15.8128

> <Gold.Chemscore.DG>
-16.4741

> <Gold.Chemscore.ZeroCoef>
-5.4800

> <Gold.Chemscore.Hbond>
1.1541

> <Gold.Chemscore.Metal>
0.0000

> <Gold.Chemscore.Lipo>
92.2943

> <Gold.Chemscore.Internal_Hbond>
0.0000

> <Gold.Chemscore.DEClash>
0.0274

> <Gold.Chemscore.DEInternal>
0.6340

> <Gold.Chemscore.Rot>
1.4293

> <Gold.Chemscore.Internal.Correction>
   9.000000E+99

> <Gold.Chemscore.Hbonds>
donor molecule, donor type, donor heavy atom, donor atom, acceptor molecule, acceptor atom, score
      P1  H  7989  7998       L1    13  0.17
      P1  H  7997  8009       L1    16  0.43

> <Gold.Chemscore.Hbond.Weighted>
-3.8546

> <Gold.Chemscore.Metal.Weighted>
-0.0000

> <Gold.Chemscore.Lipo.Weighted>
-10.7984

> <Gold.Chemscore.Internal_Hbond.Weighted>
0.0000

> <Gold.Chemscore.DEClash.Weighted>
0.0274

> <Gold.Chemscore.DEInternal.Weighted>
0.6340

> <Gold.Chemscore.Rot.Weighted>
3.6589

> <Gold.Chemscore.Internal.Correction.Weighted>
   9.000000E+99

> <Gold.Protein.RotatedTorsions>
[ 6907 6896 6895 6894 ] final  -12.52 input  -60.11 | X-H torsion
[ 7974 7965 7964 7962 ] final -131.65 input  175.53 | X-H torsion
[ 8008 7997 7996 7995 ] final -169.12 input   59.86 | X-H torsion
[ 10167 10162 10161 10158 ] final   63.09 input  -65.29 | X-H torsion
[ 10718 10713 10712 10709 ] final   -7.95 input   66.30 | X-H torsion
[ 10763 10752 10751 10750 ] final  143.41 input  -60.55 | X-H torsion
[ 11005 11000 10999 10996 ] final  -42.27 input  -57.11 | X-H torsion

> <Gold.Protein.ActiveResidues>
 VAL166  LYS551  ARG553  GLY616  TRP617  ASP618  TYR619  PRO620  LYS621  CYS622 
 ASP623  PHE694  ASN695  SER759  ASP760  ASP761  ALA762  ILE779  LEU786  VAL792 
 PHE793  MET794  SER795  GLU796  ALA797  LYS798  CYS799  TRP800  GLU811  SER814 

> <Gold.Protein.RotatedAtoms>
  151.3692  135.0919  159.9459 H   0  0  0  0  0  0  0  0  0  0  0  0  # atno 6907 bound_to 6896
  152.5140  133.9182  159.7531 H   0  0  0  0  0  0  0  0  0  0  0  0  # atno 6908 bound_to 6896
  150.9592  133.6409  159.2786 H   0  0  0  0  0  0  0  0  0  0  0  0  # atno 6909 bound_to 6896
  144.9359  140.7183  143.4877 H   0  0  0  0  0  0  0  0  0  0  0  0  # atno 7974 bound_to 7965
  155.9007  140.1040  157.1352 H   0  0  0  0  0  0  0  0  0  0  0  0  # atno 8008 bound_to 7997
  154.4026  140.1293  156.4496 H   0  0  0  0  0  0  0  0  0  0  0  0  # atno 8009 bound_to 7997
  155.7426  140.3466  155.5114 H   0  0  0  0  0  0  0  0  0  0  0  0  # atno 8010 bound_to 7997
  140.1369  144.4590  150.6833 H   0  0  0  0  0  0  0  0  0  0  0  0  # atno 10167 bound_to 10162
  156.7097  130.5118  149.5895 H   0  0  0  0  0  0  0  0  0  0  0  0  # atno 10718 bound_to 10713
  153.9719  135.2950  155.3426 H   0  0  0  0  0  0  0  0  0  0  0  0  # atno 10763 bound_to 10752
  154.7317  135.5064  153.8978 H   0  0  0  0  0  0  0  0  0  0  0  0  # atno 10764 bound_to 10752
  153.0896  135.6703  153.9993 H   0  0  0  0  0  0  0  0  0  0  0  0  # atno 10765 bound_to 10752
  141.0304  133.6822  156.2572 H   0  0  0  0  0  0  0  0  0  0  0  0  # atno 11005 bound_to 11000
  145.3067  139.1832  143.4660 LP  0  0  0  0  0  0  0  0  0  0  0  0  # atno 17320 bound_to 7965
  146.3266  140.3066  142.8624 LP  0  0  0  0  0  0  0  0  0  0  0  0  # atno 17321 bound_to 7965
  140.6784  143.2315  151.5448 LP  0  0  0  0  0  0  0  0  0  0  0  0  # atno 17342 bound_to 10162
  139.5491  144.2441  152.1498 LP  0  0  0  0  0  0  0  0  0  0  0  0  # atno 17343 bound_to 10162
  156.1669  130.6411  151.0790 LP  0  0  0  0  0  0  0  0  0  0  0  0  # atno 17370 bound_to 10713
  157.6941  131.0800  150.7022 LP  0  0  0  0  0  0  0  0  0  0  0  0  # atno 17371 bound_to 10713
  140.6417  134.5159  157.5570 LP  0  0  0  0  0  0  0  0  0  0  0  0  # atno 17394 bound_to 11000
  139.9204  134.8160  156.1230 LP  0  0  0  0  0  0  0  0  0  0  0  0  # atno 17395 bound_to 11000

$$$$
