#       Name:                AV-unprocessed.smi:2902
#       Creating user name   scv26
#       Creation time:       Fri Mar 27 16:03:31 2020


#       File generated by GOLD software.
#

@<TRIPOS>MOLECULE
AV-unprocessed.smi:2902
    53    54     1
SMALL
NO_CHARGES


@<TRIPOS>ATOM
      1 ****        -3.4453  -1.2084   1.6212 C.3            1 S1                 0.0000
      2 ****        -1.9225  -1.3811   1.5626 C.3            1 S1                 0.0000
      3 ****        -1.2945  -0.7089   0.3274 C.3            1 S1                 0.0000
      4 ****        -1.7205  -1.4283  -0.8301 O.3            1 S1                 0.0000
      5 ****        -1.4312  -0.8403  -2.0967 C.3            1 S1                 0.0000
      6 ****        -2.2097   0.4520  -2.3618 C.3            1 S1                 0.0000
      7 ****        -2.3046   0.5593  -3.8890 C.3            1 S1                 0.0000
      8 ****        -2.0308  -0.8485  -4.4407 C.3            1 S1                 0.0000
      9 ****        -1.8967  -1.7637  -3.2206 C.3            1 S1                 0.0000
     10 ****         0.2388  -0.7064   0.4202 C.2            1 S1                 0.0000
     11 ****         0.8494  -1.7543   0.6315 O.2            1 S1                 0.0000
     12 ****         0.8390   0.4842   0.2609 N.am           1 S1                 0.0000
     13 ****         2.2769   0.7429   0.3422 C.3            1 S1                 0.0000
     14 ****         2.6704   1.5878  -0.8808 C.3            1 S1                 0.0000
     15 ****         2.6287   1.4229   1.6945 C.3            1 S1                 0.0000
     16 ****         4.1254   1.7641   1.8315 C.3            1 S1                 0.0000
     17 ****         2.1948   0.6111   2.8267 N.pl3          1 S1                 0.0000
     18 ****         1.1746   0.7842   3.6697 C.2            1 S1                 0.0000
     19 ****         1.0419  -0.1882   4.5607 N.2            1 S1                 0.0000
     20 ****         2.0833  -0.9873   4.1823 C.2            1 S1                 0.0000
     21 ****         2.8044  -0.5565   3.1476 N.2            1 S1                 0.0000
     22 ****        -3.8557  -1.6869   2.5105 H              1 S1                 0.0000
     23 ****        -3.9276  -1.6550   0.7514 H              1 S1                 0.0000
     24 ****        -3.7212  -0.1543   1.6535 H              1 S1                 0.0000
     25 ****        -1.4899  -0.9600   2.4718 H              1 S1                 0.0000
     26 ****        -1.6802  -2.4448   1.5730 H              1 S1                 0.0000
     27 ****        -1.6534   0.3205   0.2808 H              1 S1                 0.0000
     28 ****        -0.3625  -0.6612  -2.2227 H              1 S1                 0.0000
     29 ****        -3.2133   0.3671  -1.9424 H              1 S1                 0.0000
     30 ****        -1.7367   1.3260  -1.9132 H              1 S1                 0.0000
     31 ****        -3.2842   0.9288  -4.1942 H              1 S1                 0.0000
     32 ****        -1.5593   1.2588  -4.2700 H              1 S1                 0.0000
     33 ****        -2.8187  -1.1877  -5.1139 H              1 S1                 0.0000
     34 ****        -1.0976  -0.8452  -5.0053 H              1 S1                 0.0000
     35 ****        -1.2135  -2.5961  -3.3911 H              1 S1                 0.0000
     36 ****        -2.8733  -2.1824  -2.9725 H              1 S1                 0.0000
     37 ****         0.2477   1.2830   0.0828 H              1 S1                 0.0000
     38 ****         2.8249  -0.1985   0.2722 H              1 S1                 0.0000
     39 ****         3.7503   1.7154  -0.9521 H              1 S1                 0.0000
     40 ****         2.2166   2.5787  -0.8433 H              1 S1                 0.0000
     41 ****         2.3460   1.1092  -1.8057 H              1 S1                 0.0000
     42 ****         2.0772   2.3627   1.7538 H              1 S1                 0.0000
     43 ****         4.4344   2.5165   1.1063 H              1 S1                 0.0000
     44 ****         4.7525   0.8838   1.6864 H              1 S1                 0.0000
     45 ****         4.3443   2.1680   2.8205 H              1 S1                 0.0000
     46 ****         0.5074   1.6322   3.6229 H              1 S1                 0.0000
     47 ****         2.3156  -1.9157   4.6831 H              1 S1                 0.0000
     48 ****        -2.7123  -1.5404  -0.7684 LP             1 S1                 0.0000
     49 ****        -1.2815  -2.3264  -0.8064 LP             1 S1                 0.0000
     50 ****         0.3472  -2.6117   0.7435 LP             1 S1                 0.0000
     51 ****         1.8476  -1.7480   0.6911 LP             1 S1                 0.0000
     52 ****         0.3739  -0.3033   5.2959 LP             1 S1                 0.0000
     53 ****         3.5970  -0.9869   2.7158 LP             1 S1                 0.0000
@<TRIPOS>BOND
    1    1    2 1     
    2    1   22 1     
    3    1   23 1     
    4    1   24 1     
    5    2    3 1     
    6    2   25 1     
    7    2   26 1     
    8    3    4 1     
    9    3   10 1     
   10    3   27 1     
   11    4    5 1     
   12    5    9 1     
   13    5    6 1     
   14    5   28 1     
   15    6    7 1     
   16    6   29 1     
   17    6   30 1     
   18    7    8 1     
   19    7   31 1     
   20    7   32 1     
   21    8    9 1     
   22    8   33 1     
   23    8   34 1     
   24    9   35 1     
   25    9   36 1     
   26   10   11 2     
   27   10   12 am    
   28   12   13 1     
   29   12   37 1     
   30   13   14 1     
   31   13   15 1     
   32   13   38 1     
   33   14   39 1     
   34   14   40 1     
   35   14   41 1     
   36   15   16 1     
   37   15   17 1     
   38   15   42 1     
   39   16   43 1     
   40   16   44 1     
   41   16   45 1     
   42   17   21 1     
   43   17   18 1     
   44   18   19 2     
   45   18   46 1     
   46   19   20 1     
   47   20   21 2     
   48   20   47 1     
   49    4   48 1     
   50    4   49 1     
   51   11   50 1     
   52   11   51 1     
   53   19   52 1     
   54   21   53 1     
@<TRIPOS>SUBSTRUCTURE
      1 S1             1
@<TRIPOS>SET
LONE_PAIRS      STATIC     ATOMS    <user>   **** ""
6 48 49 50 51 52 53
DONOR_HYDROGENS      STATIC     ATOMS    <user>   **** ""
1 37
ATOM$BLUE        STATIC     ATOMS    COLORGROUP SYSTEM
6 48 49 50 51 52 53
ATOM$RED        STATIC     ATOMS    COLORGROUP SYSTEM
1 37
