AV-unprocessed.smi:1078|AV-procd|sdf|4703|dock3
  -GOLD-   22720 3223D 1   1.00000     0.00000
 Structure written by MMmdl.
 40 41  0  0  0  0  0  0  0  0  2 V2000
  149.6281  141.5939  154.9814 C   0  0  0  0  0  0  0  0  0  0  0  0
  149.6053  141.3473  156.4997 C   0  0  1  0  0  0  0  0  0  0  0  0
  150.4442  140.1153  156.9143 C   0  0  0  0  0  0  0  0  0  0  0  0
  150.9726  139.3756  155.7820 N   0  0  0  0  0  0  0  0  0  0  0  0
  152.2866  139.2301  155.3883 C   0  0  0  0  0  0  0  0  0  0  0  0
  152.2916  138.4384  154.2759 C   0  0  0  0  0  0  0  0  0  0  0  0
  150.9162  138.1382  154.0678 C   0  0  0  0  0  0  0  0  0  0  0  0
  150.1297  138.6969  154.9737 N   0  0  0  0  0  0  0  0  0  0  0  0
  150.0663  142.5693  157.1961 N   0  3  0  0  0  0  0  0  0  0  0  0
  151.4835  142.9321  156.9798 C   0  0  0  0  0  0  0  0  0  0  0  0
  152.1308  143.4649  158.2715 C   0  0  0  0  0  0  0  0  0  0  0  0
  152.2079  142.3605  159.3457 C   0  0  0  0  0  0  0  0  0  0  0  0
  152.8530  142.8725  160.6439 C   0  0  0  0  0  0  0  0  0  0  0  0
  152.1075  144.0995  161.1894 C   0  0  0  0  0  0  0  0  0  0  0  0
  152.0221  145.2091  160.1307 C   0  0  0  0  0  0  0  0  0  0  0  0
  151.3800  144.6931  158.8326 C   0  0  0  0  0  0  0  0  0  0  0  0
  149.1936  140.7592  154.4306 H   0  0  0  0  0  0  0  0  0  0  0  0
  150.6465  141.7379  154.6189 H   0  0  0  0  0  0  0  0  0  0  0  0
  149.0529  142.4827  154.7198 H   0  0  0  0  0  0  0  0  0  0  0  0
  148.5653  141.1777  156.7832 H   0  0  0  0  0  0  0  0  0  0  0  0
  151.2826  140.4263  157.5392 H   0  0  0  0  0  0  0  0  0  0  0  0
  149.8505  139.4226  157.5113 H   0  0  0  0  0  0  0  0  0  0  0  0
  153.1000  139.6977  155.9237 H   0  0  0  0  0  0  0  0  0  0  0  0
  153.1478  138.1197  153.6997 H   0  0  0  0  0  0  0  0  0  0  0  0
  150.4697  137.5339  153.2919 H   0  0  0  0  0  0  0  0  0  0  0  0
  149.4795  143.3451  156.9239 H   0  0  0  0  0  0  0  0  0  0  0  0
  152.0370  142.0668  156.6122 H   0  0  0  0  0  0  0  0  0  0  0  0
  151.5375  143.6971  156.2054 H   0  0  0  0  0  0  0  0  0  0  0  0
  153.1534  143.7658  158.0372 H   0  0  0  0  0  0  0  0  0  0  0  0
  151.2065  141.9852  159.5623 H   0  0  0  0  0  0  0  0  0  0  0  0
  152.7796  141.5112  158.9696 H   0  0  0  0  0  0  0  0  0  0  0  0
  152.8601  142.0798  161.3927 H   0  0  0  0  0  0  0  0  0  0  0  0
  153.8962  143.1313  160.4575 H   0  0  0  0  0  0  0  0  0  0  0  0
  151.1021  143.8097  161.4973 H   0  0  0  0  0  0  0  0  0  0  0  0
  152.6090  144.4738  162.0823 H   0  0  0  0  0  0  0  0  0  0  0  0
  151.4475  146.0496  160.5209 H   0  0  0  0  0  0  0  0  0  0  0  0
  153.0219  145.5902  159.9185 H   0  0  0  0  0  0  0  0  0  0  0  0
  151.3651  145.4985  158.0979 H   0  0  0  0  0  0  0  0  0  0  0  0
  150.3379  144.4329  159.0238 H   0  0  0  0  0  0  0  0  0  0  0  0
  149.9486  142.4140  158.1872 H   0  0  0  0  0  0  0  0  0  0  0  0
  1  2  1  0  0  0  0
  1 17  1  0  0  0  0
  1 18  1  0  0  0  0
  1 19  1  0  0  0  0
  2  3  1  0  0  0  0
  2  9  1  0  0  0  0
  2 20  1  0  0  0  0
  3  4  1  0  0  0  0
  3 21  1  0  0  0  0
  3 22  1  0  0  0  0
  4  8  1  0  0  0  0
  4  5  1  0  0  0  0
  5  6  2  0  0  0  0
  5 23  1  0  0  0  0
  6  7  1  0  0  0  0
  6 24  1  0  0  0  0
  7  8  2  0  0  0  0
  7 25  1  0  0  0  0
  9 10  1  0  0  0  0
  9 26  1  0  0  0  0
  9 40  1  0  0  0  0
 10 11  1  0  0  0  0
 10 27  1  0  0  0  0
 10 28  1  0  0  0  0
 11 16  1  0  0  0  0
 11 12  1  0  0  0  0
 11 29  1  0  0  0  0
 12 13  1  0  0  0  0
 12 30  1  0  0  0  0
 12 31  1  0  0  0  0
 13 14  1  0  0  0  0
 13 32  1  0  0  0  0
 13 33  1  0  0  0  0
 14 15  1  0  0  0  0
 14 34  1  0  0  0  0
 14 35  1  0  0  0  0
 15 16  1  0  0  0  0
 15 36  1  0  0  0  0
 15 37  1  0  0  0  0
 16 38  1  0  0  0  0
 16 39  1  0  0  0  0
M  CHG  1   9   1
M  END
> <s_m_source_file>
AV-unprocessed.smi

> <i_m_source_file_index>
1078

> <i_lp_mmshare_version>
43012

> <i_f3d_flags>
0

> <s_epik_input>
bjFbY0hdW2NIXVtjSF1uMVtDSDJdW0NAQEhdKFtDSDNdKVtOSF1bQ0gyXVtDSF0yW0NIMl1bQ0gyXVtDSDJdW0NIMl1bQ0gyXTI=

> <s_epik_cmdline>
J2VwaWtfcHl0aG9uJywgJy1waCcsICc3LjAnLCAnLXRuJywgJzgnLCAnLW1hJywgJzIwMCcsICctbWV0YWxfYmluZGluZycsICctaW1hZScsICc8aW5maWxlLm1hZT4nLCAnLW9tYWUnLCAnPG91dGZpbGUubWFlPic=

> <r_lp_tautomer_probability>
1

> <r_epik_Ionization_Penalty>
0.00174474

> <r_epik_Ionization_Penalty_Charging>
0.00174052

> <r_epik_Ionization_Penalty_Neutral>
4.21324e-06

> <r_epik_State_Penalty>
0.00117783

> <r_epik_Charging_Adjusted_Penalty>
0.00291835

> <i_epik_Tot_Q>
1

> <i_epik_Tot_abs_Q>
1

> <r_epik_Metal_State_Penalty>
-0

> <b_epik_Metal_Only>
0

> <s_lp_Force_Field>
OPLS_2005

> <r_lp_Energy>
15.419

> <b_lp_Chiralities_Consistent>
1

> <s_lp_Variant>
AV-unprocessed.smi:1078-2

> <Gold.Version>
5.8.1

> <Gold.Id.Protein>
6NUR|6NUR_protein|mol2

> <Gold.PLP.Fitness>
49.9457

> <Gold.PLP.PLP>
-42.4654

> <Gold.PLP.part.hbond>
-1.0000

> <Gold.PLP.part.metal>
0.0000

> <Gold.PLP.part.buried>
-5.3036

> <Gold.PLP.part.nonpolar>
-36.9409

> <Gold.PLP.part.repulsive>
0.1100

> <Gold.PLP.ligand.clash>
0.0000

> <Gold.PLP.ligand.torsion>
1.0754

> <Gold.PLP.Chemscore.Hbond>
2.0000

> <Gold.PLP.Chemscore.CHOScore>
1.1995

> <Gold.PLP.Chemscore.Metal>
0.0000

> <Gold.Chemscore.Hbonds>
donor molecule, donor type, donor heavy atom, donor atom, acceptor molecule, acceptor atom, score
      L1  H     9    26       P1  8028  2.00
      L1  C     7    25       P1  7948  0.63
      L1  C     7    25       P1  7949  0.47

> <Gold.PLP.Chemscore.Internal.Correction>
0.0324

> <Gold.Rescore>
     Score         DG    S(hbond)    S(metal)    S(lipo)     H(rot)  DE(clash)    DE(int)     intcor
     17.55     -19.13       0.97        0.00     122.54       1.54       0.36       1.23       ----

> <Gold.Chemscore.Fitness>
17.5467

> <Gold.Chemscore.DG>
-19.1291

> <Gold.Chemscore.ZeroCoef>
-5.4800

> <Gold.Chemscore.Hbond>
0.9728

> <Gold.Chemscore.Metal>
0.0000

> <Gold.Chemscore.Lipo>
122.5364

> <Gold.Chemscore.Internal_Hbond>
0.0000

> <Gold.Chemscore.DEClash>
0.3553

> <Gold.Chemscore.DEInternal>
1.2271

> <Gold.Chemscore.Rot>
1.5378

> <Gold.Chemscore.Internal.Correction>
   9.000000E+99

> <Gold.Chemscore.Hbonds>
donor molecule, donor type, donor heavy atom, donor atom, acceptor molecule, acceptor atom, score
      L1  H     9    26       P1  8028  0.94

> <Gold.Chemscore.Hbond.Weighted>
-3.2491

> <Gold.Chemscore.Metal.Weighted>
-0.0000

> <Gold.Chemscore.Lipo.Weighted>
-14.3368

> <Gold.Chemscore.Internal_Hbond.Weighted>
0.0000

> <Gold.Chemscore.DEClash.Weighted>
0.3553

> <Gold.Chemscore.DEInternal.Weighted>
1.2271

> <Gold.Chemscore.Rot.Weighted>
3.9368

> <Gold.Chemscore.Internal.Correction.Weighted>
   9.000000E+99

> <Gold.Protein.RotatedTorsions>
[ 6907 6896 6895 6894 ] final -153.93 input  -60.11 | X-H torsion
[ 7974 7965 7964 7962 ] final  138.02 input  175.53 | X-H torsion
[ 8008 7997 7996 7995 ] final -106.42 input   59.86 | X-H torsion
[ 10167 10162 10161 10158 ] final -133.88 input  -65.29 | X-H torsion
[ 10718 10713 10712 10709 ] final  155.69 input   66.30 | X-H torsion
[ 10763 10752 10751 10750 ] final   23.00 input  -60.55 | X-H torsion
[ 11005 11000 10999 10996 ] final   59.85 input  -57.11 | X-H torsion

> <Gold.Protein.ActiveResidues>
 VAL166  LYS551  ARG553  GLY616  TRP617  ASP618  TYR619  PRO620  LYS621  CYS622 
 ASP623  PHE694  ASN695  SER759  ASP760  ASP761  ALA762  ILE779  LEU786  VAL792 
 PHE793  MET794  SER795  GLU796  ALA797  LYS798  CYS799  TRP800  GLU811  SER814 

> <Gold.Protein.RotatedAtoms>
  151.2499  133.4356  159.2610 H   0  0  0  0  0  0  0  0  0  0  0  0  # atno 6907 bound_to 6896
  151.0627  134.9747  159.8279 H   0  0  0  0  0  0  0  0  0  0  0  0  # atno 6908 bound_to 6896
  152.5401  134.2448  159.8928 H   0  0  0  0  0  0  0  0  0  0  0  0  # atno 6909 bound_to 6896
  144.9412  139.4928  143.5571 H   0  0  0  0  0  0  0  0  0  0  0  0  # atno 7974 bound_to 7965
  154.9143  140.0409  157.1963 H   0  0  0  0  0  0  0  0  0  0  0  0  # atno 8008 bound_to 7997
  154.8317  140.2900  155.5696 H   0  0  0  0  0  0  0  0  0  0  0  0  # atno 8009 bound_to 7997
  156.2987  140.2499  156.3244 H   0  0  0  0  0  0  0  0  0  0  0  0  # atno 8010 bound_to 7997
  139.8937  143.6691  152.2607 H   0  0  0  0  0  0  0  0  0  0  0  0  # atno 10167 bound_to 10162
  157.2150  131.0706  151.1947 H   0  0  0  0  0  0  0  0  0  0  0  0  # atno 10718 bound_to 10713
  153.0872  135.6636  153.9926 H   0  0  0  0  0  0  0  0  0  0  0  0  # atno 10763 bound_to 10752
  153.9533  135.2981  155.3439 H   0  0  0  0  0  0  0  0  0  0  0  0  # atno 10764 bound_to 10752
  154.7281  135.5135  153.8992 H   0  0  0  0  0  0  0  0  0  0  0  0  # atno 10765 bound_to 10752
  140.0274  134.6062  155.9554 H   0  0  0  0  0  0  0  0  0  0  0  0  # atno 11005 bound_to 11000
  146.3286  139.8432  142.8886 LP  0  0  0  0  0  0  0  0  0  0  0  0  # atno 17320 bound_to 7965
  145.2988  141.0188  143.3620 LP  0  0  0  0  0  0  0  0  0  0  0  0  # atno 17321 bound_to 7965
  139.7086  144.7624  151.1150 LP  0  0  0  0  0  0  0  0  0  0  0  0  # atno 17342 bound_to 10162
  140.7721  143.5360  150.9367 LP  0  0  0  0  0  0  0  0  0  0  0  0  # atno 17343 bound_to 10162
  157.3634  130.7143  149.6517 LP  0  0  0  0  0  0  0  0  0  0  0  0  # atno 17370 bound_to 10713
  155.9687  130.4219  150.4491 LP  0  0  0  0  0  0  0  0  0  0  0  0  # atno 17371 bound_to 10713
  141.1811  133.6547  156.5024 LP  0  0  0  0  0  0  0  0  0  0  0  0  # atno 17394 bound_to 11000
  140.4283  134.7125  157.4928 LP  0  0  0  0  0  0  0  0  0  0  0  0  # atno 17395 bound_to 11000

$$$$
