AV-unprocessed.smi:2168|AV-procd|sdf|8819|dock1
  -GOLD-   2272012 13D 1   1.00000     0.00000
 Structure written by MMmdl.
 47 48  0  0  0  0  0  0  0  0  2 V2000
  152.5223  139.2531  159.2630 C   0  0  0  0  0  0  0  0  0  0  0  0
  151.5477  139.2504  158.0761 C   0  0  0  0  0  0  0  0  0  0  0  0
  151.9317  138.2934  157.0207 N   0  0  0  0  0  0  0  0  0  0  0  0
  152.1914  138.8500  155.6781 C   0  0  0  0  0  0  0  0  0  0  0  0
  150.9459  139.4871  155.0409 C   0  0  0  0  0  0  0  0  0  0  0  0
  152.5015  136.7066  157.4413 S   0  0  0  0  0  0  0  0  0  0  0  0
  153.9212  136.5873  157.0759 O   0  0  0  0  0  0  0  0  0  0  0  0
  152.0394  136.3783  158.7990 O   0  0  0  0  0  0  0  0  0  0  0  0
  151.5885  135.7702  156.3185 N   0  0  0  0  0  0  0  0  0  0  0  0
  151.3139  134.3652  156.6081 C   0  0  0  0  0  0  0  0  0  0  0  0
  150.3271  133.7576  155.6299 C   0  0  0  0  0  0  0  0  0  0  0  0
  149.9835  132.3920  155.7062 C   0  0  0  0  0  0  0  0  0  0  0  0
  149.0437  131.8614  154.7985 C   0  0  0  0  0  0  0  0  0  0  0  0
  148.4535  132.7003  153.8217 C   0  0  0  0  0  0  0  0  0  0  0  0
  147.4998  132.2263  152.8949 N   0  0  0  0  0  0  0  0  0  0  0  0
  146.5448  133.2123  152.3956 C   0  0  0  0  0  0  0  0  0  0  0  0
  145.7878  132.6557  151.1779 C   0  0  0  0  0  0  0  0  0  0  0  0
  145.1805  131.4134  151.5157 O   0  0  0  0  0  0  0  0  0  0  0  0
  146.1462  130.4343  151.8818 C   0  0  0  0  0  0  0  0  0  0  0  0
  146.9151  130.9071  153.1269 C   0  0  0  0  0  0  0  0  0  0  0  0
  148.8189  134.0065  153.7927 N   0  3  0  0  0  0  0  0  0  0  0  0
  149.7171  134.5538  154.6394 C   0  0  0  0  0  0  0  0  0  0  0  0
  152.1746  139.9359  160.0383 H   0  0  0  0  0  0  0  0  0  0  0  0
  153.5170  139.5839  158.9658 H   0  0  0  0  0  0  0  0  0  0  0  0
  152.6124  138.2660  159.7153 H   0  0  0  0  0  0  0  0  0  0  0  0
  150.5427  139.0191  158.4280 H   0  0  0  0  0  0  0  0  0  0  0  0
  151.4918  140.2502  157.6444 H   0  0  0  0  0  0  0  0  0  0  0  0
  152.9802  139.5983  155.7587 H   0  0  0  0  0  0  0  0  0  0  0  0
  152.5816  138.0686  155.0250 H   0  0  0  0  0  0  0  0  0  0  0  0
  151.1624  139.8101  154.0226 H   0  0  0  0  0  0  0  0  0  0  0  0
  150.6197  140.3677  155.5932 H   0  0  0  0  0  0  0  0  0  0  0  0
  150.1084  138.7922  154.9937 H   0  0  0  0  0  0  0  0  0  0  0  0
  151.8254  135.9579  155.3444 H   0  0  0  0  0  0  0  0  0  0  0  0
  152.2486  133.8075  156.5469 H   0  0  0  0  0  0  0  0  0  0  0  0
  150.9554  134.2699  157.6340 H   0  0  0  0  0  0  0  0  0  0  0  0
  150.4247  131.7562  156.4600 H   0  0  0  0  0  0  0  0  0  0  0  0
  148.7717  130.8198  154.8793 H   0  0  0  0  0  0  0  0  0  0  0  0
  145.8408  133.4545  153.1927 H   0  0  0  0  0  0  0  0  0  0  0  0
  147.0342  134.1421  152.1101 H   0  0  0  0  0  0  0  0  0  0  0  0
  145.0129  133.3559  150.8662 H   0  0  0  0  0  0  0  0  0  0  0  0
  146.4597  132.5261  150.3279 H   0  0  0  0  0  0  0  0  0  0  0  0
  145.6372  129.4931  152.0898 H   0  0  0  0  0  0  0  0  0  0  0  0
  146.8277  130.2503  151.0495 H   0  0  0  0  0  0  0  0  0  0  0  0
  147.6953  130.1820  153.3619 H   0  0  0  0  0  0  0  0  0  0  0  0
  146.2433  130.9556  153.9849 H   0  0  0  0  0  0  0  0  0  0  0  0
  149.9097  135.6086  154.5075 H   0  0  0  0  0  0  0  0  0  0  0  0
  148.3910  134.6115  153.0917 H   0  0  0  0  0  0  0  0  0  0  0  0
  1  2  1  0  0  0  0
  1 23  1  0  0  0  0
  1 24  1  0  0  0  0
  1 25  1  0  0  0  0
  2  3  1  0  0  0  0
  2 26  1  0  0  0  0
  2 27  1  0  0  0  0
  3  4  1  0  0  0  0
  3  6  1  0  0  0  0
  4  5  1  0  0  0  0
  4 28  1  0  0  0  0
  4 29  1  0  0  0  0
  5 30  1  0  0  0  0
  5 31  1  0  0  0  0
  5 32  1  0  0  0  0
  6  7  2  0  0  0  0
  6  8  2  0  0  0  0
  6  9  1  0  0  0  0
  9 10  1  0  0  0  0
  9 33  1  0  0  0  0
 10 11  1  0  0  0  0
 10 34  1  0  0  0  0
 10 35  1  0  0  0  0
 11 22  1  0  0  0  0
 11 12  2  0  0  0  0
 12 13  1  0  0  0  0
 12 36  1  0  0  0  0
 13 14  2  0  0  0  0
 13 37  1  0  0  0  0
 14 15  1  0  0  0  0
 14 21  1  0  0  0  0
 15 20  1  0  0  0  0
 15 16  1  0  0  0  0
 16 17  1  0  0  0  0
 16 38  1  0  0  0  0
 16 39  1  0  0  0  0
 17 18  1  0  0  0  0
 17 40  1  0  0  0  0
 17 41  1  0  0  0  0
 18 19  1  0  0  0  0
 19 20  1  0  0  0  0
 19 42  1  0  0  0  0
 19 43  1  0  0  0  0
 20 44  1  0  0  0  0
 20 45  1  0  0  0  0
 21 22  2  0  0  0  0
 21 47  1  0  0  0  0
 22 46  1  0  0  0  0
M  CHG  1  21   1
M  END
> <s_m_source_file>
AV-unprocessed.smi

> <i_m_source_file_index>
2168

> <i_lp_mmshare_version>
43012

> <i_f3d_flags>
0

> <s_epik_input>
W0NIM11bQ0gyXU4oW0NIMl1bQ0gzXSlTKD1PKSg9TylbTkhdW0NIMl1jMVtjSF1bY0hdYyhuW2NIXTEpTjJbQ0gyXVtDSDJdT1tDSDJdW0NIMl0y

> <s_epik_cmdline>
J2VwaWtfcHl0aG9uJywgJy1waCcsICc3LjAnLCAnLXRuJywgJzgnLCAnLW1hJywgJzIwMCcsICctbWV0YWxfYmluZGluZycsICctaW1hZScsICc8aW5maWxlLm1hZT4nLCAnLW9tYWUnLCAnPG91dGZpbGUubWFlPic=

> <r_lp_tautomer_probability>
0.999994

> <r_epik_Ionization_Penalty>
2.66893

> <r_epik_Ionization_Penalty_Charging>
2.61323

> <r_epik_Ionization_Penalty_Neutral>
0.0557011

> <r_epik_State_Penalty>
2.68492

> <r_epik_Charging_Adjusted_Penalty>
5.29815

> <i_epik_Tot_Q>
1

> <i_epik_Tot_abs_Q>
1

> <r_epik_Metal_State_Penalty>
5.63236

> <b_epik_Metal_Only>
0

> <s_lp_Force_Field>
OPLS_2005

> <r_lp_Energy>
21.5493

> <b_lp_Chiralities_Consistent>
1

> <s_lp_Variant>
AV-unprocessed.smi:2168-2

> <Gold.Version>
5.8.1

> <Gold.Id.Protein>
6NUR|6NUR_protein|mol2

> <Gold.PLP.Fitness>
43.0513

> <Gold.PLP.PLP>
-34.9591

> <Gold.PLP.part.hbond>
-4.0000

> <Gold.PLP.part.metal>
0.0000

> <Gold.PLP.part.buried>
-2.7573

> <Gold.PLP.part.nonpolar>
-28.3247

> <Gold.PLP.part.repulsive>
0.2645

> <Gold.PLP.ligand.clash>
0.0000

> <Gold.PLP.ligand.torsion>
2.3026

> <Gold.PLP.Chemscore.Hbond>
3.2560

> <Gold.PLP.Chemscore.CHOScore>
0.0000

> <Gold.PLP.Chemscore.Metal>
0.0000

> <Gold.Chemscore.Hbonds>
donor molecule, donor type, donor heavy atom, donor atom, acceptor molecule, acceptor atom, score
      L1  H    21    47       P1  7948  1.34
      P1  H  6896  6907       L1     8  0.56
      P1  H 10752 10764       L1     7  0.78

> <Gold.PLP.Chemscore.Internal.Correction>
2.9295

> <Gold.Rescore>
     Score         DG    S(hbond)    S(metal)    S(lipo)     H(rot)  DE(clash)    DE(int)     intcor
     12.06     -15.43       1.96        0.00      72.67       1.99       0.00       3.37       ----

> <Gold.Chemscore.Fitness>
12.0626

> <Gold.Chemscore.DG>
-15.4344

> <Gold.Chemscore.ZeroCoef>
-5.4800

> <Gold.Chemscore.Hbond>
1.9626

> <Gold.Chemscore.Metal>
0.0000

> <Gold.Chemscore.Lipo>
72.6655

> <Gold.Chemscore.Internal_Hbond>
0.0000

> <Gold.Chemscore.DEClash>
0.0029

> <Gold.Chemscore.DEInternal>
3.3689

> <Gold.Chemscore.Rot>
1.9932

> <Gold.Chemscore.Internal.Correction>
   9.000000E+99

> <Gold.Chemscore.Hbonds>
donor molecule, donor type, donor heavy atom, donor atom, acceptor molecule, acceptor atom, score
      L1  H    21    47       P1  7948  0.33
      P1  H  6896  6907       L1     8  0.56
      P1  H 10752 10764       L1     7  0.48

> <Gold.Chemscore.Hbond.Weighted>
-6.5550

> <Gold.Chemscore.Metal.Weighted>
-0.0000

> <Gold.Chemscore.Lipo.Weighted>
-8.5019

> <Gold.Chemscore.Internal_Hbond.Weighted>
0.0000

> <Gold.Chemscore.DEClash.Weighted>
0.0029

> <Gold.Chemscore.DEInternal.Weighted>
3.3689

> <Gold.Chemscore.Rot.Weighted>
5.1025

> <Gold.Chemscore.Internal.Correction.Weighted>
   9.000000E+99

> <Gold.Protein.RotatedTorsions>
[ 6907 6896 6895 6894 ] final   26.00 input  -60.11 | X-H torsion
[ 7974 7965 7964 7962 ] final  157.87 input  175.53 | X-H torsion
[ 8008 7997 7996 7995 ] final -140.77 input   59.86 | X-H torsion
[ 10167 10162 10161 10158 ] final -175.14 input  -65.29 | X-H torsion
[ 10718 10713 10712 10709 ] final  -63.05 input   66.30 | X-H torsion
[ 10763 10752 10751 10750 ] final   29.06 input  -60.55 | X-H torsion
[ 11005 11000 10999 10996 ] final -122.98 input  -57.11 | X-H torsion

> <Gold.Protein.ActiveResidues>
 VAL166  LYS551  ARG553  GLY616  TRP617  ASP618  TYR619  PRO620  LYS621  CYS622 
 ASP623  PHE694  ASN695  SER759  ASP760  ASP761  ALA762  ILE779  LEU786  VAL792 
 PHE793  MET794  SER795  GLU796  ALA797  LYS798  CYS799  TRP800  GLU811  SER814 

> <Gold.Protein.RotatedAtoms>
  151.9809  135.0029  160.0557 H   0  0  0  0  0  0  0  0  0  0  0  0  # atno 6907 bound_to 6896
  152.1697  133.4631  159.4911 H   0  0  0  0  0  0  0  0  0  0  0  0  # atno 6908 bound_to 6896
  150.6900  134.1886  159.4319 H   0  0  0  0  0  0  0  0  0  0  0  0  # atno 6909 bound_to 6896
  144.7878  139.7400  143.6233 H   0  0  0  0  0  0  0  0  0  0  0  0  # atno 7974 bound_to 7965
  155.4668  140.0550  157.2984 H   0  0  0  0  0  0  0  0  0  0  0  0  # atno 8008 bound_to 7997
  154.4714  140.2042  155.9938 H   0  0  0  0  0  0  0  0  0  0  0  0  # atno 8009 bound_to 7997
  156.1063  140.3211  155.8014 H   0  0  0  0  0  0  0  0  0  0  0  0  # atno 8010 bound_to 7997
  139.5597  144.1901  152.1218 H   0  0  0  0  0  0  0  0  0  0  0  0  # atno 10167 bound_to 10162
  156.0815  130.4216  150.1222 H   0  0  0  0  0  0  0  0  0  0  0  0  # atno 10718 bound_to 10713
  153.0453  135.6498  154.0833 H   0  0  0  0  0  0  0  0  0  0  0  0  # atno 10763 bound_to 10752
  154.0532  135.2894  155.3338 H   0  0  0  0  0  0  0  0  0  0  0  0  # atno 10764 bound_to 10752
  154.6706  135.5357  153.8199 H   0  0  0  0  0  0  0  0  0  0  0  0  # atno 10765 bound_to 10752
  140.9954  134.0480  157.3604 H   0  0  0  0  0  0  0  0  0  0  0  0  # atno 11005 bound_to 11000
  146.2118  139.5479  142.9676 LP  0  0  0  0  0  0  0  0  0  0  0  0  # atno 17320 bound_to 7965
  145.5875  141.0374  143.2088 LP  0  0  0  0  0  0  0  0  0  0  0  0  # atno 17321 bound_to 7965
  140.1412  144.5200  150.6743 LP  0  0  0  0  0  0  0  0  0  0  0  0  # atno 17342 bound_to 10162
  140.6875  143.2357  151.5222 LP  0  0  0  0  0  0  0  0  0  0  0  0  # atno 17343 bound_to 10162
  156.9252  130.9696  151.3542 LP  0  0  0  0  0  0  0  0  0  0  0  0  # atno 17370 bound_to 10713
  157.5934  130.8460  149.8693 LP  0  0  0  0  0  0  0  0  0  0  0  0  # atno 17371 bound_to 10713
  139.9012  135.0165  156.7277 LP  0  0  0  0  0  0  0  0  0  0  0  0  # atno 17394 bound_to 11000
  140.6974  133.9336  155.8003 LP  0  0  0  0  0  0  0  0  0  0  0  0  # atno 17395 bound_to 11000

$$$$
