#       Name:                AV-unprocessed.smi:61
#       Creating user name   scv26
#       Creation time:       Thu Mar 26 16:49:32 2020


#       File generated by GOLD software.
#

@<TRIPOS>MOLECULE
AV-unprocessed.smi:61
    33    34     1
SMALL
NO_CHARGES


@<TRIPOS>ATOM
      1 ****        -3.3161   2.6413   0.6653 N.pl3          1 S1                 0.0000
      2 ****        -2.7389   1.4007   0.5466 C.ar           1 S1                 0.0000
      3 ****        -3.5387   0.3327   0.4629 N.ar           1 S1                 0.0000
      4 ****        -2.9812  -0.8885   0.3480 C.ar           1 S1                 0.0000
      5 ****        -1.5873  -1.0587   0.3122 C.ar           1 S1                 0.0000
      6 ****        -0.7989   0.1101   0.3990 C.ar           1 S1                 0.0000
      7 ****         0.6036   0.1014   0.3762 N.3            1 S1                 0.0000
      8 ****         1.2138  -0.3842   1.6088 C.3            1 S1                 0.0000
      9 ****         2.4780  -1.1547   1.2023 C.3            1 S1                 0.0000
     10 ****         2.6665  -0.8190  -0.2754 C.3            1 S1                 0.0000
     11 ****         1.2294  -0.5904  -0.7438 C.3            1 S1                 0.0000
     12 ****         1.1101   0.1942  -2.0632 C.3            1 S1                 0.0000
     13 ****         1.6419  -0.5657  -3.1268 O.3            1 S1                 0.0000
     14 ****        -1.4013   1.3193   0.5200 N.pl3          1 S1                 1.0000
     15 ****        -2.7401   3.4686   0.7306 H              1 S1                 0.0000
     16 ****        -4.3205   2.7427   0.6909 H              1 S1                 0.0000
     17 ****        -3.6511  -1.7333   0.2861 H              1 S1                 0.0000
     18 ****        -1.1509  -2.0431   0.2274 H              1 S1                 0.0000
     19 ****         1.4753   0.4755   2.2264 H              1 S1                 0.0000
     20 ****         0.5389  -1.0153   2.1889 H              1 S1                 0.0000
     21 ****         3.3459  -0.8901   1.8070 H              1 S1                 0.0000
     22 ****         2.3056  -2.2256   1.3168 H              1 S1                 0.0000
     23 ****         3.2519   0.0963  -0.3768 H              1 S1                 0.0000
     24 ****         3.1742  -1.6099  -0.8282 H              1 S1                 0.0000
     25 ****         0.7530  -1.5635  -0.8690 H              1 S1                 0.0000
     26 ****         0.0665   0.4131  -2.2916 H              1 S1                 0.0000
     27 ****         1.6346   1.1482  -2.0004 H              1 S1                 0.0000
     28 ****         1.5707  -0.0619  -3.9236 H              1 S1                 0.0000
     29 ****        -0.8290   2.1610   0.5866 H              1 S1                 0.0000
     30 ****        -4.5329   0.4384   0.4852 LP             1 S1                 0.0000
     31 ****         0.7890   1.0776   0.2630 LP             1 S1                 0.0000
     32 ****         1.1285  -1.4186  -3.2207 LP             1 S1                 0.0000
     33 ****         2.6030  -0.7734  -2.9445 LP             1 S1                 0.0000
@<TRIPOS>BOND
    1    1    2 1     
    2    1   15 1     
    3    1   16 1     
    4    2   14 ar    
    5    2    3 ar    
    6    3    4 ar    
    7    4    5 ar    
    8    4   17 1     
    9    5    6 ar    
   10    5   18 1     
   11    6    7 1     
   12    6   14 ar    
   13    7   11 1     
   14    7    8 1     
   15    8    9 1     
   16    8   19 1     
   17    8   20 1     
   18    9   10 1     
   19    9   21 1     
   20    9   22 1     
   21   10   11 1     
   22   10   23 1     
   23   10   24 1     
   24   11   12 1     
   25   11   25 1     
   26   12   13 1     
   27   12   26 1     
   28   12   27 1     
   29   13   28 1     
   30   14   29 1     
   31    3   30 1     
   32    7   31 1     
   33   13   32 1     
   34   13   33 1     
@<TRIPOS>SUBSTRUCTURE
      1 S1             1
@<TRIPOS>SET
LONE_PAIRS      STATIC     ATOMS    <user>   **** ""
4 30 31 32 33
DONOR_HYDROGENS      STATIC     ATOMS    <user>   **** ""
4 15 16 28 29
ATOM$BLUE        STATIC     ATOMS    COLORGROUP SYSTEM
4 30 31 32 33
ATOM$RED        STATIC     ATOMS    COLORGROUP SYSTEM
4 15 16 28 29
