AV-unprocessed.smi:560|AV-procd|sdf|2926|dock5
  -GOLD-   2262023423D 1   1.00000     0.00000
 Structure written by MMmdl.
 41 42  0  0  0  0  0  0  0  0  1 V2000
  153.0641  143.4228  162.3073 C   0  0  0  0  0  0  0  0  0  0  0  0
  152.4528  142.5831  161.1665 C   0  0  2  0  0  0  0  0  0  0  0  0
  153.3954  141.4656  160.6961 C   0  0  0  0  0  0  0  0  0  0  0  0
  153.6471  141.3192  159.4994 O   0  0  0  0  0  0  0  0  0  0  0  0
  153.9004  140.6733  161.6550 N   0  0  0  0  0  0  0  0  0  0  0  0
  154.7731  139.5258  161.4288 C   0  0  0  0  0  0  0  0  0  0  0  0
  154.0315  138.4297  160.6468 C   0  0  0  0  0  0  0  0  0  0  0  0
  154.8767  137.1485  160.5344 C   0  0  0  0  0  0  0  0  0  0  0  0
  155.2473  136.6543  161.8689 N   0  0  0  0  0  0  0  0  0  0  0  0
  155.9965  135.3782  161.8161 C   0  0  0  0  0  0  0  0  0  0  0  0
  155.2075  134.2033  161.2253 C   0  0  0  0  0  0  0  0  0  0  0  0
  155.0319  133.1327  162.0037 N   0  0  0  0  0  0  0  0  0  0  0  0
  154.7677  134.2608  160.0788 O   0  0  0  0  0  0  0  0  0  0  0  0
  156.0491  137.6589  162.5750 C   0  0  0  0  0  0  0  0  0  0  0  0
  155.2400  138.9524  162.7737 C   0  0  0  0  0  0  0  0  0  0  0  0
  152.0358  143.3946  160.0276 N   0  0  0  0  0  0  0  0  0  0  0  0
  152.8375  144.1108  159.1612 C   0  0  0  0  0  0  0  0  0  0  0  0
  152.0189  144.7584  158.2813 C   0  0  0  0  0  0  0  0  0  0  0  0
  150.7118  144.3876  158.7015 C   0  0  0  0  0  0  0  0  0  0  0  0
  150.7239  143.5831  159.7511 N   0  0  0  0  0  0  0  0  0  0  0  0
  153.3066  142.7968  163.1666 H   0  0  0  0  0  0  0  0  0  0  0  0
  152.3625  144.1850  162.6470 H   0  0  0  0  0  0  0  0  0  0  0  0
  153.9801  143.9303  162.0021 H   0  0  0  0  0  0  0  0  0  0  0  0
  151.5525  142.1124  161.5656 H   0  0  0  0  0  0  0  0  0  0  0  0
  153.6424  140.8657  162.6121 H   0  0  0  0  0  0  0  0  0  0  0  0
  155.6533  139.8383  160.8634 H   0  0  0  0  0  0  0  0  0  0  0  0
  153.0868  138.1952  161.1401 H   0  0  0  0  0  0  0  0  0  0  0  0
  153.7765  138.7886  159.6490 H   0  0  0  0  0  0  0  0  0  0  0  0
  154.2903  136.4068  159.9922 H   0  0  0  0  0  0  0  0  0  0  0  0
  155.7730  137.3368  159.9406 H   0  0  0  0  0  0  0  0  0  0  0  0
  156.9244  135.5198  161.2582 H   0  0  0  0  0  0  0  0  0  0  0  0
  156.2855  135.0868  162.8271 H   0  0  0  0  0  0  0  0  0  0  0  0
  154.5175  132.3359  161.6581 H   0  0  0  0  0  0  0  0  0  0  0  0
  155.4144  133.1261  162.9381 H   0  0  0  0  0  0  0  0  0  0  0  0
  156.3441  137.2763  163.5529 H   0  0  0  0  0  0  0  0  0  0  0  0
  156.9693  137.8678  162.0259 H   0  0  0  0  0  0  0  0  0  0  0  0
  155.8460  139.6889  163.3028 H   0  0  0  0  0  0  0  0  0  0  0  0
  154.3795  138.7445  163.4118 H   0  0  0  0  0  0  0  0  0  0  0  0
  153.9145  144.1006  159.2433 H   0  0  0  0  0  0  0  0  0  0  0  0
  152.3088  145.4041  157.4658 H   0  0  0  0  0  0  0  0  0  0  0  0
  149.7612  144.6817  158.2821 H   0  0  0  0  0  0  0  0  0  0  0  0
  1  2  1  0  0  0  0
  1 21  1  0  0  0  0
  1 22  1  0  0  0  0
  1 23  1  0  0  0  0
  2  3  1  0  0  0  0
  2 16  1  0  0  0  0
  2 24  1  0  0  0  0
  3  4  2  0  0  0  0
  3  5  1  0  0  0  0
  5  6  1  0  0  0  0
  5 25  1  0  0  0  0
  6 15  1  0  0  0  0
  6  7  1  0  0  0  0
  6 26  1  0  0  0  0
  7  8  1  0  0  0  0
  7 27  1  0  0  0  0
  7 28  1  0  0  0  0
  8  9  1  0  0  0  0
  8 29  1  0  0  0  0
  8 30  1  0  0  0  0
  9 10  1  0  0  0  0
  9 14  1  0  0  0  0
 10 11  1  0  0  0  0
 10 31  1  0  0  0  0
 10 32  1  0  0  0  0
 11 12  1  0  0  0  0
 11 13  2  0  0  0  0
 12 33  1  0  0  0  0
 12 34  1  0  0  0  0
 14 15  1  0  0  0  0
 14 35  1  0  0  0  0
 14 36  1  0  0  0  0
 15 37  1  0  0  0  0
 15 38  1  0  0  0  0
 16 20  1  0  0  0  0
 16 17  1  0  0  0  0
 17 18  2  0  0  0  0
 17 39  1  0  0  0  0
 18 19  1  0  0  0  0
 18 40  1  0  0  0  0
 19 20  2  0  0  0  0
 19 41  1  0  0  0  0
M  END
> <s_m_source_file>
AV-unprocessed.smi

> <i_m_source_file_index>
560

> <i_lp_mmshare_version>
43012

> <i_f3d_flags>
0

> <s_epik_input>
bjFbY0hdW2NIXVtjSF1uMVtDQEhdKFtDSDNdKUMoPU8pW05IXVtDSF0yW0NIMl1bQ0gyXU4oW0NIMl1bQ0gyXTIpW0NIMl1DKD1PKVtOSDJd

> <s_epik_cmdline>
J2VwaWtfcHl0aG9uJywgJy1waCcsICc3LjAnLCAnLXRuJywgJzgnLCAnLW1hJywgJzIwMCcsICctbWV0YWxfYmluZGluZycsICctaW1hZScsICc8aW5maWxlLm1hZT4nLCAnLW9tYWUnLCAnPG91dGZpbGUubWFlPic=

> <r_lp_tautomer_probability>
1

> <r_epik_Ionization_Penalty>
0.114724

> <r_epik_Ionization_Penalty_Charging>
0

> <r_epik_Ionization_Penalty_Neutral>
0.114724

> <r_epik_State_Penalty>
0.104339

> <r_epik_Charging_Adjusted_Penalty>
0.104339

> <i_epik_Tot_Q>
0

> <i_epik_Tot_abs_Q>
0

> <r_epik_Metal_State_Penalty>
0.117437

> <b_epik_Metal_Only>
0

> <s_lp_Force_Field>
OPLS_2005

> <r_lp_Energy>
15.4208

> <b_lp_Chiralities_Consistent>
1

> <s_lp_Variant>
AV-unprocessed.smi:560-1

> <Gold.Version>
5.8.1

> <Gold.Id.Protein>
6NUR|6NUR_protein|mol2

> <Gold.PLP.Fitness>
42.0329

> <Gold.PLP.PLP>
-35.9729

> <Gold.PLP.part.hbond>
-1.3320

> <Gold.PLP.part.metal>
0.0000

> <Gold.PLP.part.buried>
-5.5238

> <Gold.PLP.part.nonpolar>
-28.1902

> <Gold.PLP.part.repulsive>
0.1598

> <Gold.PLP.ligand.clash>
0.0000

> <Gold.PLP.ligand.torsion>
0.2136

> <Gold.PLP.Chemscore.Hbond>
1.0000

> <Gold.PLP.Chemscore.CHOScore>
1.1259

> <Gold.PLP.Chemscore.Metal>
0.0000

> <Gold.Chemscore.Hbonds>
donor molecule, donor type, donor heavy atom, donor atom, acceptor molecule, acceptor atom, score
      P1  H  6896  6908       L1    13  0.67
      L1  C    19    41       P1  8028  0.17
      L1  C    19    41       P1  8029  0.94

> <Gold.PLP.Chemscore.Internal.Correction>
0.1095

> <Gold.Rescore>
     Score         DG    S(hbond)    S(metal)    S(lipo)     H(rot)  DE(clash)    DE(int)     intcor
     11.50     -13.69       0.97        0.00      96.74       2.48       0.24       1.95       ----

> <Gold.Chemscore.Fitness>
11.5000

> <Gold.Chemscore.DG>
-13.6924

> <Gold.Chemscore.ZeroCoef>
-5.4800

> <Gold.Chemscore.Hbond>
0.9684

> <Gold.Chemscore.Metal>
0.0000

> <Gold.Chemscore.Lipo>
96.7409

> <Gold.Chemscore.Internal_Hbond>
0.0000

> <Gold.Chemscore.DEClash>
0.2394

> <Gold.Chemscore.DEInternal>
1.9530

> <Gold.Chemscore.Rot>
2.4768

> <Gold.Chemscore.Internal.Correction>
   9.000000E+99

> <Gold.Chemscore.Hbonds>
donor molecule, donor type, donor heavy atom, donor atom, acceptor molecule, acceptor atom, score
      P1  H  6896  6908       L1    13  0.62

> <Gold.Chemscore.Hbond.Weighted>
-3.2343

> <Gold.Chemscore.Metal.Weighted>
-0.0000

> <Gold.Chemscore.Lipo.Weighted>
-11.3187

> <Gold.Chemscore.Internal_Hbond.Weighted>
0.0000

> <Gold.Chemscore.DEClash.Weighted>
0.2394

> <Gold.Chemscore.DEInternal.Weighted>
1.9530

> <Gold.Chemscore.Rot.Weighted>
6.3406

> <Gold.Chemscore.Internal.Correction.Weighted>
   9.000000E+99

> <Gold.Protein.RotatedTorsions>
[ 6907 6896 6895 6894 ] final  -31.87 input  -60.11 | X-H torsion
[ 7974 7965 7964 7962 ] final  114.58 input  175.53 | X-H torsion
[ 8008 7997 7996 7995 ] final  -99.86 input   59.86 | X-H torsion
[ 10167 10162 10161 10158 ] final  111.68 input  -65.29 | X-H torsion
[ 10718 10713 10712 10709 ] final  -95.26 input   66.30 | X-H torsion
[ 10763 10752 10751 10750 ] final  112.97 input  -60.55 | X-H torsion
[ 11005 11000 10999 10996 ] final   86.99 input  -57.11 | X-H torsion

> <Gold.Protein.ActiveResidues>
 VAL166  LYS551  ARG553  GLY616  TRP617  ASP618  TYR619  PRO620  LYS621  CYS622 
 ASP623  PHE694  ASN695  SER759  ASP760  ASP761  ALA762  ILE779  LEU786  VAL792 
 PHE793  MET794  SER795  GLU796  ALA797  LYS798  CYS799  TRP800  GLU811  SER814 

> <Gold.Protein.RotatedAtoms>
  151.0863  134.9889  159.8380 H   0  0  0  0  0  0  0  0  0  0  0  0  # atno 6907 bound_to 6896
  152.5425  134.2120  159.8764 H   0  0  0  0  0  0  0  0  0  0  0  0  # atno 6908 bound_to 6896
  151.2153  133.4489  159.2632 H   0  0  0  0  0  0  0  0  0  0  0  0  # atno 6909 bound_to 6896
  145.2026  139.2945  143.4310 H   0  0  0  0  0  0  0  0  0  0  0  0  # atno 7974 bound_to 7965
  154.8206  140.0445  157.1408 H   0  0  0  0  0  0  0  0  0  0  0  0  # atno 8008 bound_to 7997
  154.9264  140.3034  155.5170 H   0  0  0  0  0  0  0  0  0  0  0  0  # atno 8009 bound_to 7997
  156.2980  140.2331  156.4319 H   0  0  0  0  0  0  0  0  0  0  0  0  # atno 8010 bound_to 7997
  139.6593  144.7129  151.1896 H   0  0  0  0  0  0  0  0  0  0  0  0  # atno 10167 bound_to 10162
  156.0040  130.5102  150.6050 H   0  0  0  0  0  0  0  0  0  0  0  0  # atno 10718 bound_to 10713
  153.4856  135.3670  155.2465 H   0  0  0  0  0  0  0  0  0  0  0  0  # atno 10763 bound_to 10752
  154.8754  135.3965  154.3648 H   0  0  0  0  0  0  0  0  0  0  0  0  # atno 10764 bound_to 10752
  153.4259  135.7081  153.6328 H   0  0  0  0  0  0  0  0  0  0  0  0  # atno 10765 bound_to 10752
  139.8930  134.8392  156.2798 H   0  0  0  0  0  0  0  0  0  0  0  0  # atno 11005 bound_to 11000
  146.3414  140.2276  142.8592 LP  0  0  0  0  0  0  0  0  0  0  0  0  # atno 17320 bound_to 7965
  144.9933  140.8566  143.5326 LP  0  0  0  0  0  0  0  0  0  0  0  0  # atno 17321 bound_to 7965
  140.7573  143.6020  150.8690 LP  0  0  0  0  0  0  0  0  0  0  0  0  # atno 17342 bound_to 10162
  139.9676  143.6093  152.2983 LP  0  0  0  0  0  0  0  0  0  0  0  0  # atno 17343 bound_to 10162
  157.3892  131.0793  151.1408 LP  0  0  0  0  0  0  0  0  0  0  0  0  # atno 17370 bound_to 10713
  157.2105  130.6436  149.5772 LP  0  0  0  0  0  0  0  0  0  0  0  0  # atno 17371 bound_to 10713
  141.0046  133.7131  156.1014 LP  0  0  0  0  0  0  0  0  0  0  0  0  # atno 17394 bound_to 11000
  140.7451  134.4107  157.5549 LP  0  0  0  0  0  0  0  0  0  0  0  0  # atno 17395 bound_to 11000

$$$$
