AV-unprocessed.smi:438|AV-procd|sdf|2575|dock1
  -GOLD-   2262022553D 1   1.00000     0.00000
 Structure written by MMmdl.
 48 49  0  0  0  0  0  0  0  0  1 V2000
  149.2512  133.1713  154.7239 C   0  0  0  0  0  0  0  0  0  0  0  0
  149.6807  134.4258  155.4620 C   0  0  0  0  0  0  0  0  0  0  0  0
  150.2664  135.3781  154.7033 N   0  0  0  0  0  0  0  0  0  0  0  0
  150.6292  136.4987  155.3252 C   0  0  0  0  0  0  0  0  0  0  0  0
  151.3652  137.7476  154.2892 S   0  0  0  0  0  0  0  0  0  0  0  0
  150.4516  139.2384  154.7951 C   0  0  0  0  0  0  0  0  0  0  0  0
  151.2408  140.1349  155.7489 C   0  0  0  0  0  0  0  0  0  0  0  0
  152.4659  140.1980  155.6535 O   0  0  0  0  0  0  0  0  0  0  0  0
  150.5240  140.8122  156.6626 N   0  0  0  0  0  0  0  0  0  0  0  0
  151.0302  141.7077  157.7074 C   0  0  2  0  0  0  0  0  0  0  0  0
  151.2937  143.1306  157.1653 C   0  0  0  0  0  0  0  0  0  0  0  0
  151.7371  144.0802  158.2873 C   0  0  0  0  0  0  0  0  0  0  0  0
  152.9721  143.5295  159.0150 C   0  0  0  0  0  0  0  0  0  0  0  0
  152.7090  142.1194  159.5672 C   0  0  0  0  0  0  0  0  0  0  0  0
  152.2640  141.1400  158.4616 C   0  0  1  0  0  0  0  0  0  0  0  0
  152.0064  139.7434  159.0546 C   0  0  0  0  0  0  0  0  0  0  0  0
  150.4988  136.7812  156.6224 N   0  0  0  0  0  0  0  0  0  0  0  0
  149.9166  135.8399  157.3951 C   0  0  0  0  0  0  0  0  0  0  0  0
  149.7621  136.1121  158.7235 O   0  0  0  0  0  0  0  0  0  0  0  0
  149.4739  134.6067  156.8543 C   0  0  0  0  0  0  0  0  0  0  0  0
  148.8163  133.5466  157.7322 C   0  0  0  0  0  0  0  0  0  0  0  0
  149.5317  132.1874  157.6686 C   0  0  0  0  0  0  0  0  0  0  0  0
  150.8696  132.3070  158.1024 O   0  0  0  0  0  0  0  0  0  0  0  0
  149.7017  132.2864  155.1720 H   0  0  0  0  0  0  0  0  0  0  0  0
  149.5510  133.2041  153.6758 H   0  0  0  0  0  0  0  0  0  0  0  0
  148.1669  133.0648  154.7579 H   0  0  0  0  0  0  0  0  0  0  0  0
  150.1578  139.8034  153.9099 H   0  0  0  0  0  0  0  0  0  0  0  0
  149.5282  138.9279  155.2845 H   0  0  0  0  0  0  0  0  0  0  0  0
  149.5229  140.6796  156.6452 H   0  0  0  0  0  0  0  0  0  0  0  0
  150.2157  141.7851  158.4289 H   0  0  0  0  0  0  0  0  0  0  0  0
  152.0665  143.1108  156.3967 H   0  0  0  0  0  0  0  0  0  0  0  0
  150.3944  143.5222  156.6884 H   0  0  0  0  0  0  0  0  0  0  0  0
  151.9567  145.0656  157.8754 H   0  0  0  0  0  0  0  0  0  0  0  0
  150.9212  144.2160  158.9984 H   0  0  0  0  0  0  0  0  0  0  0  0
  153.8197  143.5014  158.3290 H   0  0  0  0  0  0  0  0  0  0  0  0
  153.2539  144.2000  159.8275 H   0  0  0  0  0  0  0  0  0  0  0  0
  153.6116  141.7466  160.0526 H   0  0  0  0  0  0  0  0  0  0  0  0
  151.9435  142.1725  160.3427 H   0  0  0  0  0  0  0  0  0  0  0  0
  153.0921  141.0490  157.7578 H   0  0  0  0  0  0  0  0  0  0  0  0
  151.1818  139.7614  159.7677 H   0  0  0  0  0  0  0  0  0  0  0  0
  152.8888  139.3689  159.5739 H   0  0  0  0  0  0  0  0  0  0  0  0
  151.7583  139.0192  158.2805 H   0  0  0  0  0  0  0  0  0  0  0  0
  148.8895  136.4076  158.9330 H   0  0  0  0  0  0  0  0  0  0  0  0
  148.8291  133.9066  158.7614 H   0  0  0  0  0  0  0  0  0  0  0  0
  147.7614  133.4300  157.4858 H   0  0  0  0  0  0  0  0  0  0  0  0
  149.0137  131.4361  158.2655 H   0  0  0  0  0  0  0  0  0  0  0  0
  149.5452  131.8256  156.6403 H   0  0  0  0  0  0  0  0  0  0  0  0
  151.4299  132.3462  157.3422 H   0  0  0  0  0  0  0  0  0  0  0  0
  1  2  1  0  0  0  0
  1 24  1  0  0  0  0
  1 25  1  0  0  0  0
  1 26  1  0  0  0  0
  2 20  1  0  0  0  0
  2  3  2  0  0  0  0
  3  4  1  0  0  0  0
  4  5  1  0  0  0  0
  4 17  2  0  0  0  0
  5  6  1  0  0  0  0
  6  7  1  0  0  0  0
  6 27  1  0  0  0  0
  6 28  1  0  0  0  0
  7  8  2  0  0  0  0
  7  9  1  0  0  0  0
  9 10  1  0  0  0  0
  9 29  1  0  0  0  0
 10 15  1  0  0  0  0
 10 11  1  0  0  0  0
 10 30  1  0  0  0  0
 11 12  1  0  0  0  0
 11 31  1  0  0  0  0
 11 32  1  0  0  0  0
 12 13  1  0  0  0  0
 12 33  1  0  0  0  0
 12 34  1  0  0  0  0
 13 14  1  0  0  0  0
 13 35  1  0  0  0  0
 13 36  1  0  0  0  0
 14 15  1  0  0  0  0
 14 37  1  0  0  0  0
 14 38  1  0  0  0  0
 15 16  1  0  0  0  0
 15 39  1  0  0  0  0
 16 40  1  0  0  0  0
 16 41  1  0  0  0  0
 16 42  1  0  0  0  0
 17 18  1  0  0  0  0
 18 19  1  0  0  0  0
 18 20  2  0  0  0  0
 19 43  1  0  0  0  0
 20 21  1  0  0  0  0
 21 22  1  0  0  0  0
 21 44  1  0  0  0  0
 21 45  1  0  0  0  0
 22 23  1  0  0  0  0
 22 46  1  0  0  0  0
 22 47  1  0  0  0  0
 23 48  1  0  0  0  0
M  END
> <s_m_source_file>
AV-unprocessed.smi

> <i_m_source_file_index>
438

> <i_lp_mmshare_version>
43012

> <i_f3d_flags>
0

> <s_epik_input>
W09IXVtDSDJdW0NIMl1jMWMoW09IXSluYyhuYzFbQ0gzXSlTW0NIMl1DKD1PKVtOSF1bQ0BASF0yW0NIMl1bQ0gyXVtDSDJdW0NIMl1bQ0BIXTJbQ0gzXQ==

> <s_epik_cmdline>
J2VwaWtfcHl0aG9uJywgJy1waCcsICc3LjAnLCAnLXRuJywgJzgnLCAnLW1hJywgJzIwMCcsICctbWV0YWxfYmluZGluZycsICctaW1hZScsICc8aW5maWxlLm1hZT4nLCAnLW9tYWUnLCAnPG91dGZpbGUubWFlPic=

> <r_lp_tautomer_probability>
0.0660145

> <r_epik_Ionization_Penalty>
2.91405

> <r_epik_Ionization_Penalty_Charging>
0

> <r_epik_Ionization_Penalty_Neutral>
2.91405

> <r_epik_State_Penalty>
2.44767

> <r_epik_Charging_Adjusted_Penalty>
2.44767

> <i_epik_Tot_Q>
0

> <i_epik_Tot_abs_Q>
0

> <r_epik_Metal_State_Penalty>
3.04288

> <b_epik_Metal_Only>
0

> <s_lp_Force_Field>
OPLS_2005

> <r_lp_Energy>
1.00415

> <b_lp_Chiralities_Consistent>
1

> <s_lp_Variant>
AV-unprocessed.smi:438-13

> <Gold.Version>
5.8.1

> <Gold.Id.Protein>
6NUR|6NUR_protein|mol2

> <Gold.PLP.Fitness>
46.6735

> <Gold.PLP.PLP>
-39.5261

> <Gold.PLP.part.hbond>
-3.9264

> <Gold.PLP.part.metal>
0.0000

> <Gold.PLP.part.buried>
-2.2261

> <Gold.PLP.part.nonpolar>
-34.5160

> <Gold.PLP.part.repulsive>
0.3498

> <Gold.PLP.ligand.clash>
0.0000

> <Gold.PLP.ligand.torsion>
1.0749

> <Gold.PLP.Chemscore.Hbond>
3.0000

> <Gold.PLP.Chemscore.CHOScore>
0.0000

> <Gold.PLP.Chemscore.Metal>
0.0000

> <Gold.Chemscore.Hbonds>
donor molecule, donor type, donor heavy atom, donor atom, acceptor molecule, acceptor atom, score
      P1  H  6896  6907       L1    19  1.00
      P1  H  6896  6909       L1    23  1.00
      P1  H  7997  8009       L1     8  1.00

> <Gold.PLP.Chemscore.Internal.Correction>
0.2972

> <Gold.Rescore>
     Score         DG    S(hbond)    S(metal)    S(lipo)     H(rot)  DE(clash)    DE(int)     intcor
     15.78     -18.07       2.85        0.00     101.36       3.44       0.12       2.16       ----

> <Gold.Chemscore.Fitness>
15.7840

> <Gold.Chemscore.DG>
-18.0679

> <Gold.Chemscore.ZeroCoef>
-5.4800

> <Gold.Chemscore.Hbond>
2.8519

> <Gold.Chemscore.Metal>
0.0000

> <Gold.Chemscore.Lipo>
101.3557

> <Gold.Chemscore.Internal_Hbond>
0.0000

> <Gold.Chemscore.DEClash>
0.1224

> <Gold.Chemscore.DEInternal>
2.1616

> <Gold.Chemscore.Rot>
3.4359

> <Gold.Chemscore.Internal.Correction>
   9.000000E+99

> <Gold.Chemscore.Hbonds>
donor molecule, donor type, donor heavy atom, donor atom, acceptor molecule, acceptor atom, score
      P1  H  6896  6907       L1    19  0.55
      P1  H  6896  6909       L1    23  0.58
      P1  H  7997  8009       L1     8  0.96

> <Gold.Chemscore.Hbond.Weighted>
-9.5253

> <Gold.Chemscore.Metal.Weighted>
-0.0000

> <Gold.Chemscore.Lipo.Weighted>
-11.8586

> <Gold.Chemscore.Internal_Hbond.Weighted>
0.0000

> <Gold.Chemscore.DEClash.Weighted>
0.1224

> <Gold.Chemscore.DEInternal.Weighted>
2.1616

> <Gold.Chemscore.Rot.Weighted>
8.7960

> <Gold.Chemscore.Internal.Correction.Weighted>
   9.000000E+99

> <Gold.Protein.RotatedTorsions>
[ 6907 6896 6895 6894 ] final  -54.46 input  -60.11 | X-H torsion
[ 7974 7965 7964 7962 ] final -122.70 input  175.53 | X-H torsion
[ 8008 7997 7996 7995 ] final -140.06 input   59.86 | X-H torsion
[ 10167 10162 10161 10158 ] final  -43.95 input  -65.29 | X-H torsion
[ 10718 10713 10712 10709 ] final    1.11 input   66.30 | X-H torsion
[ 10763 10752 10751 10750 ] final  151.30 input  -60.55 | X-H torsion
[ 11005 11000 10999 10996 ] final  -57.01 input  -57.11 | X-H torsion

> <Gold.Protein.ActiveResidues>
 VAL166  LYS551  ARG553  GLY616  TRP617  ASP618  TYR619  PRO620  LYS621  CYS622 
 ASP623  PHE694  ASN695  SER759  ASP760  ASP761  ALA762  ILE779  LEU786  VAL792 
 PHE793  MET794  SER795  GLU796  ALA797  LYS798  CYS799  TRP800  GLU811  SER814 

> <Gold.Protein.RotatedAtoms>
  150.8336  134.7600  159.6874 H   0  0  0  0  0  0  0  0  0  0  0  0  # atno 6907 bound_to 6896
  152.4437  134.5535  159.9883 H   0  0  0  0  0  0  0  0  0  0  0  0  # atno 6908 bound_to 6896
  151.5691  133.3355  159.3022 H   0  0  0  0  0  0  0  0  0  0  0  0  # atno 6909 bound_to 6896
  145.0267  140.8033  143.4348 H   0  0  0  0  0  0  0  0  0  0  0  0  # atno 7974 bound_to 7965
  155.4552  140.0541  157.2997 H   0  0  0  0  0  0  0  0  0  0  0  0  # atno 8008 bound_to 7997
  154.4760  140.2061  155.9832 H   0  0  0  0  0  0  0  0  0  0  0  0  # atno 8009 bound_to 7997
  156.1133  140.3200  155.8108 H   0  0  0  0  0  0  0  0  0  0  0  0  # atno 8010 bound_to 7997
  140.6915  143.2956  151.3425 H   0  0  0  0  0  0  0  0  0  0  0  0  # atno 10167 bound_to 10162
  156.8434  130.5528  149.5675 H   0  0  0  0  0  0  0  0  0  0  0  0  # atno 10718 bound_to 10713
  154.1016  135.2845  155.3250 H   0  0  0  0  0  0  0  0  0  0  0  0  # atno 10763 bound_to 10752
  154.6552  135.5354  153.7953 H   0  0  0  0  0  0  0  0  0  0  0  0  # atno 10764 bound_to 10752
  153.0377  135.6520  154.1179 H   0  0  0  0  0  0  0  0  0  0  0  0  # atno 10765 bound_to 10752
  141.1146  133.6610  156.4706 H   0  0  0  0  0  0  0  0  0  0  0  0  # atno 11005 bound_to 11000
  145.1825  139.2344  143.5285 LP  0  0  0  0  0  0  0  0  0  0  0  0  # atno 17320 bound_to 7965
  146.3493  140.1602  142.8591 LP  0  0  0  0  0  0  0  0  0  0  0  0  # atno 17321 bound_to 7965
  139.6323  144.0697  152.2487 LP  0  0  0  0  0  0  0  0  0  0  0  0  # atno 17342 bound_to 10162
  140.0176  144.6177  150.7594 LP  0  0  0  0  0  0  0  0  0  0  0  0  # atno 17343 bound_to 10162
  156.0868  130.5864  150.9662 LP  0  0  0  0  0  0  0  0  0  0  0  0  # atno 17370 bound_to 10713
  157.6343  131.0917  150.8379 LP  0  0  0  0  0  0  0  0  0  0  0  0  # atno 17371 bound_to 10713
  140.4682  134.6778  157.5117 LP  0  0  0  0  0  0  0  0  0  0  0  0  # atno 17394 bound_to 11000
  140.0060  134.6763  155.9455 LP  0  0  0  0  0  0  0  0  0  0  0  0  # atno 17395 bound_to 11000

$$$$
