AV-unprocessed.smi:907|AV-procd|sdf|4108|dock3
  -GOLD-   22720 2 03D 1   1.00000     0.00000
 Structure written by MMmdl.
 53 56  0  0  0  0  0  0  0  0  2 V2000
  149.5712  138.5120  154.5356 O   0  0  0  0  0  0  0  0  0  0  0  0
  148.7396  139.0843  155.2409 C   0  0  0  0  0  0  0  0  0  0  0  0
  147.7260  138.4256  155.8253 N   0  0  0  0  0  0  0  0  0  0  0  0
  147.5026  136.9901  155.7252 C   0  0  0  0  0  0  0  0  0  0  0  0
  148.8012  136.2220  156.0083 C   0  0  0  0  0  0  0  0  0  0  0  0
  148.8898  134.9297  155.2190 C   0  0  0  0  0  0  0  0  0  0  0  0
  149.9252  134.0033  155.4665 C   0  0  0  0  0  0  0  0  0  0  0  0
  149.9573  132.8157  154.7104 C   0  0  0  0  0  0  0  0  0  0  0  0
  148.9580  132.6010  153.7416 C   0  0  0  0  0  0  0  0  0  0  0  0
  147.9668  133.5881  153.5712 C   0  0  0  0  0  0  0  0  0  0  0  0
  147.9272  134.7302  154.2907 N   0  0  0  0  0  0  0  0  0  0  0  0
  148.7539  140.4220  155.4677 N   0  0  0  0  0  0  0  0  0  0  0  0
  147.8576  141.1671  156.3600 C   0  0  0  0  0  0  0  0  0  0  0  0
  148.6445  141.5761  157.6167 C   0  0  0  0  0  0  0  0  0  0  0  0
  149.8618  142.3747  157.2827 N   0  3  0  0  0  0  0  0  0  0  0  0
  150.6151  142.7710  158.5124 C   0  0  2  0  0  0  0  0  0  0  0  0
  150.0268  144.0533  159.1606 C   0  0  0  0  0  0  0  0  0  0  0  0
  151.2382  144.9923  159.2764 C   0  0  1  0  0  0  0  0  0  0  0  0
  152.2036  144.4569  160.3465 C   0  0  0  0  0  0  0  0  0  0  0  0
  152.8127  143.2243  159.6566 C   0  0  0  0  0  0  0  0  0  0  0  0
  152.0942  143.1984  158.2922 C   0  0  2  0  0  0  0  0  0  0  0  0
  151.9821  144.6868  157.9834 C   0  0  0  0  0  0  0  0  0  0  0  0
  150.6931  141.7128  156.2336 C   0  0  0  0  0  0  0  0  0  0  0  0
  149.8525  141.2779  155.0179 C   0  0  0  0  0  0  0  0  0  0  0  0
  147.0671  138.9544  156.3778 H   0  0  0  0  0  0  0  0  0  0  0  0
  146.7288  136.6965  156.4362 H   0  0  0  0  0  0  0  0  0  0  0  0
  147.1348  136.7462  154.7270 H   0  0  0  0  0  0  0  0  0  0  0  0
  149.6640  136.8438  155.7635 H   0  0  0  0  0  0  0  0  0  0  0  0
  148.8774  135.9976  157.0732 H   0  0  0  0  0  0  0  0  0  0  0  0
  150.6765  134.1948  156.2186 H   0  0  0  0  0  0  0  0  0  0  0  0
  150.7334  132.0821  154.8715 H   0  0  0  0  0  0  0  0  0  0  0  0
  148.9507  131.7017  153.1441 H   0  0  0  0  0  0  0  0  0  0  0  0
  147.1848  133.4561  152.8382 H   0  0  0  0  0  0  0  0  0  0  0  0
  147.4936  142.0560  155.8424 H   0  0  0  0  0  0  0  0  0  0  0  0
  146.9630  140.6165  156.6506 H   0  0  0  0  0  0  0  0  0  0  0  0
  147.9826  142.1363  158.2758 H   0  0  0  0  0  0  0  0  0  0  0  0
  148.9426  140.6810  158.1651 H   0  0  0  0  0  0  0  0  0  0  0  0
  150.5791  141.9339  159.2119 H   0  0  0  0  0  0  0  0  0  0  0  0
  149.2777  144.5260  158.5239 H   0  0  0  0  0  0  0  0  0  0  0  0
  149.5603  143.8539  160.1261 H   0  0  0  0  0  0  0  0  0  0  0  0
  150.9674  146.0394  159.4159 H   0  0  0  0  0  0  0  0  0  0  0  0
  152.9774  145.1905  160.5758 H   0  0  0  0  0  0  0  0  0  0  0  0
  151.6925  144.2057  161.2766 H   0  0  0  0  0  0  0  0  0  0  0  0
  153.8874  143.3562  159.5241 H   0  0  0  0  0  0  0  0  0  0  0  0
  152.6602  142.3080  160.2282 H   0  0  0  0  0  0  0  0  0  0  0  0
  152.6622  142.6206  157.5669 H   0  0  0  0  0  0  0  0  0  0  0  0
  151.4000  144.9006  157.0851 H   0  0  0  0  0  0  0  0  0  0  0  0
  152.9489  145.1886  157.9120 H   0  0  0  0  0  0  0  0  0  0  0  0
  151.4601  142.3899  155.8643 H   0  0  0  0  0  0  0  0  0  0  0  0
  151.2017  140.8488  156.6647 H   0  0  0  0  0  0  0  0  0  0  0  0
  150.4914  140.7918  154.2789 H   0  0  0  0  0  0  0  0  0  0  0  0
  149.4411  142.1547  154.5159 H   0  0  0  0  0  0  0  0  0  0  0  0
  149.5314  143.2329  156.8647 H   0  0  0  0  0  0  0  0  0  0  0  0
  1  2  2  0  0  0  0
  2  3  1  0  0  0  0
  2 12  1  0  0  0  0
  3  4  1  0  0  0  0
  3 25  1  0  0  0  0
  4  5  1  0  0  0  0
  4 26  1  0  0  0  0
  4 27  1  0  0  0  0
  5  6  1  0  0  0  0
  5 28  1  0  0  0  0
  5 29  1  0  0  0  0
  6 11  1  0  0  0  0
  6  7  2  0  0  0  0
  7  8  1  0  0  0  0
  7 30  1  0  0  0  0
  8  9  2  0  0  0  0
  8 31  1  0  0  0  0
  9 10  1  0  0  0  0
  9 32  1  0  0  0  0
 10 11  2  0  0  0  0
 10 33  1  0  0  0  0
 12 24  1  0  0  0  0
 12 13  1  0  0  0  0
 13 14  1  0  0  0  0
 13 34  1  0  0  0  0
 13 35  1  0  0  0  0
 14 15  1  0  0  0  0
 14 36  1  0  0  0  0
 14 37  1  0  0  0  0
 15 16  1  0  0  0  0
 15 23  1  0  0  0  0
 15 53  1  0  0  0  0
 16 21  1  0  0  0  0
 16 17  1  0  0  0  0
 16 38  1  0  0  0  0
 17 18  1  0  0  0  0
 17 39  1  0  0  0  0
 17 40  1  0  0  0  0
 18 22  1  0  0  0  0
 18 19  1  0  0  0  0
 18 41  1  0  0  0  0
 19 20  1  0  0  0  0
 19 42  1  0  0  0  0
 19 43  1  0  0  0  0
 20 21  1  0  0  0  0
 20 44  1  0  0  0  0
 20 45  1  0  0  0  0
 21 22  1  0  0  0  0
 21 46  1  0  0  0  0
 22 47  1  0  0  0  0
 22 48  1  0  0  0  0
 23 24  1  0  0  0  0
 23 49  1  0  0  0  0
 23 50  1  0  0  0  0
 24 51  1  0  0  0  0
 24 52  1  0  0  0  0
M  CHG  1  15   1
M  END
> <s_m_source_file>
AV-unprocessed.smi

> <i_m_source_file_index>
907

> <i_lp_mmshare_version>
43012

> <i_f3d_flags>
0

> <s_epik_input>
W0NIMl0xW0NIMl1bQ0BASF0oW0NIMl0yKVtDQEBIXShbQ0gyXVtDQEhdMTIpTihbQ0gyXVtDSDJdMylbQ0gyXVtDSDJdTjNDKD1PKVtOSF1bQ0gyXVtDSDJdYzRbY0hdW2NIXVtjSF1bY0hdbjQ=

> <s_epik_cmdline>
J2VwaWtfcHl0aG9uJywgJy1waCcsICc3LjAnLCAnLXRuJywgJzgnLCAnLW1hJywgJzIwMCcsICctbWV0YWxfYmluZGluZycsICctaW1hZScsICc8aW5maWxlLm1hZT4nLCAnLW9tYWUnLCAnPG91dGZpbGUubWFlPic=

> <r_epik_Ionization_Penalty>
0.0419258

> <r_epik_Ionization_Penalty_Charging>
0.00262064

> <r_epik_Ionization_Penalty_Neutral>
0.0393052

> <r_epik_State_Penalty>
0.0329887

> <r_epik_Charging_Adjusted_Penalty>
0.0356093

> <i_epik_Tot_Q>
1

> <i_epik_Tot_abs_Q>
1

> <r_epik_Metal_State_Penalty>
0.0309172

> <b_epik_Metal_Only>
0

> <s_lp_Force_Field>
OPLS_2005

> <r_lp_Energy>
96.3886

> <b_lp_Chiralities_Consistent>
1

> <s_lp_Variant>
AV-unprocessed.smi:907-3

> <Gold.Version>
5.8.1

> <Gold.Id.Protein>
6NUR|6NUR_protein|mol2

> <Gold.PLP.Fitness>
47.6677

> <Gold.PLP.PLP>
-43.4102

> <Gold.PLP.part.hbond>
-1.0000

> <Gold.PLP.part.metal>
0.0000

> <Gold.PLP.part.buried>
-6.0701

> <Gold.PLP.part.nonpolar>
-36.3780

> <Gold.PLP.part.repulsive>
1.2181

> <Gold.PLP.ligand.clash>
0.0000

> <Gold.PLP.ligand.torsion>
0.9196

> <Gold.PLP.Chemscore.Hbond>
2.0000

> <Gold.PLP.Chemscore.CHOScore>
0.0000

> <Gold.PLP.Chemscore.Metal>
0.0000

> <Gold.Chemscore.Hbonds>
donor molecule, donor type, donor heavy atom, donor atom, acceptor molecule, acceptor atom, score
      L1  H    15    53       P1  8028  2.00

> <Gold.PLP.Chemscore.Internal.Correction>
0.0966

> <Gold.Rescore>
     Score         DG    S(hbond)    S(metal)    S(lipo)     H(rot)  DE(clash)    DE(int)     intcor
     18.42     -19.64       0.97        0.00     123.39       1.37       0.30       0.92       ----

> <Gold.Chemscore.Fitness>
18.4199

> <Gold.Chemscore.DG>
-19.6437

> <Gold.Chemscore.ZeroCoef>
-5.4800

> <Gold.Chemscore.Hbond>
0.9707

> <Gold.Chemscore.Metal>
0.0000

> <Gold.Chemscore.Lipo>
123.3913

> <Gold.Chemscore.Internal_Hbond>
0.0000

> <Gold.Chemscore.DEClash>
0.2998

> <Gold.Chemscore.DEInternal>
0.9241

> <Gold.Chemscore.Rot>
1.3731

> <Gold.Chemscore.Internal.Correction>
   9.000000E+99

> <Gold.Chemscore.Hbonds>
donor molecule, donor type, donor heavy atom, donor atom, acceptor molecule, acceptor atom, score
      L1  H    15    53       P1  8028  0.94

> <Gold.Chemscore.Hbond.Weighted>
-3.2421

> <Gold.Chemscore.Metal.Weighted>
-0.0000

> <Gold.Chemscore.Lipo.Weighted>
-14.4368

> <Gold.Chemscore.Internal_Hbond.Weighted>
0.0000

> <Gold.Chemscore.DEClash.Weighted>
0.2998

> <Gold.Chemscore.DEInternal.Weighted>
0.9241

> <Gold.Chemscore.Rot.Weighted>
3.5152

> <Gold.Chemscore.Internal.Correction.Weighted>
   9.000000E+99

> <Gold.Protein.RotatedTorsions>
[ 6907 6896 6895 6894 ] final    0.80 input  -60.11 | X-H torsion
[ 7974 7965 7964 7962 ] final   42.24 input  175.53 | X-H torsion
[ 8008 7997 7996 7995 ] final -106.40 input   59.86 | X-H torsion
[ 10167 10162 10161 10158 ] final -147.63 input  -65.29 | X-H torsion
[ 10718 10713 10712 10709 ] final   94.12 input   66.30 | X-H torsion
[ 10763 10752 10751 10750 ] final  174.02 input  -60.55 | X-H torsion
[ 11005 11000 10999 10996 ] final -131.35 input  -57.11 | X-H torsion

> <Gold.Protein.ActiveResidues>
 VAL166  LYS551  ARG553  GLY616  TRP617  ASP618  TYR619  PRO620  LYS621  CYS622 
 ASP623  PHE694  ASN695  SER759  ASP760  ASP761  ALA762  ILE779  LEU786  VAL792 
 PHE793  MET794  SER795  GLU796  ALA797  LYS798  CYS799  TRP800  GLU811  SER814 

> <Gold.Protein.RotatedAtoms>
  151.5823  135.1058  160.0019 H   0  0  0  0  0  0  0  0  0  0  0  0  # atno 6907 bound_to 6896
  152.4348  133.7336  159.6612 H   0  0  0  0  0  0  0  0  0  0  0  0  # atno 6908 bound_to 6896
  150.8244  133.8127  159.3148 H   0  0  0  0  0  0  0  0  0  0  0  0  # atno 6909 bound_to 6896
  146.0757  139.5323  142.9569 H   0  0  0  0  0  0  0  0  0  0  0  0  # atno 7974 bound_to 7965
  154.9140  140.0409  157.1961 H   0  0  0  0  0  0  0  0  0  0  0  0  # atno 8008 bound_to 7997
  154.8320  140.2900  155.5694 H   0  0  0  0  0  0  0  0  0  0  0  0  # atno 8009 bound_to 7997
  156.2987  140.2499  156.3247 H   0  0  0  0  0  0  0  0  0  0  0  0  # atno 8010 bound_to 7997
  139.7604  143.8385  152.2606 H   0  0  0  0  0  0  0  0  0  0  0  0  # atno 10167 bound_to 10162
  157.6950  131.0501  150.4137 H   0  0  0  0  0  0  0  0  0  0  0  0  # atno 10718 bound_to 10713
  154.4481  135.2764  155.1800 H   0  0  0  0  0  0  0  0  0  0  0  0  # atno 10763 bound_to 10752
  154.3639  135.6123  153.5708 H   0  0  0  0  0  0  0  0  0  0  0  0  # atno 10764 bound_to 10752
  152.9845  135.5841  154.4821 H   0  0  0  0  0  0  0  0  0  0  0  0  # atno 10765 bound_to 10752
  140.9266  134.1375  157.4270 H   0  0  0  0  0  0  0  0  0  0  0  0  # atno 11005 bound_to 11000
  145.6311  141.0304  143.1863 LP  0  0  0  0  0  0  0  0  0  0  0  0  # atno 17320 bound_to 7965
  144.7260  139.7875  143.7365 LP  0  0  0  0  0  0  0  0  0  0  0  0  # atno 17321 bound_to 7965
  139.8389  144.7219  150.9355 LP  0  0  0  0  0  0  0  0  0  0  0  0  # atno 17342 bound_to 10162
  140.7806  143.4001  151.1163 LP  0  0  0  0  0  0  0  0  0  0  0  0  # atno 17343 bound_to 10162
  156.4519  130.4013  149.6631 LP  0  0  0  0  0  0  0  0  0  0  0  0  # atno 17370 bound_to 10713
  156.3777  130.7563  151.2553 LP  0  0  0  0  0  0  0  0  0  0  0  0  # atno 17371 bound_to 10713
  139.8787  134.9990  156.5932 LP  0  0  0  0  0  0  0  0  0  0  0  0  # atno 17394 bound_to 11000
  140.7918  133.8576  155.8652 LP  0  0  0  0  0  0  0  0  0  0  0  0  # atno 17395 bound_to 11000

$$$$
