AV-unprocessed.smi:355|AV-procd|sdf|2407|dock3
  -GOLD-   2262022343D 1   1.00000     0.00000
 Structure written by MMmdl.
 39 40  0  0  0  0  0  0  0  0  1 V2000
  145.5336  132.9593  161.9607 C   0  0  0  0  0  0  0  0  0  0  0  0
  146.3970  134.1957  161.8169 C   0  0  0  0  0  0  0  0  0  0  0  0
  146.3654  135.1998  162.8049 C   0  0  0  0  0  0  0  0  0  0  0  0
  147.1688  136.3466  162.6673 C   0  0  0  0  0  0  0  0  0  0  0  0
  148.0028  136.4916  161.5426 C   0  0  0  0  0  0  0  0  0  0  0  0
  148.0436  135.4988  160.5426 C   0  0  0  0  0  0  0  0  0  0  0  0
  148.8871  135.7228  159.4763 O   0  0  0  0  0  0  0  0  0  0  0  0
  149.2018  137.0651  159.1332 C   0  0  0  0  0  0  0  0  0  0  0  0
  150.6252  137.1435  158.5456 C   0  0  0  0  0  0  0  0  0  0  0  0
  151.1299  138.5359  158.4682 N   0  0  0  0  0  0  0  0  0  0  0  0
  152.3664  138.8853  159.0986 C   0  0  0  0  0  0  0  0  0  0  0  0
  153.1267  137.8297  159.9157 C   0  0  0  0  0  0  0  0  0  0  0  0
  154.2340  138.3422  160.4544 F   0  0  0  0  0  0  0  0  0  0  0  0
  152.3790  137.3837  160.9257 F   0  0  0  0  0  0  0  0  0  0  0  0
  153.5127  136.7973  159.1673 F   0  0  0  0  0  0  0  0  0  0  0  0
  152.8481  140.1363  158.9786 C   0  0  0  0  0  0  0  0  0  0  0  0
  152.1220  141.1222  158.2277 C   0  0  0  0  0  0  0  0  0  0  0  0
  150.9378  140.8166  157.6508 C   0  0  0  0  0  0  0  0  0  0  0  0
  150.1527  141.7995  156.8688 C   0  0  0  0  0  0  0  0  0  0  0  0
  150.6853  143.0275  156.8355 N   0  0  0  0  0  0  0  0  0  0  0  0
  149.0955  141.5976  156.2714 O   0  0  0  0  0  0  0  0  0  0  0  0
  150.3679  139.4499  157.7750 C   0  0  0  0  0  0  0  0  0  0  0  0
  149.2802  139.1162  157.2959 O   0  0  0  0  0  0  0  0  0  0  0  0
  147.2311  134.3458  160.6894 C   0  0  0  0  0  0  0  0  0  0  0  0
  145.2840  132.7746  163.0060 H   0  0  0  0  0  0  0  0  0  0  0  0
  146.0517  132.0796  161.5776 H   0  0  0  0  0  0  0  0  0  0  0  0
  144.6053  133.0820  161.4024 H   0  0  0  0  0  0  0  0  0  0  0  0
  145.7266  135.0942  163.6696 H   0  0  0  0  0  0  0  0  0  0  0  0
  147.1459  137.1165  163.4243 H   0  0  0  0  0  0  0  0  0  0  0  0
  148.6162  137.3753  161.4445 H   0  0  0  0  0  0  0  0  0  0  0  0
  148.4922  137.4180  158.3835 H   0  0  0  0  0  0  0  0  0  0  0  0
  149.1122  137.7088  160.0089 H   0  0  0  0  0  0  0  0  0  0  0  0
  151.2931  136.5041  159.1254 H   0  0  0  0  0  0  0  0  0  0  0  0
  150.6306  136.6576  157.5751 H   0  0  0  0  0  0  0  0  0  0  0  0
  153.7762  140.4241  159.4498 H   0  0  0  0  0  0  0  0  0  0  0  0
  152.5629  142.1050  158.1500 H   0  0  0  0  0  0  0  0  0  0  0  0
  150.2233  143.7656  156.3251 H   0  0  0  0  0  0  0  0  0  0  0  0
  151.5516  143.2092  157.3215 H   0  0  0  0  0  0  0  0  0  0  0  0
  147.2332  133.5611  159.9482 H   0  0  0  0  0  0  0  0  0  0  0  0
  1  2  1  0  0  0  0
  1 25  1  0  0  0  0
  1 26  1  0  0  0  0
  1 27  1  0  0  0  0
  2 24  1  0  0  0  0
  2  3  2  0  0  0  0
  3  4  1  0  0  0  0
  3 28  1  0  0  0  0
  4  5  2  0  0  0  0
  4 29  1  0  0  0  0
  5  6  1  0  0  0  0
  5 30  1  0  0  0  0
  6  7  1  0  0  0  0
  6 24  2  0  0  0  0
  7  8  1  0  0  0  0
  8  9  1  0  0  0  0
  8 31  1  0  0  0  0
  8 32  1  0  0  0  0
  9 10  1  0  0  0  0
  9 33  1  0  0  0  0
  9 34  1  0  0  0  0
 10 22  1  0  0  0  0
 10 11  1  0  0  0  0
 11 12  1  0  0  0  0
 11 16  2  0  0  0  0
 12 13  1  0  0  0  0
 12 14  1  0  0  0  0
 12 15  1  0  0  0  0
 16 17  1  0  0  0  0
 16 35  1  0  0  0  0
 17 18  2  0  0  0  0
 17 36  1  0  0  0  0
 18 19  1  0  0  0  0
 18 22  1  0  0  0  0
 19 20  1  0  0  0  0
 19 21  2  0  0  0  0
 20 37  1  0  0  0  0
 20 38  1  0  0  0  0
 22 23  2  0  0  0  0
 24 39  1  0  0  0  0
M  END
> <s_m_source_file>
AV-unprocessed.smi

> <i_m_source_file_index>
355

> <i_lp_mmshare_version>
43012

> <i_f3d_flags>
0

> <s_epik_input>
W0NIM11jMVtjSF1bY0hdW2NIXWMoW2NIXTEpT1tDSDJdW0NIMl1uMmMoQyhGKShGKUYpW2NIXVtjSF1jKGMyPU8pQyg9TylbTkgyXQ==

> <s_epik_cmdline>
J2VwaWtfcHl0aG9uJywgJy1waCcsICc3LjAnLCAnLXRuJywgJzgnLCAnLW1hJywgJzIwMCcsICctbWV0YWxfYmluZGluZycsICctaW1hZScsICc8aW5maWxlLm1hZT4nLCAnLW9tYWUnLCAnPG91dGZpbGUubWFlPic=

> <r_lp_tautomer_probability>
1

> <r_epik_Ionization_Penalty>
1.75992e-06

> <r_epik_Ionization_Penalty_Charging>
1.13667e-09

> <r_epik_Ionization_Penalty_Neutral>
1.75878e-06

> <r_epik_State_Penalty>
-0

> <r_epik_Charging_Adjusted_Penalty>
1.13667e-09

> <i_epik_Tot_Q>
0

> <i_epik_Tot_abs_Q>
0

> <r_epik_Metal_State_Penalty>
-0

> <b_epik_Metal_Only>
0

> <s_lp_Force_Field>
OPLS_2005

> <r_lp_Energy>
35.0119

> <b_lp_Chiralities_Consistent>
1

> <s_lp_Variant>
AV-unprocessed.smi:355-1

> <Gold.Version>
5.8.1

> <Gold.Id.Protein>
6NUR|6NUR_protein|mol2

> <Gold.PLP.Fitness>
43.9479

> <Gold.PLP.PLP>
-39.1855

> <Gold.PLP.part.hbond>
-2.0000

> <Gold.PLP.part.metal>
0.0000

> <Gold.PLP.part.buried>
-4.9505

> <Gold.PLP.part.nonpolar>
-32.4721

> <Gold.PLP.part.repulsive>
0.3239

> <Gold.PLP.ligand.clash>
3.6075

> <Gold.PLP.ligand.torsion>
0.6357

> <Gold.PLP.Chemscore.Hbond>
2.0000

> <Gold.PLP.Chemscore.CHOScore>
0.0000

> <Gold.PLP.Chemscore.Metal>
0.0000

> <Gold.Chemscore.Hbonds>
donor molecule, donor type, donor heavy atom, donor atom, acceptor molecule, acceptor atom, score
      L1  H    20    37       P1  8028  1.00
      P1  H  6896  6907       L1     7  0.75

> <Gold.PLP.Chemscore.Internal.Correction>
3.6412

> <Gold.Rescore>
     Score         DG    S(hbond)    S(metal)    S(lipo)     H(rot)  DE(clash)    DE(int)     intcor
     12.43     -17.55       1.88        0.00      89.75       1.84       0.05       5.07       ----

> <Gold.Chemscore.Fitness>
12.4343

> <Gold.Chemscore.DG>
-17.5483

> <Gold.Chemscore.ZeroCoef>
-5.4800

> <Gold.Chemscore.Hbond>
1.8804

> <Gold.Chemscore.Metal>
0.0000

> <Gold.Chemscore.Lipo>
89.7544

> <Gold.Chemscore.Internal_Hbond>
0.0000

> <Gold.Chemscore.DEClash>
0.0471

> <Gold.Chemscore.DEInternal>
5.0669

> <Gold.Chemscore.Rot>
1.8412

> <Gold.Chemscore.Internal.Correction>
   9.000000E+99

> <Gold.Chemscore.Hbonds>
donor molecule, donor type, donor heavy atom, donor atom, acceptor molecule, acceptor atom, score
      L1  H    20    37       P1  8028  0.99
      P1  H  6896  6907       L1     7  0.49

> <Gold.Chemscore.Hbond.Weighted>
-6.2804

> <Gold.Chemscore.Metal.Weighted>
-0.0000

> <Gold.Chemscore.Lipo.Weighted>
-10.5013

> <Gold.Chemscore.Internal_Hbond.Weighted>
0.0000

> <Gold.Chemscore.DEClash.Weighted>
0.0471

> <Gold.Chemscore.DEInternal.Weighted>
5.0669

> <Gold.Chemscore.Rot.Weighted>
4.7134

> <Gold.Chemscore.Internal.Correction.Weighted>
   9.000000E+99

> <Gold.Protein.RotatedTorsions>
[ 6907 6896 6895 6894 ] final  -73.87 input  -60.11 | X-H torsion
[ 7974 7965 7964 7962 ] final   16.55 input  175.53 | X-H torsion
[ 8008 7997 7996 7995 ] final  -40.62 input   59.86 | X-H torsion
[ 10167 10162 10161 10158 ] final  111.34 input  -65.29 | X-H torsion
[ 10718 10713 10712 10709 ] final  -72.98 input   66.30 | X-H torsion
[ 10763 10752 10751 10750 ] final    9.12 input  -60.55 | X-H torsion
[ 11005 11000 10999 10996 ] final -112.29 input  -57.11 | X-H torsion

> <Gold.Protein.ActiveResidues>
 VAL166  LYS551  ARG553  GLY616  TRP617  ASP618  TYR619  PRO620  LYS621  CYS622 
 ASP623  PHE694  ASN695  SER759  ASP760  ASP761  ALA762  ILE779  LEU786  VAL792 
 PHE793  MET794  SER795  GLU796  ALA797  LYS798  CYS799  TRP800  GLU811  SER814 

> <Gold.Protein.RotatedAtoms>
  150.7114  134.4952  159.5534 H   0  0  0  0  0  0  0  0  0  0  0  0  # atno 6907 bound_to 6896
  152.2561  134.8079  160.0447 H   0  0  0  0  0  0  0  0  0  0  0  0  # atno 6908 bound_to 6896
  151.8809  133.3460  159.3803 H   0  0  0  0  0  0  0  0  0  0  0  0  # atno 6909 bound_to 6896
  146.2246  139.8732  142.8584 H   0  0  0  0  0  0  0  0  0  0  0  0  # atno 7974 bound_to 7965
  154.4010  140.1520  156.3057 H   0  0  0  0  0  0  0  0  0  0  0  0  # atno 8008 bound_to 7997
  155.8660  140.3451  155.5767 H   0  0  0  0  0  0  0  0  0  0  0  0  # atno 8009 bound_to 7997
  155.7827  140.0845  157.2041 H   0  0  0  0  0  0  0  0  0  0  0  0  # atno 8010 bound_to 7997
  139.6619  144.7128  151.1850 H   0  0  0  0  0  0  0  0  0  0  0  0  # atno 10167 bound_to 10162
  156.0298  130.4384  150.2674 H   0  0  0  0  0  0  0  0  0  0  0  0  # atno 10718 bound_to 10713
  153.2175  135.6877  153.8040 H   0  0  0  0  0  0  0  0  0  0  0  0  # atno 10763 bound_to 10752
  153.7250  135.3261  155.3275 H   0  0  0  0  0  0  0  0  0  0  0  0  # atno 10764 bound_to 10752
  154.8253  135.4622  154.1008 H   0  0  0  0  0  0  0  0  0  0  0  0  # atno 10765 bound_to 10752
  141.0684  133.9420  157.2533 H   0  0  0  0  0  0  0  0  0  0  0  0  # atno 11005 bound_to 11000
  145.2587  141.0069  143.3839 LP  0  0  0  0  0  0  0  0  0  0  0  0  # atno 17320 bound_to 7965
  144.9316  139.4292  143.6492 LP  0  0  0  0  0  0  0  0  0  0  0  0  # atno 17321 bound_to 7965
  140.7583  143.5981  150.8727 LP  0  0  0  0  0  0  0  0  0  0  0  0  # atno 17342 bound_to 10162
  139.9639  143.6132  152.2994 LP  0  0  0  0  0  0  0  0  0  0  0  0  # atno 17343 bound_to 10162
  157.0776  131.0134  151.3168 LP  0  0  0  0  0  0  0  0  0  0  0  0  # atno 17370 bound_to 10713
  157.4952  130.7846  149.7548 LP  0  0  0  0  0  0  0  0  0  0  0  0  # atno 17371 bound_to 10713
  139.9499  135.0177  156.8963 LP  0  0  0  0  0  0  0  0  0  0  0  0  # atno 17394 bound_to 11000
  140.5725  134.0430  155.7435 LP  0  0  0  0  0  0  0  0  0  0  0  0  # atno 17395 bound_to 11000

$$$$
