AV-unprocessed.smi:2624|AV-procd|sdf|10234|dock7
  -GOLD-   2272014243D 1   1.00000     0.00000
 Structure written by MMmdl.
 38 39  0  0  0  0  0  0  0  0  2 V2000
  145.9252  137.5962  151.2729 C   0  0  0  0  0  0  0  0  0  0  0  0
  146.8393  138.6785  151.2975 O   0  0  0  0  0  0  0  0  0  0  0  0
  147.2387  139.0217  152.6134 C   0  0  0  0  0  0  0  0  0  0  0  0
  147.0888  140.5392  152.7968 C   0  0  0  0  0  0  0  0  0  0  0  0
  147.5446  140.9666  154.1263 N   0  0  0  0  0  0  0  0  0  0  0  0
  148.8956  140.7268  154.4419 C   0  0  0  0  0  0  0  0  0  0  0  0
  149.4291  141.0767  155.6275 C   0  0  0  0  0  0  0  0  0  0  0  0
  150.8563  140.7987  155.9202 C   0  0  0  0  0  0  0  0  0  0  0  0
  151.5412  140.1205  155.1527 O   0  0  0  0  0  0  0  0  0  0  0  0
  151.4437  141.3901  157.1606 C   0  0  0  0  0  0  0  0  0  0  0  0
  151.3171  142.7822  157.3805 C   0  0  0  0  0  0  0  0  0  0  0  0
  151.8646  143.3871  158.5289 C   0  0  0  0  0  0  0  0  0  0  0  0
  151.7172  144.8801  158.7364 C   0  0  0  0  0  0  0  0  0  0  0  0
  152.5465  142.5980  159.4749 C   0  0  0  0  0  0  0  0  0  0  0  0
  152.6765  141.2122  159.2712 C   0  0  0  0  0  0  0  0  0  0  0  0
  152.1312  140.6021  158.1232 C   0  0  0  0  0  0  0  0  0  0  0  0
  152.2702  139.2474  157.9911 O   0  5  0  0  0  0  0  0  0  0  0  0
  148.5552  141.7061  156.5987 C   0  0  0  0  0  0  0  0  0  0  0  0
  147.2583  141.9281  156.3067 C   0  0  0  0  0  0  0  0  0  0  0  0
  146.3795  142.5366  157.2497 C   0  0  0  0  0  0  0  0  0  0  0  0
  145.6604  143.0448  158.0011 N   0  0  0  0  0  0  0  0  0  0  0  0
  146.6792  141.5503  155.0098 C   0  0  0  0  0  0  0  0  0  0  0  0
  145.4942  141.7398  154.7300 O   0  0  0  0  0  0  0  0  0  0  0  0
  145.6475  137.3750  150.2424 H   0  0  0  0  0  0  0  0  0  0  0  0
  145.0142  137.8367  151.8225 H   0  0  0  0  0  0  0  0  0  0  0  0
  146.3670  136.6965  151.7029 H   0  0  0  0  0  0  0  0  0  0  0  0
  146.6221  138.4889  153.3392 H   0  0  0  0  0  0  0  0  0  0  0  0
  148.2755  138.7234  152.7781 H   0  0  0  0  0  0  0  0  0  0  0  0
  147.6554  141.0568  152.0214 H   0  0  0  0  0  0  0  0  0  0  0  0
  146.0512  140.8336  152.6311 H   0  0  0  0  0  0  0  0  0  0  0  0
  149.4614  140.2423  153.6582 H   0  0  0  0  0  0  0  0  0  0  0  0
  150.8032  143.4007  156.6586 H   0  0  0  0  0  0  0  0  0  0  0  0
  152.2142  145.2060  159.6506 H   0  0  0  0  0  0  0  0  0  0  0  0
  150.6629  145.1483  158.8068 H   0  0  0  0  0  0  0  0  0  0  0  0
  152.1552  145.4231  157.8985 H   0  0  0  0  0  0  0  0  0  0  0  0
  152.9708  143.0489  160.3598 H   0  0  0  0  0  0  0  0  0  0  0  0
  153.1959  140.6136  160.0054 H   0  0  0  0  0  0  0  0  0  0  0  0
  148.9316  141.9899  157.5712 H   0  0  0  0  0  0  0  0  0  0  0  0
  1  2  1  0  0  0  0
  1 24  1  0  0  0  0
  1 25  1  0  0  0  0
  1 26  1  0  0  0  0
  2  3  1  0  0  0  0
  3  4  1  0  0  0  0
  3 27  1  0  0  0  0
  3 28  1  0  0  0  0
  4  5  1  0  0  0  0
  4 29  1  0  0  0  0
  4 30  1  0  0  0  0
  5 22  1  0  0  0  0
  5  6  1  0  0  0  0
  6  7  2  0  0  0  0
  6 31  1  0  0  0  0
  7  8  1  0  0  0  0
  7 18  1  0  0  0  0
  8  9  2  0  0  0  0
  8 10  1  0  0  0  0
 10 16  1  0  0  0  0
 10 11  2  0  0  0  0
 11 12  1  0  0  0  0
 11 32  1  0  0  0  0
 12 13  1  0  0  0  0
 12 14  2  0  0  0  0
 13 33  1  0  0  0  0
 13 34  1  0  0  0  0
 13 35  1  0  0  0  0
 14 15  1  0  0  0  0
 14 36  1  0  0  0  0
 15 16  2  0  0  0  0
 15 37  1  0  0  0  0
 16 17  1  0  0  0  0
 18 19  2  0  0  0  0
 18 38  1  0  0  0  0
 19 20  1  0  0  0  0
 19 22  1  0  0  0  0
 20 21  3  0  0  0  0
 22 23  2  0  0  0  0
M  CHG  1  17  -1
M  END
> <s_m_source_file>
AV-unprocessed.smi

> <i_m_source_file_index>
2624

> <i_lp_mmshare_version>
43012

> <i_f3d_flags>
0

> <s_epik_input>
W0NIM11PW0NIMl1bQ0gyXW4xW2NIXWMoW2NIXWMoQyNOKWMxPU8pQyg9TyljMltjSF1jKFtDSDNdKVtjSF1bY0hdYzJbT0hd

> <s_epik_cmdline>
J2VwaWtfcHl0aG9uJywgJy1waCcsICc3LjAnLCAnLXRuJywgJzgnLCAnLW1hJywgJzIwMCcsICctbWV0YWxfYmluZGluZycsICctaW1hZScsICc8aW5maWxlLm1hZT4nLCAnLW9tYWUnLCAnPG91dGZpbGUubWFlPic=

> <r_epik_Ionization_Penalty>
0.985482

> <r_epik_Ionization_Penalty_Charging>
0.985482

> <r_epik_Ionization_Penalty_Neutral>
1.08437e-11

> <r_epik_State_Penalty>
1.03272

> <r_epik_Charging_Adjusted_Penalty>
2.0182

> <i_epik_Tot_Q>
-1

> <i_epik_Tot_abs_Q>
1

> <r_epik_Metal_State_Penalty>
1.03272

> <b_epik_Metal_Only>
0

> <s_lp_Force_Field>
OPLS_2005

> <r_lp_Energy>
23.2451

> <b_lp_Chiralities_Consistent>
1

> <s_lp_Variant>
AV-unprocessed.smi:2624-2

> <Gold.Version>
5.8.1

> <Gold.Id.Protein>
6NUR|6NUR_protein|mol2

> <Gold.PLP.Fitness>
49.0010

> <Gold.PLP.PLP>
-41.7631

> <Gold.PLP.part.hbond>
-1.9902

> <Gold.PLP.part.metal>
0.0000

> <Gold.PLP.part.buried>
-0.4032

> <Gold.PLP.part.nonpolar>
-40.6058

> <Gold.PLP.part.repulsive>
1.1542

> <Gold.PLP.ligand.clash>
0.0000

> <Gold.PLP.ligand.torsion>
1.3564

> <Gold.PLP.Chemscore.Hbond>
1.7459

> <Gold.PLP.Chemscore.CHOScore>
1.0000

> <Gold.PLP.Chemscore.Metal>
0.0000

> <Gold.Chemscore.Hbonds>
donor molecule, donor type, donor heavy atom, donor atom, acceptor molecule, acceptor atom, score
      P1  H  7954  7966       L1     2  0.69
      P1  H  7989  7998       L1     9  1.00
      L1  C     6    31       P1  7957  1.00

> <Gold.PLP.Chemscore.Internal.Correction>
1.7130

> <Gold.Rescore>
     Score         DG    S(hbond)    S(metal)    S(lipo)     H(rot)  DE(clash)    DE(int)     intcor
     16.43     -18.20       0.99        0.00     111.39       1.41       0.24       1.53       ----

> <Gold.Chemscore.Fitness>
16.4307

> <Gold.Chemscore.DG>
-18.2037

> <Gold.Chemscore.ZeroCoef>
-5.4800

> <Gold.Chemscore.Hbond>
0.9860

> <Gold.Chemscore.Metal>
0.0000

> <Gold.Chemscore.Lipo>
111.3894

> <Gold.Chemscore.Internal_Hbond>
0.0000

> <Gold.Chemscore.DEClash>
0.2407

> <Gold.Chemscore.DEInternal>
1.5323

> <Gold.Chemscore.Rot>
1.4071

> <Gold.Chemscore.Internal.Correction>
   9.000000E+99

> <Gold.Chemscore.Hbonds>
donor molecule, donor type, donor heavy atom, donor atom, acceptor molecule, acceptor atom, score
      P1  H  7954  7966       L1     2  0.09
      P1  H  7989  7998       L1     9  0.78

> <Gold.Chemscore.Hbond.Weighted>
-3.2933

> <Gold.Chemscore.Metal.Weighted>
-0.0000

> <Gold.Chemscore.Lipo.Weighted>
-13.0326

> <Gold.Chemscore.Internal_Hbond.Weighted>
0.0000

> <Gold.Chemscore.DEClash.Weighted>
0.2407

> <Gold.Chemscore.DEInternal.Weighted>
1.5323

> <Gold.Chemscore.Rot.Weighted>
3.6022

> <Gold.Chemscore.Internal.Correction.Weighted>
   9.000000E+99

> <Gold.Protein.RotatedTorsions>
[ 6907 6896 6895 6894 ] final  108.75 input  -60.11 | X-H torsion
[ 7974 7965 7964 7962 ] final -157.85 input  175.53 | X-H torsion
[ 8008 7997 7996 7995 ] final  -18.41 input   59.86 | X-H torsion
[ 10167 10162 10161 10158 ] final  101.57 input  -65.29 | X-H torsion
[ 10718 10713 10712 10709 ] final  142.87 input   66.30 | X-H torsion
[ 10763 10752 10751 10750 ] final   70.89 input  -60.55 | X-H torsion
[ 11005 11000 10999 10996 ] final  -24.26 input  -57.11 | X-H torsion

> <Gold.Protein.ActiveResidues>
 VAL166  LYS551  ARG553  GLY616  TRP617  ASP618  TYR619  PRO620  LYS621  CYS622 
 ASP623  PHE694  ASN695  SER759  ASP760  ASP761  ALA762  ILE779  LEU786  VAL792 
 PHE793  MET794  SER795  GLU796  ALA797  LYS798  CYS799  TRP800  GLU811  SER814 

> <Gold.Protein.RotatedAtoms>
  152.5098  133.9044  159.7456 H   0  0  0  0  0  0  0  0  0  0  0  0  # atno 6907 bound_to 6896
  150.9452  133.6603  159.2789 H   0  0  0  0  0  0  0  0  0  0  0  0  # atno 6908 bound_to 6896
  151.3900  135.0959  159.9576 H   0  0  0  0  0  0  0  0  0  0  0  0  # atno 6909 bound_to 6896
  144.7531  140.3911  143.6033 H   0  0  0  0  0  0  0  0  0  0  0  0  # atno 7974 bound_to 7965
  154.4908  140.2116  155.9553 H   0  0  0  0  0  0  0  0  0  0  0  0  # atno 8008 bound_to 7997
  156.1302  140.3198  155.8306 H   0  0  0  0  0  0  0  0  0  0  0  0  # atno 8009 bound_to 7997
  155.4310  140.0503  157.3009 H   0  0  0  0  0  0  0  0  0  0  0  0  # atno 8010 bound_to 7997
  139.7426  144.7007  151.0552 H   0  0  0  0  0  0  0  0  0  0  0  0  # atno 10167 bound_to 10162
  157.3755  131.0985  151.0788 H   0  0  0  0  0  0  0  0  0  0  0  0  # atno 10718 bound_to 10713
  153.0367  135.5157  154.7510 H   0  0  0  0  0  0  0  0  0  0  0  0  # atno 10763 bound_to 10752
  154.6481  135.2921  155.0024 H   0  0  0  0  0  0  0  0  0  0  0  0  # atno 10764 bound_to 10752
  154.0918  135.6649  153.4906 H   0  0  0  0  0  0  0  0  0  0  0  0  # atno 10765 bound_to 10752
  140.8828  133.7642  156.0324 H   0  0  0  0  0  0  0  0  0  0  0  0  # atno 11005 bound_to 11000
  145.6875  139.1632  143.2666 LP  0  0  0  0  0  0  0  0  0  0  0  0  # atno 17320 bound_to 7965
  146.1506  140.6930  142.9324 LP  0  0  0  0  0  0  0  0  0  0  0  0  # atno 17321 bound_to 7965
  140.7788  143.4906  150.9899 LP  0  0  0  0  0  0  0  0  0  0  0  0  # atno 17342 bound_to 10162
  139.8594  143.7334  152.3174 LP  0  0  0  0  0  0  0  0  0  0  0  0  # atno 17343 bound_to 10162
  157.1876  130.6337  149.5693 LP  0  0  0  0  0  0  0  0  0  0  0  0  # atno 17370 bound_to 10713
  155.9764  130.4733  150.6528 LP  0  0  0  0  0  0  0  0  0  0  0  0  # atno 17371 bound_to 10713
  140.8440  134.3033  157.5302 LP  0  0  0  0  0  0  0  0  0  0  0  0  # atno 17394 bound_to 11000
  139.8721  134.9432  156.3845 LP  0  0  0  0  0  0  0  0  0  0  0  0  # atno 17395 bound_to 11000

$$$$
