AV-unprocessed.smi:2013|AV-procd|sdf|8157|dock7
  -GOLD-   2272010403D 1   1.00000     0.00000
 Structure written by MMmdl.
 51 52  0  0  0  0  0  0  0  0  2 V2000
  149.7910  138.0064  156.2123 C   0  0  0  0  0  0  0  0  0  0  0  0
  150.0957  138.4997  154.7850 C   0  0  0  0  0  0  0  0  0  0  0  0
  151.4747  139.1897  154.7803 C   0  0  0  0  0  0  0  0  0  0  0  0
  148.9829  139.4228  154.2085 C   0  0  2  0  0  0  0  0  0  0  0  0
  148.4983  140.4885  155.2325 C   0  0  0  0  0  0  0  0  0  0  0  0
  149.5154  141.4877  155.5424 N   0  0  0  0  0  0  0  0  0  0  0  0
  149.9804  141.7658  156.7689 C   0  0  0  0  0  0  0  0  0  0  0  0
  149.5854  141.1967  157.7871 O   0  0  0  0  0  0  0  0  0  0  0  0
  151.0302  142.8814  156.8529 C   0  0  0  0  0  0  0  0  0  0  0  0
  151.4900  143.1328  158.2246 N   0  0  0  0  0  0  0  0  0  0  0  0
  151.1385  144.3106  158.8595 C   0  0  0  0  0  0  0  0  0  0  0  0
  151.5108  144.6165  160.1212 C   0  0  0  0  0  0  0  0  0  0  0  0
  152.3286  143.6970  160.9018 C   0  0  0  0  0  0  0  0  0  0  0  0
  152.6921  143.9254  162.0565 O   0  0  0  0  0  0  0  0  0  0  0  0
  152.6786  142.5037  160.2298 N   0  0  0  0  0  0  0  0  0  0  0  0
  153.4933  141.5639  160.9716 C   0  0  0  0  0  0  0  0  0  0  0  0
  152.2793  142.1835  158.9109 C   0  0  0  0  0  0  0  0  0  0  0  0
  152.5933  141.1247  158.3624 O   0  0  0  0  0  0  0  0  0  0  0  0
  147.8813  138.5865  153.6343 N   0  3  0  0  0  0  0  0  0  0  0  0
  147.2123  137.6461  154.5681 C   0  0  0  0  0  0  0  0  0  0  0  0
  146.2798  136.7065  153.7866 C   0  0  0  0  0  0  0  0  0  0  0  0
  145.3385  137.4760  153.0469 O   0  0  0  0  0  0  0  0  0  0  0  0
  145.9694  138.3168  152.0879 C   0  0  0  0  0  0  0  0  0  0  0  0
  146.8916  139.3173  152.8045 C   0  0  0  0  0  0  0  0  0  0  0  0
  149.6037  138.8397  156.8900 H   0  0  0  0  0  0  0  0  0  0  0  0
  150.6272  137.4349  156.6164 H   0  0  0  0  0  0  0  0  0  0  0  0
  148.9254  137.3451  156.2399 H   0  0  0  0  0  0  0  0  0  0  0  0
  150.1730  137.6138  154.1537 H   0  0  0  0  0  0  0  0  0  0  0  0
  151.4589  140.1093  155.3663 H   0  0  0  0  0  0  0  0  0  0  0  0
  151.8036  139.4416  153.7722 H   0  0  0  0  0  0  0  0  0  0  0  0
  152.2401  138.5405  155.2065 H   0  0  0  0  0  0  0  0  0  0  0  0
  149.4404  139.9650  153.3792 H   0  0  0  0  0  0  0  0  0  0  0  0
  147.5816  140.9585  154.8724 H   0  0  0  0  0  0  0  0  0  0  0  0
  148.2451  140.0171  156.1812 H   0  0  0  0  0  0  0  0  0  0  0  0
  149.9016  142.0030  154.7646 H   0  0  0  0  0  0  0  0  0  0  0  0
  151.8798  142.6444  156.2097 H   0  0  0  0  0  0  0  0  0  0  0  0
  150.5914  143.7890  156.4360 H   0  0  0  0  0  0  0  0  0  0  0  0
  150.5302  145.0239  158.3225 H   0  0  0  0  0  0  0  0  0  0  0  0
  151.1993  145.5535  160.5591 H   0  0  0  0  0  0  0  0  0  0  0  0
  153.7844  140.7152  160.3538 H   0  0  0  0  0  0  0  0  0  0  0  0
  152.8986  141.2249  161.8213 H   0  0  0  0  0  0  0  0  0  0  0  0
  154.3888  142.0952  161.2991 H   0  0  0  0  0  0  0  0  0  0  0  0
  147.9544  137.0601  155.1102 H   0  0  0  0  0  0  0  0  0  0  0  0
  146.6291  138.1930  155.3088 H   0  0  0  0  0  0  0  0  0  0  0  0
  146.8489  136.0612  153.1151 H   0  0  0  0  0  0  0  0  0  0  0  0
  145.7412  136.0546  154.4745 H   0  0  0  0  0  0  0  0  0  0  0  0
  146.5295  137.7140  151.3712 H   0  0  0  0  0  0  0  0  0  0  0  0
  145.2024  138.8490  151.5249 H   0  0  0  0  0  0  0  0  0  0  0  0
  146.2899  139.9856  153.4189 H   0  0  0  0  0  0  0  0  0  0  0  0
  147.4044  139.9329  152.0648 H   0  0  0  0  0  0  0  0  0  0  0  0
  148.3580  137.9941  152.9692 H   0  0  0  0  0  0  0  0  0  0  0  0
  1  2  1  0  0  0  0
  1 25  1  0  0  0  0
  1 26  1  0  0  0  0
  1 27  1  0  0  0  0
  2  3  1  0  0  0  0
  2  4  1  0  0  0  0
  2 28  1  0  0  0  0
  3 29  1  0  0  0  0
  3 30  1  0  0  0  0
  3 31  1  0  0  0  0
  4  5  1  0  0  0  0
  4 19  1  0  0  0  0
  4 32  1  0  0  0  0
  5  6  1  0  0  0  0
  5 33  1  0  0  0  0
  5 34  1  0  0  0  0
  6  7  1  0  0  0  0
  6 35  1  0  0  0  0
  7  8  2  0  0  0  0
  7  9  1  0  0  0  0
  9 10  1  0  0  0  0
  9 36  1  0  0  0  0
  9 37  1  0  0  0  0
 10 17  1  0  0  0  0
 10 11  1  0  0  0  0
 11 12  2  0  0  0  0
 11 38  1  0  0  0  0
 12 13  1  0  0  0  0
 12 39  1  0  0  0  0
 13 14  2  0  0  0  0
 13 15  1  0  0  0  0
 15 16  1  0  0  0  0
 15 17  1  0  0  0  0
 16 40  1  0  0  0  0
 16 41  1  0  0  0  0
 16 42  1  0  0  0  0
 17 18  2  0  0  0  0
 19 24  1  0  0  0  0
 19 20  1  0  0  0  0
 19 51  1  0  0  0  0
 20 21  1  0  0  0  0
 20 43  1  0  0  0  0
 20 44  1  0  0  0  0
 21 22  1  0  0  0  0
 21 45  1  0  0  0  0
 21 46  1  0  0  0  0
 22 23  1  0  0  0  0
 23 24  1  0  0  0  0
 23 47  1  0  0  0  0
 23 48  1  0  0  0  0
 24 49  1  0  0  0  0
 24 50  1  0  0  0  0
M  CHG  1  19   1
M  END
> <s_m_source_file>
AV-unprocessed.smi

> <i_m_source_file_index>
2013

> <i_lp_mmshare_version>
43012

> <i_f3d_flags>
0

> <s_epik_input>
W0NIMl0xW0NIMl1PW0NIMl1bQ0gyXU4xW0NASF0oW0NIXShbQ0gzXSlbQ0gzXSlbQ0gyXVtOSF1DKD1PKVtDSDJdbjJbY0hdW2NIXWMoPU8pbihbQ0gzXSljMj1P

> <s_epik_cmdline>
J2VwaWtfcHl0aG9uJywgJy1waCcsICc3LjAnLCAnLXRuJywgJzgnLCAnLW1hJywgJzIwMCcsICctbWV0YWxfYmluZGluZycsICctaW1hZScsICc8aW5maWxlLm1hZT4nLCAnLW9tYWUnLCAnPG91dGZpbGUubWFlPic=

> <r_lp_tautomer_probability>
1

> <r_epik_Ionization_Penalty>
0.370738

> <r_epik_Ionization_Penalty_Charging>
0.370738

> <r_epik_Ionization_Penalty_Neutral>
8.1827e-08

> <r_epik_State_Penalty>
0.368162

> <r_epik_Charging_Adjusted_Penalty>
0.7389

> <i_epik_Tot_Q>
1

> <i_epik_Tot_abs_Q>
1

> <r_epik_Metal_State_Penalty>
0.368194

> <b_epik_Metal_Only>
0

> <s_lp_Force_Field>
OPLS_2005

> <r_lp_Energy>
40.4187

> <b_lp_Chiralities_Consistent>
1

> <s_lp_Variant>
AV-unprocessed.smi:2013-1

> <Gold.Version>
5.8.1

> <Gold.Id.Protein>
6NUR|6NUR_protein|mol2

> <Gold.PLP.Fitness>
48.3042

> <Gold.PLP.PLP>
-42.7288

> <Gold.PLP.part.hbond>
-1.0000

> <Gold.PLP.part.metal>
0.0000

> <Gold.PLP.part.buried>
-1.0442

> <Gold.PLP.part.nonpolar>
-41.0140

> <Gold.PLP.part.repulsive>
0.5554

> <Gold.PLP.ligand.clash>
0.0000

> <Gold.PLP.ligand.torsion>
0.6260

> <Gold.PLP.Chemscore.Hbond>
2.0000

> <Gold.PLP.Chemscore.CHOScore>
0.1514

> <Gold.PLP.Chemscore.Metal>
0.0000

> <Gold.Chemscore.Hbonds>
donor molecule, donor type, donor heavy atom, donor atom, acceptor molecule, acceptor atom, score
      L1  H    19    51       P1  7948  1.43

> <Gold.PLP.Chemscore.Internal.Correction>
0.3733

> <Gold.Rescore>
     Score         DG    S(hbond)    S(metal)    S(lipo)     H(rot)  DE(clash)    DE(int)     intcor
     12.25     -13.09       0.99        0.00      86.76       2.28       0.06       0.78       ----

> <Gold.Chemscore.Fitness>
12.2509

> <Gold.Chemscore.DG>
-13.0919

> <Gold.Chemscore.ZeroCoef>
-5.4800

> <Gold.Chemscore.Hbond>
0.9886

> <Gold.Chemscore.Metal>
0.0000

> <Gold.Chemscore.Lipo>
86.7553

> <Gold.Chemscore.Internal_Hbond>
0.0000

> <Gold.Chemscore.DEClash>
0.0633

> <Gold.Chemscore.DEInternal>
0.7777

> <Gold.Chemscore.Rot>
2.2814

> <Gold.Chemscore.Internal.Correction>
   9.000000E+99

> <Gold.Chemscore.Hbonds>
donor molecule, donor type, donor heavy atom, donor atom, acceptor molecule, acceptor atom, score
      L1  H    19    51       P1  7948  0.71

> <Gold.Chemscore.Hbond.Weighted>
-3.3020

> <Gold.Chemscore.Metal.Weighted>
-0.0000

> <Gold.Chemscore.Lipo.Weighted>
-10.1504

> <Gold.Chemscore.Internal_Hbond.Weighted>
0.0000

> <Gold.Chemscore.DEClash.Weighted>
0.0633

> <Gold.Chemscore.DEInternal.Weighted>
0.7777

> <Gold.Chemscore.Rot.Weighted>
5.8404

> <Gold.Chemscore.Internal.Correction.Weighted>
   9.000000E+99

> <Gold.Protein.RotatedTorsions>
[ 6907 6896 6895 6894 ] final   87.65 input  -60.11 | X-H torsion
[ 7974 7965 7964 7962 ] final -148.54 input  175.53 | X-H torsion
[ 8008 7997 7996 7995 ] final   99.10 input   59.86 | X-H torsion
[ 10167 10162 10161 10158 ] final -119.76 input  -65.29 | X-H torsion
[ 10718 10713 10712 10709 ] final  -84.98 input   66.30 | X-H torsion
[ 10763 10752 10751 10750 ] final    2.56 input  -60.55 | X-H torsion
[ 11005 11000 10999 10996 ] final -109.40 input  -57.11 | X-H torsion

> <Gold.Protein.ActiveResidues>
 VAL166  LYS551  ARG553  GLY616  TRP617  ASP618  TYR619  PRO620  LYS621  CYS622 
 ASP623  PHE694  ASN695  SER759  ASP760  ASP761  ALA762  ILE779  LEU786  VAL792 
 PHE793  MET794  SER795  GLU796  ALA797  LYS798  CYS799  TRP800  GLU811  SER814 

> <Gold.Protein.RotatedAtoms>
  152.5414  134.2243  159.8799 H   0  0  0  0  0  0  0  0  0  0  0  0  # atno 6907 bound_to 6896
  151.2218  133.4491  159.2608 H   0  0  0  0  0  0  0  0  0  0  0  0  # atno 6908 bound_to 6896
  151.0798  134.9864  159.8406 H   0  0  0  0  0  0  0  0  0  0  0  0  # atno 6909 bound_to 6896
  144.8023  140.5183  143.5699 H   0  0  0  0  0  0  0  0  0  0  0  0  # atno 7974 bound_to 7965
  156.1071  140.3234  155.8021 H   0  0  0  0  0  0  0  0  0  0  0  0  # atno 8008 bound_to 7997
  155.4737  140.0548  157.2993 H   0  0  0  0  0  0  0  0  0  0  0  0  # atno 8009 bound_to 7997
  154.4735  140.2022  155.9951 H   0  0  0  0  0  0  0  0  0  0  0  0  # atno 8010 bound_to 7997
  140.0432  143.5133  152.2120 H   0  0  0  0  0  0  0  0  0  0  0  0  # atno 10167 bound_to 10162
  156.0001  130.4716  150.4492 H   0  0  0  0  0  0  0  0  0  0  0  0  # atno 10718 bound_to 10713
  153.2941  135.6951  153.7265 H   0  0  0  0  0  0  0  0  0  0  0  0  # atno 10763 bound_to 10752
  153.6205  135.3428  155.3010 H   0  0  0  0  0  0  0  0  0  0  0  0  # atno 10764 bound_to 10752
  154.8532  135.4385  154.2032 H   0  0  0  0  0  0  0  0  0  0  0  0  # atno 10765 bound_to 10752
  141.0850  133.9155  157.2206 H   0  0  0  0  0  0  0  0  0  0  0  0  # atno 11005 bound_to 11000
  145.5523  139.1477  143.3387 LP  0  0  0  0  0  0  0  0  0  0  0  0  # atno 17320 bound_to 7965
  146.2307  140.5661  142.8976 LP  0  0  0  0  0  0  0  0  0  0  0  0  # atno 17321 bound_to 7965
  139.6000  144.7579  151.3194 LP  0  0  0  0  0  0  0  0  0  0  0  0  # atno 17342 bound_to 10162
  140.7251  143.7027  150.7832 LP  0  0  0  0  0  0  0  0  0  0  0  0  # atno 17343 bound_to 10162
  157.2526  131.0550  151.2369 LP  0  0  0  0  0  0  0  0  0  0  0  0  # atno 17370 bound_to 10713
  157.3513  130.7083  149.6442 LP  0  0  0  0  0  0  0  0  0  0  0  0  # atno 17371 bound_to 10713
  139.9667  135.0140  156.9405 LP  0  0  0  0  0  0  0  0  0  0  0  0  # atno 17394 bound_to 11000
  140.5384  134.0744  155.7334 LP  0  0  0  0  0  0  0  0  0  0  0  0  # atno 17395 bound_to 11000

$$$$
