#       Name:                AV-unprocessed.smi:2036
#       Creating user name   scv26
#       Creation time:       Fri Mar 27 10:54:18 2020


#       File generated by GOLD software.
#

@<TRIPOS>MOLECULE
AV-unprocessed.smi:2036
    49    50     1
SMALL
NO_CHARGES


@<TRIPOS>ATOM
      1 ****        -7.4227   0.0743  -0.8623 C.3            1 S1                 0.0000
      2 ****        -6.0536   0.4238  -0.7598 O.3            1 S1                 0.0000
      3 ****        -5.7939   1.2718   0.3481 C.3            1 S1                 0.0000
      4 ****        -4.3044   1.6120   0.3777 C.2            1 S1                 0.0000
      5 ****        -3.9571   2.7902   0.4436 O.2            1 S1                 0.0000
      6 ****        -3.4637   0.5616   0.3262 N.am           1 S1                 0.0000
      7 ****        -2.0419   0.5484   0.3268 C.ar           1 S1                 0.0000
      8 ****        -1.2270   1.6287   0.7426 C.ar           1 S1                 0.0000
      9 ****         0.1728   1.4808   0.7016 C.ar           1 S1                 0.0000
     10 ****         0.7163   0.2587   0.2564 C.ar           1 S1                 0.0000
     11 ****         2.1096   0.1113   0.2089 N.3            1 S1                 0.0000
     12 ****         2.6281  -0.0357  -1.1448 C.3            1 S1                 0.0000
     13 ****         4.1681  -0.0537  -1.1222 C.3            1 S1                 0.0000
     14 ****         4.7599  -0.3073  -2.5123 C.3            1 S1                 0.0000
     15 ****         4.6094  -1.0921  -0.2499 O.3            1 S1                 0.0000
     16 ****         4.1619  -0.9100   1.0921 C.3            1 S1                 0.0000
     17 ****         4.7508  -2.0324   1.9525 C.3            1 S1                 0.0000
     18 ****         2.6214  -0.9112   1.1124 C.3            1 S1                 0.0000
     19 ****        -0.0564  -0.7839  -0.1295 N.ar           1 S1                 0.0000
     20 ****        -1.3972  -0.6351  -0.0892 C.ar           1 S1                 0.0000
     21 ****        -7.5711  -0.5811  -1.7205 H              1 S1                 0.0000
     22 ****        -8.0453   0.9587  -1.0029 H              1 S1                 0.0000
     23 ****        -7.7617  -0.4551   0.0289 H              1 S1                 0.0000
     24 ****        -6.3808   2.1888   0.2705 H              1 S1                 0.0000
     25 ****        -6.0682   0.7769   1.2809 H              1 S1                 0.0000
     26 ****        -3.9025  -0.3406   0.2100 H              1 S1                 0.0000
     27 ****        -1.6383   2.5589   1.1004 H              1 S1                 0.0000
     28 ****         0.8156   2.2925   1.0098 H              1 S1                 0.0000
     29 ****         2.2511  -0.9606  -1.5840 H              1 S1                 0.0000
     30 ****         2.2703   0.7861  -1.7664 H              1 S1                 0.0000
     31 ****         4.5418   0.9039  -0.7552 H              1 S1                 0.0000
     32 ****         4.4573   0.4696  -3.2147 H              1 S1                 0.0000
     33 ****         4.4308  -1.2670  -2.9117 H              1 S1                 0.0000
     34 ****         5.8495  -0.3173  -2.4762 H              1 S1                 0.0000
     35 ****         4.5339   0.0457   1.4662 H              1 S1                 0.0000
     36 ****         4.4457  -1.9292   2.9940 H              1 S1                 0.0000
     37 ****         5.8404  -2.0149   1.9226 H              1 S1                 0.0000
     38 ****         4.4235  -3.0118   1.6024 H              1 S1                 0.0000
     39 ****         2.2581  -0.7224   2.1234 H              1 S1                 0.0000
     40 ****         2.2453  -1.8902   0.8114 H              1 S1                 0.0000
     41 ****        -1.9748  -1.4913  -0.4061 H              1 S1                 0.0000
     42 ****        -5.7791   0.8963  -1.5973 LP             1 S1                 0.0000
     43 ****        -5.5153  -0.4127  -0.6573 LP             1 S1                 0.0000
     44 ****        -4.6467   3.5136   0.4772 LP             1 S1                 0.0000
     45 ****        -2.9852   3.0246   0.4635 LP             1 S1                 0.0000
     46 ****         2.4669   0.9801   0.5517 LP             1 S1                 0.0000
     47 ****         5.6092  -1.1103  -0.2542 LP             1 S1                 0.0000
     48 ****         4.2586  -1.9652  -0.5886 LP             1 S1                 0.0000
     49 ****         0.3556  -1.6419  -0.4364 LP             1 S1                 0.0000
@<TRIPOS>BOND
    1    1    2 1     
    2    1   21 1     
    3    1   22 1     
    4    1   23 1     
    5    2    3 1     
    6    3    4 1     
    7    3   24 1     
    8    3   25 1     
    9    4    5 2     
   10    4    6 am    
   11    6    7 1     
   12    6   26 1     
   13    7   20 ar    
   14    7    8 ar    
   15    8    9 ar    
   16    8   27 1     
   17    9   10 ar    
   18    9   28 1     
   19   10   11 1     
   20   10   19 ar    
   21   11   18 1     
   22   11   12 1     
   23   12   13 1     
   24   12   29 1     
   25   12   30 1     
   26   13   14 1     
   27   13   15 1     
   28   13   31 1     
   29   14   32 1     
   30   14   33 1     
   31   14   34 1     
   32   15   16 1     
   33   16   17 1     
   34   16   18 1     
   35   16   35 1     
   36   17   36 1     
   37   17   37 1     
   38   17   38 1     
   39   18   39 1     
   40   18   40 1     
   41   19   20 ar    
   42   20   41 1     
   43    2   42 1     
   44    2   43 1     
   45    5   44 1     
   46    5   45 1     
   47   11   46 1     
   48   15   47 1     
   49   15   48 1     
   50   19   49 1     
@<TRIPOS>SUBSTRUCTURE
      1 S1             1
@<TRIPOS>SET
LONE_PAIRS      STATIC     ATOMS    <user>   **** ""
8 42 43 44 45 46 47 48 49
DONOR_HYDROGENS      STATIC     ATOMS    <user>   **** ""
1 26
ATOM$BLUE        STATIC     ATOMS    COLORGROUP SYSTEM
8 42 43 44 45 46 47 48 49
ATOM$RED        STATIC     ATOMS    COLORGROUP SYSTEM
1 26
