AV-unprocessed.smi:132|AV-procd|sdf|1164|dock10
  -GOLD-   2262018303D 1   1.00000     0.00000
 Structure written by MMmdl.
 41 44  0  0  0  0  0  0  0  0  1 V2000
  156.2029  136.0747  159.2703 O   0  0  0  0  0  0  0  0  0  0  0  0
  156.3187  136.4392  158.0989 C   0  0  0  0  0  0  0  0  0  0  0  0
  157.5727  136.3715  157.3564 C   0  0  0  0  0  0  0  0  0  0  0  0
  158.6821  135.9194  157.9650 F   0  0  0  0  0  0  0  0  0  0  0  0
  157.6391  136.7587  156.0643 C   0  0  0  0  0  0  0  0  0  0  0  0
  156.5464  137.2340  155.3605 N   0  0  0  0  0  0  0  0  0  0  0  0
  156.6803  137.6490  153.9140 C   0  0  1  0  0  0  0  0  0  0  0  0
  158.1508  137.6427  153.4806 C   0  0  0  0  0  0  0  0  0  0  0  0
  158.0587  137.0511  152.0906 C   0  0  0  0  0  0  0  0  0  0  0  0
  156.9093  136.0644  152.2519 C   0  0  0  0  0  0  0  0  0  0  0  0
  155.9908  136.7359  153.1085 O   0  0  0  0  0  0  0  0  0  0  0  0
  155.2948  137.3527  156.0037 C   0  0  0  0  0  0  0  0  0  0  0  0
  154.3093  137.7819  155.3997 O   0  0  0  0  0  0  0  0  0  0  0  0
  155.2251  136.9552  157.3610 N   0  0  0  0  0  0  0  0  0  0  0  0
  153.9390  137.0338  158.0369 C   0  0  0  0  0  0  0  0  0  0  0  0
  153.9355  138.1100  159.0805 C   0  0  0  0  0  0  0  0  0  0  0  0
  154.3993  138.0180  160.3275 N   0  0  0  0  0  0  0  0  0  0  0  0
  154.1828  139.2508  160.8995 N   0  0  0  0  0  0  0  0  0  0  0  0
  153.6016  140.0027  159.9585 C   0  0  0  0  0  0  0  0  0  0  0  0
  153.1580  141.3923  160.0518 C   0  0  0  0  0  0  0  0  0  0  0  0
  152.7800  142.1120  158.8950 C   0  0  0  0  0  0  0  0  0  0  0  0
  152.3538  143.4507  158.9970 C   0  0  0  0  0  0  0  0  0  0  0  0
  152.3054  144.0824  160.2545 C   0  0  0  0  0  0  0  0  0  0  0  0
  151.7831  145.7223  160.3790 Cl  0  0  0  0  0  0  0  0  0  0  0  0
  152.6843  143.3738  161.4104 C   0  0  0  0  0  0  0  0  0  0  0  0
  153.1086  142.0346  161.3093 C   0  0  0  0  0  0  0  0  0  0  0  0
  153.4269  139.3357  158.7862 O   0  0  0  0  0  0  0  0  0  0  0  0
  158.5943  136.6904  155.5674 H   0  0  0  0  0  0  0  0  0  0  0  0
  156.1967  138.6196  153.7991 H   0  0  0  0  0  0  0  0  0  0  0  0
  158.5756  138.6465  153.5074 H   0  0  0  0  0  0  0  0  0  0  0  0
  158.7330  136.9897  154.1326 H   0  0  0  0  0  0  0  0  0  0  0  0
  157.7923  137.8244  151.3691 H   0  0  0  0  0  0  0  0  0  0  0  0
  158.9852  136.5786  151.7633 H   0  0  0  0  0  0  0  0  0  0  0  0
  156.4466  135.7994  151.3011 H   0  0  0  0  0  0  0  0  0  0  0  0
  157.2558  135.1472  152.7290 H   0  0  0  0  0  0  0  0  0  0  0  0
  153.1735  137.2185  157.2812 H   0  0  0  0  0  0  0  0  0  0  0  0
  153.7005  136.0663  158.4794 H   0  0  0  0  0  0  0  0  0  0  0  0
  152.8082  141.6454  157.9211 H   0  0  0  0  0  0  0  0  0  0  0  0
  152.0635  143.9920  158.1085 H   0  0  0  0  0  0  0  0  0  0  0  0
  152.6501  143.8557  162.3765 H   0  0  0  0  0  0  0  0  0  0  0  0
  153.3967  141.5053  162.2058 H   0  0  0  0  0  0  0  0  0  0  0  0
  1  2  2  0  0  0  0
  2 14  1  0  0  0  0
  2  3  1  0  0  0  0
  3  4  1  0  0  0  0
  3  5  2  0  0  0  0
  5  6  1  0  0  0  0
  5 28  1  0  0  0  0
  6  7  1  0  0  0  0
  6 12  1  0  0  0  0
  7 11  1  0  0  0  0
  7  8  1  0  0  0  0
  7 29  1  0  0  0  0
  8  9  1  0  0  0  0
  8 30  1  0  0  0  0
  8 31  1  0  0  0  0
  9 10  1  0  0  0  0
  9 32  1  0  0  0  0
  9 33  1  0  0  0  0
 10 11  1  0  0  0  0
 10 34  1  0  0  0  0
 10 35  1  0  0  0  0
 12 13  2  0  0  0  0
 12 14  1  0  0  0  0
 14 15  1  0  0  0  0
 15 16  1  0  0  0  0
 15 36  1  0  0  0  0
 15 37  1  0  0  0  0
 16 27  1  0  0  0  0
 16 17  2  0  0  0  0
 17 18  1  0  0  0  0
 18 19  2  0  0  0  0
 19 20  1  0  0  0  0
 19 27  1  0  0  0  0
 20 26  1  0  0  0  0
 20 21  2  0  0  0  0
 21 22  1  0  0  0  0
 21 38  1  0  0  0  0
 22 23  2  0  0  0  0
 22 39  1  0  0  0  0
 23 24  1  0  0  0  0
 23 25  1  0  0  0  0
 25 26  2  0  0  0  0
 25 40  1  0  0  0  0
 26 41  1  0  0  0  0
M  END
> <s_m_source_file>
AV-unprocessed.smi

> <i_m_source_file_index>
132

> <i_lp_mmshare_version>
43012

> <i_f3d_flags>
0

> <s_epik_input>
TzFbQ0gyXVtDSDJdW0NIMl1bQ0BIXTFuKFtjSF1jKEYpYzI9TyljKD1PKW4yW0NIMl1jM25uYyhvMyktYzRbY0hdW2NIXWMoQ2wpW2NIXVtjSF00

> <s_epik_cmdline>
J2VwaWtfcHl0aG9uJywgJy1waCcsICc3LjAnLCAnLXRuJywgJzgnLCAnLW1hJywgJzIwMCcsICctbWV0YWxfYmluZGluZycsICctaW1hZScsICc8aW5maWxlLm1hZT4nLCAnLW9tYWUnLCAnPG91dGZpbGUubWFlPic=

> <r_lp_tautomer_probability>
1

> <r_epik_Ionization_Penalty>
2.5553e-09

> <r_epik_Ionization_Penalty_Charging>
2.54231e-09

> <r_epik_Ionization_Penalty_Neutral>
1.29923e-11

> <r_epik_State_Penalty>
-0

> <r_epik_Charging_Adjusted_Penalty>
2.54231e-09

> <i_epik_Tot_Q>
0

> <i_epik_Tot_abs_Q>
0

> <r_epik_Metal_State_Penalty>
-0

> <b_epik_Metal_Only>
0

> <s_epik_Chemistry_Notes>
This compound contains an acetal/aminal-like group ( X-CH(R)-Y where X, Y are N, S, or O) that may be acid/base labile, releasing an aldehyde.

> <s_lp_Force_Field>
OPLS_2005

> <r_lp_Energy>
32.8563

> <b_lp_Chiralities_Consistent>
1

> <s_lp_Variant>
AV-unprocessed.smi:132-2

> <Gold.Version>
5.8.1

> <Gold.Id.Protein>
6NUR|6NUR_protein|mol2

> <Gold.PLP.Fitness>
49.8281

> <Gold.PLP.PLP>
-45.8223

> <Gold.PLP.part.hbond>
-3.7435

> <Gold.PLP.part.metal>
0.0000

> <Gold.PLP.part.buried>
-1.0289

> <Gold.PLP.part.nonpolar>
-40.2137

> <Gold.PLP.part.repulsive>
0.0328

> <Gold.PLP.ligand.clash>
0.0000

> <Gold.PLP.ligand.torsion>
0.6310

> <Gold.PLP.Chemscore.Hbond>
1.7475

> <Gold.PLP.Chemscore.CHOScore>
0.0000

> <Gold.PLP.Chemscore.Metal>
0.0000

> <Gold.Chemscore.Hbonds>
donor molecule, donor type, donor heavy atom, donor atom, acceptor molecule, acceptor atom, score
      P1  H  7997  8009       L1    27  0.54
      P1  H 10752 10765       L1    11  1.00

> <Gold.PLP.Chemscore.Internal.Correction>
0.0253

> <Gold.Rescore>
     Score         DG    S(hbond)    S(metal)    S(lipo)     H(rot)  DE(clash)    DE(int)     intcor
     16.17     -19.98       1.42        0.00     120.52       1.70       0.28       3.52       ----

> <Gold.Chemscore.Fitness>
16.1741

> <Gold.Chemscore.DG>
-19.9825

> <Gold.Chemscore.ZeroCoef>
-5.4800

> <Gold.Chemscore.Hbond>
1.4218

> <Gold.Chemscore.Metal>
0.0000

> <Gold.Chemscore.Lipo>
120.5194

> <Gold.Chemscore.Internal_Hbond>
0.0000

> <Gold.Chemscore.DEClash>
0.2840

> <Gold.Chemscore.DEInternal>
3.5245

> <Gold.Chemscore.Rot>
1.6980

> <Gold.Chemscore.Internal.Correction>
   9.000000E+99

> <Gold.Chemscore.Hbonds>
donor molecule, donor type, donor heavy atom, donor atom, acceptor molecule, acceptor atom, score
      P1  H  7997  8009       L1    27  0.13
      P1  H 10752 10765       L1    11  0.81

> <Gold.Chemscore.Hbond.Weighted>
-4.7487

> <Gold.Chemscore.Metal.Weighted>
-0.0000

> <Gold.Chemscore.Lipo.Weighted>
-14.1008

> <Gold.Chemscore.Internal_Hbond.Weighted>
0.0000

> <Gold.Chemscore.DEClash.Weighted>
0.2840

> <Gold.Chemscore.DEInternal.Weighted>
3.5245

> <Gold.Chemscore.Rot.Weighted>
4.3469

> <Gold.Chemscore.Internal.Correction.Weighted>
   9.000000E+99

> <Gold.Protein.RotatedTorsions>
[ 6907 6896 6895 6894 ] final   24.39 input  -60.11 | X-H torsion
[ 7974 7965 7964 7962 ] final   97.59 input  175.53 | X-H torsion
[ 8008 7997 7996 7995 ] final  133.90 input   59.86 | X-H torsion
[ 10167 10162 10161 10158 ] final  126.69 input  -65.29 | X-H torsion
[ 10718 10713 10712 10709 ] final  -96.12 input   66.30 | X-H torsion
[ 10763 10752 10751 10750 ] final   34.75 input  -60.55 | X-H torsion
[ 11005 11000 10999 10996 ] final   98.72 input  -57.11 | X-H torsion

> <Gold.Protein.ActiveResidues>
 VAL166  LYS551  ARG553  GLY616  TRP617  ASP618  TYR619  PRO620  LYS621  CYS622 
 ASP623  PHE694  ASN695  SER759  ASP760  ASP761  ALA762  ILE779  LEU786  VAL792 
 PHE793  MET794  SER795  GLU796  ALA797  LYS798  CYS799  TRP800  GLU811  SER814 

> <Gold.Protein.RotatedAtoms>
  151.9568  135.0143  160.0545 H   0  0  0  0  0  0  0  0  0  0  0  0  # atno 6907 bound_to 6896
  152.1904  133.4764  159.5013 H   0  0  0  0  0  0  0  0  0  0  0  0  # atno 6908 bound_to 6896
  150.6934  134.1637  159.4229 H   0  0  0  0  0  0  0  0  0  0  0  0  # atno 6909 bound_to 6896
  145.4235  139.2318  143.3183 H   0  0  0  0  0  0  0  0  0  0  0  0  # atno 7974 bound_to 7965
  156.2995  140.2509  156.3329 H   0  0  0  0  0  0  0  0  0  0  0  0  # atno 8008 bound_to 7997
  154.9128  140.0403  157.1974 H   0  0  0  0  0  0  0  0  0  0  0  0  # atno 8009 bound_to 7997
  154.8388  140.2887  155.5677 H   0  0  0  0  0  0  0  0  0  0  0  0  # atno 8010 bound_to 7997
  139.5617  144.6886  151.4023 H   0  0  0  0  0  0  0  0  0  0  0  0  # atno 10167 bound_to 10162
  156.0056  130.5138  150.6178 H   0  0  0  0  0  0  0  0  0  0  0  0  # atno 10718 bound_to 10713
  153.0150  135.6352  154.1718 H   0  0  0  0  0  0  0  0  0  0  0  0  # atno 10763 bound_to 10752
  154.1457  135.2832  155.3150 H   0  0  0  0  0  0  0  0  0  0  0  0  # atno 10764 bound_to 10752
  154.6091  135.5562  153.7515 H   0  0  0  0  0  0  0  0  0  0  0  0  # atno 10765 bound_to 10752
  139.8772  134.9062  156.4498 H   0  0  0  0  0  0  0  0  0  0  0  0  # atno 11005 bound_to 11000
  146.2644  140.4962  142.8840 LP  0  0  0  0  0  0  0  0  0  0  0  0  # atno 17320 bound_to 7965
  144.8230  140.6581  143.6341 LP  0  0  0  0  0  0  0  0  0  0  0  0  # atno 17321 bound_to 7965
  140.6898  143.7889  150.7238 LP  0  0  0  0  0  0  0  0  0  0  0  0  # atno 17342 bound_to 10162
  140.1367  143.4477  152.2219 LP  0  0  0  0  0  0  0  0  0  0  0  0  # atno 17343 bound_to 10162
  157.3999  131.0808  151.1318 LP  0  0  0  0  0  0  0  0  0  0  0  0  # atno 17370 bound_to 10713
  157.1982  130.6383  149.5729 LP  0  0  0  0  0  0  0  0  0  0  0  0  # atno 17371 bound_to 10713
  140.8940  133.7828  155.9604 LP  0  0  0  0  0  0  0  0  0  0  0  0  # atno 17394 bound_to 11000
  140.8723  134.2711  157.5185 LP  0  0  0  0  0  0  0  0  0  0  0  0  # atno 17395 bound_to 11000

$$$$
