AV-unprocessed.smi:3029|AV-procd|sdf|11531|dock5
  -GOLD-   2272016473D 1   1.00000     0.00000
 Structure written by MMmdl.
 41 42  0  0  0  0  0  0  0  0  3 V2000
  150.5738  143.8558  160.0708 O   0  0  0  0  0  0  0  0  0  0  0  0
  151.4657  143.0083  160.0288 C   0  0  0  0  0  0  0  0  0  0  0  0
  152.6531  143.0866  160.8857 C   0  0  0  0  0  0  0  0  0  0  0  0
  153.6155  142.1441  160.8506 C   0  0  0  0  0  0  0  0  0  0  0  0
  153.5019  141.0098  159.9541 C   0  0  0  0  0  0  0  0  0  0  0  0
  154.5195  139.9821  159.9231 N   0  3  0  0  0  0  0  0  0  0  0  0
  155.1954  139.7826  160.9280 O   0  0  0  0  0  0  0  0  0  0  0  0
  154.6759  139.3402  158.8894 O   0  5  0  0  0  0  0  0  0  0  0  0
  152.4153  140.9456  159.1597 C   0  0  0  0  0  0  0  0  0  0  0  0
  151.4124  141.9340  159.1839 N   0  0  0  0  0  0  0  0  0  0  0  0
  150.2733  141.7509  158.2756 C   0  0  0  0  0  0  0  0  0  0  0  0
  150.7408  141.2641  156.8955 C   0  0  0  0  0  0  0  0  0  0  0  0
  149.5902  140.8454  156.1102 N   0  0  0  0  0  0  0  0  0  0  0  0
  149.9045  140.7600  154.6862 C   0  0  2  0  0  0  0  0  0  0  0  0
  148.8434  141.5603  153.9013 C   0  0  0  0  0  0  0  0  0  0  0  0
  147.4795  140.8494  153.8473 C   0  0  0  0  0  0  0  0  0  0  0  0
  147.6115  139.4153  153.3183 C   0  0  0  0  0  0  0  0  0  0  0  0
  148.6228  138.6081  154.1458 C   0  0  0  0  0  0  0  0  0  0  0  0
  150.0064  139.2928  154.1803 C   0  0  2  0  0  0  0  0  0  0  0  0
  151.0807  138.4314  154.8841 C   0  0  0  0  0  0  0  0  0  0  0  0
  152.3004  138.9538  154.7520 F   0  0  0  0  0  0  0  0  0  0  0  0
  150.8001  138.3457  156.1847 F   0  0  0  0  0  0  0  0  0  0  0  0
  151.0771  137.1961  154.3827 F   0  0  0  0  0  0  0  0  0  0  0  0
  152.7580  143.9231  161.5612 H   0  0  0  0  0  0  0  0  0  0  0  0
  154.4727  142.2463  161.4997 H   0  0  0  0  0  0  0  0  0  0  0  0
  152.2334  140.1400  158.4626 H   0  0  0  0  0  0  0  0  0  0  0  0
  149.5572  141.0453  158.7015 H   0  0  0  0  0  0  0  0  0  0  0  0
  149.7208  142.6863  158.1711 H   0  0  0  0  0  0  0  0  0  0  0  0
  151.2680  142.0633  156.3730 H   0  0  0  0  0  0  0  0  0  0  0  0
  151.4371  140.4338  157.0086 H   0  0  0  0  0  0  0  0  0  0  0  0
  148.8372  141.5040  156.2504 H   0  0  0  0  0  0  0  0  0  0  0  0
  150.8631  141.2502  154.5080 H   0  0  0  0  0  0  0  0  0  0  0  0
  148.7292  142.5603  154.3223 H   0  0  0  0  0  0  0  0  0  0  0  0
  149.2000  141.7061  152.8809 H   0  0  0  0  0  0  0  0  0  0  0  0
  147.0348  140.8302  154.8431 H   0  0  0  0  0  0  0  0  0  0  0  0
  146.7927  141.4149  153.2171 H   0  0  0  0  0  0  0  0  0  0  0  0
  146.6392  138.9221  153.3382 H   0  0  0  0  0  0  0  0  0  0  0  0
  147.9259  139.4371  152.2739 H   0  0  0  0  0  0  0  0  0  0  0  0
  148.2471  138.4793  155.1615 H   0  0  0  0  0  0  0  0  0  0  0  0
  148.7109  137.6068  153.7238 H   0  0  0  0  0  0  0  0  0  0  0  0
  150.3314  139.3657  153.1409 H   0  0  0  0  0  0  0  0  0  0  0  0
  1  2  2  0  0  0  0
  2 10  1  0  0  0  0
  2  3  1  0  0  0  0
  3  4  2  0  0  0  0
  3 24  1  0  0  0  0
  4  5  1  0  0  0  0
  4 25  1  0  0  0  0
  5  6  1  0  0  0  0
  5  9  2  0  0  0  0
  6  7  2  0  0  0  0
  6  8  1  0  0  0  0
  9 10  1  0  0  0  0
  9 26  1  0  0  0  0
 10 11  1  0  0  0  0
 11 12  1  0  0  0  0
 11 27  1  0  0  0  0
 11 28  1  0  0  0  0
 12 13  1  0  0  0  0
 12 29  1  0  0  0  0
 12 30  1  0  0  0  0
 13 14  1  0  0  0  0
 13 31  1  0  0  0  0
 14 19  1  0  0  0  0
 14 15  1  0  0  0  0
 14 32  1  0  0  0  0
 15 16  1  0  0  0  0
 15 33  1  0  0  0  0
 15 34  1  0  0  0  0
 16 17  1  0  0  0  0
 16 35  1  0  0  0  0
 16 36  1  0  0  0  0
 17 18  1  0  0  0  0
 17 37  1  0  0  0  0
 17 38  1  0  0  0  0
 18 19  1  0  0  0  0
 18 39  1  0  0  0  0
 18 40  1  0  0  0  0
 19 20  1  0  0  0  0
 19 41  1  0  0  0  0
 20 21  1  0  0  0  0
 20 22  1  0  0  0  0
 20 23  1  0  0  0  0
M  CHG  1   6   1
M  CHG  1   8  -1
M  END
> <s_m_source_file>
AV-unprocessed.smi

> <i_m_source_file_index>
3029

> <i_lp_mmshare_version>
43012

> <i_f3d_flags>
0

> <s_epik_input>
Tz1jMVtjSF1bY0hdYyhbTitdKD1PKVtPLV0pW2NIXW4xW0NIMl1bQ0gyXVtOSF1bQ0BASF0yW0NIMl1bQ0gyXVtDSDJdW0NIMl1bQ0BIXTJDKEYpKEYpRg==

> <s_epik_cmdline>
J2VwaWtfcHl0aG9uJywgJy1waCcsICc3LjAnLCAnLXRuJywgJzgnLCAnLW1hJywgJzIwMCcsICctbWV0YWxfYmluZGluZycsICctaW1hZScsICc8aW5maWxlLm1hZT4nLCAnLW9tYWUnLCAnPG91dGZpbGUubWFlPic=

> <r_lp_tautomer_probability>
1

> <r_epik_Ionization_Penalty>
1.65565

> <r_epik_Ionization_Penalty_Charging>
3.32684e-10

> <r_epik_Ionization_Penalty_Neutral>
1.65565

> <r_epik_State_Penalty>
1.75811

> <r_epik_Charging_Adjusted_Penalty>
1.75811

> <i_epik_Tot_Q>
0

> <i_epik_Tot_abs_Q>
2

> <r_epik_Metal_State_Penalty>
1.75811

> <b_epik_Metal_Only>
0

> <s_lp_Force_Field>
OPLS_2005

> <r_lp_Energy>
35.9342

> <b_lp_Chiralities_Consistent>
1

> <s_lp_Variant>
AV-unprocessed.smi:3029-7

> <Gold.Version>
5.8.1

> <Gold.Id.Protein>
6NUR|6NUR_protein|mol2

> <Gold.PLP.Fitness>
43.4828

> <Gold.PLP.PLP>
-43.1391

> <Gold.PLP.part.hbond>
-1.0000

> <Gold.PLP.part.metal>
0.0000

> <Gold.PLP.part.buried>
-2.8509

> <Gold.PLP.part.nonpolar>
-40.0314

> <Gold.PLP.part.repulsive>
0.1155

> <Gold.PLP.ligand.clash>
0.0000

> <Gold.PLP.ligand.torsion>
1.4102

> <Gold.PLP.Chemscore.Hbond>
1.0000

> <Gold.PLP.Chemscore.CHOScore>
0.0000

> <Gold.PLP.Chemscore.Metal>
0.0000

> <Gold.Chemscore.Hbonds>
donor molecule, donor type, donor heavy atom, donor atom, acceptor molecule, acceptor atom, score
      P1  H  7997  8008       L1     8  1.00

> <Gold.PLP.Chemscore.Internal.Correction>
0.1642

> <Gold.Rescore>
     Score         DG    S(hbond)    S(metal)    S(lipo)     H(rot)  DE(clash)    DE(int)     intcor
     12.11     -15.19       0.99        0.00      95.46       1.86       0.02       3.06       ----

> <Gold.Chemscore.Fitness>
12.1085

> <Gold.Chemscore.DG>
-15.1902

> <Gold.Chemscore.ZeroCoef>
-5.4800

> <Gold.Chemscore.Hbond>
0.9878

> <Gold.Chemscore.Metal>
0.0000

> <Gold.Chemscore.Lipo>
95.4567

> <Gold.Chemscore.Internal_Hbond>
0.0000

> <Gold.Chemscore.DEClash>
0.0226

> <Gold.Chemscore.DEInternal>
3.0591

> <Gold.Chemscore.Rot>
1.8584

> <Gold.Chemscore.Internal.Correction>
   9.000000E+99

> <Gold.Chemscore.Hbonds>
donor molecule, donor type, donor heavy atom, donor atom, acceptor molecule, acceptor atom, score
      P1  H  7997  8008       L1     8  0.96

> <Gold.Chemscore.Hbond.Weighted>
-3.2994

> <Gold.Chemscore.Metal.Weighted>
-0.0000

> <Gold.Chemscore.Lipo.Weighted>
-11.1684

> <Gold.Chemscore.Internal_Hbond.Weighted>
0.0000

> <Gold.Chemscore.DEClash.Weighted>
0.0226

> <Gold.Chemscore.DEInternal.Weighted>
3.0591

> <Gold.Chemscore.Rot.Weighted>
4.7576

> <Gold.Chemscore.Internal.Correction.Weighted>
   9.000000E+99

> <Gold.Protein.RotatedTorsions>
[ 6907 6896 6895 6894 ] final  123.42 input  -60.11 | X-H torsion
[ 7974 7965 7964 7962 ] final  126.26 input  175.53 | X-H torsion
[ 8008 7997 7996 7995 ] final -137.41 input   59.86 | X-H torsion
[ 10167 10162 10161 10158 ] final   70.78 input  -65.29 | X-H torsion
[ 10718 10713 10712 10709 ] final -161.45 input   66.30 | X-H torsion
[ 10763 10752 10751 10750 ] final  136.23 input  -60.55 | X-H torsion
[ 11005 11000 10999 10996 ] final   35.47 input  -57.11 | X-H torsion

> <Gold.Protein.ActiveResidues>
 VAL166  LYS551  ARG553  GLY616  TRP617  ASP618  TYR619  PRO620  LYS621  CYS622 
 ASP623  PHE694  ASN695  SER759  ASP760  ASP761  ALA762  ILE779  LEU786  VAL792 
 PHE793  MET794  SER795  GLU796  ALA797  LYS798  CYS799  TRP800  GLU811  SER814 

> <Gold.Protein.RotatedAtoms>
  152.4163  133.7043  159.6441 H   0  0  0  0  0  0  0  0  0  0  0  0  # atno 6907 bound_to 6896
  150.8040  133.8534  159.3220 H   0  0  0  0  0  0  0  0  0  0  0  0  # atno 6908 bound_to 6896
  151.6263  135.1029  160.0164 H   0  0  0  0  0  0  0  0  0  0  0  0  # atno 6909 bound_to 6896
  145.0637  139.3784  143.4992 H   0  0  0  0  0  0  0  0  0  0  0  0  # atno 7974 bound_to 7965
  155.4113  140.0512  157.3031 H   0  0  0  0  0  0  0  0  0  0  0  0  # atno 8008 bound_to 7997
  154.4945  140.2133  155.9437 H   0  0  0  0  0  0  0  0  0  0  0  0  # atno 8009 bound_to 7997
  156.1387  140.3158  155.8466 H   0  0  0  0  0  0  0  0  0  0  0  0  # atno 8010 bound_to 7997
  140.0532  144.5294  150.7348 H   0  0  0  0  0  0  0  0  0  0  0  0  # atno 10167 bound_to 10162
  156.5964  130.8792  151.2903 H   0  0  0  0  0  0  0  0  0  0  0  0  # atno 10718 bound_to 10713
  153.8530  135.3077  155.3433 H   0  0  0  0  0  0  0  0  0  0  0  0  # atno 10763 bound_to 10752
  154.7883  135.4797  153.9997 H   0  0  0  0  0  0  0  0  0  0  0  0  # atno 10764 bound_to 10752
  153.1507  135.6842  153.8980 H   0  0  0  0  0  0  0  0  0  0  0  0  # atno 10765 bound_to 10752
  140.2423  134.3400  155.7921 H   0  0  0  0  0  0  0  0  0  0  0  0  # atno 11005 bound_to 11000
  146.3525  140.0348  142.8647 LP  0  0  0  0  0  0  0  0  0  0  0  0  # atno 17320 bound_to 7965
  145.1377  140.9553  143.4507 LP  0  0  0  0  0  0  0  0  0  0  0  0  # atno 17321 bound_to 7965
  140.7207  143.2586  151.4288 LP  0  0  0  0  0  0  0  0  0  0  0  0  # atno 17342 bound_to 10162
  139.5940  144.1438  152.2122 LP  0  0  0  0  0  0  0  0  0  0  0  0  # atno 17343 bound_to 10162
  157.7291  130.9666  150.1770 LP  0  0  0  0  0  0  0  0  0  0  0  0  # atno 17370 bound_to 10713
  156.2506  130.3700  149.8237 LP  0  0  0  0  0  0  0  0  0  0  0  0  # atno 17371 bound_to 10713
  141.2209  133.7306  156.8905 LP  0  0  0  0  0  0  0  0  0  0  0  0  # atno 17394 bound_to 11000
  140.1641  134.9145  157.2751 LP  0  0  0  0  0  0  0  0  0  0  0  0  # atno 17395 bound_to 11000

$$$$
