AV-unprocessed.smi:739|AV-procd|sdf|3544|dock3
  -GOLD-   22720 0533D 1   1.00000     0.00000
 Structure written by MMmdl.
 33 35  0  0  0  0  0  0  0  0  2 V2000
  152.4199  137.7469  154.9483 O   0  0  0  0  0  0  0  0  0  0  0  0
  151.7083  138.9531  155.1295 C   0  0  2  0  0  0  0  0  0  0  0  0
  152.0908  139.5324  156.5061 C   0  0  0  0  0  0  0  0  0  0  0  0
  151.5139  140.8624  156.7390 N   0  0  0  0  0  0  0  0  0  0  0  0
  150.6922  141.6091  155.9521 C   0  0  0  0  0  0  0  0  0  0  0  0
  150.4440  142.7761  156.6090 N   0  3  0  0  0  0  0  0  0  0  0  0
  151.1147  142.7735  157.8345 C   0  0  0  0  0  0  0  0  0  0  0  0
  151.1711  143.7265  158.8464 C   0  0  0  0  0  0  0  0  0  0  0  0
  151.9554  143.4091  159.9753 C   0  0  0  0  0  0  0  0  0  0  0  0
  152.0443  144.3013  160.9899 F   0  0  0  0  0  0  0  0  0  0  0  0
  152.6477  142.1826  160.0668 C   0  0  0  0  0  0  0  0  0  0  0  0
  153.3904  141.9180  161.1676 F   0  0  0  0  0  0  0  0  0  0  0  0
  152.5829  141.2242  159.0339 C   0  0  0  0  0  0  0  0  0  0  0  0
  151.8043  141.5465  157.9237 C   0  0  0  0  0  0  0  0  0  0  0  0
  150.2050  138.7626  154.9815 C   0  0  0  0  0  0  0  0  0  0  0  0
  149.4706  139.5305  154.0507 C   0  0  0  0  0  0  0  0  0  0  0  0
  148.0826  139.3380  153.9097 C   0  0  0  0  0  0  0  0  0  0  0  0
  147.4207  138.3765  154.6968 C   0  0  0  0  0  0  0  0  0  0  0  0
  146.0865  138.1907  154.5603 F   0  0  0  0  0  0  0  0  0  0  0  0
  148.1479  137.6060  155.6243 C   0  0  0  0  0  0  0  0  0  0  0  0
  149.5362  137.7979  155.7657 C   0  0  0  0  0  0  0  0  0  0  0  0
  152.9253  137.5763  155.7286 H   0  0  0  0  0  0  0  0  0  0  0  0
  152.0516  139.6316  154.3476 H   0  0  0  0  0  0  0  0  0  0  0  0
  151.7494  138.8771  157.3088 H   0  0  0  0  0  0  0  0  0  0  0  0
  153.1741  139.6100  156.6108 H   0  0  0  0  0  0  0  0  0  0  0  0
  150.3120  141.3286  154.9801 H   0  0  0  0  0  0  0  0  0  0  0  0
  150.6439  144.6667  158.7801 H   0  0  0  0  0  0  0  0  0  0  0  0
  153.1167  140.2888  159.1134 H   0  0  0  0  0  0  0  0  0  0  0  0
  149.9698  140.2683  153.4397 H   0  0  0  0  0  0  0  0  0  0  0  0
  147.5259  139.9280  153.1963 H   0  0  0  0  0  0  0  0  0  0  0  0
  147.6409  136.8668  156.2270 H   0  0  0  0  0  0  0  0  0  0  0  0
  150.0858  137.1984  156.4764 H   0  0  0  0  0  0  0  0  0  0  0  0
  149.8591  143.5174  156.2448 H   0  0  0  0  0  0  0  0  0  0  0  0
  1  2  1  0  0  0  0
  1 22  1  0  0  0  0
  2  3  1  0  0  0  0
  2 15  1  0  0  0  0
  2 23  1  0  0  0  0
  3  4  1  0  0  0  0
  3 24  1  0  0  0  0
  3 25  1  0  0  0  0
  4 14  1  0  0  0  0
  4  5  1  0  0  0  0
  5  6  2  0  0  0  0
  5 26  1  0  0  0  0
  6  7  1  0  0  0  0
  6 33  1  0  0  0  0
  7 14  2  0  0  0  0
  7  8  1  0  0  0  0
  8  9  2  0  0  0  0
  8 27  1  0  0  0  0
  9 10  1  0  0  0  0
  9 11  1  0  0  0  0
 11 12  1  0  0  0  0
 11 13  2  0  0  0  0
 13 14  1  0  0  0  0
 13 28  1  0  0  0  0
 15 21  1  0  0  0  0
 15 16  2  0  0  0  0
 16 17  1  0  0  0  0
 16 29  1  0  0  0  0
 17 18  2  0  0  0  0
 17 30  1  0  0  0  0
 18 19  1  0  0  0  0
 18 20  1  0  0  0  0
 20 21  2  0  0  0  0
 20 31  1  0  0  0  0
 21 32  1  0  0  0  0
M  CHG  1   6   1
M  END
> <s_m_source_file>
AV-unprocessed.smi

> <i_m_source_file_index>
739

> <i_lp_mmshare_version>
43012

> <i_f3d_flags>
0

> <s_epik_input>
W2NIXTFbY0hdYyhGKVtjSF1bY0hdYzFbQ0BIXShbT0hdKVtDSDJdbihbY0hdbjIpYyhjMjMpW2NIXWMoRiljKEYpW2NIXTM=

> <s_epik_cmdline>
J2VwaWtfcHl0aG9uJywgJy1waCcsICc3LjAnLCAnLXRuJywgJzgnLCAnLW1hJywgJzIwMCcsICctbWV0YWxfYmluZGluZycsICctaW1hZScsICc8aW5maWxlLm1hZT4nLCAnLW9tYWUnLCAnPG91dGZpbGUubWFlPic=

> <r_epik_Ionization_Penalty>
2.16139

> <r_epik_Ionization_Penalty_Charging>
2.16138

> <r_epik_Ionization_Penalty_Neutral>
1.79538e-06

> <r_epik_State_Penalty>
2.30198

> <r_epik_Charging_Adjusted_Penalty>
4.46337

> <i_epik_Tot_Q>
1

> <i_epik_Tot_abs_Q>
1

> <r_epik_Metal_State_Penalty>
6.38245

> <b_epik_Metal_Only>
0

> <s_lp_Force_Field>
OPLS_2005

> <r_lp_Energy>
16.88

> <b_lp_Chiralities_Consistent>
1

> <s_lp_Variant>
AV-unprocessed.smi:739-3

> <Gold.Version>
5.8.1

> <Gold.Id.Protein>
6NUR|6NUR_protein|mol2

> <Gold.PLP.Fitness>
49.4495

> <Gold.PLP.PLP>
-43.3193

> <Gold.PLP.part.hbond>
-2.0000

> <Gold.PLP.part.metal>
0.0000

> <Gold.PLP.part.buried>
-4.0014

> <Gold.PLP.part.nonpolar>
-35.6496

> <Gold.PLP.part.repulsive>
0.0640

> <Gold.PLP.ligand.clash>
0.0000

> <Gold.PLP.ligand.torsion>
0.0826

> <Gold.PLP.Chemscore.Hbond>
2.0935

> <Gold.PLP.Chemscore.CHOScore>
0.0000

> <Gold.PLP.Chemscore.Metal>
0.0000

> <Gold.Chemscore.Hbonds>
donor molecule, donor type, donor heavy atom, donor atom, acceptor molecule, acceptor atom, score
      L1  H     6    33       P1  8028  2.00
      P1  H 10752 10763       L1     1  0.10

> <Gold.PLP.Chemscore.Internal.Correction>
0.0150

> <Gold.Rescore>
     Score         DG    S(hbond)    S(metal)    S(lipo)     H(rot)  DE(clash)    DE(int)     intcor
     14.36     -14.40       1.00        0.00      93.91       2.12       0.00       0.04       ----

> <Gold.Chemscore.Fitness>
14.3594

> <Gold.Chemscore.DG>
-14.3966

> <Gold.Chemscore.ZeroCoef>
-5.4800

> <Gold.Chemscore.Hbond>
1.0029

> <Gold.Chemscore.Metal>
0.0000

> <Gold.Chemscore.Lipo>
93.9138

> <Gold.Chemscore.Internal_Hbond>
0.0000

> <Gold.Chemscore.DEClash>
0.0015

> <Gold.Chemscore.DEInternal>
0.0357

> <Gold.Chemscore.Rot>
2.1176

> <Gold.Chemscore.Internal.Correction>
   9.000000E+99

> <Gold.Chemscore.Hbonds>
donor molecule, donor type, donor heavy atom, donor atom, acceptor molecule, acceptor atom, score
      L1  H     6    33       P1  8028  1.00

> <Gold.Chemscore.Hbond.Weighted>
-3.3498

> <Gold.Chemscore.Metal.Weighted>
-0.0000

> <Gold.Chemscore.Lipo.Weighted>
-10.9879

> <Gold.Chemscore.Internal_Hbond.Weighted>
0.0000

> <Gold.Chemscore.DEClash.Weighted>
0.0015

> <Gold.Chemscore.DEInternal.Weighted>
0.0357

> <Gold.Chemscore.Rot.Weighted>
5.4211

> <Gold.Chemscore.Internal.Correction.Weighted>
   9.000000E+99

> <Gold.Protein.RotatedTorsions>
[ 6907 6896 6895 6894 ] final  154.19 input  -60.11 | X-H torsion
[ 7974 7965 7964 7962 ] final   60.80 input  175.53 | X-H torsion
[ 8008 7997 7996 7995 ] final   79.41 input   59.86 | X-H torsion
[ 10167 10162 10161 10158 ] final  -43.89 input  -65.29 | X-H torsion
[ 10718 10713 10712 10709 ] final -157.42 input   66.30 | X-H torsion
[ 10763 10752 10751 10750 ] final   34.34 input  -60.55 | X-H torsion
[ 11005 11000 10999 10996 ] final  -17.91 input  -57.11 | X-H torsion

> <Gold.Protein.ActiveResidues>
 VAL166  LYS551  ARG553  GLY616  TRP617  ASP618  TYR619  PRO620  LYS621  CYS622 
 ASP623  PHE694  ASN695  SER759  ASP760  ASP761  ALA762  ILE779  LEU786  VAL792 
 PHE793  MET794  SER795  GLU796  ALA797  LYS798  CYS799  TRP800  GLU811  SER814 

> <Gold.Protein.RotatedAtoms>
  152.0620  133.4066  159.4421 H   0  0  0  0  0  0  0  0  0  0  0  0  # atno 6907 bound_to 6896
  150.6866  134.3189  159.4787 H   0  0  0  0  0  0  0  0  0  0  0  0  # atno 6908 bound_to 6896
  152.1011  134.9340  160.0620 H   0  0  0  0  0  0  0  0  0  0  0  0  # atno 6909 bound_to 6896
  145.8920  139.3518  143.0644 H   0  0  0  0  0  0  0  0  0  0  0  0  # atno 7974 bound_to 7965
  155.8693  140.3450  155.5810 H   0  0  0  0  0  0  0  0  0  0  0  0  # atno 8008 bound_to 7997
  155.7846  140.0863  157.2060 H   0  0  0  0  0  0  0  0  0  0  0  0  # atno 8009 bound_to 7997
  154.4016  140.1494  156.3079 H   0  0  0  0  0  0  0  0  0  0  0  0  # atno 8010 bound_to 7997
  140.6917  143.2959  151.3416 H   0  0  0  0  0  0  0  0  0  0  0  0  # atno 10167 bound_to 10162
  156.5401  130.8559  151.2746 H   0  0  0  0  0  0  0  0  0  0  0  0  # atno 10718 bound_to 10713
  153.0169  135.6363  154.1653 H   0  0  0  0  0  0  0  0  0  0  0  0  # atno 10763 bound_to 10752
  154.1391  135.2835  155.3167 H   0  0  0  0  0  0  0  0  0  0  0  0  # atno 10764 bound_to 10752
  154.6137  135.5548  153.7562 H   0  0  0  0  0  0  0  0  0  0  0  0  # atno 10765 bound_to 10752
  140.8215  133.8064  155.9665 H   0  0  0  0  0  0  0  0  0  0  0  0  # atno 11005 bound_to 11000
  145.8897  140.9311  143.0558 LP  0  0  0  0  0  0  0  0  0  0  0  0  # atno 17320 bound_to 7965
  144.6731  140.0889  143.7466 LP  0  0  0  0  0  0  0  0  0  0  0  0  # atno 17321 bound_to 7965
  139.6327  144.0689  152.2490 LP  0  0  0  0  0  0  0  0  0  0  0  0  # atno 17342 bound_to 10162
  140.0169  144.6182  150.7599 LP  0  0  0  0  0  0  0  0  0  0  0  0  # atno 17343 bound_to 10162
  157.7407  130.9855  150.2393 LP  0  0  0  0  0  0  0  0  0  0  0  0  # atno 17370 bound_to 10713
  156.2979  130.3754  149.7778 LP  0  0  0  0  0  0  0  0  0  0  0  0  # atno 17371 bound_to 10713
  140.9093  134.2280  157.4995 LP  0  0  0  0  0  0  0  0  0  0  0  0  # atno 17394 bound_to 11000
  139.8708  134.9743  156.4840 LP  0  0  0  0  0  0  0  0  0  0  0  0  # atno 17395 bound_to 11000

$$$$
