AV-unprocessed.smi:922|AV-procd|sdf|4173|dock7
  -GOLD-   22720 2 83D 1   1.00000     0.00000
 Structure written by MMmdl.
 32 33  0  0  0  0  0  0  0  0  2 V2000
  148.2058  144.1136  159.7536 C   0  0  0  0  0  0  0  0  0  0  0  0
  149.3999  143.6140  158.9345 C   0  0  2  0  0  0  0  0  0  0  0  0
  149.2176  142.1515  158.4877 C   0  0  0  0  0  0  0  0  0  0  0  0
  150.4174  141.6735  157.8140 N   0  0  0  0  0  0  0  0  0  0  0  0
  150.4483  141.0752  156.5533 C   0  0  0  0  0  0  0  0  0  0  0  0
  149.6969  141.6973  155.4349 C   0  0  0  0  0  0  0  0  0  0  0  0
  149.6797  141.2096  154.2585 N   0  0  0  0  0  0  0  0  0  0  0  0
  150.4109  140.0040  153.9443 N   0  5  0  0  0  0  0  0  0  0  0  0
  151.1215  139.3595  154.9181 C   0  0  0  0  0  0  0  0  0  0  0  0
  151.7473  138.3255  154.6896 O   0  0  0  0  0  0  0  0  0  0  0  0
  151.1306  139.9289  156.2724 C   0  0  0  0  0  0  0  0  0  0  0  0
  151.9938  139.0495  157.4926 Cl  0  0  0  0  0  0  0  0  0  0  0  0
  151.5832  141.7880  158.6821 C   0  0  0  0  0  0  0  0  0  0  0  0
  151.7842  143.2466  159.1528 C   0  0  0  0  0  0  0  0  0  0  0  0
  152.8333  143.2885  160.2744 C   0  0  0  0  0  0  0  0  0  0  0  0
  152.2349  144.1699  158.0003 C   0  0  0  0  0  0  0  0  0  0  0  0
  150.5693  143.7189  159.7481 O   0  0  0  0  0  0  0  0  0  0  0  0
  147.2855  144.0700  159.1706 H   0  0  0  0  0  0  0  0  0  0  0  0
  148.3533  145.1481  160.0650 H   0  0  0  0  0  0  0  0  0  0  0  0
  148.0631  143.5120  160.6517 H   0  0  0  0  0  0  0  0  0  0  0  0
  149.5025  144.2621  158.0652 H   0  0  0  0  0  0  0  0  0  0  0  0
  149.0326  141.5169  159.3554 H   0  0  0  0  0  0  0  0  0  0  0  0
  148.3445  142.0484  157.8435 H   0  0  0  0  0  0  0  0  0  0  0  0
  149.1530  142.6138  155.6777 H   0  0  0  0  0  0  0  0  0  0  0  0
  151.4389  141.1284  159.5388 H   0  0  0  0  0  0  0  0  0  0  0  0
  152.4812  141.4421  158.1687 H   0  0  0  0  0  0  0  0  0  0  0  0
  153.8013  142.9271  159.9255 H   0  0  0  0  0  0  0  0  0  0  0  0
  152.5331  142.6676  161.1191 H   0  0  0  0  0  0  0  0  0  0  0  0
  152.9726  144.3036  160.6474 H   0  0  0  0  0  0  0  0  0  0  0  0
  153.2137  143.8720  157.6234 H   0  0  0  0  0  0  0  0  0  0  0  0
  152.3108  145.2052  158.3331 H   0  0  0  0  0  0  0  0  0  0  0  0
  151.5510  144.1449  157.1528 H   0  0  0  0  0  0  0  0  0  0  0  0
  1  2  1  0  0  0  0
  1 18  1  0  0  0  0
  1 19  1  0  0  0  0
  1 20  1  0  0  0  0
  2 17  1  0  0  0  0
  2  3  1  0  0  0  0
  2 21  1  0  0  0  0
  3  4  1  0  0  0  0
  3 22  1  0  0  0  0
  3 23  1  0  0  0  0
  4  5  1  0  0  0  0
  4 13  1  0  0  0  0
  5 11  2  0  0  0  0
  5  6  1  0  0  0  0
  6  7  2  0  0  0  0
  6 24  1  0  0  0  0
  7  8  1  0  0  0  0
  8  9  1  0  0  0  0
  9 10  2  0  0  0  0
  9 11  1  0  0  0  0
 11 12  1  0  0  0  0
 13 14  1  0  0  0  0
 13 25  1  0  0  0  0
 13 26  1  0  0  0  0
 14 15  1  0  0  0  0
 14 16  1  0  0  0  0
 14 17  1  0  0  0  0
 15 27  1  0  0  0  0
 15 28  1  0  0  0  0
 15 29  1  0  0  0  0
 16 30  1  0  0  0  0
 16 31  1  0  0  0  0
 16 32  1  0  0  0  0
M  CHG  1   8  -1
M  END
> <s_m_source_file>
AV-unprocessed.smi

> <i_m_source_file_index>
922

> <i_lp_mmshare_version>
43012

> <i_f3d_flags>
0

> <s_epik_input>
W0NIM11bQ0BASF0oTzEpW0NIMl1OKFtDSDJdQzEoW0NIM10pW0NIM10pYzJbY0hdbltuSF1jKD1PKWMyQ2w=

> <s_epik_cmdline>
J2VwaWtfcHl0aG9uJywgJy1waCcsICc3LjAnLCAnLXRuJywgJzgnLCAnLW1hJywgJzIwMCcsICctbWV0YWxfYmluZGluZycsICctaW1hZScsICc8aW5maWxlLm1hZT4nLCAnLW9tYWUnLCAnPG91dGZpbGUubWFlPic=

> <r_lp_tautomer_probability>
1

> <r_epik_Ionization_Penalty>
2.48086

> <r_epik_Ionization_Penalty_Charging>
0.00187014

> <r_epik_Ionization_Penalty_Neutral>
2.47899

> <r_epik_State_Penalty>
0.0455822

> <r_epik_Charging_Adjusted_Penalty>
0.0474524

> <i_epik_Tot_Q>
-1

> <i_epik_Tot_abs_Q>
1

> <r_epik_Metal_State_Penalty>
0.000768086

> <b_epik_Metal_Only>
0

> <s_lp_Force_Field>
OPLS_2005

> <r_lp_Energy>
41.3096

> <b_lp_Chiralities_Consistent>
1

> <s_lp_Variant>
AV-unprocessed.smi:922-1

> <Gold.Version>
5.8.1

> <Gold.Id.Protein>
6NUR|6NUR_protein|mol2

> <Gold.PLP.Fitness>
33.4502

> <Gold.PLP.PLP>
-28.9544

> <Gold.PLP.part.hbond>
-2.9441

> <Gold.PLP.part.metal>
0.0000

> <Gold.PLP.part.buried>
0.2390

> <Gold.PLP.part.nonpolar>
-27.6476

> <Gold.PLP.part.repulsive>
2.0364

> <Gold.PLP.ligand.clash>
0.0000

> <Gold.PLP.ligand.torsion>
0.7215

> <Gold.PLP.Chemscore.Hbond>
0.6610

> <Gold.PLP.Chemscore.CHOScore>
1.0000

> <Gold.PLP.Chemscore.Metal>
0.0000

> <Gold.Chemscore.Hbonds>
donor molecule, donor type, donor heavy atom, donor atom, acceptor molecule, acceptor atom, score
      P1  H  7989  7998       L1     8  0.38
      P1  H  8011  8017       L1     7  0.29
      L1  C     6    24       P1  8028  1.00

> <Gold.PLP.Chemscore.Internal.Correction>
0.9558

> <Gold.Rescore>
     Score         DG    S(hbond)    S(metal)    S(lipo)     H(rot)  DE(clash)    DE(int)     intcor
     12.99     -15.37       0.03        0.00      83.69       0.00       0.67       1.72       ----

> <Gold.Chemscore.Fitness>
12.9868

> <Gold.Chemscore.DG>
-15.3733

> <Gold.Chemscore.ZeroCoef>
-5.4800

> <Gold.Chemscore.Hbond>
0.0303

> <Gold.Chemscore.Metal>
0.0000

> <Gold.Chemscore.Lipo>
83.6916

> <Gold.Chemscore.Internal_Hbond>
0.0000

> <Gold.Chemscore.DEClash>
0.6667

> <Gold.Chemscore.DEInternal>
1.7198

> <Gold.Chemscore.Rot>
0.0000

> <Gold.Chemscore.Internal.Correction>
   9.000000E+99

> <Gold.Chemscore.Hbonds>
donor molecule, donor type, donor heavy atom, donor atom, acceptor molecule, acceptor atom, score
      P1  H  8011  8017       L1     7  0.11

> <Gold.Chemscore.Hbond.Weighted>
-0.1013

> <Gold.Chemscore.Metal.Weighted>
-0.0000

> <Gold.Chemscore.Lipo.Weighted>
-9.7919

> <Gold.Chemscore.Internal_Hbond.Weighted>
0.0000

> <Gold.Chemscore.DEClash.Weighted>
0.6667

> <Gold.Chemscore.DEInternal.Weighted>
1.7198

> <Gold.Chemscore.Rot.Weighted>
0.0000

> <Gold.Chemscore.Internal.Correction.Weighted>
   9.000000E+99

> <Gold.Protein.RotatedTorsions>
[ 6907 6896 6895 6894 ] final   52.46 input  -60.11 | X-H torsion
[ 7974 7965 7964 7962 ] final -152.69 input  175.53 | X-H torsion
[ 8008 7997 7996 7995 ] final -146.13 input   59.86 | X-H torsion
[ 10167 10162 10161 10158 ] final -106.62 input  -65.29 | X-H torsion
[ 10718 10713 10712 10709 ] final   91.80 input   66.30 | X-H torsion
[ 10763 10752 10751 10750 ] final   -1.15 input  -60.55 | X-H torsion
[ 11005 11000 10999 10996 ] final  143.88 input  -57.11 | X-H torsion

> <Gold.Protein.ActiveResidues>
 VAL166  LYS551  ARG553  GLY616  TRP617  ASP618  TYR619  PRO620  LYS621  CYS622 
 ASP623  PHE694  ASN695  SER759  ASP760  ASP761  ALA762  ILE779  LEU786  VAL792 
 PHE793  MET794  SER795  GLU796  ALA797  LYS798  CYS799  TRP800  GLU811  SER814 

> <Gold.Protein.RotatedAtoms>
  152.3235  134.7350  160.0307 H   0  0  0  0  0  0  0  0  0  0  0  0  # atno 6907 bound_to 6896
  151.7791  133.3342  159.3474 H   0  0  0  0  0  0  0  0  0  0  0  0  # atno 6908 bound_to 6896
  150.7383  134.5879  159.6017 H   0  0  0  0  0  0  0  0  0  0  0  0  # atno 6909 bound_to 6896
  144.7781  140.4628  143.5859 H   0  0  0  0  0  0  0  0  0  0  0  0  # atno 7974 bound_to 7965
  155.5544  140.0619  157.2843 H   0  0  0  0  0  0  0  0  0  0  0  0  # atno 8008 bound_to 7997
  154.4410  140.1896  156.0764 H   0  0  0  0  0  0  0  0  0  0  0  0  # atno 8009 bound_to 7997
  156.0492  140.3286  155.7336 H   0  0  0  0  0  0  0  0  0  0  0  0  # atno 8010 bound_to 7997
  140.1858  143.3931  152.1246 H   0  0  0  0  0  0  0  0  0  0  0  0  # atno 10167 bound_to 10162
  157.6960  131.0420  150.3784 H   0  0  0  0  0  0  0  0  0  0  0  0  # atno 10718 bound_to 10713
  153.3412  135.6980  153.6866 H   0  0  0  0  0  0  0  0  0  0  0  0  # atno 10763 bound_to 10752
  153.5630  135.3531  155.2807 H   0  0  0  0  0  0  0  0  0  0  0  0  # atno 10764 bound_to 10752
  154.8637  135.4254  154.2625 H   0  0  0  0  0  0  0  0  0  0  0  0  # atno 10765 bound_to 10752
  140.0588  134.9216  157.1148 H   0  0  0  0  0  0  0  0  0  0  0  0  # atno 11005 bound_to 11000
  145.6129  139.1515  143.3066 LP  0  0  0  0  0  0  0  0  0  0  0  0  # atno 17320 bound_to 7965
  146.1972  140.6244  142.9118 LP  0  0  0  0  0  0  0  0  0  0  0  0  # atno 17321 bound_to 7965
  139.5277  144.7122  151.5170 LP  0  0  0  0  0  0  0  0  0  0  0  0  # atno 17342 bound_to 10162
  140.6489  143.8737  150.6765 LP  0  0  0  0  0  0  0  0  0  0  0  0  # atno 17343 bound_to 10162
  156.4201  130.3951  149.6831 LP  0  0  0  0  0  0  0  0  0  0  0  0  # atno 17370 bound_to 10713
  156.4085  130.7710  151.2722 LP  0  0  0  0  0  0  0  0  0  0  0  0  # atno 17371 bound_to 10713
  140.3802  134.2296  155.7171 LP  0  0  0  0  0  0  0  0  0  0  0  0  # atno 17394 bound_to 11000
  141.1964  133.8083  157.0673 LP  0  0  0  0  0  0  0  0  0  0  0  0  # atno 17395 bound_to 11000

$$$$
