AV-unprocessed.smi:3125|AV-procd|sdf|11907|dock6
  -GOLD-   2272017293D 1   1.00000     0.00000
 Structure written by MMmdl.
 29 30  0  0  0  0  0  0  0  0  3 V2000
  151.6462  144.6504  159.6517 C   0  0  0  0  0  0  0  0  0  0  0  0
  152.2505  143.3216  159.7663 N   0  0  0  0  0  0  0  0  0  0  0  0
  153.1130  142.9079  160.7492 C   0  0  0  0  0  0  0  0  0  0  0  0
  153.4320  141.6054  160.4703 C   0  0  0  0  0  0  0  0  0  0  0  0
  152.7504  141.2771  159.3306 N   0  3  0  0  0  0  0  0  0  0  0  0
  152.0277  142.3187  158.8977 C   0  0  0  0  0  0  0  0  0  0  0  0
  151.1516  142.3212  157.6747 C   0  0  1  0  0  0  0  0  0  0  0  0
  151.3335  141.0404  156.8381 C   0  0  0  0  0  0  0  0  0  0  0  0
  150.4166  141.0701  155.6053 C   0  0  0  0  0  0  0  0  0  0  0  0
  148.9520  141.2999  156.0135 C   0  0  0  0  0  0  0  0  0  0  0  0
  148.8209  142.5352  156.8164 N   0  3  0  0  0  0  0  0  0  0  0  0
  149.6646  142.5279  158.0326 C   0  0  0  0  0  0  0  0  0  0  0  0
  151.9898  145.2801  160.4733 H   0  0  0  0  0  0  0  0  0  0  0  0
  150.5607  144.5594  159.6977 H   0  0  0  0  0  0  0  0  0  0  0  0
  151.9434  145.1022  158.7048 H   0  0  0  0  0  0  0  0  0  0  0  0
  153.4301  143.5551  161.5547 H   0  0  0  0  0  0  0  0  0  0  0  0
  154.0764  140.9065  160.9838 H   0  0  0  0  0  0  0  0  0  0  0  0
  151.4686  143.1661  157.0637 H   0  0  0  0  0  0  0  0  0  0  0  0
  152.3733  140.9389  156.5242 H   0  0  0  0  0  0  0  0  0  0  0  0
  151.1022  140.1609  157.4405 H   0  0  0  0  0  0  0  0  0  0  0  0
  150.7372  141.8639  154.9292 H   0  0  0  0  0  0  0  0  0  0  0  0
  150.5076  140.1360  155.0499 H   0  0  0  0  0  0  0  0  0  0  0  0
  148.3203  141.3814  155.1286 H   0  0  0  0  0  0  0  0  0  0  0  0
  148.5813  140.4530  156.5928 H   0  0  0  0  0  0  0  0  0  0  0  0
  149.0896  143.3206  156.2407 H   0  0  0  0  0  0  0  0  0  0  0  0
  149.3152  141.7388  158.7002 H   0  0  0  0  0  0  0  0  0  0  0  0
  149.5288  143.4736  158.5585 H   0  0  0  0  0  0  0  0  0  0  0  0
  147.8539  142.6478  157.0873 H   0  0  0  0  0  0  0  0  0  0  0  0
  152.7899  140.3735  158.8757 H   0  0  0  0  0  0  0  0  0  0  0  0
  1  2  1  0  0  0  0
  1 13  1  0  0  0  0
  1 14  1  0  0  0  0
  1 15  1  0  0  0  0
  2  6  1  0  0  0  0
  2  3  1  0  0  0  0
  3  4  2  0  0  0  0
  3 16  1  0  0  0  0
  4  5  1  0  0  0  0
  4 17  1  0  0  0  0
  5  6  2  0  0  0  0
  5 29  1  0  0  0  0
  6  7  1  0  0  0  0
  7 12  1  0  0  0  0
  7  8  1  0  0  0  0
  7 18  1  0  0  0  0
  8  9  1  0  0  0  0
  8 19  1  0  0  0  0
  8 20  1  0  0  0  0
  9 10  1  0  0  0  0
  9 21  1  0  0  0  0
  9 22  1  0  0  0  0
 10 11  1  0  0  0  0
 10 23  1  0  0  0  0
 10 24  1  0  0  0  0
 11 12  1  0  0  0  0
 11 25  1  0  0  0  0
 11 28  1  0  0  0  0
 12 26  1  0  0  0  0
 12 27  1  0  0  0  0
M  CHG  1   5   1
M  CHG  1  11   1
M  END
> <s_m_source_file>
AV-unprocessed.smi

> <i_m_source_file_index>
3125

> <i_lp_mmshare_version>
43012

> <i_f3d_flags>
0

> <s_epik_input>
W0NIM11uMVtjSF1bY0hdbmMxW0NAQEhdMltDSDJdW0NIMl1bQ0gyXVtOSF1bQ0gyXTI=

> <s_epik_cmdline>
J2VwaWtfcHl0aG9uJywgJy1waCcsICc3LjAnLCAnLXRuJywgJzgnLCAnLW1hJywgJzIwMCcsICctbWV0YWxfYmluZGluZycsICctaW1hZScsICc8aW5maWxlLm1hZT4nLCAnLW9tYWUnLCAnPG91dGZpbGUubWFlPic=

> <r_lp_tautomer_probability>
1

> <r_epik_Ionization_Penalty>
0.803551

> <r_epik_Ionization_Penalty_Charging>
0.000747377

> <r_epik_Ionization_Penalty_Neutral>
0.802804

> <r_epik_State_Penalty>
0.360941

> <r_epik_Charging_Adjusted_Penalty>
0.361688

> <i_epik_Tot_Q>
2

> <i_epik_Tot_abs_Q>
2

> <r_epik_Metal_State_Penalty>
3.98724

> <b_epik_Metal_Only>
0

> <s_lp_Force_Field>
OPLS_2005

> <r_lp_Energy>
24.5109

> <b_lp_Chiralities_Consistent>
1

> <s_lp_Variant>
AV-unprocessed.smi:3125-2

> <Gold.Version>
5.8.1

> <Gold.Id.Protein>
6NUR|6NUR_protein|mol2

> <Gold.PLP.Fitness>
34.9225

> <Gold.PLP.PLP>
-29.0652

> <Gold.PLP.part.hbond>
-0.8133

> <Gold.PLP.part.metal>
0.0000

> <Gold.PLP.part.buried>
-3.0563

> <Gold.PLP.part.nonpolar>
-24.8593

> <Gold.PLP.part.repulsive>
0.1101

> <Gold.PLP.ligand.clash>
0.0000

> <Gold.PLP.ligand.torsion>
0.0822

> <Gold.PLP.Chemscore.Hbond>
2.0000

> <Gold.PLP.Chemscore.CHOScore>
0.0000

> <Gold.PLP.Chemscore.Metal>
0.0000

> <Gold.Chemscore.Hbonds>
donor molecule, donor type, donor heavy atom, donor atom, acceptor molecule, acceptor atom, score
      L1  H    11    25       P1  8028  1.98

> <Gold.PLP.Chemscore.Internal.Correction>
0.0218

> <Gold.Rescore>
     Score         DG    S(hbond)    S(metal)    S(lipo)     H(rot)  DE(clash)    DE(int)     intcor
     13.78     -13.89       0.99        0.00      65.56       1.00       0.06       0.05       ----

> <Gold.Chemscore.Fitness>
13.7752

> <Gold.Chemscore.DG>
-13.8884

> <Gold.Chemscore.ZeroCoef>
-5.4800

> <Gold.Chemscore.Hbond>
0.9875

> <Gold.Chemscore.Metal>
0.0000

> <Gold.Chemscore.Lipo>
65.5559

> <Gold.Chemscore.Internal_Hbond>
0.0000

> <Gold.Chemscore.DEClash>
0.0595

> <Gold.Chemscore.DEInternal>
0.0537

> <Gold.Chemscore.Rot>
1.0000

> <Gold.Chemscore.Internal.Correction>
   9.000000E+99

> <Gold.Chemscore.Hbonds>
donor molecule, donor type, donor heavy atom, donor atom, acceptor molecule, acceptor atom, score
      L1  H    11    25       P1  8028  0.90

> <Gold.Chemscore.Hbond.Weighted>
-3.2983

> <Gold.Chemscore.Metal.Weighted>
-0.0000

> <Gold.Chemscore.Lipo.Weighted>
-7.6700

> <Gold.Chemscore.Internal_Hbond.Weighted>
0.0000

> <Gold.Chemscore.DEClash.Weighted>
0.0595

> <Gold.Chemscore.DEInternal.Weighted>
0.0537

> <Gold.Chemscore.Rot.Weighted>
2.5600

> <Gold.Chemscore.Internal.Correction.Weighted>
   9.000000E+99

> <Gold.Protein.RotatedTorsions>
[ 6907 6896 6895 6894 ] final   21.84 input  -60.11 | X-H torsion
[ 7974 7965 7964 7962 ] final   99.22 input  175.53 | X-H torsion
[ 8008 7997 7996 7995 ] final  140.24 input   59.86 | X-H torsion
[ 10167 10162 10161 10158 ] final   49.99 input  -65.29 | X-H torsion
[ 10718 10713 10712 10709 ] final -127.78 input   66.30 | X-H torsion
[ 10763 10752 10751 10750 ] final   22.28 input  -60.55 | X-H torsion
[ 11005 11000 10999 10996 ] final  -49.36 input  -57.11 | X-H torsion

> <Gold.Protein.ActiveResidues>
 VAL166  LYS551  ARG553  GLY616  TRP617  ASP618  TYR619  PRO620  LYS621  CYS622 
 ASP623  PHE694  ASN695  SER759  ASP760  ASP761  ALA762  ILE779  LEU786  VAL792 
 PHE793  MET794  SER795  GLU796  ALA797  LYS798  CYS799  TRP800  GLU811  SER814 

> <Gold.Protein.RotatedAtoms>
  151.9180  135.0310  160.0519 H   0  0  0  0  0  0  0  0  0  0  0  0  # atno 6907 bound_to 6896
  152.2223  133.4989  159.5178 H   0  0  0  0  0  0  0  0  0  0  0  0  # atno 6908 bound_to 6896
  150.7003  134.1242  159.4088 H   0  0  0  0  0  0  0  0  0  0  0  0  # atno 6909 bound_to 6896
  145.4017  139.2346  143.3296 H   0  0  0  0  0  0  0  0  0  0  0  0  # atno 7974 bound_to 7965
  156.2981  140.2346  156.4369 H   0  0  0  0  0  0  0  0  0  0  0  0  # atno 8008 bound_to 7997
  154.8220  140.0437  157.1438 H   0  0  0  0  0  0  0  0  0  0  0  0  # atno 8009 bound_to 7997
  154.9304  140.3016  155.5174 H   0  0  0  0  0  0  0  0  0  0  0  0  # atno 8010 bound_to 7997
  140.2771  144.3199  150.6274 H   0  0  0  0  0  0  0  0  0  0  0  0  # atno 10167 bound_to 10162
  156.1889  130.6782  151.0399 H   0  0  0  0  0  0  0  0  0  0  0  0  # atno 10718 bound_to 10713
  153.0928  135.6651  153.9821 H   0  0  0  0  0  0  0  0  0  0  0  0  # atno 10763 bound_to 10752
  153.9413  135.2993  155.3444 H   0  0  0  0  0  0  0  0  0  0  0  0  # atno 10764 bound_to 10752
  154.7344  135.5108  153.9091 H   0  0  0  0  0  0  0  0  0  0  0  0  # atno 10765 bound_to 10752
  141.0755  133.6667  156.3574 H   0  0  0  0  0  0  0  0  0  0  0  0  # atno 11005 bound_to 11000
  146.2748  140.4716  142.8800 LP  0  0  0  0  0  0  0  0  0  0  0  0  # atno 17320 bound_to 7965
  144.8369  140.6796  143.6254 LP  0  0  0  0  0  0  0  0  0  0  0  0  # atno 17321 bound_to 7965
  140.5842  143.2171  151.7372 LP  0  0  0  0  0  0  0  0  0  0  0  0  # atno 17342 bound_to 10162
  139.4973  144.4035  152.0156 LP  0  0  0  0  0  0  0  0  0  0  0  0  # atno 17343 bound_to 10162
  157.6916  131.0808  150.7090 LP  0  0  0  0  0  0  0  0  0  0  0  0  # atno 17370 bound_to 10713
  156.7146  130.4662  149.5538 LP  0  0  0  0  0  0  0  0  0  0  0  0  # atno 17371 bound_to 10713
  140.5583  134.5959  157.5427 LP  0  0  0  0  0  0  0  0  0  0  0  0  # atno 17394 bound_to 11000
  139.9567  134.7523  156.0326 LP  0  0  0  0  0  0  0  0  0  0  0  0  # atno 17395 bound_to 11000

$$$$
