#       Name:                AV-unprocessed.smi:3282
#       Creating user name   scv26
#       Creation time:       Fri Mar 27 18:48:43 2020


#       File generated by GOLD software.
#

@<TRIPOS>MOLECULE
AV-unprocessed.smi:3282
    41    42     1
SMALL
NO_CHARGES


@<TRIPOS>ATOM
      1 ****        -4.1217   3.9017   0.6016 C.3            1 S1                 0.0000
      2 ****        -3.7322   2.4244   0.4306 C.3            1 S1                 0.0000
      3 ****        -2.2153   2.1915   0.3308 C.2            1 S1                 0.0000
      4 ****        -1.4396   3.1380   0.4738 O.2            1 S1                 0.0000
      5 ****        -1.7786   0.9386   0.0854 N.am           1 S1                 0.0000
      6 ****        -2.6240  -0.2405  -0.0900 C.3            1 S1                 0.0000
      7 ****        -1.6745  -1.4383  -0.1243 C.3            1 S1                 0.0000
      8 ****        -0.3307  -0.8578  -0.5564 C.3            1 S1                 0.0000
      9 ****         0.7868  -1.6130   0.0025 N.am           1 S1                 0.0000
     10 ****         2.0694  -1.5039  -0.3726 C.2            1 S1                 0.0000
     11 ****         2.3824  -0.7158  -1.2680 O.2            1 S1                 0.0000
     12 ****         2.9084  -2.3112   0.3148 N.pl3          1 S1                -1.0000
     13 ****         4.2238  -2.2929   0.0453 C.2            1 S1                 0.0000
     14 ****         4.8999  -3.2056  -0.6544 N.2            1 S1                 0.0000
     15 ****         6.2180  -2.7760  -0.6640 C.2            1 S1                 0.0000
     16 ****         6.2842  -1.6087   0.0464 C.2            1 S1                 0.0000
     17 ****         5.0337  -1.2962   0.5028 O.3            1 S1                 0.0000
     18 ****        -0.3665   0.5894  -0.0465 C.3            1 S1                 0.0000
     19 ****        -5.2049   4.0090   0.6629 H              1 S1                 0.0000
     20 ****        -3.7786   4.5038  -0.2405 H              1 S1                 0.0000
     21 ****        -3.6984   4.3236   1.5142 H              1 S1                 0.0000
     22 ****        -4.1205   1.8530   1.2743 H              1 S1                 0.0000
     23 ****        -4.2119   2.0333  -0.4673 H              1 S1                 0.0000
     24 ****        -3.3572  -0.3481   0.7102 H              1 S1                 0.0000
     25 ****        -3.1603  -0.1561  -1.0362 H              1 S1                 0.0000
     26 ****        -1.5971  -1.8583   0.8800 H              1 S1                 0.0000
     27 ****        -2.0221  -2.2313  -0.7870 H              1 S1                 0.0000
     28 ****        -0.2839  -0.8588  -1.6470 H              1 S1                 0.0000
     29 ****         0.5727  -2.2708   0.7376 H              1 S1                 0.0000
     30 ****         6.9958  -3.3295  -1.1684 H              1 S1                 0.0000
     31 ****         7.0816  -0.9281   0.3038 H              1 S1                 0.0000
     32 ****         0.1580   1.2594  -0.7297 H              1 S1                 0.0000
     33 ****         0.1040   0.6754   0.9347 H              1 S1                 0.0000
     34 ****        -1.7969   4.0544   0.6542 LP             1 S1                 0.0000
     35 ****        -0.4528   2.9898   0.4095 LP             1 S1                 0.0000
     36 ****         1.6802  -0.1598  -1.7127 LP             1 S1                 0.0000
     37 ****         3.3384  -0.6328  -1.5494 LP             1 S1                 0.0000
     38 ****         2.5502  -2.9205   1.0223 LP             1 S1                 0.0000
     39 ****         4.5316  -4.0302  -1.0837 LP             1 S1                 0.0000
     40 ****         5.0228  -1.2672   1.5023 LP             1 S1                 0.0000
     41 ****         4.7395  -0.4118   0.1404 LP             1 S1                 0.0000
@<TRIPOS>BOND
    1    1    2 1     
    2    1   19 1     
    3    1   20 1     
    4    1   21 1     
    5    2    3 1     
    6    2   22 1     
    7    2   23 1     
    8    3    4 2     
    9    3    5 am    
   10    5   18 1     
   11    5    6 1     
   12    6    7 1     
   13    6   24 1     
   14    6   25 1     
   15    7    8 1     
   16    7   26 1     
   17    7   27 1     
   18    8    9 1     
   19    8   18 1     
   20    8   28 1     
   21    9   10 am    
   22    9   29 1     
   23   10   11 2     
   24   10   12 1     
   25   12   13 1     
   26   13   17 1     
   27   13   14 2     
   28   14   15 1     
   29   15   16 2     
   30   15   30 1     
   31   16   17 1     
   32   16   31 1     
   33   18   32 1     
   34   18   33 1     
   35    4   34 1     
   36    4   35 1     
   37   11   36 1     
   38   11   37 1     
   39   12   38 1     
   40   14   39 1     
   41   17   40 1     
   42   17   41 1     
@<TRIPOS>SUBSTRUCTURE
      1 S1             1
@<TRIPOS>SET
LONE_PAIRS      STATIC     ATOMS    <user>   **** ""
8 34 35 36 37 38 39 40 41
DONOR_HYDROGENS      STATIC     ATOMS    <user>   **** ""
1 29
ATOM$BLUE        STATIC     ATOMS    COLORGROUP SYSTEM
8 34 35 36 37 38 39 40 41
ATOM$RED        STATIC     ATOMS    COLORGROUP SYSTEM
1 29
