AV-unprocessed.smi:731|AV-procd|sdf|3526|dock1
  -GOLD-   22720 0523D 1   1.00000     0.00000
 Structure written by MMmdl.
 34 35  0  0  0  0  0  0  0  0  1 V2000
  151.4864  140.2627  155.0301 O   0  0  0  0  0  0  0  0  0  0  0  0
  150.5109  140.5272  155.7340 C   0  0  0  0  0  0  0  0  0  0  0  0
  150.6122  141.0352  156.9729 N   0  0  0  0  0  0  0  0  0  0  0  0
  151.8624  141.3194  157.6742 C   0  0  0  0  0  0  0  0  0  0  0  0
  151.7387  142.5066  158.6493 C   0  0  0  0  0  0  0  0  0  0  0  0
  152.4688  142.3164  159.9398 C   0  0  0  0  0  0  0  0  0  0  0  0
  153.2745  141.2794  160.1813 N   0  0  0  0  0  0  0  0  0  0  0  0
  153.7955  141.2886  161.4798 C   0  0  0  0  0  0  0  0  0  0  0  0
  154.7153  140.1872  161.9213 C   0  0  0  0  0  0  0  0  0  0  0  0
  154.1112  138.9991  161.8856 F   0  0  0  0  0  0  0  0  0  0  0  0
  155.7895  140.1147  161.1358 F   0  0  0  0  0  0  0  0  0  0  0  0
  155.1372  140.3852  163.1700 F   0  0  0  0  0  0  0  0  0  0  0  0
  153.3696  142.3636  162.2219 C   0  0  0  0  0  0  0  0  0  0  0  0
  152.2980  143.3974  161.3188 S   0  0  0  0  0  0  0  0  0  0  0  0
  149.0870  140.2604  155.2203 C   0  0  0  0  0  0  0  0  0  0  0  0
  148.7197  141.1899  154.0394 C   0  0  0  0  0  0  0  0  0  0  0  0
  147.4908  141.9989  154.4723 C   0  0  0  0  0  0  0  0  0  0  0  0
  147.4854  141.9353  155.9967 C   0  0  0  0  0  0  0  0  0  0  0  0
  148.0268  140.5399  156.3035 C   0  0  0  0  0  0  0  0  0  0  0  0
  149.7571  141.2213  157.4765 H   0  0  0  0  0  0  0  0  0  0  0  0
  152.2124  140.4347  158.2091 H   0  0  0  0  0  0  0  0  0  0  0  0
  152.6255  141.5410  156.9279 H   0  0  0  0  0  0  0  0  0  0  0  0
  152.1088  143.4143  158.1714 H   0  0  0  0  0  0  0  0  0  0  0  0
  150.6871  142.6873  158.8746 H   0  0  0  0  0  0  0  0  0  0  0  0
  153.6185  142.6068  163.2441 H   0  0  0  0  0  0  0  0  0  0  0  0
  149.0126  139.2173  154.9086 H   0  0  0  0  0  0  0  0  0  0  0  0
  149.5350  141.8714  153.7900 H   0  0  0  0  0  0  0  0  0  0  0  0
  148.5070  140.6177  153.1358 H   0  0  0  0  0  0  0  0  0  0  0  0
  147.5105  143.0225  154.0974 H   0  0  0  0  0  0  0  0  0  0  0  0
  146.5876  141.5237  154.0867 H   0  0  0  0  0  0  0  0  0  0  0  0
  148.1577  142.6929  156.4019 H   0  0  0  0  0  0  0  0  0  0  0  0
  146.4955  142.1047  156.4212 H   0  0  0  0  0  0  0  0  0  0  0  0
  147.2214  139.8092  156.2185 H   0  0  0  0  0  0  0  0  0  0  0  0
  148.4134  140.4702  157.3216 H   0  0  0  0  0  0  0  0  0  0  0  0
  1  2  2  0  0  0  0
  2  3  1  0  0  0  0
  2 15  1  0  0  0  0
  3  4  1  0  0  0  0
  3 20  1  0  0  0  0
  4  5  1  0  0  0  0
  4 21  1  0  0  0  0
  4 22  1  0  0  0  0
  5  6  1  0  0  0  0
  5 23  1  0  0  0  0
  5 24  1  0  0  0  0
  6 14  1  0  0  0  0
  6  7  2  0  0  0  0
  7  8  1  0  0  0  0
  8  9  1  0  0  0  0
  8 13  2  0  0  0  0
  9 10  1  0  0  0  0
  9 11  1  0  0  0  0
  9 12  1  0  0  0  0
 13 14  1  0  0  0  0
 13 25  1  0  0  0  0
 15 19  1  0  0  0  0
 15 16  1  0  0  0  0
 15 26  1  0  0  0  0
 16 17  1  0  0  0  0
 16 27  1  0  0  0  0
 16 28  1  0  0  0  0
 17 18  1  0  0  0  0
 17 29  1  0  0  0  0
 17 30  1  0  0  0  0
 18 19  1  0  0  0  0
 18 31  1  0  0  0  0
 18 32  1  0  0  0  0
 19 33  1  0  0  0  0
 19 34  1  0  0  0  0
M  END
> <s_m_source_file>
AV-unprocessed.smi

> <i_m_source_file_index>
731

> <i_lp_mmshare_version>
43012

> <i_f3d_flags>
0

> <s_epik_input>
W0NIMl0xW0NIMl1bQ0gyXVtDSDJdW0NIXTFDKD1PKVtOSF1bQ0gyXVtDSDJdYzJuYyhDKEYpKEYpRilbY0hdczI=

> <s_epik_cmdline>
J2VwaWtfcHl0aG9uJywgJy1waCcsICc3LjAnLCAnLXRuJywgJzgnLCAnLW1hJywgJzIwMCcsICctbWV0YWxfYmluZGluZycsICctaW1hZScsICc8aW5maWxlLm1hZT4nLCAnLW9tYWUnLCAnPG91dGZpbGUubWFlPic=

> <r_lp_tautomer_probability>
1

> <r_epik_Ionization_Penalty>
2.28973e-08

> <r_epik_Ionization_Penalty_Charging>
0

> <r_epik_Ionization_Penalty_Neutral>
2.28973e-08

> <r_epik_State_Penalty>
-0

> <r_epik_Charging_Adjusted_Penalty>
0

> <i_epik_Tot_Q>
0

> <i_epik_Tot_abs_Q>
0

> <r_epik_Metal_State_Penalty>
-0

> <b_epik_Metal_Only>
0

> <s_lp_Force_Field>
OPLS_2005

> <r_lp_Energy>
15.4873

> <b_lp_Chiralities_Consistent>
1

> <s_lp_Variant>
AV-unprocessed.smi:731-1

> <Gold.Version>
5.8.1

> <Gold.Id.Protein>
6NUR|6NUR_protein|mol2

> <Gold.PLP.Fitness>
39.4541

> <Gold.PLP.PLP>
-38.8029

> <Gold.PLP.part.hbond>
-1.0000

> <Gold.PLP.part.metal>
0.0000

> <Gold.PLP.part.buried>
-3.1310

> <Gold.PLP.part.nonpolar>
-33.7856

> <Gold.PLP.part.repulsive>
0.0922

> <Gold.PLP.ligand.clash>
1.2207

> <Gold.PLP.ligand.torsion>
0.6139

> <Gold.PLP.Chemscore.Hbond>
1.0000

> <Gold.PLP.Chemscore.CHOScore>
0.0000

> <Gold.PLP.Chemscore.Metal>
0.0000

> <Gold.Chemscore.Hbonds>
donor molecule, donor type, donor heavy atom, donor atom, acceptor molecule, acceptor atom, score
      P1  H  7989  7998       L1     1  1.00

> <Gold.PLP.Chemscore.Internal.Correction>
0.0996

> <Gold.Rescore>
     Score         DG    S(hbond)    S(metal)    S(lipo)     H(rot)  DE(clash)    DE(int)     intcor
     14.70     -15.23       0.95        0.00      94.10       1.73       0.00       0.53       ----

> <Gold.Chemscore.Fitness>
14.6979

> <Gold.Chemscore.DG>
-15.2319

> <Gold.Chemscore.ZeroCoef>
-5.4800

> <Gold.Chemscore.Hbond>
0.9468

> <Gold.Chemscore.Metal>
0.0000

> <Gold.Chemscore.Lipo>
94.0965

> <Gold.Chemscore.Internal_Hbond>
0.0000

> <Gold.Chemscore.DEClash>
0.0048

> <Gold.Chemscore.DEInternal>
0.5293

> <Gold.Chemscore.Rot>
1.7264

> <Gold.Chemscore.Internal.Correction>
   9.000000E+99

> <Gold.Chemscore.Hbonds>
donor molecule, donor type, donor heavy atom, donor atom, acceptor molecule, acceptor atom, score
      P1  H  7989  7998       L1     1  0.94

> <Gold.Chemscore.Hbond.Weighted>
-3.1622

> <Gold.Chemscore.Metal.Weighted>
-0.0000

> <Gold.Chemscore.Lipo.Weighted>
-11.0093

> <Gold.Chemscore.Internal_Hbond.Weighted>
0.0000

> <Gold.Chemscore.DEClash.Weighted>
0.0048

> <Gold.Chemscore.DEInternal.Weighted>
0.5293

> <Gold.Chemscore.Rot.Weighted>
4.4196

> <Gold.Chemscore.Internal.Correction.Weighted>
   9.000000E+99

> <Gold.Protein.RotatedTorsions>
[ 6907 6896 6895 6894 ] final  123.00 input  -60.11 | X-H torsion
[ 7974 7965 7964 7962 ] final -177.70 input  175.53 | X-H torsion
[ 8008 7997 7996 7995 ] final -167.20 input   59.86 | X-H torsion
[ 10167 10162 10161 10158 ] final   13.40 input  -65.29 | X-H torsion
[ 10718 10713 10712 10709 ] final -119.01 input   66.30 | X-H torsion
[ 10763 10752 10751 10750 ] final -139.85 input  -60.55 | X-H torsion
[ 11005 11000 10999 10996 ] final -159.69 input  -57.11 | X-H torsion

> <Gold.Protein.ActiveResidues>
 VAL166  LYS551  ARG553  GLY616  TRP617  ASP618  TYR619  PRO620  LYS621  CYS622 
 ASP623  PHE694  ASN695  SER759  ASP760  ASP761  ALA762  ILE779  LEU786  VAL792 
 PHE793  MET794  SER795  GLU796  ALA797  LYS798  CYS799  TRP800  GLU811  SER814 

> <Gold.Protein.RotatedAtoms>
  152.4197  133.7097  159.6471 H   0  0  0  0  0  0  0  0  0  0  0  0  # atno 6907 bound_to 6896
  150.8073  133.8475  159.3205 H   0  0  0  0  0  0  0  0  0  0  0  0  # atno 6908 bound_to 6896
  151.6195  135.1035  160.0150 H   0  0  0  0  0  0  0  0  0  0  0  0  # atno 6909 bound_to 6896
  144.7128  140.0980  143.6418 H   0  0  0  0  0  0  0  0  0  0  0  0  # atno 7974 bound_to 7965
  155.8745  140.0999  157.1528 H   0  0  0  0  0  0  0  0  0  0  0  0  # atno 8008 bound_to 7997
  154.4000  140.1341  156.4182 H   0  0  0  0  0  0  0  0  0  0  0  0  # atno 8009 bound_to 7997
  155.7713  140.3461  155.5251 H   0  0  0  0  0  0  0  0  0  0  0  0  # atno 8010 bound_to 7997
  140.6005  143.8614  150.6960 H   0  0  0  0  0  0  0  0  0  0  0  0  # atno 10167 bound_to 10162
  156.1149  130.6278  150.9362 H   0  0  0  0  0  0  0  0  0  0  0  0  # atno 10718 bound_to 10713
  154.8597  135.3570  154.5613 H   0  0  0  0  0  0  0  0  0  0  0  0  # atno 10763 bound_to 10752
  153.6228  135.7005  153.5309 H   0  0  0  0  0  0  0  0  0  0  0  0  # atno 10764 bound_to 10752
  153.3115  135.4177  155.1299 H   0  0  0  0  0  0  0  0  0  0  0  0  # atno 10765 bound_to 10752
  140.6398  134.4563  157.5233 H   0  0  0  0  0  0  0  0  0  0  0  0  # atno 11005 bound_to 11000
  145.9563  139.2769  143.1182 LP  0  0  0  0  0  0  0  0  0  0  0  0  # atno 17320 bound_to 7965
  145.9269  140.9076  143.0376 LP  0  0  0  0  0  0  0  0  0  0  0  0  # atno 17321 bound_to 7965
  140.2159  143.3847  152.1681 LP  0  0  0  0  0  0  0  0  0  0  0  0  # atno 17342 bound_to 10162
  139.5288  144.7134  151.5132 LP  0  0  0  0  0  0  0  0  0  0  0  0  # atno 17343 bound_to 10162
  157.6331  131.0919  150.8401 LP  0  0  0  0  0  0  0  0  0  0  0  0  # atno 17370 bound_to 10713
  156.8506  130.5079  149.5312 LP  0  0  0  0  0  0  0  0  0  0  0  0  # atno 17371 bound_to 10713
  139.9084  134.8397  156.1618 LP  0  0  0  0  0  0  0  0  0  0  0  0  # atno 17394 bound_to 11000
  141.0615  133.6839  156.1961 LP  0  0  0  0  0  0  0  0  0  0  0  0  # atno 17395 bound_to 11000

$$$$
