#       Name:                AV-unprocessed.smi:1868
#       Creating user name   scv26
#       Creation time:       Fri Mar 27 09:30:12 2020


#       File generated by GOLD software.
#

@<TRIPOS>MOLECULE
AV-unprocessed.smi:1868
    50    52     1
SMALL
NO_CHARGES


@<TRIPOS>ATOM
      1 ****        -3.2927   1.2753   3.1273 C.3            1 S1                 0.0000
      2 ****        -3.2297   1.8281   1.7431 C.2            1 S1                 0.0000
      3 ****        -3.6574   3.0621   1.3534 N.pl3          1 S1                 1.0000
      4 ****        -3.4427   3.2263  -0.0159 C.ar           1 S1                 0.0000
      5 ****        -3.7147   4.2989  -0.8594 C.ar           1 S1                 0.0000
      6 ****        -3.3700   4.1389  -2.2177 C.ar           1 S1                 0.0000
      7 ****        -2.7789   2.9489  -2.6903 C.ar           1 S1                 0.0000
      8 ****        -2.5077   1.8677  -1.8255 C.ar           1 S1                 0.0000
      9 ****        -2.8518   2.0347  -0.4844 C.ar           1 S1                 0.0000
     10 ****        -2.7362   1.2031   0.6351 N.pl3          1 S1                 0.0000
     11 ****        -2.1538  -0.1389   0.4777 C.3            1 S1                 0.0000
     12 ****        -0.6123  -0.1311   0.4397 C.3            1 S1                 0.0000
     13 ****        -0.1184   0.4735   1.6191 O.3            1 S1                 0.0000
     14 ****        -0.0430  -1.5605   0.3407 C.3            1 S1                 0.0000
     15 ****         1.4357  -1.5838   0.1961 N.4            1 S1                 1.0000
     16 ****         1.8992  -1.2548  -1.1783 C.3            1 S1                 0.0000
     17 ****         3.4335  -1.1668  -1.2398 C.3            1 S1                 0.0000
     18 ****         4.0877  -2.4713  -0.7544 C.3            1 S1                 0.0000
     19 ****         5.6201  -2.3871  -0.7844 C.3            1 S1                 0.0000
     20 ****         3.5635  -2.8057   0.6520 C.3            1 S1                 0.0000
     21 ****         2.0268  -2.8591   0.6771 C.3            1 S1                 0.0000
     22 ****        -3.7783   1.9818   3.8009 H              1 S1                 0.0000
     23 ****        -2.2878   1.0765   3.4999 H              1 S1                 0.0000
     24 ****        -3.8596   0.3440   3.1363 H              1 S1                 0.0000
     25 ****        -4.1688   5.2111  -0.5006 H              1 S1                 0.0000
     26 ****        -3.5637   4.9447  -2.9110 H              1 S1                 0.0000
     27 ****        -2.5298   2.8631  -3.7382 H              1 S1                 0.0000
     28 ****        -2.0565   0.9603  -2.1983 H              1 S1                 0.0000
     29 ****        -2.5088  -0.7525   1.3067 H              1 S1                 0.0000
     30 ****        -2.5631  -0.5868  -0.4289 H              1 S1                 0.0000
     31 ****        -0.2867   0.4702  -0.4079 H              1 S1                 0.0000
     32 ****        -0.4610   1.3532   1.6718 H              1 S1                 0.0000
     33 ****        -0.3337  -2.1073   1.2395 H              1 S1                 0.0000
     34 ****        -0.4932  -2.0962  -0.4964 H              1 S1                 0.0000
     35 ****         1.5407  -2.0134  -1.8758 H              1 S1                 0.0000
     36 ****         1.4796  -0.3045  -1.5057 H              1 S1                 0.0000
     37 ****         3.7469  -0.9498  -2.2616 H              1 S1                 0.0000
     38 ****         3.7749  -0.3303  -0.6278 H              1 S1                 0.0000
     39 ****         3.7873  -3.2742  -1.4294 H              1 S1                 0.0000
     40 ****         5.9887  -1.6010  -0.1247 H              1 S1                 0.0000
     41 ****         5.9823  -2.1740  -1.7905 H              1 S1                 0.0000
     42 ****         6.0705  -3.3275  -0.4655 H              1 S1                 0.0000
     43 ****         3.9682  -3.7624   0.9839 H              1 S1                 0.0000
     44 ****         3.9137  -2.0584   1.3658 H              1 S1                 0.0000
     45 ****         1.6955  -3.0581   1.6971 H              1 S1                 0.0000
     46 ****         1.6676  -3.6841   0.0595 H              1 S1                 0.0000
     47 ****         1.7894  -0.8632   0.8099 H              1 S1                 0.0000
     48 ****        -4.0696   3.7406   1.9812 H              1 S1                 0.0000
     49 ****         0.8807   0.5019   1.5905 LP             1 S1                 0.0000
     50 ****        -0.4143  -0.0520   2.4168 LP             1 S1                 0.0000
@<TRIPOS>BOND
    1    1    2 1     
    2    1   22 1     
    3    1   23 1     
    4    1   24 1     
    5    2   10 1     
    6    2    3 2     
    7    3    4 1     
    8    3   48 1     
    9    4    9 ar    
   10    4    5 ar    
   11    5    6 ar    
   12    5   25 1     
   13    6    7 ar    
   14    6   26 1     
   15    7    8 ar    
   16    7   27 1     
   17    8    9 ar    
   18    8   28 1     
   19    9   10 1     
   20   10   11 1     
   21   11   12 1     
   22   11   29 1     
   23   11   30 1     
   24   12   13 1     
   25   12   14 1     
   26   12   31 1     
   27   13   32 1     
   28   14   15 1     
   29   14   33 1     
   30   14   34 1     
   31   15   21 1     
   32   15   16 1     
   33   15   47 1     
   34   16   17 1     
   35   16   35 1     
   36   16   36 1     
   37   17   18 1     
   38   17   37 1     
   39   17   38 1     
   40   18   19 1     
   41   18   20 1     
   42   18   39 1     
   43   19   40 1     
   44   19   41 1     
   45   19   42 1     
   46   20   21 1     
   47   20   43 1     
   48   20   44 1     
   49   21   45 1     
   50   21   46 1     
   51   13   49 1     
   52   13   50 1     
@<TRIPOS>SUBSTRUCTURE
      1 S1             1
@<TRIPOS>SET
LONE_PAIRS      STATIC     ATOMS    <user>   **** ""
2 49 50
DONOR_HYDROGENS      STATIC     ATOMS    <user>   **** ""
3 48 32 47
ATOM$BLUE        STATIC     ATOMS    COLORGROUP SYSTEM
2 49 50
ATOM$RED        STATIC     ATOMS    COLORGROUP SYSTEM
3 48 32 47
