AV-unprocessed.smi:3265|AV-procd|sdf|12499|dock4
  -GOLD-   2272018403D 1   1.00000     0.00000
 Structure written by MMmdl.
 41 42  0  0  0  0  0  0  0  0  2 V2000
  148.2969  140.4304  154.3124 C   0  0  0  0  0  0  0  0  0  0  0  0
  149.1699  139.1803  154.1316 C   0  0  1  0  0  0  0  0  0  0  0  0
  150.6252  139.4449  154.5528 C   0  0  0  0  0  0  0  0  0  0  0  0
  151.4660  138.1734  154.3861 C   0  0  0  0  0  0  0  0  0  0  0  0
  150.8418  136.9973  155.1536 C   0  0  0  0  0  0  0  0  0  0  0  0
  149.4386  136.7609  154.7252 N   0  3  1  0  0  0  0  0  0  0  0  0
  148.8589  135.5480  155.3555 C   0  0  0  0  0  0  0  0  0  0  0  0
  149.4505  134.2462  154.7812 C   0  0  0  0  0  0  0  0  0  0  0  0
  148.8082  133.8740  153.5267 N   0  0  0  0  0  0  0  0  0  0  0  0
  147.5380  133.4576  153.4046 C   0  0  0  0  0  0  0  0  0  0  0  0
  146.7624  133.3643  154.3556 O   0  0  0  0  0  0  0  0  0  0  0  0
  147.0687  133.0961  151.9945 C   0  0  0  0  0  0  0  0  0  0  0  0
  145.9002  133.8702  151.6151 N   0  0  0  0  0  0  0  0  0  0  0  0
  145.8215  135.2167  151.3253 C   0  0  0  0  0  0  0  0  0  0  0  0
  144.5174  135.4932  151.0297 C   0  0  0  0  0  0  0  0  0  0  0  0
  143.8655  134.2357  151.1662 C   0  0  0  0  0  0  0  0  0  0  0  0
  144.6951  133.2664  151.5177 N   0  0  0  0  0  0  0  0  0  0  0  0
  148.5995  137.9763  154.9082 C   0  0  0  0  0  0  0  0  0  0  0  0
  148.2522  140.7367  155.3582 H   0  0  0  0  0  0  0  0  0  0  0  0
  147.2758  140.2496  153.9752 H   0  0  0  0  0  0  0  0  0  0  0  0
  148.6892  141.2694  153.7368 H   0  0  0  0  0  0  0  0  0  0  0  0
  149.1659  138.9287  153.0699 H   0  0  0  0  0  0  0  0  0  0  0  0
  151.0518  140.2524  153.9568 H   0  0  0  0  0  0  0  0  0  0  0  0
  150.6591  139.7732  155.5928 H   0  0  0  0  0  0  0  0  0  0  0  0
  151.5453  137.9211  153.3278 H   0  0  0  0  0  0  0  0  0  0  0  0
  152.4826  138.3507  154.7385 H   0  0  0  0  0  0  0  0  0  0  0  0
  151.4389  136.1018  154.9776 H   0  0  0  0  0  0  0  0  0  0  0  0
  150.8681  137.1908  156.2273 H   0  0  0  0  0  0  0  0  0  0  0  0
  149.0659  135.5739  156.4261 H   0  0  0  0  0  0  0  0  0  0  0  0
  147.7725  135.5600  155.2536 H   0  0  0  0  0  0  0  0  0  0  0  0
  150.5143  134.3585  154.5757 H   0  0  0  0  0  0  0  0  0  0  0  0
  149.3576  133.4325  155.5026 H   0  0  0  0  0  0  0  0  0  0  0  0
  149.3740  133.9155  152.6906 H   0  0  0  0  0  0  0  0  0  0  0  0
  147.8651  133.2892  151.2746 H   0  0  0  0  0  0  0  0  0  0  0  0
  146.8369  132.0313  151.9385 H   0  0  0  0  0  0  0  0  0  0  0  0
  146.6900  135.8582  151.3551 H   0  0  0  0  0  0  0  0  0  0  0  0
  144.0932  136.4483  150.7573 H   0  0  0  0  0  0  0  0  0  0  0  0
  142.8214  134.0006  151.0218 H   0  0  0  0  0  0  0  0  0  0  0  0
  148.5302  138.2118  155.9716 H   0  0  0  0  0  0  0  0  0  0  0  0
  147.5845  137.7851  154.5626 H   0  0  0  0  0  0  0  0  0  0  0  0
  149.4775  136.5753  153.7329 H   0  0  0  0  0  0  0  0  0  0  0  0
  1  2  1  0  0  0  0
  1 19  1  0  0  0  0
  1 20  1  0  0  0  0
  1 21  1  0  0  0  0
  2 18  1  0  0  0  0
  2  3  1  0  0  0  0
  2 22  1  0  0  0  0
  3  4  1  0  0  0  0
  3 23  1  0  0  0  0
  3 24  1  0  0  0  0
  4  5  1  0  0  0  0
  4 25  1  0  0  0  0
  4 26  1  0  0  0  0
  5  6  1  0  0  0  0
  5 27  1  0  0  0  0
  5 28  1  0  0  0  0
  6  7  1  0  0  0  0
  6 18  1  0  0  0  0
  6 41  1  0  0  0  0
  7  8  1  0  0  0  0
  7 29  1  0  0  0  0
  7 30  1  0  0  0  0
  8  9  1  0  0  0  0
  8 31  1  0  0  0  0
  8 32  1  0  0  0  0
  9 10  1  0  0  0  0
  9 33  1  0  0  0  0
 10 11  2  0  0  0  0
 10 12  1  0  0  0  0
 12 13  1  0  0  0  0
 12 34  1  0  0  0  0
 12 35  1  0  0  0  0
 13 17  1  0  0  0  0
 13 14  1  0  0  0  0
 14 15  2  0  0  0  0
 14 36  1  0  0  0  0
 15 16  1  0  0  0  0
 15 37  1  0  0  0  0
 16 17  2  0  0  0  0
 16 38  1  0  0  0  0
 18 39  1  0  0  0  0
 18 40  1  0  0  0  0
M  CHG  1   6   1
M  END
> <s_m_source_file>
AV-unprocessed.smi

> <i_m_source_file_index>
3265

> <i_lp_mmshare_version>
43012

> <i_f3d_flags>
0

> <s_epik_input>
W0NIM11bQ0BASF0xW0NIMl1bQ0gyXVtDSDJdTihbQ0gyXTEpW0NIMl1bQ0gyXVtOSF1DKD1PKVtDSDJdbjJbY0hdW2NIXVtjSF1uMg==

> <s_epik_cmdline>
J2VwaWtfcHl0aG9uJywgJy1waCcsICc3LjAnLCAnLXRuJywgJzgnLCAnLW1hJywgJzIwMCcsICctbWV0YWxfYmluZGluZycsICctaW1hZScsICc8aW5maWxlLm1hZT4nLCAnLW9tYWUnLCAnPG91dGZpbGUubWFlPic=

> <r_lp_tautomer_probability>
1

> <r_epik_Ionization_Penalty>
0.00231455

> <r_epik_Ionization_Penalty_Charging>
0.00230623

> <r_epik_Ionization_Penalty_Neutral>
8.31727e-06

> <r_epik_State_Penalty>
0.00159065

> <r_epik_Charging_Adjusted_Penalty>
0.00389688

> <i_epik_Tot_Q>
1

> <i_epik_Tot_abs_Q>
1

> <r_epik_Metal_State_Penalty>
-0

> <b_epik_Metal_Only>
0

> <s_lp_Force_Field>
OPLS_2005

> <r_lp_Energy>
15.6905

> <b_lp_Chiralities_Consistent>
1

> <s_lp_Variant>
AV-unprocessed.smi:3265-4

> <Gold.Version>
5.8.1

> <Gold.Id.Protein>
6NUR|6NUR_protein|mol2

> <Gold.PLP.Fitness>
42.9122

> <Gold.PLP.PLP>
-31.6551

> <Gold.PLP.part.hbond>
-2.0000

> <Gold.PLP.part.metal>
0.0000

> <Gold.PLP.part.buried>
-2.7003

> <Gold.PLP.part.nonpolar>
-27.4444

> <Gold.PLP.part.repulsive>
0.1809

> <Gold.PLP.ligand.clash>
0.0000

> <Gold.PLP.ligand.torsion>
0.3829

> <Gold.PLP.Chemscore.Hbond>
2.0000

> <Gold.PLP.Chemscore.CHOScore>
2.0000

> <Gold.PLP.Chemscore.Metal>
0.0000

> <Gold.Chemscore.Hbonds>
donor molecule, donor type, donor heavy atom, donor atom, acceptor molecule, acceptor atom, score
      L1  H     6    41       P1  7948  2.00
      L1  C    14    36       P1  7948  1.00
      L1  C    16    38       P1 10186  1.00

> <Gold.PLP.Chemscore.Internal.Correction>
0.0229

> <Gold.Rescore>
     Score         DG    S(hbond)    S(metal)    S(lipo)     H(rot)  DE(clash)    DE(int)     intcor
     11.71     -12.24       0.94        0.00      71.06       1.84       0.27       0.25       ----

> <Gold.Chemscore.Fitness>
11.7121

> <Gold.Chemscore.DG>
-12.2390

> <Gold.Chemscore.ZeroCoef>
-5.4800

> <Gold.Chemscore.Hbond>
0.9437

> <Gold.Chemscore.Metal>
0.0000

> <Gold.Chemscore.Lipo>
71.0588

> <Gold.Chemscore.Internal_Hbond>
0.0000

> <Gold.Chemscore.DEClash>
0.2728

> <Gold.Chemscore.DEInternal>
0.2541

> <Gold.Chemscore.Rot>
1.8386

> <Gold.Chemscore.Internal.Correction>
   9.000000E+99

> <Gold.Chemscore.Hbonds>
donor molecule, donor type, donor heavy atom, donor atom, acceptor molecule, acceptor atom, score
      L1  H     6    41       P1  7948  0.81

> <Gold.Chemscore.Hbond.Weighted>
-3.1520

> <Gold.Chemscore.Metal.Weighted>
-0.0000

> <Gold.Chemscore.Lipo.Weighted>
-8.3139

> <Gold.Chemscore.Internal_Hbond.Weighted>
0.0000

> <Gold.Chemscore.DEClash.Weighted>
0.2728

> <Gold.Chemscore.DEInternal.Weighted>
0.2541

> <Gold.Chemscore.Rot.Weighted>
4.7069

> <Gold.Chemscore.Internal.Correction.Weighted>
   9.000000E+99

> <Gold.Protein.RotatedTorsions>
[ 6907 6896 6895 6894 ] final  174.06 input  -60.11 | X-H torsion
[ 7974 7965 7964 7962 ] final   -3.28 input  175.53 | X-H torsion
[ 8008 7997 7996 7995 ] final  162.10 input   59.86 | X-H torsion
[ 10167 10162 10161 10158 ] final  -89.13 input  -65.29 | X-H torsion
[ 10718 10713 10712 10709 ] final  -36.59 input   66.30 | X-H torsion
[ 10763 10752 10751 10750 ] final  -99.54 input  -60.55 | X-H torsion
[ 11005 11000 10999 10996 ] final -140.76 input  -57.11 | X-H torsion

> <Gold.Protein.ActiveResidues>
 VAL166  LYS551  ARG553  GLY616  TRP617  ASP618  TYR619  PRO620  LYS621  CYS622 
 ASP623  PHE694  ASN695  SER759  ASP760  ASP761  ALA762  ILE779  LEU786  VAL792 
 PHE793  MET794  SER795  GLU796  ALA797  LYS798  CYS799  TRP800  GLU811  SER814 

> <Gold.Protein.RotatedAtoms>
  151.7584  133.3332  159.3410 H   0  0  0  0  0  0  0  0  0  0  0  0  # atno 6907 bound_to 6896
  150.7508  134.6129  159.6105 H   0  0  0  0  0  0  0  0  0  0  0  0  # atno 6908 bound_to 6896
  152.3422  134.7121  160.0312 H   0  0  0  0  0  0  0  0  0  0  0  0  # atno 6909 bound_to 6896
  146.2392  140.1697  142.8332 H   0  0  0  0  0  0  0  0  0  0  0  0  # atno 7974 bound_to 7965
  156.2056  140.1759  156.7807 H   0  0  0  0  0  0  0  0  0  0  0  0  # atno 8008 bound_to 7997
  154.5650  140.0692  156.8908 H   0  0  0  0  0  0  0  0  0  0  0  0  # atno 8009 bound_to 7997
  155.2777  140.3347  155.4263 H   0  0  0  0  0  0  0  0  0  0  0  0  # atno 8010 bound_to 7997
  140.3679  143.2809  151.9536 H   0  0  0  0  0  0  0  0  0  0  0  0  # atno 10167 bound_to 10162
  156.3250  130.4271  149.7924 H   0  0  0  0  0  0  0  0  0  0  0  0  # atno 10718 bound_to 10713
  154.7506  135.4968  153.9283 H   0  0  0  0  0  0  0  0  0  0  0  0  # atno 10763 bound_to 10752
  153.1140  135.6716  153.9459 H   0  0  0  0  0  0  0  0  0  0  0  0  # atno 10764 bound_to 10752
  153.9210  135.3088  155.3426 H   0  0  0  0  0  0  0  0  0  0  0  0  # atno 10765 bound_to 10752
  140.8391  134.2424  157.4819 H   0  0  0  0  0  0  0  0  0  0  0  0  # atno 11005 bound_to 11000
  145.0021  140.8641  143.5275 LP  0  0  0  0  0  0  0  0  0  0  0  0  # atno 17320 bound_to 7965
  145.1718  139.2400  143.5338 LP  0  0  0  0  0  0  0  0  0  0  0  0  # atno 17321 bound_to 7965
  139.4807  144.5934  151.7733 LP  0  0  0  0  0  0  0  0  0  0  0  0  # atno 17342 bound_to 10162
  140.5062  144.1094  150.5983 LP  0  0  0  0  0  0  0  0  0  0  0  0  # atno 17343 bound_to 10162
  156.5218  130.8218  151.3206 LP  0  0  0  0  0  0  0  0  0  0  0  0  # atno 17370 bound_to 10713
  157.7419  130.9880  150.2481 LP  0  0  0  0  0  0  0  0  0  0  0  0  # atno 17371 bound_to 10713
  139.8703  134.9626  156.4434 LP  0  0  0  0  0  0  0  0  0  0  0  0  # atno 17394 bound_to 11000
  140.8915  133.7845  155.9577 LP  0  0  0  0  0  0  0  0  0  0  0  0  # atno 17395 bound_to 11000

$$$$
