AV-unprocessed.smi:1634|AV-procd|sdf|6536|dock8
  -GOLD-   22720 7223D 1   1.00000     0.00000
 Structure written by MMmdl.
 38 38  0  0  0  0  0  0  0  0  1 V2000
  145.9989  143.3920  153.8964 C   0  0  0  0  0  0  0  0  0  0  0  0
  146.3358  142.0800  154.6203 C   0  0  0  0  0  0  0  0  0  0  0  0
  145.6880  142.0438  156.0134 C   0  0  0  0  0  0  0  0  0  0  0  0
  147.8562  141.8687  154.7004 C   0  0  0  0  0  0  0  0  0  0  0  0
  148.1228  140.5194  155.0696 O   0  0  0  0  0  0  0  0  0  0  0  0
  149.3329  139.9694  154.5559 C   0  0  2  0  0  0  0  0  0  0  0  0
  149.1741  138.4420  154.5284 C   0  0  0  0  0  0  0  0  0  0  0  0
  150.5242  140.3919  155.4309 C   0  0  0  0  0  0  0  0  0  0  0  0
  151.6678  140.1216  155.0652 O   0  0  0  0  0  0  0  0  0  0  0  0
  150.2003  141.0152  156.5812 N   0  0  0  0  0  0  0  0  0  0  0  0
  151.0305  141.5122  157.6003 C   0  0  0  0  0  0  0  0  0  0  0  0
  150.8292  142.6733  158.2772 C   0  0  0  0  0  0  0  0  0  0  0  0
  151.7295  143.1210  159.3266 C   0  0  0  0  0  0  0  0  0  0  0  0
  151.5400  144.4613  160.0198 C   0  0  0  0  0  0  0  0  0  0  0  0
  150.2481  144.7221  160.2235 F   0  0  0  0  0  0  0  0  0  0  0  0
  152.1626  144.4831  161.1983 F   0  0  0  0  0  0  0  0  0  0  0  0
  152.0463  145.4363  159.2661 F   0  0  0  0  0  0  0  0  0  0  0  0
  152.7844  142.3285  159.5910 C   0  0  0  0  0  0  0  0  0  0  0  0
  152.9867  141.1229  158.9156 N   0  0  0  0  0  0  0  0  0  0  0  0
  152.1811  140.6566  157.9354 C   0  0  0  0  0  0  0  0  0  0  0  0
  152.4294  139.5841  157.3856 O   0  0  0  0  0  0  0  0  0  0  0  0
  153.7921  140.5762  159.1837 H   0  0  0  0  0  0  0  0  0  0  0  0
  146.3947  144.2546  154.4336 H   0  0  0  0  0  0  0  0  0  0  0  0
  144.9205  143.5237  153.8037 H   0  0  0  0  0  0  0  0  0  0  0  0
  146.4185  143.4053  152.8900 H   0  0  0  0  0  0  0  0  0  0  0  0
  145.9151  141.2635  154.0319 H   0  0  0  0  0  0  0  0  0  0  0  0
  146.0780  142.8364  156.6529 H   0  0  0  0  0  0  0  0  0  0  0  0
  145.8752  141.0925  156.5124 H   0  0  0  0  0  0  0  0  0  0  0  0
  144.6071  142.1705  155.9476 H   0  0  0  0  0  0  0  0  0  0  0  0
  148.3122  142.0708  153.7300 H   0  0  0  0  0  0  0  0  0  0  0  0
  148.2885  142.5712  155.4139 H   0  0  0  0  0  0  0  0  0  0  0  0
  149.4810  140.3155  153.5312 H   0  0  0  0  0  0  0  0  0  0  0  0
  150.0802  137.9561  154.1647 H   0  0  0  0  0  0  0  0  0  0  0  0
  148.3571  138.1506  153.8679 H   0  0  0  0  0  0  0  0  0  0  0  0
  148.9533  138.0423  155.5189 H   0  0  0  0  0  0  0  0  0  0  0  0
  149.2119  141.1126  156.7658 H   0  0  0  0  0  0  0  0  0  0  0  0
  149.9782  143.3000  158.0697 H   0  0  0  0  0  0  0  0  0  0  0  0
  153.5460  142.5535  160.3230 H   0  0  0  0  0  0  0  0  0  0  0  0
  1  2  1  0  0  0  0
  1 23  1  0  0  0  0
  1 24  1  0  0  0  0
  1 25  1  0  0  0  0
  2  3  1  0  0  0  0
  2  4  1  0  0  0  0
  2 26  1  0  0  0  0
  3 27  1  0  0  0  0
  3 28  1  0  0  0  0
  3 29  1  0  0  0  0
  4  5  1  0  0  0  0
  4 30  1  0  0  0  0
  4 31  1  0  0  0  0
  5  6  1  0  0  0  0
  6  7  1  0  0  0  0
  6  8  1  0  0  0  0
  6 32  1  0  0  0  0
  7 33  1  0  0  0  0
  7 34  1  0  0  0  0
  7 35  1  0  0  0  0
  8  9  2  0  0  0  0
  8 10  1  0  0  0  0
 10 11  1  0  0  0  0
 10 36  1  0  0  0  0
 11 20  1  0  0  0  0
 11 12  2  0  0  0  0
 12 13  1  0  0  0  0
 12 37  1  0  0  0  0
 13 14  1  0  0  0  0
 13 18  2  0  0  0  0
 14 15  1  0  0  0  0
 14 16  1  0  0  0  0
 14 17  1  0  0  0  0
 18 19  1  0  0  0  0
 18 38  1  0  0  0  0
 19 22  1  0  0  0  0
 19 20  1  0  0  0  0
 20 21  2  0  0  0  0
M  END
> <s_m_source_file>
AV-unprocessed.smi

> <i_m_source_file_index>
1634

> <i_lp_mmshare_version>
43012

> <i_f3d_flags>
0

> <s_epik_input>
W0NIM11bQ0hdKFtDSDNdKVtDSDJdT1tDQEhdKFtDSDNdKUMoPU8pW05IXWMxW2NIXWMoQyhGKShGKUYpW2NIXVtuSF1jMT1P

> <s_epik_cmdline>
J2VwaWtfcHl0aG9uJywgJy1waCcsICc3LjAnLCAnLXRuJywgJzgnLCAnLW1hJywgJzIwMCcsICctbWV0YWxfYmluZGluZycsICctaW1hZScsICc8aW5maWxlLm1hZT4nLCAnLW9tYWUnLCAnPG91dGZpbGUubWFlPic=

> <r_lp_tautomer_probability>
0.999

> <r_epik_Ionization_Penalty>
0.00884964

> <r_epik_Ionization_Penalty_Charging>
0.00884955

> <r_epik_Ionization_Penalty_Neutral>
9.33956e-08

> <r_epik_State_Penalty>
0.00669049

> <r_epik_Charging_Adjusted_Penalty>
0.01554

> <i_epik_Tot_Q>
0

> <i_epik_Tot_abs_Q>
0

> <r_epik_Metal_State_Penalty>
0.320763

> <b_epik_Metal_Only>
0

> <s_lp_Force_Field>
OPLS_2005

> <r_lp_Energy>
19.4514

> <b_lp_Chiralities_Consistent>
1

> <s_lp_Variant>
AV-unprocessed.smi:1634-1

> <Gold.Version>
5.8.1

> <Gold.Id.Protein>
6NUR|6NUR_protein|mol2

> <Gold.PLP.Fitness>
47.5645

> <Gold.PLP.PLP>
-45.5313

> <Gold.PLP.part.hbond>
-1.9341

> <Gold.PLP.part.metal>
0.0000

> <Gold.PLP.part.buried>
-4.2980

> <Gold.PLP.part.nonpolar>
-39.6352

> <Gold.PLP.part.repulsive>
0.2696

> <Gold.PLP.ligand.clash>
0.0000

> <Gold.PLP.ligand.torsion>
1.9228

> <Gold.PLP.Chemscore.Hbond>
1.9350

> <Gold.PLP.Chemscore.CHOScore>
0.0000

> <Gold.PLP.Chemscore.Metal>
0.0000

> <Gold.Chemscore.Hbonds>
donor molecule, donor type, donor heavy atom, donor atom, acceptor molecule, acceptor atom, score
      P1  H  7989  7998       L1     9  0.98
      P1  H  7997  8009       L1    21  0.64

> <Gold.PLP.Chemscore.Internal.Correction>
0.0738

> <Gold.Rescore>
     Score         DG    S(hbond)    S(metal)    S(lipo)     H(rot)  DE(clash)    DE(int)     intcor
      8.85     -14.70       1.65        0.00      70.94       1.79       0.37       5.48       ----

> <Gold.Chemscore.Fitness>
8.8529

> <Gold.Chemscore.DG>
-14.7049

> <Gold.Chemscore.ZeroCoef>
-5.4800

> <Gold.Chemscore.Hbond>
1.6470

> <Gold.Chemscore.Metal>
0.0000

> <Gold.Chemscore.Lipo>
70.9355

> <Gold.Chemscore.Internal_Hbond>
0.0000

> <Gold.Chemscore.DEClash>
0.3685

> <Gold.Chemscore.DEInternal>
5.4836

> <Gold.Chemscore.Rot>
1.7873

> <Gold.Chemscore.Internal.Correction>
   9.000000E+99

> <Gold.Chemscore.Hbonds>
donor molecule, donor type, donor heavy atom, donor atom, acceptor molecule, acceptor atom, score
      P1  H  7989  7998       L1     9  0.24
      P1  H  7997  8009       L1    21  0.13

> <Gold.Chemscore.Hbond.Weighted>
-5.5009

> <Gold.Chemscore.Metal.Weighted>
-0.0000

> <Gold.Chemscore.Lipo.Weighted>
-8.2995

> <Gold.Chemscore.Internal_Hbond.Weighted>
0.0000

> <Gold.Chemscore.DEClash.Weighted>
0.3685

> <Gold.Chemscore.DEInternal.Weighted>
5.4836

> <Gold.Chemscore.Rot.Weighted>
4.5755

> <Gold.Chemscore.Internal.Correction.Weighted>
   9.000000E+99

> <Gold.Protein.RotatedTorsions>
[ 6907 6896 6895 6894 ] final  125.70 input  -60.11 | X-H torsion
[ 7974 7965 7964 7962 ] final  -36.67 input  175.53 | X-H torsion
[ 8008 7997 7996 7995 ] final -177.47 input   59.86 | X-H torsion
[ 10167 10162 10161 10158 ] final   94.25 input  -65.29 | X-H torsion
[ 10718 10713 10712 10709 ] final  109.36 input   66.30 | X-H torsion
[ 10763 10752 10751 10750 ] final  -29.41 input  -60.55 | X-H torsion
[ 11005 11000 10999 10996 ] final    5.41 input  -57.11 | X-H torsion

> <Gold.Protein.ActiveResidues>
 VAL166  LYS551  ARG553  GLY616  TRP617  ASP618  TYR619  PRO620  LYS621  CYS622 
 ASP623  PHE694  ASN695  SER759  ASP760  ASP761  ALA762  ILE779  LEU786  VAL792 
 PHE793  MET794  SER795  GLU796  ALA797  LYS798  CYS799  TRP800  GLU811  SER814 

> <Gold.Protein.RotatedAtoms>
  152.3969  133.6759  159.6283 H   0  0  0  0  0  0  0  0  0  0  0  0  # atno 6907 bound_to 6896
  150.7866  133.8859  159.3308 H   0  0  0  0  0  0  0  0  0  0  0  0  # atno 6908 bound_to 6896
  151.6634  135.0988  160.0235 H   0  0  0  0  0  0  0  0  0  0  0  0  # atno 6909 bound_to 6896
  146.0641  140.6306  142.8983 H   0  0  0  0  0  0  0  0  0  0  0  0  # atno 7974 bound_to 7965
  156.0073  140.1233  157.0489 H   0  0  0  0  0  0  0  0  0  0  0  0  # atno 8008 bound_to 7997
  154.4263  140.1095  156.5849 H   0  0  0  0  0  0  0  0  0  0  0  0  # atno 8009 bound_to 7997
  155.6129  140.3471  155.4630 H   0  0  0  0  0  0  0  0  0  0  0  0  # atno 8010 bound_to 7997
  139.8102  144.6777  150.9651 H   0  0  0  0  0  0  0  0  0  0  0  0  # atno 10167 bound_to 10162
  157.6545  131.0912  150.6442 H   0  0  0  0  0  0  0  0  0  0  0  0  # atno 10718 bound_to 10713
  153.7641  135.6917  153.4919 H   0  0  0  0  0  0  0  0  0  0  0  0  # atno 10763 bound_to 10752
  153.1918  135.4468  155.0158 H   0  0  0  0  0  0  0  0  0  0  0  0  # atno 10764 bound_to 10752
  154.8142  135.3391  154.7155 H   0  0  0  0  0  0  0  0  0  0  0  0  # atno 10765 bound_to 10752
  140.5710  134.0102  155.8009 H   0  0  0  0  0  0  0  0  0  0  0  0  # atno 11005 bound_to 11000
  144.7192  140.4316  143.7021 LP  0  0  0  0  0  0  0  0  0  0  0  0  # atno 17320 bound_to 7965
  145.6507  139.1564  143.2863 LP  0  0  0  0  0  0  0  0  0  0  0  0  # atno 17321 bound_to 7965
  140.7818  143.4193  151.0867 LP  0  0  0  0  0  0  0  0  0  0  0  0  # atno 17342 bound_to 10162
  139.7860  143.8286  152.3145 LP  0  0  0  0  0  0  0  0  0  0  0  0  # atno 17343 bound_to 10162
  156.6750  130.4550  149.5645 LP  0  0  0  0  0  0  0  0  0  0  0  0  # atno 17370 bound_to 10713
  156.1970  130.6596  151.1125 LP  0  0  0  0  0  0  0  0  0  0  0  0  # atno 17371 bound_to 10713
  141.1056  133.9699  157.3003 LP  0  0  0  0  0  0  0  0  0  0  0  0  # atno 17394 bound_to 11000
  139.9362  135.0196  156.8562 LP  0  0  0  0  0  0  0  0  0  0  0  0  # atno 17395 bound_to 11000

$$$$
