#       Name:                AV-unprocessed.smi:2999
#       Creating user name   scv26
#       Creation time:       Fri Mar 27 16:34:19 2020


#       File generated by GOLD software.
#

@<TRIPOS>MOLECULE
AV-unprocessed.smi:2999
    43    45     1
SMALL
NO_CHARGES


@<TRIPOS>ATOM
      1 ****        -1.7518   3.3294   0.0911 O.2            1 S1                 0.0000
      2 ****        -2.2269   2.1936   0.0943 C.2            1 S1                 0.0000
      3 ****        -1.4781   1.0841   0.0535 N.am           1 S1                 0.0000
      4 ****        -0.0227   1.0790  -0.0144 C.3            1 S1                 0.0000
      5 ****         0.5175  -0.3580  -0.0202 C.3            1 S1                 0.0000
      6 ****         2.0585  -0.3951  -0.0069 C.3            1 S1                 0.0000
      7 ****         2.5411  -1.7931  -0.0798 N.4            1 S1                 1.0000
      8 ****         4.0158  -1.8873  -0.0252 C.3            1 S1                 0.0000
      9 ****         4.5172  -3.1646   0.6064 C.3            1 S1                 0.0000
     10 ****         4.5752  -1.8646   1.3778 C.3            1 S1                 0.0000
     11 ****         1.9746  -2.4787  -1.2632 C.3            1 S1                 0.0000
     12 ****         0.4410  -2.3775  -1.2529 C.3            1 S1                 0.0000
     13 ****         0.0561  -1.0091  -1.2011 O.3            1 S1                 0.0000
     14 ****        -3.5373   1.8959   0.1371 N.am           1 S1                 0.0000
     15 ****        -4.6396   2.7891   0.1839 C.2            1 S1                 0.0000
     16 ****        -4.5311   4.1227   0.1988 N.2            1 S1                 0.0000
     17 ****        -5.7790   4.7495   0.2454 C.2            1 S1                 0.0000
     18 ****        -6.8340   3.8717   0.2660 C.2            1 S1                 0.0000
     19 ****        -6.2995   2.2128   0.2281 S.3            1 S1                 0.0000
     20 ****        -1.9431   0.1881   0.0552 H              1 S1                 0.0000
     21 ****         0.3046   1.6108  -0.9094 H              1 S1                 0.0000
     22 ****         0.3744   1.6213   0.8452 H              1 S1                 0.0000
     23 ****         0.1345  -0.8833   0.8571 H              1 S1                 0.0000
     24 ****         2.4588   0.1732  -0.8485 H              1 S1                 0.0000
     25 ****         2.4349   0.0734   0.9033 H              1 S1                 0.0000
     26 ****         4.5624  -1.4248  -0.8453 H              1 S1                 0.0000
     27 ****         3.7856  -3.9051   0.9252 H              1 S1                 0.0000
     28 ****         5.4584  -3.5694   0.2396 H              1 S1                 0.0000
     29 ****         5.5550  -1.4130   1.5201 H              1 S1                 0.0000
     30 ****         3.8819  -1.7419   2.2080 H              1 S1                 0.0000
     31 ****         2.3726  -2.0276  -2.1736 H              1 S1                 0.0000
     32 ****         2.2784  -3.5260  -1.2649 H              1 S1                 0.0000
     33 ****         0.0286  -2.8270  -2.1563 H              1 S1                 0.0000
     34 ****         0.0186  -2.9197  -0.4053 H              1 S1                 0.0000
     35 ****        -3.7761   0.9153   0.1322 H              1 S1                 0.0000
     36 ****        -5.8248   5.8284   0.2612 H              1 S1                 0.0000
     37 ****        -7.8889   4.0998   0.3015 H              1 S1                 0.0000
     38 ****         2.1857  -2.2705   0.7364 H              1 S1                 0.0000
     39 ****        -0.7605   3.4566   0.0568 LP             1 S1                 0.0000
     40 ****        -2.3571   4.1247   0.1228 LP             1 S1                 0.0000
     41 ****         0.4370  -0.5383  -1.9969 LP             1 S1                 0.0000
     42 ****        -0.9420  -0.9553  -1.2281 LP             1 S1                 0.0000
     43 ****        -3.6597   4.6129   0.1789 LP             1 S1                 0.0000
@<TRIPOS>BOND
    1    1    2 2     
    2    2    3 am    
    3    2   14 am    
    4    3    4 1     
    5    3   20 1     
    6    4    5 1     
    7    4   21 1     
    8    4   22 1     
    9    5   13 1     
   10    5    6 1     
   11    5   23 1     
   12    6    7 1     
   13    6   24 1     
   14    6   25 1     
   15    7    8 1     
   16    7   11 1     
   17    7   38 1     
   18    8   10 1     
   19    8    9 1     
   20    8   26 1     
   21    9   10 1     
   22    9   27 1     
   23    9   28 1     
   24   10   29 1     
   25   10   30 1     
   26   11   12 1     
   27   11   31 1     
   28   11   32 1     
   29   12   13 1     
   30   12   33 1     
   31   12   34 1     
   32   14   15 1     
   33   14   35 1     
   34   15   19 1     
   35   15   16 2     
   36   16   17 1     
   37   17   18 2     
   38   17   36 1     
   39   18   19 1     
   40   18   37 1     
   41    1   39 1     
   42    1   40 1     
   43   13   41 1     
   44   13   42 1     
   45   16   43 1     
@<TRIPOS>SUBSTRUCTURE
      1 S1             1
@<TRIPOS>SET
LONE_PAIRS      STATIC     ATOMS    <user>   **** ""
5 39 40 41 42 43
DONOR_HYDROGENS      STATIC     ATOMS    <user>   **** ""
3 20 38 35
ATOM$BLUE        STATIC     ATOMS    COLORGROUP SYSTEM
5 39 40 41 42 43
ATOM$RED        STATIC     ATOMS    COLORGROUP SYSTEM
3 20 38 35
