#       Name:                AV-unprocessed.smi:3173
#       Creating user name   scv26
#       Creation time:       Fri Mar 27 17:55:59 2020


#       File generated by GOLD software.
#

@<TRIPOS>MOLECULE
AV-unprocessed.smi:3173
    38    39     1
SMALL
NO_CHARGES


@<TRIPOS>ATOM
      1 ****        -0.6622   1.4077   0.2285 O.2            1 S1                 0.0000
      2 ****        -1.1083   0.2886  -0.0261 C.2            1 S1                 0.0000
      3 ****        -2.6203   0.0372  -0.0365 C.3            1 S1                 0.0000
      4 ****        -3.3802   0.8012   1.0679 C.3            1 S1                 0.0000
      5 ****        -4.8652   0.5499   1.0158 C.2            1 S1                 0.0000
      6 ****        -5.3673   0.1806   2.1922 C.2            1 S1                 0.0000
      7 ****        -4.3197   0.1087   3.2679 C.3            1 S1                 0.0000
      8 ****        -2.9998   0.3889   2.5157 C.3            1 S1                 0.0000
      9 ****        -0.3275  -0.7649  -0.3113 N.am           1 S1                 0.0000
     10 ****         1.1303  -0.7396  -0.3430 C.3            1 S1                 0.0000
     11 ****         1.6602  -0.1329  -1.6534 C.3            1 S1                 0.0000
     12 ****         3.1753  -0.0902  -1.6939 C.ar           1 S1                 0.0000
     13 ****         3.9000   1.0815  -1.3856 C.ar           1 S1                 0.0000
     14 ****         5.3094   1.0529  -1.4343 C.ar           1 S1                 0.0000
     15 ****         5.9636  -0.1448  -1.7895 C.ar           1 S1                 0.0000
     16 ****         5.1905  -1.2860  -2.0859 C.ar           1 S1                 0.0000
     17 ****         3.8422  -1.2191  -2.0273 N.pl3          1 S1                 1.0000
     18 ****        -3.0005   0.3323  -1.0150 H              1 S1                 0.0000
     19 ****        -2.8130  -1.0327   0.0592 H              1 S1                 0.0000
     20 ****        -3.2379   1.8757   0.9411 H              1 S1                 0.0000
     21 ****        -5.4394   0.6799   0.1100 H              1 S1                 0.0000
     22 ****        -6.4078  -0.0352   2.3855 H              1 S1                 0.0000
     23 ****        -4.5189   0.8635   4.0294 H              1 S1                 0.0000
     24 ****        -4.3174  -0.8740   3.7406 H              1 S1                 0.0000
     25 ****        -2.3900  -0.5156   2.5134 H              1 S1                 0.0000
     26 ****        -2.4150   1.1657   3.0094 H              1 S1                 0.0000
     27 ****        -0.7762  -1.6478  -0.5098 H              1 S1                 0.0000
     28 ****         1.5100  -0.1834   0.5161 H              1 S1                 0.0000
     29 ****         1.4891  -1.7633  -0.2330 H              1 S1                 0.0000
     30 ****         1.2983  -0.7091  -2.5061 H              1 S1                 0.0000
     31 ****         1.2779   0.8805  -1.7837 H              1 S1                 0.0000
     32 ****         3.3840   1.9908  -1.1129 H              1 S1                 0.0000
     33 ****         5.8817   1.9391  -1.2016 H              1 S1                 0.0000
     34 ****         7.0423  -0.1873  -1.8326 H              1 S1                 0.0000
     35 ****         5.6068  -2.2428  -2.3653 H              1 S1                 0.0000
     36 ****         3.3035  -2.0577  -2.2452 H              1 S1                 0.0000
     37 ****        -1.2877   2.1613   0.4306 LP             1 S1                 0.0000
     38 ****         0.3257   1.5631   0.2331 LP             1 S1                 0.0000
@<TRIPOS>BOND
    1    1    2 2     
    2    2    3 1     
    3    2    9 am    
    4    3    4 1     
    5    3   18 1     
    6    3   19 1     
    7    4    8 1     
    8    4    5 1     
    9    4   20 1     
   10    5    6 2     
   11    5   21 1     
   12    6    7 1     
   13    6   22 1     
   14    7    8 1     
   15    7   23 1     
   16    7   24 1     
   17    8   25 1     
   18    8   26 1     
   19    9   10 1     
   20    9   27 1     
   21   10   11 1     
   22   10   28 1     
   23   10   29 1     
   24   11   12 1     
   25   11   30 1     
   26   11   31 1     
   27   12   17 ar    
   28   12   13 ar    
   29   13   14 ar    
   30   13   32 1     
   31   14   15 ar    
   32   14   33 1     
   33   15   16 ar    
   34   15   34 1     
   35   16   17 ar    
   36   16   35 1     
   37   17   36 1     
   38    1   37 1     
   39    1   38 1     
@<TRIPOS>SUBSTRUCTURE
      1 S1             1
@<TRIPOS>SET
LONE_PAIRS      STATIC     ATOMS    <user>   **** ""
2 37 38
DONOR_HYDROGENS      STATIC     ATOMS    <user>   **** ""
2 27 36
ATOM$BLUE        STATIC     ATOMS    COLORGROUP SYSTEM
2 37 38
ATOM$RED        STATIC     ATOMS    COLORGROUP SYSTEM
2 27 36
