AV-unprocessed.smi:3051|AV-procd|sdf|11633|dock1
  -GOLD-   2272017 23D 1   1.00000     0.00000
 Structure written by MMmdl.
 37 37  0  0  0  0  0  0  0  0  1 V2000
  153.0103  142.5975  160.9117 C   0  0  0  0  0  0  0  0  0  0  0  0
  153.0946  141.4257  159.9250 C   0  0  0  0  0  0  0  0  0  0  0  0
  152.2892  141.6698  158.7346 N   0  0  0  0  0  0  0  0  0  0  0  0
  152.1308  140.8072  157.7182 C   0  0  0  0  0  0  0  0  0  0  0  0
  152.6579  139.6953  157.6829 O   0  0  0  0  0  0  0  0  0  0  0  0
  151.2327  141.2638  156.5671 C   0  0  0  0  0  0  0  0  0  0  0  0
  150.9574  140.1753  155.6459 N   0  0  0  0  0  0  0  0  0  0  0  0
  151.8474  139.2785  155.0873 C   0  0  0  0  0  0  0  0  0  0  0  0
  151.1323  138.4368  154.2832 C   0  0  0  0  0  0  0  0  0  0  0  0
  149.7984  138.9077  154.4236 C   0  0  0  0  0  0  0  0  0  0  0  0
  148.7263  138.3071  153.7531 N   0  0  0  0  0  0  0  0  0  0  0  0
  147.3669  138.8099  153.9145 C   0  0  2  0  0  0  0  0  0  0  0  0
  146.3394  137.7754  153.4245 C   0  0  0  0  0  0  0  0  0  0  0  0
  147.2028  140.1418  153.1664 C   0  0  0  0  0  0  0  0  0  0  0  0
  147.9010  141.1601  153.8645 O   0  0  0  0  0  0  0  0  0  0  0  0
  147.0935  142.2960  154.1192 C   0  0  0  0  0  0  0  0  0  0  0  0
  149.6900  139.9482  155.2358 N   0  0  0  0  0  0  0  0  0  0  0  0
  153.6437  142.4175  161.7805 H   0  0  0  0  0  0  0  0  0  0  0  0
  151.9909  142.7428  161.2704 H   0  0  0  0  0  0  0  0  0  0  0  0
  153.3393  143.5278  160.4474 H   0  0  0  0  0  0  0  0  0  0  0  0
  154.1292  141.2830  159.6121 H   0  0  0  0  0  0  0  0  0  0  0  0
  152.7859  140.4978  160.4089 H   0  0  0  0  0  0  0  0  0  0  0  0
  151.8209  142.5627  158.6746 H   0  0  0  0  0  0  0  0  0  0  0  0
  150.2851  141.6375  156.9571 H   0  0  0  0  0  0  0  0  0  0  0  0
  151.7068  142.0884  156.0317 H   0  0  0  0  0  0  0  0  0  0  0  0
  152.9044  139.3160  155.3056 H   0  0  0  0  0  0  0  0  0  0  0  0
  151.5057  137.6150  153.6904 H   0  0  0  0  0  0  0  0  0  0  0  0
  148.8924  137.5385  153.1195 H   0  0  0  0  0  0  0  0  0  0  0  0
  147.1851  138.9975  154.9737 H   0  0  0  0  0  0  0  0  0  0  0  0
  145.3212  138.1424  153.5557 H   0  0  0  0  0  0  0  0  0  0  0  0
  146.4184  136.8385  153.9762 H   0  0  0  0  0  0  0  0  0  0  0  0
  146.4771  137.5501  152.3664 H   0  0  0  0  0  0  0  0  0  0  0  0
  147.5666  140.0553  152.1407 H   0  0  0  0  0  0  0  0  0  0  0  0
  146.1462  140.4102  153.1148 H   0  0  0  0  0  0  0  0  0  0  0  0
  147.6742  143.0449  154.6574 H   0  0  0  0  0  0  0  0  0  0  0  0
  146.2291  142.0368  154.7318 H   0  0  0  0  0  0  0  0  0  0  0  0
  146.7426  142.7461  153.1898 H   0  0  0  0  0  0  0  0  0  0  0  0
  1  2  1  0  0  0  0
  1 18  1  0  0  0  0
  1 19  1  0  0  0  0
  1 20  1  0  0  0  0
  2  3  1  0  0  0  0
  2 21  1  0  0  0  0
  2 22  1  0  0  0  0
  3  4  1  0  0  0  0
  3 23  1  0  0  0  0
  4  5  2  0  0  0  0
  4  6  1  0  0  0  0
  6  7  1  0  0  0  0
  6 24  1  0  0  0  0
  6 25  1  0  0  0  0
  7 17  1  0  0  0  0
  7  8  1  0  0  0  0
  8  9  2  0  0  0  0
  8 26  1  0  0  0  0
  9 10  1  0  0  0  0
  9 27  1  0  0  0  0
 10 11  1  0  0  0  0
 10 17  2  0  0  0  0
 11 12  1  0  0  0  0
 11 28  1  0  0  0  0
 12 13  1  0  0  0  0
 12 14  1  0  0  0  0
 12 29  1  0  0  0  0
 13 30  1  0  0  0  0
 13 31  1  0  0  0  0
 13 32  1  0  0  0  0
 14 15  1  0  0  0  0
 14 33  1  0  0  0  0
 14 34  1  0  0  0  0
 15 16  1  0  0  0  0
 16 35  1  0  0  0  0
 16 36  1  0  0  0  0
 16 37  1  0  0  0  0
M  END
> <s_m_source_file>
AV-unprocessed.smi

> <i_m_source_file_index>
3051

> <i_lp_mmshare_version>
43012

> <i_f3d_flags>
0

> <s_epik_input>
W0NIM11bQ0gyXVtOSF1DKD1PKVtDSDJdbjFbY0hdW2NIXWMobjEpW05IXVtDQEhdKFtDSDNdKVtDSDJdT1tDSDNd

> <s_epik_cmdline>
J2VwaWtfcHl0aG9uJywgJy1waCcsICc3LjAnLCAnLXRuJywgJzgnLCAnLW1hJywgJzIwMCcsICctbWV0YWxfYmluZGluZycsICctaW1hZScsICc8aW5maWxlLm1hZT4nLCAnLW9tYWUnLCAnPG91dGZpbGUubWFlPic=

> <r_lp_tautomer_probability>
1

> <r_epik_Ionization_Penalty>
0.00023157

> <r_epik_Ionization_Penalty_Charging>
0

> <r_epik_Ionization_Penalty_Neutral>
0.00023157

> <r_epik_State_Penalty>
-0

> <r_epik_Charging_Adjusted_Penalty>
0

> <i_epik_Tot_Q>
0

> <i_epik_Tot_abs_Q>
0

> <r_epik_Metal_State_Penalty>
-0

> <b_epik_Metal_Only>
0

> <s_lp_Force_Field>
OPLS_2005

> <r_lp_Energy>
4.00538

> <b_lp_Chiralities_Consistent>
1

> <s_lp_Variant>
AV-unprocessed.smi:3051-1

> <Gold.Version>
5.8.1

> <Gold.Id.Protein>
6NUR|6NUR_protein|mol2

> <Gold.PLP.Fitness>
38.6207

> <Gold.PLP.PLP>
-34.2196

> <Gold.PLP.part.hbond>
-2.4297

> <Gold.PLP.part.metal>
0.0000

> <Gold.PLP.part.buried>
-3.9545

> <Gold.PLP.part.nonpolar>
-27.3844

> <Gold.PLP.part.repulsive>
0.3306

> <Gold.PLP.ligand.clash>
0.0000

> <Gold.PLP.ligand.torsion>
0.8622

> <Gold.PLP.Chemscore.Hbond>
2.0000

> <Gold.PLP.Chemscore.CHOScore>
0.0000

> <Gold.PLP.Chemscore.Metal>
0.0000

> <Gold.Chemscore.Hbonds>
donor molecule, donor type, donor heavy atom, donor atom, acceptor molecule, acceptor atom, score
      L1  H    11    28       P1  7948  1.00
      P1  H  7997  8009       L1     5  1.00

> <Gold.PLP.Chemscore.Internal.Correction>
0.1254

> <Gold.Rescore>
     Score         DG    S(hbond)    S(metal)    S(lipo)     H(rot)  DE(clash)    DE(int)     intcor
     10.13     -14.18       1.95        0.00      66.74       2.19       0.07       3.98       ----

> <Gold.Chemscore.Fitness>
10.1296

> <Gold.Chemscore.DG>
-14.1810

> <Gold.Chemscore.ZeroCoef>
-5.4800

> <Gold.Chemscore.Hbond>
1.9452

> <Gold.Chemscore.Metal>
0.0000

> <Gold.Chemscore.Lipo>
66.7360

> <Gold.Chemscore.Internal_Hbond>
0.0000

> <Gold.Chemscore.DEClash>
0.0730

> <Gold.Chemscore.DEInternal>
3.9785

> <Gold.Chemscore.Rot>
2.1890

> <Gold.Chemscore.Internal.Correction>
   9.000000E+99

> <Gold.Chemscore.Hbonds>
donor molecule, donor type, donor heavy atom, donor atom, acceptor molecule, acceptor atom, score
      L1  H    11    28       P1  7948  1.00
      P1  H  7997  8009       L1     5  0.42

> <Gold.Chemscore.Hbond.Weighted>
-6.4968

> <Gold.Chemscore.Metal.Weighted>
-0.0000

> <Gold.Chemscore.Lipo.Weighted>
-7.8081

> <Gold.Chemscore.Internal_Hbond.Weighted>
0.0000

> <Gold.Chemscore.DEClash.Weighted>
0.0730

> <Gold.Chemscore.DEInternal.Weighted>
3.9785

> <Gold.Chemscore.Rot.Weighted>
5.6039

> <Gold.Chemscore.Internal.Correction.Weighted>
   9.000000E+99

> <Gold.Protein.RotatedTorsions>
[ 6907 6896 6895 6894 ] final -177.60 input  -60.11 | X-H torsion
[ 7974 7965 7964 7962 ] final   23.80 input  175.53 | X-H torsion
[ 8008 7997 7996 7995 ] final  163.51 input   59.86 | X-H torsion
[ 10167 10162 10161 10158 ] final  -10.76 input  -65.29 | X-H torsion
[ 10718 10713 10712 10709 ] final   45.43 input   66.30 | X-H torsion
[ 10763 10752 10751 10750 ] final  -32.75 input  -60.55 | X-H torsion
[ 11005 11000 10999 10996 ] final  176.83 input  -57.11 | X-H torsion

> <Gold.Protein.ActiveResidues>
 VAL166  LYS551  ARG553  GLY616  TRP617  ASP618  TYR619  PRO620  LYS621  CYS622 
 ASP623  PHE694  ASN695  SER759  ASP760  ASP761  ALA762  ILE779  LEU786  VAL792 
 PHE793  MET794  SER795  GLU796  ALA797  LYS798  CYS799  TRP800  GLU811  SER814 

> <Gold.Protein.RotatedAtoms>
  151.6236  133.3337  159.3093 H   0  0  0  0  0  0  0  0  0  0  0  0  # atno 6907 bound_to 6896
  150.8093  134.7241  159.6684 H   0  0  0  0  0  0  0  0  0  0  0  0  # atno 6908 bound_to 6896
  152.4189  134.5996  160.0048 H   0  0  0  0  0  0  0  0  0  0  0  0  # atno 6909 bound_to 6896
  146.1967  139.7694  142.8792 H   0  0  0  0  0  0  0  0  0  0  0  0  # atno 7974 bound_to 7965
  156.1951  140.1721  156.8014 H   0  0  0  0  0  0  0  0  0  0  0  0  # atno 8008 bound_to 7997
  154.5520  140.0716  156.8714 H   0  0  0  0  0  0  0  0  0  0  0  0  # atno 8009 bound_to 7997
  155.3011  140.3361  155.4250 H   0  0  0  0  0  0  0  0  0  0  0  0  # atno 8010 bound_to 7997
  140.7122  143.5713  150.9089 H   0  0  0  0  0  0  0  0  0  0  0  0  # atno 10167 bound_to 10162
  157.4374  130.8061  149.7661 H   0  0  0  0  0  0  0  0  0  0  0  0  # atno 10718 bound_to 10713
  153.8189  135.6876  153.4830 H   0  0  0  0  0  0  0  0  0  0  0  0  # atno 10763 bound_to 10752
  153.1582  135.4590  154.9732 H   0  0  0  0  0  0  0  0  0  0  0  0  # atno 10764 bound_to 10752
  154.7936  135.3311  154.7663 H   0  0  0  0  0  0  0  0  0  0  0  0  # atno 10765 bound_to 10752
  140.3774  134.6976  157.4430 H   0  0  0  0  0  0  0  0  0  0  0  0  # atno 11005 bound_to 11000
  145.3619  141.0327  143.3280 LP  0  0  0  0  0  0  0  0  0  0  0  0  # atno 17320 bound_to 7965
  144.8596  139.5197  143.6818 LP  0  0  0  0  0  0  0  0  0  0  0  0  # atno 17321 bound_to 7965
  139.9439  143.6350  152.3046 LP  0  0  0  0  0  0  0  0  0  0  0  0  # atno 17342 bound_to 10162
  139.6844  144.7653  151.1550 LP  0  0  0  0  0  0  0  0  0  0  0  0  # atno 17343 bound_to 10162
  155.9936  130.3923  150.2895 LP  0  0  0  0  0  0  0  0  0  0  0  0  # atno 17370 bound_to 10713
  157.1057  131.0207  151.3068 LP  0  0  0  0  0  0  0  0  0  0  0  0  # atno 17371 bound_to 10713
  140.0504  134.6138  155.8868 LP  0  0  0  0  0  0  0  0  0  0  0  0  # atno 17394 bound_to 11000
  141.1935  133.6579  156.5549 LP  0  0  0  0  0  0  0  0  0  0  0  0  # atno 17395 bound_to 11000

$$$$
