AV-unprocessed.smi:2005|AV-procd|sdf|8128|dock2
  -GOLD-   2272010363D 1   1.00000     0.00000
 Structure written by MMmdl.
 38 39  0  0  0  0  0  0  0  0  2 V2000
  144.7497  133.6684  161.2038 C   0  0  0  0  0  0  0  0  0  0  0  0
  145.5647  134.5463  162.1649 C   0  0  0  0  0  0  0  0  0  0  0  0
  144.6900  135.4566  163.0392 C   0  0  0  0  0  0  0  0  0  0  0  0
  146.6413  135.3080  161.4567 C   0  0  0  0  0  0  0  0  0  0  0  0
  146.8140  136.6266  161.5925 N   0  0  0  0  0  0  0  0  0  0  0  0
  147.8750  137.0978  160.8338 N   0  0  0  0  0  0  0  0  0  0  0  0
  148.4835  136.1357  160.1262 C   0  0  0  0  0  0  0  0  0  0  0  0
  149.5343  136.3838  159.3271 N   0  5  0  0  0  0  0  0  0  0  0  0
  149.6864  137.6077  158.7713 C   0  0  0  0  0  0  0  0  0  0  0  0
  148.8329  138.4965  158.7184 O   0  0  0  0  0  0  0  0  0  0  0  0
  150.9025  137.8141  158.2447 N   0  0  0  0  0  0  0  0  0  0  0  0
  151.3584  139.0320  157.5797 C   0  0  2  0  0  0  0  0  0  0  0  0
  151.3342  140.2047  158.5767 C   0  0  0  0  0  0  0  0  0  0  0  0
  151.7663  141.5225  157.9095 C   0  0  0  0  0  0  0  0  0  0  0  0
  150.9315  141.8436  156.6552 C   0  0  2  0  0  0  0  0  0  0  0  0
  149.6141  142.1984  157.0271 O   0  0  0  0  0  0  0  0  0  0  0  0
  150.9039  140.6574  155.6727 C   0  0  0  0  0  0  0  0  0  0  0  0
  150.4784  139.3442  156.3527 C   0  0  0  0  0  0  0  0  0  0  0  0
  147.7863  134.5351  160.3720 S   0  0  0  0  0  0  0  0  0  0  0  0
  145.3958  132.9762  160.6630 H   0  0  0  0  0  0  0  0  0  0  0  0
  144.2187  134.2729  160.4674 H   0  0  0  0  0  0  0  0  0  0  0  0
  144.0100  133.0766  161.7436 H   0  0  0  0  0  0  0  0  0  0  0  0
  146.0715  133.8630  162.8476 H   0  0  0  0  0  0  0  0  0  0  0  0
  145.2947  136.0033  163.7638 H   0  0  0  0  0  0  0  0  0  0  0  0
  143.9527  134.8767  163.5948 H   0  0  0  0  0  0  0  0  0  0  0  0
  144.1511  136.1875  162.4352 H   0  0  0  0  0  0  0  0  0  0  0  0
  151.5685  137.0586  158.3139 H   0  0  0  0  0  0  0  0  0  0  0  0
  152.3897  138.8920  157.2497 H   0  0  0  0  0  0  0  0  0  0  0  0
  150.3310  140.3180  158.9908 H   0  0  0  0  0  0  0  0  0  0  0  0
  151.9916  139.9904  159.4201 H   0  0  0  0  0  0  0  0  0  0  0  0
  151.7054  142.3431  158.6253 H   0  0  0  0  0  0  0  0  0  0  0  0
  152.8166  141.4449  157.6258 H   0  0  0  0  0  0  0  0  0  0  0  0
  151.3628  142.7107  156.1538 H   0  0  0  0  0  0  0  0  0  0  0  0
  149.3640  142.9718  156.5451 H   0  0  0  0  0  0  0  0  0  0  0  0
  150.2438  140.8757  154.8324 H   0  0  0  0  0  0  0  0  0  0  0  0
  151.9001  140.5253  155.2488 H   0  0  0  0  0  0  0  0  0  0  0  0
  150.5351  138.5283  155.6316 H   0  0  0  0  0  0  0  0  0  0  0  0
  149.4327  139.4120  156.6564 H   0  0  0  0  0  0  0  0  0  0  0  0
  1  2  1  0  0  0  0
  1 20  1  0  0  0  0
  1 21  1  0  0  0  0
  1 22  1  0  0  0  0
  2  3  1  0  0  0  0
  2  4  1  0  0  0  0
  2 23  1  0  0  0  0
  3 24  1  0  0  0  0
  3 25  1  0  0  0  0
  3 26  1  0  0  0  0
  4 19  1  0  0  0  0
  4  5  2  0  0  0  0
  5  6  1  0  0  0  0
  6  7  2  0  0  0  0
  7  8  1  0  0  0  0
  7 19  1  0  0  0  0
  8  9  1  0  0  0  0
  9 10  2  0  0  0  0
  9 11  1  0  0  0  0
 11 12  1  0  0  0  0
 11 27  1  0  0  0  0
 12 18  1  0  0  0  0
 12 13  1  0  0  0  0
 12 28  1  0  0  0  0
 13 14  1  0  0  0  0
 13 29  1  0  0  0  0
 13 30  1  0  0  0  0
 14 15  1  0  0  0  0
 14 31  1  0  0  0  0
 14 32  1  0  0  0  0
 15 16  1  0  0  0  0
 15 17  1  0  0  0  0
 15 33  1  0  0  0  0
 16 34  1  0  0  0  0
 17 18  1  0  0  0  0
 17 35  1  0  0  0  0
 17 36  1  0  0  0  0
 18 37  1  0  0  0  0
 18 38  1  0  0  0  0
M  CHG  1   8  -1
M  END
> <s_m_source_file>
AV-unprocessed.smi

> <i_m_source_file_index>
2005

> <i_lp_mmshare_version>
43012

> <i_f3d_flags>
0

> <s_epik_input>
W0NIM11bQ0hdKFtDSDNdKWMxbm5jKHMxKVtOSF1DKD1PKVtOSF1bQ0BASF0yW0NIMl1bQ0gyXVtDQEBIXShbT0hdKVtDSDJdW0NIMl0y

> <s_epik_cmdline>
J2VwaWtfcHl0aG9uJywgJy1waCcsICc3LjAnLCAnLXRuJywgJzgnLCAnLW1hJywgJzIwMCcsICctbWV0YWxfYmluZGluZycsICctaW1hZScsICc8aW5maWxlLm1hZT4nLCAnLW9tYWUnLCAnPG91dGZpbGUubWFlPic=

> <r_lp_tautomer_probability>
1

> <r_epik_Ionization_Penalty>
4.58298

> <r_epik_Ionization_Penalty_Charging>
4.41114

> <r_epik_Ionization_Penalty_Neutral>
0.171842

> <r_epik_State_Penalty>
4.41079

> <r_epik_Charging_Adjusted_Penalty>
8.82193

> <i_epik_Tot_Q>
-1

> <i_epik_Tot_abs_Q>
1

> <r_epik_Metal_State_Penalty>
0.7766

> <b_epik_Metal_Only>
1

> <s_lp_Force_Field>
OPLS_2005

> <r_lp_Energy>
2.0831

> <b_lp_Chiralities_Consistent>
1

> <s_lp_Variant>
AV-unprocessed.smi:2005-4

> <Gold.Version>
5.8.1

> <Gold.Id.Protein>
6NUR|6NUR_protein|mol2

> <Gold.PLP.Fitness>
42.1262

> <Gold.PLP.PLP>
-29.1865

> <Gold.PLP.part.hbond>
-5.1847

> <Gold.PLP.part.metal>
0.0000

> <Gold.PLP.part.buried>
-4.1717

> <Gold.PLP.part.nonpolar>
-19.7325

> <Gold.PLP.part.repulsive>
0.1048

> <Gold.PLP.ligand.clash>
0.0000

> <Gold.PLP.ligand.torsion>
0.2800

> <Gold.PLP.Chemscore.Hbond>
4.4672

> <Gold.PLP.Chemscore.CHOScore>
0.0000

> <Gold.PLP.Chemscore.Metal>
0.0000

> <Gold.Chemscore.Hbonds>
donor molecule, donor type, donor heavy atom, donor atom, acceptor molecule, acceptor atom, score
      L1  H    16    34       P1  8028  1.00
      P1  H  6896  6907       L1     8  1.98
      P1  H  6931  6943       L1     6  0.91
      P1  H  6934  6947       L1     6  0.49

> <Gold.PLP.Chemscore.Internal.Correction>
0.0980

> <Gold.Rescore>
     Score         DG    S(hbond)    S(metal)    S(lipo)     H(rot)  DE(clash)    DE(int)     intcor
     14.04     -16.98       2.54        0.00      62.78       1.70       0.02       2.92       ----

> <Gold.Chemscore.Fitness>
14.0370

> <Gold.Chemscore.DG>
-16.9801

> <Gold.Chemscore.ZeroCoef>
-5.4800

> <Gold.Chemscore.Hbond>
2.5444

> <Gold.Chemscore.Metal>
0.0000

> <Gold.Chemscore.Lipo>
62.7828

> <Gold.Chemscore.Internal_Hbond>
0.0000

> <Gold.Chemscore.DEClash>
0.0202

> <Gold.Chemscore.DEInternal>
2.9229

> <Gold.Chemscore.Rot>
1.6968

> <Gold.Chemscore.Internal.Correction>
   9.000000E+99

> <Gold.Chemscore.Hbonds>
donor molecule, donor type, donor heavy atom, donor atom, acceptor molecule, acceptor atom, score
      L1  H    16    34       P1  8028  0.94
      P1  H  6896  6907       L1     8  0.41
      P1  H  6931  6943       L1     6  0.63
      P1  H  6934  6947       L1     6  0.03

> <Gold.Chemscore.Hbond.Weighted>
-8.4984

> <Gold.Chemscore.Metal.Weighted>
-0.0000

> <Gold.Chemscore.Lipo.Weighted>
-7.3456

> <Gold.Chemscore.Internal_Hbond.Weighted>
0.0000

> <Gold.Chemscore.DEClash.Weighted>
0.0202

> <Gold.Chemscore.DEInternal.Weighted>
2.9229

> <Gold.Chemscore.Rot.Weighted>
4.3439

> <Gold.Chemscore.Internal.Correction.Weighted>
   9.000000E+99

> <Gold.Protein.RotatedTorsions>
[ 6907 6896 6895 6894 ] final  -50.55 input  -60.11 | X-H torsion
[ 7974 7965 7964 7962 ] final   67.52 input  175.53 | X-H torsion
[ 8008 7997 7996 7995 ] final -170.95 input   59.86 | X-H torsion
[ 10167 10162 10161 10158 ] final -102.26 input  -65.29 | X-H torsion
[ 10718 10713 10712 10709 ] final   64.09 input   66.30 | X-H torsion
[ 10763 10752 10751 10750 ] final -103.55 input  -60.55 | X-H torsion
[ 11005 11000 10999 10996 ] final  -75.42 input  -57.11 | X-H torsion

> <Gold.Protein.ActiveResidues>
 VAL166  LYS551  ARG553  GLY616  TRP617  ASP618  TYR619  PRO620  LYS621  CYS622 
 ASP623  PHE694  ASN695  SER759  ASP760  ASP761  ALA762  ILE779  LEU786  VAL792 
 PHE793  MET794  SER795  GLU796  ALA797  LYS798  CYS799  TRP800  GLU811  SER814 

> <Gold.Protein.RotatedAtoms>
  150.8696  134.8067  159.7144 H   0  0  0  0  0  0  0  0  0  0  0  0  # atno 6907 bound_to 6896
  152.4705  134.4967  159.9722 H   0  0  0  0  0  0  0  0  0  0  0  0  # atno 6908 bound_to 6896
  151.5058  133.3456  159.2912 H   0  0  0  0  0  0  0  0  0  0  0  0  # atno 6909 bound_to 6896
  145.8137  139.3046  143.1084 H   0  0  0  0  0  0  0  0  0  0  0  0  # atno 7974 bound_to 7965
  155.9251  140.1081  157.1176 H   0  0  0  0  0  0  0  0  0  0  0  0  # atno 8008 bound_to 7997
  154.4061  140.1248  156.4795 H   0  0  0  0  0  0  0  0  0  0  0  0  # atno 8009 bound_to 7997
  155.7148  140.3470  155.4992 H   0  0  0  0  0  0  0  0  0  0  0  0  # atno 8010 bound_to 7997
  140.2326  143.3596  152.0873 H   0  0  0  0  0  0  0  0  0  0  0  0  # atno 10167 bound_to 10162
  157.6016  130.9141  149.9800 H   0  0  0  0  0  0  0  0  0  0  0  0  # atno 10718 bound_to 10713
  154.7815  135.4819  153.9854 H   0  0  0  0  0  0  0  0  0  0  0  0  # atno 10763 bound_to 10752
  153.1500  135.6789  153.8903 H   0  0  0  0  0  0  0  0  0  0  0  0  # atno 10764 bound_to 10752
  153.8551  135.3162  155.3413 H   0  0  0  0  0  0  0  0  0  0  0  0  # atno 10765 bound_to 10752
  141.1645  133.6946  156.7515 H   0  0  0  0  0  0  0  0  0  0  0  0  # atno 11005 bound_to 11000
  145.9750  140.8729  143.0143 LP  0  0  0  0  0  0  0  0  0  0  0  0  # atno 17320 bound_to 7965
  144.6754  140.1999  143.7388 LP  0  0  0  0  0  0  0  0  0  0  0  0  # atno 17321 bound_to 7965
  139.5105  144.6885  151.5824 LP  0  0  0  0  0  0  0  0  0  0  0  0  # atno 17342 bound_to 10162
  140.6174  143.9323  150.6499 LP  0  0  0  0  0  0  0  0  0  0  0  0  # atno 17343 bound_to 10162
  156.1090  130.3651  150.0082 LP  0  0  0  0  0  0  0  0  0  0  0  0  # atno 17370 bound_to 10713
  156.8184  130.9350  151.3642 LP  0  0  0  0  0  0  0  0  0  0  0  0  # atno 17371 bound_to 10713
  140.2601  134.8474  157.3750 LP  0  0  0  0  0  0  0  0  0  0  0  0  # atno 17394 bound_to 11000
  140.1620  134.4717  155.7888 LP  0  0  0  0  0  0  0  0  0  0  0  0  # atno 17395 bound_to 11000

$$$$
