#       Name:                AV-unprocessed.smi:2007
#       Creating user name   scv26
#       Creation time:       Fri Mar 27 10:36:47 2020


#       File generated by GOLD software.
#

@<TRIPOS>MOLECULE
AV-unprocessed.smi:2007
    42    43     1
SMALL
NO_CHARGES


@<TRIPOS>ATOM
      1 ****        -0.7682   3.4980   0.8520 C.3            1 S1                 0.0000
      2 ****        -0.3555   2.0222   0.7711 C.3            1 S1                 0.0000
      3 ****         1.1476   1.8833   0.4427 C.3            1 S1                 0.0000
      4 ****         1.6647   0.5146   0.4061 N.3            1 S1                 0.0000
      5 ****         2.9999   0.4678  -0.1783 C.3            1 S1                 0.0000
      6 ****         3.5465  -0.9691  -0.2405 C.3            1 S1                 0.0000
      7 ****         3.5484  -1.5355   1.0658 O.3            1 S1                 0.0000
      8 ****         2.2550  -1.5455   1.6618 C.3            1 S1                 0.0000
      9 ****         1.7048  -0.1104   1.7268 C.3            1 S1                 0.0000
     10 ****        -1.1621   1.3597  -0.2528 N.am           1 S1                 0.0000
     11 ****        -1.7004   0.1346  -0.1562 C.2            1 S1                 0.0000
     12 ****        -1.6063  -0.5753   0.8454 O.2            1 S1                 0.0000
     13 ****        -2.3427  -0.2036  -1.2879 N.am           1 S1                 0.0000
     14 ****        -2.9820  -1.4321  -1.5995 C.2            1 S1                 0.0000
     15 ****        -3.0338  -2.4864  -0.7768 N.2            1 S1                 0.0000
     16 ****        -3.7170  -3.5636  -1.3464 C.2            1 S1                 0.0000
     17 ****        -4.1833  -3.3101  -2.6125 C.2            1 S1                 0.0000
     18 ****        -3.7792  -1.6991  -3.1430 S.3            1 S1                 0.0000
     19 ****        -0.2040   4.0198   1.6254 H              1 S1                 0.0000
     20 ****        -1.8267   3.5973   1.0949 H              1 S1                 0.0000
     21 ****        -0.5926   4.0139  -0.0927 H              1 S1                 0.0000
     22 ****        -0.5618   1.5872   1.7494 H              1 S1                 0.0000
     23 ****         1.3180   2.3511  -0.5282 H              1 S1                 0.0000
     24 ****         1.7297   2.4682   1.1566 H              1 S1                 0.0000
     25 ****         2.9784   0.8868  -1.1850 H              1 S1                 0.0000
     26 ****         3.6816   1.0892   0.4043 H              1 S1                 0.0000
     27 ****         2.9422  -1.5834  -0.9099 H              1 S1                 0.0000
     28 ****         4.5636  -0.9722  -0.6326 H              1 S1                 0.0000
     29 ****         1.5859  -2.1886   1.0875 H              1 S1                 0.0000
     30 ****         2.3267  -1.9703   2.6630 H              1 S1                 0.0000
     31 ****         2.3250   0.4842   2.3992 H              1 S1                 0.0000
     32 ****         0.7093  -0.1405   2.1669 H              1 S1                 0.0000
     33 ****        -1.2961   1.8661  -1.1155 H              1 S1                 0.0000
     34 ****        -2.3549   0.4894  -2.0214 H              1 S1                 0.0000
     35 ****        -3.8249  -4.4760  -0.7787 H              1 S1                 0.0000
     36 ****        -4.7365  -3.9715  -3.2625 H              1 S1                 0.0000
     37 ****         1.0260  -0.0004  -0.1655 LP             1 S1                 0.0000
     38 ****         4.1637  -1.0012   1.6454 LP             1 S1                 0.0000
     39 ****         3.8805  -2.4769   1.0060 LP             1 S1                 0.0000
     40 ****        -1.1065  -0.2460   1.6465 LP             1 S1                 0.0000
     41 ****        -2.0297  -1.4812   0.8578 LP             1 S1                 0.0000
     42 ****        -2.6307  -2.5013   0.1383 LP             1 S1                 0.0000
@<TRIPOS>BOND
    1    1    2 1     
    2    1   19 1     
    3    1   20 1     
    4    1   21 1     
    5    2    3 1     
    6    2   10 1     
    7    2   22 1     
    8    3    4 1     
    9    3   23 1     
   10    3   24 1     
   11    4    9 1     
   12    4    5 1     
   13    5    6 1     
   14    5   25 1     
   15    5   26 1     
   16    6    7 1     
   17    6   27 1     
   18    6   28 1     
   19    7    8 1     
   20    8    9 1     
   21    8   29 1     
   22    8   30 1     
   23    9   31 1     
   24    9   32 1     
   25   10   11 am    
   26   10   33 1     
   27   11   12 2     
   28   11   13 am    
   29   13   14 1     
   30   13   34 1     
   31   14   18 1     
   32   14   15 2     
   33   15   16 1     
   34   16   17 2     
   35   16   35 1     
   36   17   18 1     
   37   17   36 1     
   38    4   37 1     
   39    7   38 1     
   40    7   39 1     
   41   12   40 1     
   42   12   41 1     
   43   15   42 1     
@<TRIPOS>SUBSTRUCTURE
      1 S1             1
@<TRIPOS>SET
LONE_PAIRS      STATIC     ATOMS    <user>   **** ""
6 37 38 39 40 41 42
DONOR_HYDROGENS      STATIC     ATOMS    <user>   **** ""
2 33 34
ATOM$BLUE        STATIC     ATOMS    COLORGROUP SYSTEM
6 37 38 39 40 41 42
ATOM$RED        STATIC     ATOMS    COLORGROUP SYSTEM
2 33 34
