AV-unprocessed.smi:840|AV-procd|sdf|3914|dock7
  -GOLD-   22720 1373D 1   1.00000     0.00000
 Structure written by MMmdl.
 36 37  0  0  0  0  0  0  0  0  2 V2000
  151.5715  144.9114  158.3365 C   0  0  0  0  0  0  0  0  0  0  0  0
  150.6751  144.1041  159.2906 C   0  0  1  0  0  0  0  0  0  0  0  0
  149.3956  144.8020  159.4116 N   0  0  0  0  0  0  0  0  0  0  0  0
  148.5698  144.7543  160.4683 C   0  0  0  0  0  0  0  0  0  0  0  0
  148.8759  144.0844  161.4579 O   0  0  0  0  0  0  0  0  0  0  0  0
  147.4418  145.4843  160.3127 N   0  5  0  0  0  0  0  0  0  0  0  0
  146.2503  144.9571  160.6379 C   0  0  0  0  0  0  0  0  0  0  0  0
  145.1041  145.3392  160.0636 N   0  0  0  0  0  0  0  0  0  0  0  0
  143.9861  144.6573  160.5470 C   0  0  0  0  0  0  0  0  0  0  0  0
  144.2890  143.7279  161.5062 C   0  0  0  0  0  0  0  0  0  0  0  0
  145.9983  143.6800  161.8316 S   0  0  0  0  0  0  0  0  0  0  0  0
  150.4642  142.7058  158.6889 C   0  0  0  0  0  0  0  0  0  0  0  0
  150.9094  141.7050  159.2534 O   0  0  0  0  0  0  0  0  0  0  0  0
  149.7706  142.6545  157.5419 N   0  0  0  0  0  0  0  0  0  0  0  0
  149.4665  141.4351  156.7987 C   0  0  0  0  0  0  0  0  0  0  0  0
  150.0947  141.4581  155.3901 C   0  0  0  0  0  0  0  0  0  0  0  0
  148.9312  141.6140  154.4104 C   0  0  0  0  0  0  0  0  0  0  0  0
  147.7588  140.9352  155.1109 C   0  0  0  0  0  0  0  0  0  0  0  0
  147.9477  141.2851  156.5878 C   0  0  0  0  0  0  0  0  0  0  0  0
  152.5452  144.4362  158.2114 H   0  0  0  0  0  0  0  0  0  0  0  0
  151.7482  145.9144  158.7262 H   0  0  0  0  0  0  0  0  0  0  0  0
  151.1229  145.0180  157.3476 H   0  0  0  0  0  0  0  0  0  0  0  0
  151.1565  144.0324  160.2680 H   0  0  0  0  0  0  0  0  0  0  0  0
  149.1036  145.3573  158.6211 H   0  0  0  0  0  0  0  0  0  0  0  0
  143.0111  144.8980  160.1501 H   0  0  0  0  0  0  0  0  0  0  0  0
  143.6165  143.0712  162.0368 H   0  0  0  0  0  0  0  0  0  0  0  0
  149.4473  143.5254  157.1462 H   0  0  0  0  0  0  0  0  0  0  0  0
  149.8420  140.5705  157.3491 H   0  0  0  0  0  0  0  0  0  0  0  0
  150.8432  142.2411  155.2588 H   0  0  0  0  0  0  0  0  0  0  0  0
  150.5949  140.5065  155.2064 H   0  0  0  0  0  0  0  0  0  0  0  0
  148.7110  142.6727  154.2673 H   0  0  0  0  0  0  0  0  0  0  0  0
  149.1451  141.1820  153.4324 H   0  0  0  0  0  0  0  0  0  0  0  0
  146.7924  141.2582  154.7230 H   0  0  0  0  0  0  0  0  0  0  0  0
  147.8285  139.8548  154.9774 H   0  0  0  0  0  0  0  0  0  0  0  0
  147.5133  140.5304  157.2442 H   0  0  0  0  0  0  0  0  0  0  0  0
  147.4353  142.2257  156.7964 H   0  0  0  0  0  0  0  0  0  0  0  0
  1  2  1  0  0  0  0
  1 20  1  0  0  0  0
  1 21  1  0  0  0  0
  1 22  1  0  0  0  0
  2  3  1  0  0  0  0
  2 12  1  0  0  0  0
  2 23  1  0  0  0  0
  3  4  1  0  0  0  0
  3 24  1  0  0  0  0
  4  5  2  0  0  0  0
  4  6  1  0  0  0  0
  6  7  1  0  0  0  0
  7 11  1  0  0  0  0
  7  8  2  0  0  0  0
  8  9  1  0  0  0  0
  9 10  2  0  0  0  0
  9 25  1  0  0  0  0
 10 11  1  0  0  0  0
 10 26  1  0  0  0  0
 12 13  2  0  0  0  0
 12 14  1  0  0  0  0
 14 15  1  0  0  0  0
 14 27  1  0  0  0  0
 15 19  1  0  0  0  0
 15 16  1  0  0  0  0
 15 28  1  0  0  0  0
 16 17  1  0  0  0  0
 16 29  1  0  0  0  0
 16 30  1  0  0  0  0
 17 18  1  0  0  0  0
 17 31  1  0  0  0  0
 17 32  1  0  0  0  0
 18 19  1  0  0  0  0
 18 33  1  0  0  0  0
 18 34  1  0  0  0  0
 19 35  1  0  0  0  0
 19 36  1  0  0  0  0
M  CHG  1   6  -1
M  END
> <s_m_source_file>
AV-unprocessed.smi

> <i_m_source_file_index>
840

> <i_lp_mmshare_version>
43012

> <i_f3d_flags>
0

> <s_epik_input>
W0NIMl0xW0NIMl1bQ0gyXVtDSDJdW0NIXTFbTkhdQyg9TylbQ0BIXShbQ0gzXSlbTkhdQyg9TylbTkhdYzJuW2NIXVtjSF1zMg==

> <s_epik_cmdline>
J2VwaWtfcHl0aG9uJywgJy1waCcsICc3LjAnLCAnLXRuJywgJzgnLCAnLW1hJywgJzIwMCcsICctbWV0YWxfYmluZGluZycsICctaW1hZScsICc8aW5maWxlLm1hZT4nLCAnLW9tYWUnLCAnPG91dGZpbGUubWFlPic=

> <r_lp_tautomer_probability>
1

> <r_epik_Ionization_Penalty>
6.35467

> <r_epik_Ionization_Penalty_Charging>
5.47395

> <r_epik_Ionization_Penalty_Neutral>
0.880717

> <r_epik_State_Penalty>
5.4739

> <r_epik_Charging_Adjusted_Penalty>
10.9479

> <i_epik_Tot_Q>
-1

> <i_epik_Tot_abs_Q>
1

> <r_epik_Metal_State_Penalty>
1.48639

> <b_epik_Metal_Only>
1

> <s_lp_Force_Field>
OPLS_2005

> <r_lp_Energy>
13.1034

> <b_lp_Chiralities_Consistent>
1

> <s_lp_Variant>
AV-unprocessed.smi:840-4

> <Gold.Version>
5.8.1

> <Gold.Id.Protein>
6NUR|6NUR_protein|mol2

> <Gold.PLP.Fitness>
38.3011

> <Gold.PLP.PLP>
-32.5701

> <Gold.PLP.part.hbond>
-3.6164

> <Gold.PLP.part.metal>
0.0000

> <Gold.PLP.part.buried>
-6.2292

> <Gold.PLP.part.nonpolar>
-23.2839

> <Gold.PLP.part.repulsive>
1.1371

> <Gold.PLP.ligand.clash>
0.0000

> <Gold.PLP.ligand.torsion>
1.0102

> <Gold.PLP.Chemscore.Hbond>
2.5760

> <Gold.PLP.Chemscore.CHOScore>
0.0000

> <Gold.PLP.Chemscore.Metal>
0.0000

> <Gold.Chemscore.Hbonds>
donor molecule, donor type, donor heavy atom, donor atom, acceptor molecule, acceptor atom, score
      L1  H     3    24       P1  8029  1.00
      L1  H    14    27       P1  8028  1.00
      P1  H  6933  6944       L1     5  0.61

> <Gold.PLP.Chemscore.Internal.Correction>
0.0235

> <Gold.Rescore>
     Score         DG    S(hbond)    S(metal)    S(lipo)     H(rot)  DE(clash)    DE(int)     intcor
     14.18     -17.49       2.37        0.00      70.52       1.62       0.94       2.37       ----

> <Gold.Chemscore.Fitness>
14.1769

> <Gold.Chemscore.DG>
-17.4873

> <Gold.Chemscore.ZeroCoef>
-5.4800

> <Gold.Chemscore.Hbond>
2.3665

> <Gold.Chemscore.Metal>
0.0000

> <Gold.Chemscore.Lipo>
70.5234

> <Gold.Chemscore.Internal_Hbond>
0.0000

> <Gold.Chemscore.DEClash>
0.9426

> <Gold.Chemscore.DEInternal>
2.3678

> <Gold.Chemscore.Rot>
1.6204

> <Gold.Chemscore.Internal.Correction>
   9.000000E+99

> <Gold.Chemscore.Hbonds>
donor molecule, donor type, donor heavy atom, donor atom, acceptor molecule, acceptor atom, score
      L1  H     3    24       P1  8029  0.96
      L1  H    14    27       P1  8028  0.82
      P1  H  6933  6944       L1     5  0.59

> <Gold.Chemscore.Hbond.Weighted>
-7.9042

> <Gold.Chemscore.Metal.Weighted>
-0.0000

> <Gold.Chemscore.Lipo.Weighted>
-8.2512

> <Gold.Chemscore.Internal_Hbond.Weighted>
0.0000

> <Gold.Chemscore.DEClash.Weighted>
0.9426

> <Gold.Chemscore.DEInternal.Weighted>
2.3678

> <Gold.Chemscore.Rot.Weighted>
4.1481

> <Gold.Chemscore.Internal.Correction.Weighted>
   9.000000E+99

> <Gold.Protein.RotatedTorsions>
[ 6907 6896 6895 6894 ] final  170.80 input  -60.11 | X-H torsion
[ 7974 7965 7964 7962 ] final -159.78 input  175.53 | X-H torsion
[ 8008 7997 7996 7995 ] final  -97.07 input   59.86 | X-H torsion
[ 10167 10162 10161 10158 ] final -176.83 input  -65.29 | X-H torsion
[ 10718 10713 10712 10709 ] final  170.22 input   66.30 | X-H torsion
[ 10763 10752 10751 10750 ] final -152.85 input  -60.55 | X-H torsion
[ 11005 11000 10999 10996 ] final  -14.43 input  -57.11 | X-H torsion

> <Gold.Protein.ActiveResidues>
 VAL166  LYS551  ARG553  GLY616  TRP617  ASP618  TYR619  PRO620  LYS621  CYS622 
 ASP623  PHE694  ASN695  SER759  ASP760  ASP761  ALA762  ILE779  LEU786  VAL792 
 PHE793  MET794  SER795  GLU796  ALA797  LYS798  CYS799  TRP800  GLU811  SER814 

> <Gold.Protein.RotatedAtoms>
  151.8104  133.3381  159.3553 H   0  0  0  0  0  0  0  0  0  0  0  0  # atno 6907 bound_to 6896
  150.7328  134.5669  159.5880 H   0  0  0  0  0  0  0  0  0  0  0  0  # atno 6908 bound_to 6896
  152.3079  134.7534  160.0394 H   0  0  0  0  0  0  0  0  0  0  0  0  # atno 6909 bound_to 6896
  144.7452  140.3635  143.6091 H   0  0  0  0  0  0  0  0  0  0  0  0  # atno 7974 bound_to 7965
  154.7829  140.0466  157.1141 H   0  0  0  0  0  0  0  0  0  0  0  0  # atno 8008 bound_to 7997
  154.9683  140.3086  155.4980 H   0  0  0  0  0  0  0  0  0  0  0  0  # atno 8009 bound_to 7997
  156.2939  140.2258  156.4774 H   0  0  0  0  0  0  0  0  0  0  0  0  # atno 8010 bound_to 7997
  139.5510  144.2109  152.1077 H   0  0  0  0  0  0  0  0  0  0  0  0  # atno 10167 bound_to 10162
  157.0113  131.0205  151.2802 H   0  0  0  0  0  0  0  0  0  0  0  0  # atno 10718 bound_to 10713
  154.7967  135.3226  154.7650 H   0  0  0  0  0  0  0  0  0  0  0  0  # atno 10763 bound_to 10752
  153.8327  135.6878  153.4817 H   0  0  0  0  0  0  0  0  0  0  0  0  # atno 10764 bound_to 10752
  153.1662  135.4641  154.9782 H   0  0  0  0  0  0  0  0  0  0  0  0  # atno 10765 bound_to 10752
  140.7863  133.8323  155.9338 H   0  0  0  0  0  0  0  0  0  0  0  0  # atno 11005 bound_to 11000
  145.7152  139.1695  143.2516 LP  0  0  0  0  0  0  0  0  0  0  0  0  # atno 17320 bound_to 7965
  146.1318  140.7176  142.9409 LP  0  0  0  0  0  0  0  0  0  0  0  0  # atno 17321 bound_to 7965
  140.1605  144.5030  150.6635 LP  0  0  0  0  0  0  0  0  0  0  0  0  # atno 17342 bound_to 10162
  140.6772  143.2310  151.5476 LP  0  0  0  0  0  0  0  0  0  0  0  0  # atno 17343 bound_to 10162
  157.5318  130.8063  149.7926 LP  0  0  0  0  0  0  0  0  0  0  0  0  # atno 17370 bound_to 10713
  156.0135  130.3823  150.2186 LP  0  0  0  0  0  0  0  0  0  0  0  0  # atno 17371 bound_to 10713
  140.9433  134.1872  157.4781 LP  0  0  0  0  0  0  0  0  0  0  0  0  # atno 17394 bound_to 11000
  139.8736  134.9880  156.5395 LP  0  0  0  0  0  0  0  0  0  0  0  0  # atno 17395 bound_to 11000

$$$$
