#       Name:                AV-unprocessed.smi:3174
#       Creating user name   scv26
#       Creation time:       Fri Mar 27 17:56:07 2020


#       File generated by GOLD software.
#

@<TRIPOS>MOLECULE
AV-unprocessed.smi:3174
    39    40     1
SMALL
NO_CHARGES


@<TRIPOS>ATOM
      1 ****        -2.4494   2.0845   3.4666 C.3            1 S1                 0.0000
      2 ****        -1.1138   1.6725   3.2375 O.3            1 S1                 0.0000
      3 ****        -1.0284   0.3397   2.7614 C.3            1 S1                 0.0000
      4 ****         0.4435  -0.0397   2.5297 C.3            1 S1                 0.0000
      5 ****         1.0192   0.6818   1.3890 N.am           1 S1                 0.0000
      6 ****         0.7959   0.0686   0.1671 N.2            1 S1                 0.0000
      7 ****         1.2392   0.6073  -0.9228 C.2            1 S1                 0.0000
      8 ****         1.0180  -0.0195  -2.2558 C.2            1 S1                 0.0000
      9 ****         1.4442   0.4922  -3.2927 O.2            1 S1                 0.0000
     10 ****         0.3251  -1.1718  -2.2398 N.am           1 S1                 0.0000
     11 ****        -0.0137  -1.9549  -3.3835 C.3            1 S1                 0.0000
     12 ****        -1.3447  -2.6752  -3.3718 C.3            1 S1                 0.0000
     13 ****        -0.0704  -3.4576  -3.2132 C.3            1 S1                 0.0000
     14 ****         1.9773   1.8586  -0.8868 C.2            1 S1                 0.0000
     15 ****         2.1858   2.4462   0.3116 C.2            1 S1                 0.0000
     16 ****         1.6926   1.8599   1.5589 C.2            1 S1                 0.0000
     17 ****         1.8671   2.3809   2.6600 O.2            1 S1                 0.0000
     18 ****        -2.4576   3.1127   3.8278 H              1 S1                 0.0000
     19 ****        -2.9316   1.4592   4.2190 H              1 S1                 0.0000
     20 ****        -3.0373   2.0453   2.5487 H              1 S1                 0.0000
     21 ****        -1.4641  -0.3350   3.4996 H              1 S1                 0.0000
     22 ****        -1.6014   0.2248   1.8398 H              1 S1                 0.0000
     23 ****         1.0217   0.1197   3.4412 H              1 S1                 0.0000
     24 ****         0.5074  -1.1119   2.3368 H              1 S1                 0.0000
     25 ****         0.0145  -1.5194  -1.3438 H              1 S1                 0.0000
     26 ****         0.3279  -1.5977  -4.3540 H              1 S1                 0.0000
     27 ****        -1.9771  -2.5626  -2.4930 H              1 S1                 0.0000
     28 ****        -1.8746  -2.7645  -4.3178 H              1 S1                 0.0000
     29 ****         0.2521  -4.0688  -4.0538 H              1 S1                 0.0000
     30 ****         0.1464  -3.8685  -2.2288 H              1 S1                 0.0000
     31 ****         2.3528   2.3148  -1.7914 H              1 S1                 0.0000
     32 ****         2.7323   3.3770   0.3528 H              1 S1                 0.0000
     33 ****        -0.6063   1.7389   4.0967 LP             1 S1                 0.0000
     34 ****        -0.7025   2.2818   2.5596 LP             1 S1                 0.0000
     35 ****         0.2904  -0.7933   0.1272 LP             1 S1                 0.0000
     36 ****         1.9542   1.3516  -3.2532 LP             1 S1                 0.0000
     37 ****         1.2802   0.0482  -4.1735 LP             1 S1                 0.0000
     38 ****         1.5091   1.9411   3.4837 LP             1 S1                 0.0000
     39 ****         2.3670   3.2441   2.7312 LP             1 S1                 0.0000
@<TRIPOS>BOND
    1    1    2 1     
    2    1   18 1     
    3    1   19 1     
    4    1   20 1     
    5    2    3 1     
    6    3    4 1     
    7    3   21 1     
    8    3   22 1     
    9    4    5 1     
   10    4   23 1     
   11    4   24 1     
   12    5   16 am    
   13    5    6 1     
   14    6    7 2     
   15    7    8 1     
   16    7   14 1     
   17    8    9 2     
   18    8   10 am    
   19   10   11 1     
   20   10   25 1     
   21   11   13 1     
   22   11   12 1     
   23   11   26 1     
   24   12   13 1     
   25   12   27 1     
   26   12   28 1     
   27   13   29 1     
   28   13   30 1     
   29   14   15 2     
   30   14   31 1     
   31   15   16 1     
   32   15   32 1     
   33   16   17 2     
   34    2   33 1     
   35    2   34 1     
   36    6   35 1     
   37    9   36 1     
   38    9   37 1     
   39   17   38 1     
   40   17   39 1     
@<TRIPOS>SUBSTRUCTURE
      1 S1             1
@<TRIPOS>SET
LONE_PAIRS      STATIC     ATOMS    <user>   **** ""
7 33 34 35 36 37 38 39
DONOR_HYDROGENS      STATIC     ATOMS    <user>   **** ""
1 25
ATOM$BLUE        STATIC     ATOMS    COLORGROUP SYSTEM
7 33 34 35 36 37 38 39
ATOM$RED        STATIC     ATOMS    COLORGROUP SYSTEM
1 25
