AV-unprocessed.smi:2424|AV-procd|sdf|9560|dock5
  -GOLD-   2272013193D 1   1.00000     0.00000
 Structure written by MMmdl.
 50 51  0  0  0  0  0  0  0  0  1 V2000
  147.7929  137.9867  157.9919 C   0  0  0  0  0  0  0  0  0  0  0  0
  146.9903  137.9541  156.6815 C   0  0  0  0  0  0  0  0  0  0  0  0
  147.7594  138.4227  155.4247 C   0  0  0  0  0  0  0  0  0  0  0  0
  148.9976  137.5094  155.2219 C   0  0  0  0  0  0  0  0  0  0  0  0
  150.1465  138.1311  154.4109 C   0  0  0  0  0  0  0  0  0  0  0  0
  146.8675  138.6734  154.1787 C   0  0  2  0  0  0  0  0  0  0  0  0
  146.9563  137.6371  153.1530 N   0  0  0  0  0  0  0  0  0  0  0  0
  145.9698  136.7952  152.8180 C   0  0  0  0  0  0  0  0  0  0  0  0
  144.8538  136.8228  153.3349 O   0  0  0  0  0  0  0  0  0  0  0  0
  146.3755  135.9437  151.8587 N   0  0  0  0  0  0  0  0  0  0  0  0
  145.6760  134.8878  151.2578 C   0  0  0  0  0  0  0  0  0  0  0  0
  144.5943  135.1939  150.5209 C   0  0  0  0  0  0  0  0  0  0  0  0
  143.8381  134.2076  149.8837 N   0  0  0  0  0  0  0  0  0  0  0  0
  144.1125  132.8847  149.9396 C   0  0  0  0  0  0  0  0  0  0  0  0
  143.3967  132.0748  149.3531 O   0  0  0  0  0  0  0  0  0  0  0  0
  145.2984  132.5173  150.7304 C   0  0  0  0  0  0  0  0  0  0  0  0
  145.6677  131.0471  150.8205 C   0  0  0  0  0  0  0  0  0  0  0  0
  146.0292  133.4744  151.3484 C   0  0  0  0  0  0  0  0  0  0  0  0
  147.7109  139.9044  153.8362 C   0  0  1  0  0  0  0  0  0  0  0  0
  147.0603  141.1091  153.1678 C   0  0  0  0  0  0  0  0  0  0  0  0
  148.0711  139.9466  155.3300 C   0  0  1  0  0  0  0  0  0  0  0  0
  147.1572  140.7744  156.0406 O   0  0  0  0  0  0  0  0  0  0  0  0
  147.5256  140.9684  157.3958 C   0  0  0  0  0  0  0  0  0  0  0  0
  143.0358  134.5151  149.3531 H   0  0  0  0  0  0  0  0  0  0  0  0
  147.2084  137.5583  158.8060 H   0  0  0  0  0  0  0  0  0  0  0  0
  148.0559  139.0018  158.2871 H   0  0  0  0  0  0  0  0  0  0  0  0
  148.7114  137.4072  157.9122 H   0  0  0  0  0  0  0  0  0  0  0  0
  146.6616  136.9239  156.5440 H   0  0  0  0  0  0  0  0  0  0  0  0
  146.0698  138.5210  156.8113 H   0  0  0  0  0  0  0  0  0  0  0  0
  149.3873  137.1628  156.1786 H   0  0  0  0  0  0  0  0  0  0  0  0
  148.7037  136.5965  154.7043 H   0  0  0  0  0  0  0  0  0  0  0  0
  150.9183  137.3868  154.2143 H   0  0  0  0  0  0  0  0  0  0  0  0
  150.6250  138.9510  154.9458 H   0  0  0  0  0  0  0  0  0  0  0  0
  149.8040  138.5095  153.4479 H   0  0  0  0  0  0  0  0  0  0  0  0
  145.8483  138.9579  154.4513 H   0  0  0  0  0  0  0  0  0  0  0  0
  147.8404  137.5485  152.6743 H   0  0  0  0  0  0  0  0  0  0  0  0
  147.3172  136.0728  151.5190 H   0  0  0  0  0  0  0  0  0  0  0  0
  144.2252  136.1975  150.3657 H   0  0  0  0  0  0  0  0  0  0  0  0
  146.5651  130.8968  151.4213 H   0  0  0  0  0  0  0  0  0  0  0  0
  145.8559  130.6400  149.8265 H   0  0  0  0  0  0  0  0  0  0  0  0
  144.8573  130.4782  151.2775 H   0  0  0  0  0  0  0  0  0  0  0  0
  146.8939  133.1540  151.9054 H   0  0  0  0  0  0  0  0  0  0  0  0
  148.5981  139.6058  153.2749 H   0  0  0  0  0  0  0  0  0  0  0  0
  146.1321  141.3928  153.6642 H   0  0  0  0  0  0  0  0  0  0  0  0
  146.8209  140.8958  152.1260 H   0  0  0  0  0  0  0  0  0  0  0  0
  147.7225  141.9748  153.1849 H   0  0  0  0  0  0  0  0  0  0  0  0
  149.1156  140.2206  155.4875 H   0  0  0  0  0  0  0  0  0  0  0  0
  146.7650  141.5640  157.9002 H   0  0  0  0  0  0  0  0  0  0  0  0
  148.4733  141.5030  157.4687 H   0  0  0  0  0  0  0  0  0  0  0  0
  147.6201  140.0217  157.9280 H   0  0  0  0  0  0  0  0  0  0  0  0
  1  2  1  0  0  0  0
  1 25  1  0  0  0  0
  1 26  1  0  0  0  0
  1 27  1  0  0  0  0
  2  3  1  0  0  0  0
  2 28  1  0  0  0  0
  2 29  1  0  0  0  0
  3 21  1  0  0  0  0
  3  4  1  0  0  0  0
  3  6  1  0  0  0  0
  4  5  1  0  0  0  0
  4 30  1  0  0  0  0
  4 31  1  0  0  0  0
  5 32  1  0  0  0  0
  5 33  1  0  0  0  0
  5 34  1  0  0  0  0
  6  7  1  0  0  0  0
  6 19  1  0  0  0  0
  6 35  1  0  0  0  0
  7  8  1  0  0  0  0
  7 36  1  0  0  0  0
  8  9  2  0  0  0  0
  8 10  1  0  0  0  0
 10 11  1  0  0  0  0
 10 37  1  0  0  0  0
 11 18  1  0  0  0  0
 11 12  2  0  0  0  0
 12 13  1  0  0  0  0
 12 38  1  0  0  0  0
 13 24  1  0  0  0  0
 13 14  1  0  0  0  0
 14 15  2  0  0  0  0
 14 16  1  0  0  0  0
 16 17  1  0  0  0  0
 16 18  2  0  0  0  0
 17 39  1  0  0  0  0
 17 40  1  0  0  0  0
 17 41  1  0  0  0  0
 18 42  1  0  0  0  0
 19 20  1  0  0  0  0
 19 21  1  0  0  0  0
 19 43  1  0  0  0  0
 20 44  1  0  0  0  0
 20 45  1  0  0  0  0
 20 46  1  0  0  0  0
 21 22  1  0  0  0  0
 21 47  1  0  0  0  0
 22 23  1  0  0  0  0
 23 48  1  0  0  0  0
 23 49  1  0  0  0  0
 23 50  1  0  0  0  0
M  END
> <s_m_source_file>
AV-unprocessed.smi

> <i_m_source_file_index>
2424

> <i_lp_mmshare_version>
43012

> <i_f3d_flags>
0

> <s_epik_input>
W0NIM11PW0NAQEhdMVtDQEhdKFtDSDNdKVtDQEBIXShDMShbQ0gyXVtDSDNdKVtDSDJdW0NIM10pW05IXUMoPU8pW05IXWMyW2NIXVtuSF1jKD1PKWMoW0NIM10pW2NIXTI=

> <s_epik_cmdline>
J2VwaWtfcHl0aG9uJywgJy1waCcsICc3LjAnLCAnLXRuJywgJzgnLCAnLW1hJywgJzIwMCcsICctbWV0YWxfYmluZGluZycsICctaW1hZScsICc8aW5maWxlLm1hZT4nLCAnLW9tYWUnLCAnPG91dGZpbGUubWFlPic=

> <r_lp_tautomer_probability>
1

> <r_epik_Ionization_Penalty>
4.7326e-05

> <r_epik_Ionization_Penalty_Charging>
2.70169e-05

> <r_epik_Ionization_Penalty_Neutral>
2.0309e-05

> <r_epik_State_Penalty>
-0

> <r_epik_Charging_Adjusted_Penalty>
2.70169e-05

> <i_epik_Tot_Q>
0

> <i_epik_Tot_abs_Q>
0

> <r_epik_Metal_State_Penalty>
0.0198736

> <b_epik_Metal_Only>
0

> <s_lp_Force_Field>
OPLS_2005

> <r_lp_Energy>
37.5965

> <b_lp_Chiralities_Consistent>
1

> <s_lp_Variant>
AV-unprocessed.smi:2424-2

> <Gold.Version>
5.8.1

> <Gold.Id.Protein>
6NUR|6NUR_protein|mol2

> <Gold.PLP.Fitness>
42.1299

> <Gold.PLP.PLP>
-30.6463

> <Gold.PLP.part.hbond>
-4.2478

> <Gold.PLP.part.metal>
0.0000

> <Gold.PLP.part.buried>
-7.4076

> <Gold.PLP.part.nonpolar>
-21.1690

> <Gold.PLP.part.repulsive>
0.6431

> <Gold.PLP.ligand.clash>
0.0000

> <Gold.PLP.ligand.torsion>
1.4670

> <Gold.PLP.Chemscore.Hbond>
3.5687

> <Gold.PLP.Chemscore.CHOScore>
1.0000

> <Gold.PLP.Chemscore.Metal>
0.0000

> <Gold.Chemscore.Hbonds>
donor molecule, donor type, donor heavy atom, donor atom, acceptor molecule, acceptor atom, score
      L1  H     7    36       P1  7948  0.83
      L1  H    10    37       P1  7948  1.00
      L1  H    13    24       P1 10186  0.75
      P1  H 10785 10796       L1    15  0.99
      L1  C    12    38       P1 10171  1.00

> <Gold.PLP.Chemscore.Internal.Correction>
0.7114

> <Gold.Rescore>
     Score         DG    S(hbond)    S(metal)    S(lipo)     H(rot)  DE(clash)    DE(int)     intcor
     20.37     -22.27       3.76        0.00      70.03       1.55       0.32       1.58       ----

> <Gold.Chemscore.Fitness>
20.3728

> <Gold.Chemscore.DG>
-22.2720

> <Gold.Chemscore.ZeroCoef>
-5.4800

> <Gold.Chemscore.Hbond>
3.7626

> <Gold.Chemscore.Metal>
0.0000

> <Gold.Chemscore.Lipo>
70.0296

> <Gold.Chemscore.Internal_Hbond>
0.0000

> <Gold.Chemscore.DEClash>
0.3207

> <Gold.Chemscore.DEInternal>
1.5785

> <Gold.Chemscore.Rot>
1.5502

> <Gold.Chemscore.Internal.Correction>
   9.000000E+99

> <Gold.Chemscore.Hbonds>
donor molecule, donor type, donor heavy atom, donor atom, acceptor molecule, acceptor atom, score
      L1  H     7    36       P1  7948  0.83
      L1  H    10    37       P1  7948  0.94
      L1  H    13    24       P1 10186  0.69
      P1  H 10785 10796       L1    15  0.89

> <Gold.Chemscore.Hbond.Weighted>
-12.5670

> <Gold.Chemscore.Metal.Weighted>
-0.0000

> <Gold.Chemscore.Lipo.Weighted>
-8.1935

> <Gold.Chemscore.Internal_Hbond.Weighted>
0.0000

> <Gold.Chemscore.DEClash.Weighted>
0.3207

> <Gold.Chemscore.DEInternal.Weighted>
1.5785

> <Gold.Chemscore.Rot.Weighted>
3.9685

> <Gold.Chemscore.Internal.Correction.Weighted>
   9.000000E+99

> <Gold.Protein.RotatedTorsions>
[ 6907 6896 6895 6894 ] final  -58.66 input  -60.11 | X-H torsion
[ 7974 7965 7964 7962 ] final -134.00 input  175.53 | X-H torsion
[ 8008 7997 7996 7995 ] final  -70.87 input   59.86 | X-H torsion
[ 10167 10162 10161 10158 ] final  134.22 input  -65.29 | X-H torsion
[ 10718 10713 10712 10709 ] final  179.20 input   66.30 | X-H torsion
[ 10763 10752 10751 10750 ] final   81.73 input  -60.55 | X-H torsion
[ 11005 11000 10999 10996 ] final -139.22 input  -57.11 | X-H torsion

> <Gold.Protein.ActiveResidues>
 VAL166  LYS551  ARG553  GLY616  TRP617  ASP618  TYR619  PRO620  LYS621  CYS622 
 ASP623  PHE694  ASN695  SER759  ASP760  ASP761  ALA762  ILE779  LEU786  VAL792 
 PHE793  MET794  SER795  GLU796  ALA797  LYS798  CYS799  TRP800  GLU811  SER814 

> <Gold.Protein.RotatedAtoms>
  150.7990  134.7070  159.6581 H   0  0  0  0  0  0  0  0  0  0  0  0  # atno 6907 bound_to 6896
  152.4105  134.6130  160.0040 H   0  0  0  0  0  0  0  0  0  0  0  0  # atno 6908 bound_to 6896
  151.6374  133.3291  159.3158 H   0  0  0  0  0  0  0  0  0  0  0  0  # atno 6909 bound_to 6896
  144.9142  140.6933  143.5006 H   0  0  0  0  0  0  0  0  0  0  0  0  # atno 7974 bound_to 7965
  154.5045  140.0826  156.7865 H   0  0  0  0  0  0  0  0  0  0  0  0  # atno 8008 bound_to 7997
  155.3926  140.3433  155.4234 H   0  0  0  0  0  0  0  0  0  0  0  0  # atno 8009 bound_to 7997
  156.1498  140.1555  156.8776 H   0  0  0  0  0  0  0  0  0  0  0  0  # atno 8010 bound_to 7997
  139.5265  144.6578  151.5108 H   0  0  0  0  0  0  0  0  0  0  0  0  # atno 10167 bound_to 10162
  156.8793  130.9810  151.3064 H   0  0  0  0  0  0  0  0  0  0  0  0  # atno 10718 bound_to 10713
  153.1142  135.4754  154.9086 H   0  0  0  0  0  0  0  0  0  0  0  0  # atno 10763 bound_to 10752
  154.7511  135.3106  154.8558 H   0  0  0  0  0  0  0  0  0  0  0  0  # atno 10764 bound_to 10752
  153.9139  135.6862  153.4803 H   0  0  0  0  0  0  0  0  0  0  0  0  # atno 10765 bound_to 10752
  140.8541  134.2250  157.4744 H   0  0  0  0  0  0  0  0  0  0  0  0  # atno 11005 bound_to 11000
  145.3404  139.1734  143.4489 LP  0  0  0  0  0  0  0  0  0  0  0  0  # atno 17320 bound_to 7965
  146.3173  140.3444  142.8650 LP  0  0  0  0  0  0  0  0  0  0  0  0  # atno 17321 bound_to 7965
  140.6412  143.8886  150.6693 LP  0  0  0  0  0  0  0  0  0  0  0  0  # atno 17342 bound_to 10162
  140.2221  143.3801  152.1634 LP  0  0  0  0  0  0  0  0  0  0  0  0  # atno 17343 bound_to 10162
  157.6150  130.8611  149.9013 LP  0  0  0  0  0  0  0  0  0  0  0  0  # atno 17370 bound_to 10713
  156.0686  130.3688  150.0825 LP  0  0  0  0  0  0  0  0  0  0  0  0  # atno 17371 bound_to 10713
  139.8705  134.9698  156.4677 LP  0  0  0  0  0  0  0  0  0  0  0  0  # atno 17394 bound_to 11000
  140.8757  133.7955  155.9412 LP  0  0  0  0  0  0  0  0  0  0  0  0  # atno 17395 bound_to 11000

$$$$
