AV-unprocessed.smi:1385|AV-procd|sdf|5635|dock4
  -GOLD-   22720 5253D 1   1.00000     0.00000
 Structure written by MMmdl.
 38 39  0  0  0  0  0  0  0  0  3 V2000
  150.8200  141.9240  156.3462 C   0  0  0  0  0  0  0  0  0  0  0  0
  150.3958  140.7288  155.5632 C   0  0  0  0  0  0  0  0  0  0  0  0
  151.2654  139.9268  154.9365 N   0  0  0  0  0  0  0  0  0  0  0  0
  150.6349  138.8826  154.2742 N   0  0  0  0  0  0  0  0  0  0  0  0
  149.3041  138.9273  154.4239 C   0  0  0  0  0  0  0  0  0  0  0  0
  148.4128  137.9834  153.8490 N   0  0  0  0  0  0  0  0  0  0  0  0
  147.1582  137.6837  154.2286 C   0  0  0  0  0  0  0  0  0  0  0  0
  146.5509  138.2075  155.1628 O   0  0  0  0  0  0  0  0  0  0  0  0
  146.6342  136.7226  153.4536 N   0  0  0  0  0  0  0  0  0  0  0  0
  145.2901  136.1627  153.5928 C   0  0  2  0  0  0  0  0  0  0  0  0
  145.3289  134.6584  153.9255 C   0  0  0  0  0  0  0  0  0  0  0  0
  145.8123  133.8161  152.7315 C   0  0  0  0  0  0  0  0  0  0  0  0
  144.9797  134.0658  151.5235 N   0  3  2  0  0  0  0  0  0  0  0  0
  145.3327  133.1884  150.3795 C   0  0  0  0  0  0  0  0  0  0  0  0
  144.1020  132.9317  149.5030 C   0  0  0  0  0  0  0  0  0  0  0  0
  143.7318  134.0219  148.8046 N   0  5  0  0  0  0  0  0  0  0  0  0
  143.5856  131.8160  149.4925 O   0  0  0  0  0  0  0  0  0  0  0  0
  144.9767  135.5024  151.1470 C   0  0  0  0  0  0  0  0  0  0  0  0
  144.4785  136.3860  152.3056 C   0  0  0  0  0  0  0  0  0  0  0  0
  148.7080  140.2602  155.3981 S   0  0  0  0  0  0  0  0  0  0  0  0
  151.8031  142.2659  156.0211 H   0  0  0  0  0  0  0  0  0  0  0  0
  150.8679  141.6756  157.4065 H   0  0  0  0  0  0  0  0  0  0  0  0
  150.1059  142.7360  156.2074 H   0  0  0  0  0  0  0  0  0  0  0  0
  148.7781  137.4700  153.0606 H   0  0  0  0  0  0  0  0  0  0  0  0
  147.2058  136.3531  152.7081 H   0  0  0  0  0  0  0  0  0  0  0  0
  144.7866  136.6904  154.4050 H   0  0  0  0  0  0  0  0  0  0  0  0
  145.9610  134.4722  154.7946 H   0  0  0  0  0  0  0  0  0  0  0  0
  144.3276  134.3300  154.2074 H   0  0  0  0  0  0  0  0  0  0  0  0
  146.8568  134.0398  152.5093 H   0  0  0  0  0  0  0  0  0  0  0  0
  145.7713  132.7619  153.0060 H   0  0  0  0  0  0  0  0  0  0  0  0
  146.0711  133.6815  149.7459 H   0  0  0  0  0  0  0  0  0  0  0  0
  145.7978  132.2667  150.7366 H   0  0  0  0  0  0  0  0  0  0  0  0
  142.7829  134.3927  148.9354 H   0  0  0  0  0  0  0  0  0  0  0  0
  145.9815  135.8013  150.8444 H   0  0  0  0  0  0  0  0  0  0  0  0
  144.3294  135.6534  150.2825 H   0  0  0  0  0  0  0  0  0  0  0  0
  143.4300  136.1569  152.5008 H   0  0  0  0  0  0  0  0  0  0  0  0
  144.5091  137.4372  152.0162 H   0  0  0  0  0  0  0  0  0  0  0  0
  144.0281  133.8308  151.7677 H   0  0  0  0  0  0  0  0  0  0  0  0
  1  2  1  0  0  0  0
  1 21  1  0  0  0  0
  1 22  1  0  0  0  0
  1 23  1  0  0  0  0
  2 20  1  0  0  0  0
  2  3  2  0  0  0  0
  3  4  1  0  0  0  0
  4  5  2  0  0  0  0
  5  6  1  0  0  0  0
  5 20  1  0  0  0  0
  6  7  1  0  0  0  0
  6 24  1  0  0  0  0
  7  8  2  0  0  0  0
  7  9  1  0  0  0  0
  9 10  1  0  0  0  0
  9 25  1  0  0  0  0
 10 19  1  0  0  0  0
 10 11  1  0  0  0  0
 10 26  1  0  0  0  0
 11 12  1  0  0  0  0
 11 27  1  0  0  0  0
 11 28  1  0  0  0  0
 12 13  1  0  0  0  0
 12 29  1  0  0  0  0
 12 30  1  0  0  0  0
 13 14  1  0  0  0  0
 13 18  1  0  0  0  0
 13 38  1  0  0  0  0
 14 15  1  0  0  0  0
 14 31  1  0  0  0  0
 14 32  1  0  0  0  0
 15 16  1  0  0  0  0
 15 17  2  0  0  0  0
 16 33  1  0  0  0  0
 18 19  1  0  0  0  0
 18 34  1  0  0  0  0
 18 35  1  0  0  0  0
 19 36  1  0  0  0  0
 19 37  1  0  0  0  0
M  CHG  1  13   1
M  CHG  1  16  -1
M  END
> <s_m_source_file>
AV-unprocessed.smi

> <i_m_source_file_index>
1385

> <i_lp_mmshare_version>
43012

> <i_f3d_flags>
0

> <s_epik_input>
W0NIM11jMW5uYyhzMSlbTkhdQyg9TylbTkhdW0NIXTJbQ0gyXVtDSDJdTihbQ0gyXVtDSDJdMilbQ0gyXUMoPU8pW05IMl0=

> <s_epik_cmdline>
J2VwaWtfcHl0aG9uJywgJy1waCcsICc3LjAnLCAnLXRuJywgJzgnLCAnLW1hJywgJzIwMCcsICctbWV0YWxfYmluZGluZycsICctaW1hZScsICc8aW5maWxlLm1hZT4nLCAnLW9tYWUnLCAnPG91dGZpbGUubWFlPic=

> <r_lp_tautomer_probability>
1

> <r_epik_Ionization_Penalty>
5.73549

> <r_epik_Ionization_Penalty_Charging>
5.73152

> <r_epik_Ionization_Penalty_Neutral>
0.00396448

> <r_epik_State_Penalty>
6.57436

> <r_epik_Charging_Adjusted_Penalty>
12.3059

> <i_epik_Tot_Q>
0

> <i_epik_Tot_abs_Q>
2

> <r_epik_Metal_State_Penalty>
2.87628

> <b_epik_Metal_Only>
1

> <s_lp_Force_Field>
OPLS_2005

> <r_lp_Energy>
6.46457

> <b_lp_Chiralities_Consistent>
1

> <s_lp_Variant>
AV-unprocessed.smi:1385-8

> <Gold.Version>
5.8.1

> <Gold.Id.Protein>
6NUR|6NUR_protein|mol2

> <Gold.PLP.Fitness>
43.3787

> <Gold.PLP.PLP>
-30.1496

> <Gold.PLP.part.hbond>
-6.1366

> <Gold.PLP.part.metal>
0.0000

> <Gold.PLP.part.buried>
-6.7647

> <Gold.PLP.part.nonpolar>
-18.5787

> <Gold.PLP.part.repulsive>
0.5287

> <Gold.PLP.ligand.clash>
0.0000

> <Gold.PLP.ligand.torsion>
0.5136

> <Gold.PLP.Chemscore.Hbond>
4.7440

> <Gold.PLP.Chemscore.CHOScore>
0.0000

> <Gold.PLP.Chemscore.Metal>
0.0000

> <Gold.Chemscore.Hbonds>
donor molecule, donor type, donor heavy atom, donor atom, acceptor molecule, acceptor atom, score
      L1  H     6    24       P1  7948  1.00
      L1  H     9    25       P1  7948  0.99
      L1  H    16    33       P1 10186  1.00
      P1  H  7989  7998       L1     3  0.80
      P1  H 10785 10796       L1    17  0.96

> <Gold.PLP.Chemscore.Internal.Correction>
0.0242

> <Gold.Rescore>
     Score         DG    S(hbond)    S(metal)    S(lipo)     H(rot)  DE(clash)    DE(int)     intcor
     17.85     -18.67       3.84        0.00      47.71       2.04       0.06       0.76       ----

> <Gold.Chemscore.Fitness>
17.8530

> <Gold.Chemscore.DG>
-18.6748

> <Gold.Chemscore.ZeroCoef>
-5.4800

> <Gold.Chemscore.Hbond>
3.8406

> <Gold.Chemscore.Metal>
0.0000

> <Gold.Chemscore.Lipo>
47.7070

> <Gold.Chemscore.Internal_Hbond>
0.0000

> <Gold.Chemscore.DEClash>
0.0615

> <Gold.Chemscore.DEInternal>
0.7604

> <Gold.Chemscore.Rot>
2.0369

> <Gold.Chemscore.Internal.Correction>
   9.000000E+99

> <Gold.Chemscore.Hbonds>
donor molecule, donor type, donor heavy atom, donor atom, acceptor molecule, acceptor atom, score
      L1  H     6    24       P1  7948  1.00
      L1  H     9    25       P1  7948  0.93
      L1  H    16    33       P1 10186  0.99
      P1  H  7989  7998       L1     3  0.04
      P1  H 10785 10796       L1    17  0.92

> <Gold.Chemscore.Hbond.Weighted>
-12.8275

> <Gold.Chemscore.Metal.Weighted>
-0.0000

> <Gold.Chemscore.Lipo.Weighted>
-5.5817

> <Gold.Chemscore.Internal_Hbond.Weighted>
0.0000

> <Gold.Chemscore.DEClash.Weighted>
0.0615

> <Gold.Chemscore.DEInternal.Weighted>
0.7604

> <Gold.Chemscore.Rot.Weighted>
5.2144

> <Gold.Chemscore.Internal.Correction.Weighted>
   9.000000E+99

> <Gold.Protein.RotatedTorsions>
[ 6907 6896 6895 6894 ] final -149.33 input  -60.11 | X-H torsion
[ 7974 7965 7964 7962 ] final  -20.89 input  175.53 | X-H torsion
[ 8008 7997 7996 7995 ] final   78.97 input   59.86 | X-H torsion
[ 10167 10162 10161 10158 ] final   95.45 input  -65.29 | X-H torsion
[ 10718 10713 10712 10709 ] final -102.27 input   66.30 | X-H torsion
[ 10763 10752 10751 10750 ] final -146.07 input  -60.55 | X-H torsion
[ 11005 11000 10999 10996 ] final  -42.28 input  -57.11 | X-H torsion

> <Gold.Protein.ActiveResidues>
 VAL166  LYS551  ARG553  GLY616  TRP617  ASP618  TYR619  PRO620  LYS621  CYS622 
 ASP623  PHE694  ASN695  SER759  ASP760  ASP761  ALA762  ILE779  LEU786  VAL792 
 PHE793  MET794  SER795  GLU796  ALA797  LYS798  CYS799  TRP800  GLU811  SER814 

> <Gold.Protein.RotatedAtoms>
  151.1826  133.4716  159.2593 H   0  0  0  0  0  0  0  0  0  0  0  0  # atno 6907 bound_to 6896
  151.1244  135.0096  159.8563 H   0  0  0  0  0  0  0  0  0  0  0  0  # atno 6908 bound_to 6896
  152.5457  134.1734  159.8659 H   0  0  0  0  0  0  0  0  0  0  0  0  # atno 6909 bound_to 6896
  146.1763  140.4265  142.8512 H   0  0  0  0  0  0  0  0  0  0  0  0  # atno 7974 bound_to 7965
  155.8631  140.3452  155.5770 H   0  0  0  0  0  0  0  0  0  0  0  0  # atno 8008 bound_to 7997
  155.7911  140.0872  157.2028 H   0  0  0  0  0  0  0  0  0  0  0  0  # atno 8009 bound_to 7997
  154.4013  140.1483  156.3151 H   0  0  0  0  0  0  0  0  0  0  0  0  # atno 8010 bound_to 7997
  139.7987  144.6822  150.9794 H   0  0  0  0  0  0  0  0  0  0  0  0  # atno 10167 bound_to 10162
  156.0223  130.5412  150.7084 H   0  0  0  0  0  0  0  0  0  0  0  0  # atno 10718 bound_to 10713
  154.8354  135.3396  154.6604 H   0  0  0  0  0  0  0  0  0  0  0  0  # atno 10763 bound_to 10752
  153.7219  135.6957  153.5015 H   0  0  0  0  0  0  0  0  0  0  0  0  # atno 10764 bound_to 10752
  153.2375  135.4395  155.0615 H   0  0  0  0  0  0  0  0  0  0  0  0  # atno 10765 bound_to 10752
  141.0304  133.6822  156.2572 H   0  0  0  0  0  0  0  0  0  0  0  0  # atno 11005 bound_to 11000
  144.8242  140.6600  143.6333 LP  0  0  0  0  0  0  0  0  0  0  0  0  # atno 17320 bound_to 7965
  145.4202  139.1565  143.4078 LP  0  0  0  0  0  0  0  0  0  0  0  0  # atno 17321 bound_to 7965
  140.7820  143.4304  151.0703 LP  0  0  0  0  0  0  0  0  0  0  0  0  # atno 17342 bound_to 10162
  139.7977  143.8128  152.3159 LP  0  0  0  0  0  0  0  0  0  0  0  0  # atno 17343 bound_to 10162
  157.4728  131.0895  151.0623 LP  0  0  0  0  0  0  0  0  0  0  0  0  # atno 17370 bound_to 10713
  157.1079  130.6009  149.5475 LP  0  0  0  0  0  0  0  0  0  0  0  0  # atno 17371 bound_to 10713
  140.6416  134.5160  157.5570 LP  0  0  0  0  0  0  0  0  0  0  0  0  # atno 17394 bound_to 11000
  139.9204  134.8160  156.1229 LP  0  0  0  0  0  0  0  0  0  0  0  0  # atno 17395 bound_to 11000

$$$$
