AV-unprocessed.smi:1295|AV-procd|sdf|5406|dock10
  -GOLD-   22720 4563D 1   1.00000     0.00000
 Structure written by MMmdl.
 43 44  0  0  0  0  0  0  0  0  1 V2000
  146.5260  138.8152  151.7711 C   0  0  0  0  0  0  0  0  0  0  0  0
  147.0517  139.4715  153.0293 C   0  0  0  0  0  0  0  0  0  0  0  0
  148.1449  138.8232  153.5800 N   0  0  0  0  0  0  0  0  0  0  0  0
  148.6972  139.3512  154.7336 C   0  0  0  0  0  0  0  0  0  0  0  0
  149.8923  138.5825  155.2710 C   0  0  0  0  0  0  0  0  0  0  0  0
  148.1826  140.4661  155.3121 C   0  0  0  0  0  0  0  0  0  0  0  0
  148.7609  141.0747  156.5884 C   0  0  0  0  0  0  0  0  0  0  0  0
  150.2042  141.5729  156.4846 C   0  0  0  0  0  0  0  0  0  0  0  0
  150.8546  141.3742  155.4586 O   0  0  0  0  0  0  0  0  0  0  0  0
  150.6861  142.2227  157.5552 N   0  0  0  0  0  0  0  0  0  0  0  0
  152.0158  142.8239  157.6764 C   0  0  1  0  0  0  0  0  0  0  0  0
  151.9535  144.3058  157.2553 C   0  0  0  0  0  0  0  0  0  0  0  0
  151.1817  145.1666  158.2705 C   0  0  0  0  0  0  0  0  0  0  0  0
  151.7649  145.0175  159.6836 C   0  0  0  0  0  0  0  0  0  0  0  0
  151.8106  143.5440  160.1189 C   0  0  0  0  0  0  0  0  0  0  0  0
  152.5907  142.6770  159.1090 C   0  0  1  0  0  0  0  0  0  0  0  0
  152.6877  141.2146  159.5763 C   0  0  0  0  0  0  0  0  0  0  0  0
  147.0077  141.1117  154.6802 C   0  0  0  0  0  0  0  0  0  0  0  0
  146.4879  142.1173  155.1622 O   0  0  0  0  0  0  0  0  0  0  0  0
  146.4899  140.5401  153.5065 N   0  0  0  0  0  0  0  0  0  0  0  0
  148.5557  137.9897  153.1845 H   0  0  0  0  0  0  0  0  0  0  0  0
  145.7691  139.4384  151.2931 H   0  0  0  0  0  0  0  0  0  0  0  0
  146.0756  137.8509  152.0078 H   0  0  0  0  0  0  0  0  0  0  0  0
  147.3341  138.6547  151.0566 H   0  0  0  0  0  0  0  0  0  0  0  0
  150.7778  139.2178  155.2892 H   0  0  0  0  0  0  0  0  0  0  0  0
  150.1191  137.7112  154.6555 H   0  0  0  0  0  0  0  0  0  0  0  0
  149.6971  138.2328  156.2851 H   0  0  0  0  0  0  0  0  0  0  0  0
  148.7045  140.3680  157.4166 H   0  0  0  0  0  0  0  0  0  0  0  0
  148.1201  141.9041  156.8899 H   0  0  0  0  0  0  0  0  0  0  0  0
  150.0743  142.3282  158.3516 H   0  0  0  0  0  0  0  0  0  0  0  0
  152.6984  142.3247  156.9865 H   0  0  0  0  0  0  0  0  0  0  0  0
  152.9687  144.6934  157.1598 H   0  0  0  0  0  0  0  0  0  0  0  0
  151.5013  144.3982  156.2669 H   0  0  0  0  0  0  0  0  0  0  0  0
  151.2110  146.2133  157.9663 H   0  0  0  0  0  0  0  0  0  0  0  0
  150.1296  144.8788  158.2764 H   0  0  0  0  0  0  0  0  0  0  0  0
  152.7715  145.4368  159.7089 H   0  0  0  0  0  0  0  0  0  0  0  0
  151.1721  145.5959  160.3926 H   0  0  0  0  0  0  0  0  0  0  0  0
  152.2726  143.4724  161.1042 H   0  0  0  0  0  0  0  0  0  0  0  0
  150.7943  143.1637  160.2299 H   0  0  0  0  0  0  0  0  0  0  0  0
  153.6119  143.0603  159.0803 H   0  0  0  0  0  0  0  0  0  0  0  0
  151.7031  140.7615  159.6945 H   0  0  0  0  0  0  0  0  0  0  0  0
  153.1973  141.1450  160.5376 H   0  0  0  0  0  0  0  0  0  0  0  0
  153.2492  140.6116  158.8624 H   0  0  0  0  0  0  0  0  0  0  0  0
  1 22  1  0  0  0  0
  1 23  1  0  0  0  0
  1 24  1  0  0  0  0
  1  2  1  0  0  0  0
  2  3  1  0  0  0  0
  2 20  2  0  0  0  0
  3  4  1  0  0  0  0
  3 21  1  0  0  0  0
  4  6  2  0  0  0  0
  4  5  1  0  0  0  0
  5 25  1  0  0  0  0
  5 26  1  0  0  0  0
  5 27  1  0  0  0  0
  6 18  1  0  0  0  0
  6  7  1  0  0  0  0
  7  8  1  0  0  0  0
  7 28  1  0  0  0  0
  7 29  1  0  0  0  0
  8  9  2  0  0  0  0
  8 10  1  0  0  0  0
 10 11  1  0  0  0  0
 10 30  1  0  0  0  0
 11 16  1  0  0  0  0
 11 12  1  0  0  0  0
 11 31  1  0  0  0  0
 12 13  1  0  0  0  0
 12 32  1  0  0  0  0
 12 33  1  0  0  0  0
 13 14  1  0  0  0  0
 13 34  1  0  0  0  0
 13 35  1  0  0  0  0
 14 15  1  0  0  0  0
 14 36  1  0  0  0  0
 14 37  1  0  0  0  0
 15 16  1  0  0  0  0
 15 38  1  0  0  0  0
 15 39  1  0  0  0  0
 16 17  1  0  0  0  0
 16 40  1  0  0  0  0
 17 41  1  0  0  0  0
 17 42  1  0  0  0  0
 17 43  1  0  0  0  0
 18 19  2  0  0  0  0
 18 20  1  0  0  0  0
M  END
> <s_m_source_file>
AV-unprocessed.smi

> <i_m_source_file_index>
1295

> <i_lp_mmshare_version>
43012

> <i_f3d_flags>
0

> <s_epik_input>
W0NIM11jMW5jKFtDSDNdKWMoYyg9TylbbkhdMSlbQ0gyXUMoPU8pW05IXVtDQEBIXTJbQ0gyXVtDSDJdW0NIMl1bQ0gyXVtDQEhdMltDSDNd

> <s_epik_cmdline>
J2VwaWtfcHl0aG9uJywgJy1waCcsICc3LjAnLCAnLXRuJywgJzgnLCAnLW1hJywgJzIwMCcsICctbWV0YWxfYmluZGluZycsICctaW1hZScsICc8aW5maWxlLm1hZT4nLCAnLW9tYWUnLCAnPG91dGZpbGUubWFlPic=

> <r_lp_tautomer_probability>
0.156392

> <r_epik_Ionization_Penalty>
0.0136057

> <r_epik_Ionization_Penalty_Charging>
0.0134742

> <r_epik_Ionization_Penalty_Neutral>
0.000131572

> <r_epik_State_Penalty>
1.15342

> <r_epik_Charging_Adjusted_Penalty>
1.16689

> <i_epik_Tot_Q>
0

> <i_epik_Tot_abs_Q>
0

> <r_epik_Metal_State_Penalty>
1.31351

> <b_epik_Metal_Only>
0

> <s_lp_Force_Field>
OPLS_2005

> <r_lp_Energy>
15.3468

> <b_lp_Chiralities_Consistent>
1

> <s_lp_Variant>
AV-unprocessed.smi:1295-6

> <Gold.Version>
5.8.1

> <Gold.Id.Protein>
6NUR|6NUR_protein|mol2

> <Gold.PLP.Fitness>
40.3403

> <Gold.PLP.PLP>
-37.0980

> <Gold.PLP.part.hbond>
-3.0000

> <Gold.PLP.part.metal>
0.0000

> <Gold.PLP.part.buried>
-1.7129

> <Gold.PLP.part.nonpolar>
-32.5958

> <Gold.PLP.part.repulsive>
0.4262

> <Gold.PLP.ligand.clash>
0.0000

> <Gold.PLP.ligand.torsion>
0.3936

> <Gold.PLP.Chemscore.Hbond>
1.3403

> <Gold.PLP.Chemscore.CHOScore>
0.0000

> <Gold.PLP.Chemscore.Metal>
0.0000

> <Gold.Chemscore.Hbonds>
donor molecule, donor type, donor heavy atom, donor atom, acceptor molecule, acceptor atom, score
      L1  H     3    21       P1  7948  0.54
      P1  H  7989  7998       L1     9  0.36

> <Gold.PLP.Chemscore.Internal.Correction>
0.0086

> <Gold.Rescore>
     Score         DG    S(hbond)    S(metal)    S(lipo)     H(rot)  DE(clash)    DE(int)     intcor
     16.39     -18.65       1.39        0.00     105.21       1.48       1.78       0.47       ----

> <Gold.Chemscore.Fitness>
16.3898

> <Gold.Chemscore.DG>
-18.6462

> <Gold.Chemscore.ZeroCoef>
-5.4800

> <Gold.Chemscore.Hbond>
1.3908

> <Gold.Chemscore.Metal>
0.0000

> <Gold.Chemscore.Lipo>
105.2139

> <Gold.Chemscore.Internal_Hbond>
0.0000

> <Gold.Chemscore.DEClash>
1.7835

> <Gold.Chemscore.DEInternal>
0.4729

> <Gold.Chemscore.Rot>
1.4801

> <Gold.Chemscore.Internal.Correction>
   9.000000E+99

> <Gold.Chemscore.Hbonds>
donor molecule, donor type, donor heavy atom, donor atom, acceptor molecule, acceptor atom, score
      L1  H     3    21       P1  7948  0.54
      P1  H  7989  7998       L1     9  0.37

> <Gold.Chemscore.Hbond.Weighted>
-4.6453

> <Gold.Chemscore.Metal.Weighted>
-0.0000

> <Gold.Chemscore.Lipo.Weighted>
-12.3100

> <Gold.Chemscore.Internal_Hbond.Weighted>
0.0000

> <Gold.Chemscore.DEClash.Weighted>
1.7835

> <Gold.Chemscore.DEInternal.Weighted>
0.4729

> <Gold.Chemscore.Rot.Weighted>
3.7891

> <Gold.Chemscore.Internal.Correction.Weighted>
   9.000000E+99

> <Gold.Protein.RotatedTorsions>
[ 6907 6896 6895 6894 ] final   -1.53 input  -60.11 | X-H torsion
[ 7974 7965 7964 7962 ] final  164.65 input  175.53 | X-H torsion
[ 8008 7997 7996 7995 ] final   98.00 input   59.86 | X-H torsion
[ 10167 10162 10161 10158 ] final   49.15 input  -65.29 | X-H torsion
[ 10718 10713 10712 10709 ] final  105.66 input   66.30 | X-H torsion
[ 10763 10752 10751 10750 ] final   97.98 input  -60.55 | X-H torsion
[ 11005 11000 10999 10996 ] final   35.89 input  -57.11 | X-H torsion

> <Gold.Protein.ActiveResidues>
 VAL166  LYS551  ARG553  GLY616  TRP617  ASP618  TYR619  PRO620  LYS621  CYS622 
 ASP623  PHE694  ASN695  SER759  ASP760  ASP761  ALA762  ILE779  LEU786  VAL792 
 PHE793  MET794  SER795  GLU796  ALA797  LYS798  CYS799  TRP800  GLU811  SER814 

> <Gold.Protein.RotatedAtoms>
  151.5446  135.1068  159.9934 H   0  0  0  0  0  0  0  0  0  0  0  0  # atno 6907 bound_to 6896
  152.4520  133.7643  159.6774 H   0  0  0  0  0  0  0  0  0  0  0  0  # atno 6908 bound_to 6896
  150.8451  133.7808  159.3070 H   0  0  0  0  0  0  0  0  0  0  0  0  # atno 6909 bound_to 6896
  144.7536  139.8357  143.6358 H   0  0  0  0  0  0  0  0  0  0  0  0  # atno 7974 bound_to 7965
  156.0960  140.3250  155.7878 H   0  0  0  0  0  0  0  0  0  0  0  0  # atno 8008 bound_to 7997
  155.4918  140.0562  157.2970 H   0  0  0  0  0  0  0  0  0  0  0  0  # atno 8009 bound_to 7997
  154.4666  140.1992  156.0117 H   0  0  0  0  0  0  0  0  0  0  0  0  # atno 8010 bound_to 7997
  140.2859  144.3102  150.6252 H   0  0  0  0  0  0  0  0  0  0  0  0  # atno 10167 bound_to 10162
  157.6697  131.0833  150.5890 H   0  0  0  0  0  0  0  0  0  0  0  0  # atno 10718 bound_to 10713
  153.2835  135.4164  155.1101 H   0  0  0  0  0  0  0  0  0  0  0  0  # atno 10763 bound_to 10752
  154.8497  135.3501  154.6079 H   0  0  0  0  0  0  0  0  0  0  0  0  # atno 10764 bound_to 10752
  153.6500  135.7053  153.5270 H   0  0  0  0  0  0  0  0  0  0  0  0  # atno 10765 bound_to 10752
  140.2381  134.3447  155.7936 H   0  0  0  0  0  0  0  0  0  0  0  0  # atno 11005 bound_to 11000
  146.1518  139.4603  143.0044 LP  0  0  0  0  0  0  0  0  0  0  0  0  # atno 17320 bound_to 7965
  145.6858  141.0178  143.1582 LP  0  0  0  0  0  0  0  0  0  0  0  0  # atno 17321 bound_to 7965
  140.5773  143.2175  151.7492 LP  0  0  0  0  0  0  0  0  0  0  0  0  # atno 17342 bound_to 10162
  139.4950  144.4131  152.0059 LP  0  0  0  0  0  0  0  0  0  0  0  0  # atno 17343 bound_to 10162
  156.6190  130.4401  149.5829 LP  0  0  0  0  0  0  0  0  0  0  0  0  # atno 17370 bound_to 10713
  156.2370  130.6828  151.1519 LP  0  0  0  0  0  0  0  0  0  0  0  0  # atno 17371 bound_to 10713
  141.2213  133.7283  156.8841 LP  0  0  0  0  0  0  0  0  0  0  0  0  # atno 17394 bound_to 11000
  140.1681  134.9119  157.2799 LP  0  0  0  0  0  0  0  0  0  0  0  0  # atno 17395 bound_to 11000

$$$$
