AV-unprocessed.smi:110|AV-procd|sdf|1068|dock1
  -GOLD-   2262018143D 1   1.00000     0.00000
 Structure written by MMmdl.
 46 50  0  0  0  0  0  0  0  0  1 V2000
  146.3016  139.8210  152.0379 O   0  0  0  0  0  0  0  0  0  0  0  0
  146.4007  138.5482  152.6408 C   0  0  0  0  0  0  0  0  0  0  0  0
  147.1136  138.6597  153.9999 C   0  0  2  0  0  0  0  0  0  0  0  0
  148.4299  139.1903  153.8501 O   0  0  0  0  0  0  0  0  0  0  0  0
  149.2743  138.7032  154.8509 C   0  0  1  0  0  0  0  0  0  0  0  0
  149.7988  139.8450  155.6700 N   0  0  0  0  0  0  0  0  0  0  0  0
  149.3732  141.1532  155.6300 C   0  0  0  0  0  0  0  0  0  0  0  0
  149.9869  141.9672  156.4440 N   0  0  0  0  0  0  0  0  0  0  0  0
  150.9009  141.1606  157.1112 C   0  0  0  0  0  0  0  0  0  0  0  0
  151.8816  141.3871  158.1192 C   0  0  0  0  0  0  0  0  0  0  0  0
  152.1264  142.5857  158.6980 N   0  0  0  0  0  0  0  0  0  0  0  0
  151.7157  143.8179  158.0095 C   0  0  0  0  0  0  0  0  0  0  0  0
  151.6884  144.9479  159.0565 C   0  0  0  0  0  0  0  0  0  0  0  0
  152.2224  144.2368  160.2580 C   0  0  0  0  0  0  0  0  0  0  0  0
  152.4956  144.7870  161.5224 C   0  0  0  0  0  0  0  0  0  0  0  0
  153.0233  143.9366  162.5175 C   0  0  0  0  0  0  0  0  0  0  0  0
  153.2755  142.5741  162.2338 C   0  0  0  0  0  0  0  0  0  0  0  0
  152.9948  142.0437  160.9554 C   0  0  0  0  0  0  0  0  0  0  0  0
  152.4461  142.8935  159.9727 C   0  0  0  0  0  0  0  0  0  0  0  0
  152.6568  140.3370  158.4902 N   0  0  0  0  0  0  0  0  0  0  0  0
  152.4592  139.1330  157.9472 C   0  0  0  0  0  0  0  0  0  0  0  0
  151.5673  138.7721  157.0237 N   0  0  0  0  0  0  0  0  0  0  0  0
  150.8026  139.8270  156.6201 C   0  0  0  0  0  0  0  0  0  0  0  0
  148.4878  137.6642  155.6755 C   0  0  1  0  0  0  0  0  0  0  0  0
  148.0069  138.1554  156.9144 O   0  0  0  0  0  0  0  0  0  0  0  0
  147.3318  137.3350  154.7441 C   0  0  2  0  0  0  0  0  0  0  0  0
  147.6938  136.2977  153.8497 O   0  0  0  0  0  0  0  0  0  0  0  0
  146.5436  139.3150  154.6594 H   0  0  0  0  0  0  0  0  0  0  0  0
  150.1604  138.2775  154.3784 H   0  0  0  0  0  0  0  0  0  0  0  0
  149.1218  136.8001  155.8789 H   0  0  0  0  0  0  0  0  0  0  0  0
  146.4375  137.0178  155.2825 H   0  0  0  0  0  0  0  0  0  0  0  0
  145.3880  140.0535  151.9741 H   0  0  0  0  0  0  0  0  0  0  0  0
  145.3855  138.1746  152.7794 H   0  0  0  0  0  0  0  0  0  0  0  0
  146.9158  137.8545  151.9756 H   0  0  0  0  0  0  0  0  0  0  0  0
  148.5873  141.4893  154.9694 H   0  0  0  0  0  0  0  0  0  0  0  0
  152.4360  144.0449  157.2227 H   0  0  0  0  0  0  0  0  0  0  0  0
  150.7380  143.6943  157.5417 H   0  0  0  0  0  0  0  0  0  0  0  0
  152.3245  145.7880  158.7766 H   0  0  0  0  0  0  0  0  0  0  0  0
  150.6756  145.3054  159.2452 H   0  0  0  0  0  0  0  0  0  0  0  0
  152.3114  145.8316  161.7255 H   0  0  0  0  0  0  0  0  0  0  0  0
  153.2440  144.3305  163.4985 H   0  0  0  0  0  0  0  0  0  0  0  0
  153.6903  141.9346  162.9989 H   0  0  0  0  0  0  0  0  0  0  0  0
  153.2047  141.0061  160.7414 H   0  0  0  0  0  0  0  0  0  0  0  0
  153.1076  138.3461  158.3033 H   0  0  0  0  0  0  0  0  0  0  0  0
  148.6983  138.6475  157.3303 H   0  0  0  0  0  0  0  0  0  0  0  0
  148.1640  136.6779  153.1235 H   0  0  0  0  0  0  0  0  0  0  0  0
  1  2  1  0  0  0  0
  1 32  1  0  0  0  0
  2  3  1  0  0  0  0
  2 33  1  0  0  0  0
  2 34  1  0  0  0  0
  3 28  1  0  0  0  0
  3 26  1  0  0  0  0
  3  4  1  0  0  0  0
  4  5  1  0  0  0  0
  5 29  1  0  0  0  0
  5  6  1  0  0  0  0
  5 24  1  0  0  0  0
  6 23  1  0  0  0  0
  6  7  1  0  0  0  0
  7  8  2  0  0  0  0
  7 35  1  0  0  0  0
  8  9  1  0  0  0  0
  9 23  2  0  0  0  0
  9 10  1  0  0  0  0
 10 11  1  0  0  0  0
 10 20  2  0  0  0  0
 11 19  1  0  0  0  0
 11 12  1  0  0  0  0
 12 13  1  0  0  0  0
 12 36  1  0  0  0  0
 12 37  1  0  0  0  0
 13 14  1  0  0  0  0
 13 38  1  0  0  0  0
 13 39  1  0  0  0  0
 14 19  2  0  0  0  0
 14 15  1  0  0  0  0
 15 16  2  0  0  0  0
 15 40  1  0  0  0  0
 16 17  1  0  0  0  0
 16 41  1  0  0  0  0
 17 18  2  0  0  0  0
 17 42  1  0  0  0  0
 18 19  1  0  0  0  0
 18 43  1  0  0  0  0
 20 21  1  0  0  0  0
 21 22  2  0  0  0  0
 21 44  1  0  0  0  0
 22 23  1  0  0  0  0
 24 30  1  0  0  0  0
 24 25  1  0  0  0  0
 24 26  1  0  0  0  0
 25 45  1  0  0  0  0
 26 31  1  0  0  0  0
 26 27  1  0  0  0  0
 27 46  1  0  0  0  0
M  END
> <s_m_source_file>
AV-unprocessed.smi

> <i_m_source_file_index>
110

> <i_lp_mmshare_version>
43012

> <i_f3d_flags>
0

> <s_epik_input>
W09IXVtDSDJdW0NASF0xT1tDQEhdKFtDQEhdKFtPSF0pW0NAQEhdMVtPSF0pbihbY0hdbjIpYyhjMjMpbltjSF1uYzNOKFtDSDJdW0NIMl00KWMoYzQ1KVtjSF1bY0hdW2NIXVtjSF01

> <s_epik_cmdline>
J2VwaWtfcHl0aG9uJywgJy1waCcsICc3LjAnLCAnLXRuJywgJzgnLCAnLW1hJywgJzIwMCcsICctbWV0YWxfYmluZGluZycsICctaW1hZScsICc8aW5maWxlLm1hZT4nLCAnLW9tYWUnLCAnPG91dGZpbGUubWFlPic=

> <r_lp_tautomer_probability>
1

> <r_epik_Ionization_Penalty>
0.00068475

> <r_epik_Ionization_Penalty_Charging>
0

> <r_epik_Ionization_Penalty_Neutral>
0.00068475

> <r_epik_State_Penalty>
0.000417442

> <r_epik_Charging_Adjusted_Penalty>
0.000417442

> <i_epik_Tot_Q>
0

> <i_epik_Tot_abs_Q>
0

> <r_epik_Metal_State_Penalty>
-0

> <b_epik_Metal_Only>
0

> <s_epik_Chemistry_Notes>
This compound contains an acetal/aminal-like group ( X-CH(R)-Y where X, Y are N, S, or O) that may be acid/base labile, releasing an aldehyde.

> <s_lp_Force_Field>
OPLS_2005

> <r_lp_Energy>
62.6904

> <b_lp_Chiralities_Consistent>
1

> <s_lp_Variant>
AV-unprocessed.smi:110-6

> <Gold.Version>
5.8.1

> <Gold.Id.Protein>
6NUR|6NUR_protein|mol2

> <Gold.PLP.Fitness>
51.4287

> <Gold.PLP.PLP>
-47.1168

> <Gold.PLP.part.hbond>
-1.8562

> <Gold.PLP.part.metal>
0.0000

> <Gold.PLP.part.buried>
-8.3102

> <Gold.PLP.part.nonpolar>
-39.8054

> <Gold.PLP.part.repulsive>
1.8079

> <Gold.PLP.ligand.clash>
0.0000

> <Gold.PLP.ligand.torsion>
0.5817

> <Gold.PLP.Chemscore.Hbond>
1.8025

> <Gold.PLP.Chemscore.CHOScore>
0.0000

> <Gold.PLP.Chemscore.Metal>
0.0000

> <Gold.Chemscore.Hbonds>
donor molecule, donor type, donor heavy atom, donor atom, acceptor molecule, acceptor atom, score
      L1  H     1    32       P1 10175  1.00
      L1  H    27    46       P1  7948  0.80

> <Gold.PLP.Chemscore.Internal.Correction>
0.0680

> <Gold.Rescore>
     Score         DG    S(hbond)    S(metal)    S(lipo)     H(rot)  DE(clash)    DE(int)     intcor
     12.96     -15.69       1.97        0.00     104.93       3.38       0.05       2.67       ----

> <Gold.Chemscore.Fitness>
12.9626

> <Gold.Chemscore.DG>
-15.6904

> <Gold.Chemscore.ZeroCoef>
-5.4800

> <Gold.Chemscore.Hbond>
1.9748

> <Gold.Chemscore.Metal>
0.0000

> <Gold.Chemscore.Lipo>
104.9307

> <Gold.Chemscore.Internal_Hbond>
0.0000

> <Gold.Chemscore.DEClash>
0.0529

> <Gold.Chemscore.DEInternal>
2.6750

> <Gold.Chemscore.Rot>
3.3837

> <Gold.Chemscore.Internal.Correction>
   9.000000E+99

> <Gold.Chemscore.Hbonds>
donor molecule, donor type, donor heavy atom, donor atom, acceptor molecule, acceptor atom, score
      L1  H     1    32       P1 10175  0.50
      L1  H    27    46       P1  7948  0.76

> <Gold.Chemscore.Hbond.Weighted>
-6.5957

> <Gold.Chemscore.Metal.Weighted>
-0.0000

> <Gold.Chemscore.Lipo.Weighted>
-12.2769

> <Gold.Chemscore.Internal_Hbond.Weighted>
0.0000

> <Gold.Chemscore.DEClash.Weighted>
0.0529

> <Gold.Chemscore.DEInternal.Weighted>
2.6750

> <Gold.Chemscore.Rot.Weighted>
8.6622

> <Gold.Chemscore.Internal.Correction.Weighted>
   9.000000E+99

> <Gold.Protein.RotatedTorsions>
[ 6907 6896 6895 6894 ] final  136.20 input  -60.11 | X-H torsion
[ 7974 7965 7964 7962 ] final -143.27 input  175.53 | X-H torsion
[ 8008 7997 7996 7995 ] final   34.61 input   59.86 | X-H torsion
[ 10167 10162 10161 10158 ] final   68.60 input  -65.29 | X-H torsion
[ 10718 10713 10712 10709 ] final    6.58 input   66.30 | X-H torsion
[ 10763 10752 10751 10750 ] final  -95.47 input  -60.55 | X-H torsion
[ 11005 11000 10999 10996 ] final   47.37 input  -57.11 | X-H torsion

> <Gold.Protein.ActiveResidues>
 VAL166  LYS551  ARG553  GLY616  TRP617  ASP618  TYR619  PRO620  LYS621  CYS622 
 ASP623  PHE694  ASN695  SER759  ASP760  ASP761  ALA762  ILE779  LEU786  VAL792 
 PHE793  MET794  SER795  GLU796  ALA797  LYS798  CYS799  TRP800  GLU811  SER814 

> <Gold.Protein.RotatedAtoms>
  152.2920  133.5570  159.5562 H   0  0  0  0  0  0  0  0  0  0  0  0  # atno 6907 bound_to 6896
  150.7239  134.0415  159.3776 H   0  0  0  0  0  0  0  0  0  0  0  0  # atno 6908 bound_to 6896
  151.8321  135.0618  160.0489 H   0  0  0  0  0  0  0  0  0  0  0  0  # atno 6909 bound_to 6896
  144.8382  140.5855  143.5470 H   0  0  0  0  0  0  0  0  0  0  0  0  # atno 7974 bound_to 7965
  155.1577  140.3280  155.4418 H   0  0  0  0  0  0  0  0  0  0  0  0  # atno 8008 bound_to 7997
  156.2553  140.1965  156.6636 H   0  0  0  0  0  0  0  0  0  0  0  0  # atno 8009 bound_to 7997
  154.6427  140.0568  156.9851 H   0  0  0  0  0  0  0  0  0  0  0  0  # atno 8010 bound_to 7997
  140.0769  144.5105  150.7189 H   0  0  0  0  0  0  0  0  0  0  0  0  # atno 10167 bound_to 10162
  156.9242  130.5802  149.5648 H   0  0  0  0  0  0  0  0  0  0  0  0  # atno 10718 bound_to 10713
  154.7151  135.5119  153.8725 H   0  0  0  0  0  0  0  0  0  0  0  0  # atno 10763 bound_to 10752
  153.0813  135.6632  154.0047 H   0  0  0  0  0  0  0  0  0  0  0  0  # atno 10764 bound_to 10752
  153.9881  135.3022  155.3394 H   0  0  0  0  0  0  0  0  0  0  0  0  # atno 10765 bound_to 10752
  140.1285  134.4736  155.8540 H   0  0  0  0  0  0  0  0  0  0  0  0  # atno 11005 bound_to 11000
  145.4751  139.1500  143.3793 LP  0  0  0  0  0  0  0  0  0  0  0  0  # atno 17320 bound_to 7965
  146.2678  140.4885  142.8827 LP  0  0  0  0  0  0  0  0  0  0  0  0  # atno 17321 bound_to 7965
  140.7098  143.2496  151.4617 LP  0  0  0  0  0  0  0  0  0  0  0  0  # atno 17342 bound_to 10162
  139.5803  144.1725  152.1959 LP  0  0  0  0  0  0  0  0  0  0  0  0  # atno 17343 bound_to 10162
  156.0477  130.5551  150.8918 LP  0  0  0  0  0  0  0  0  0  0  0  0  # atno 17370 bound_to 10713
  157.5888  131.0945  150.9153 LP  0  0  0  0  0  0  0  0  0  0  0  0  # atno 17371 bound_to 10713
  141.2166  133.6787  156.7025 LP  0  0  0  0  0  0  0  0  0  0  0  0  # atno 17394 bound_to 11000
  140.2872  134.8269  157.3985 LP  0  0  0  0  0  0  0  0  0  0  0  0  # atno 17395 bound_to 11000

$$$$
