#       Name:                AV-unprocessed.smi:2061
#       Creating user name   scv26
#       Creation time:       Fri Mar 27 11:06:48 2020


#       File generated by GOLD software.
#

@<TRIPOS>MOLECULE
AV-unprocessed.smi:2061
    53    54     1
SMALL
NO_CHARGES


@<TRIPOS>ATOM
      1 ****        -2.9299   5.8776   2.8314 C.3            1 S1                 0.0000
      2 ****        -3.2484   4.6404   2.0634 C.2            1 S1                 0.0000
      3 ****        -2.6459   4.0280   1.0014 C.2            1 S1                 0.0000
      4 ****        -3.4652   2.8884   0.7761 C.2            1 S1                 0.0000
      5 ****        -3.2859   1.9673  -0.1834 N.pl3          1 S1                -1.0000
      6 ****        -2.4855   0.9005   0.0386 C.2            1 S1                 0.0000
      7 ****        -1.8599   0.6563   1.0733 O.2            1 S1                 0.0000
      8 ****        -2.3985   0.0645  -1.0059 N.am           1 S1                 0.0000
      9 ****        -1.6047  -1.1596  -1.0463 C.3            1 S1                 0.0000
     10 ****        -0.0858  -0.8892  -1.2094 C.3            1 S1                 0.0000
     11 ****         0.1723  -0.1109  -2.5221 C.3            1 S1                 0.0000
     12 ****         0.6772  -2.1784  -1.1156 N.4            1 S1                 1.0000
     13 ****         2.0197  -2.2220  -1.7562 C.3            1 S1                 0.0000
     14 ****         3.0634  -1.4596  -0.9154 C.3            1 S1                 0.0000
     15 ****         4.4632  -1.5296  -1.5351 C.3            1 S1                 0.0000
     16 ****         3.1229  -2.0539   0.3766 O.3            1 S1                 0.0000
     17 ****         1.8861  -1.9798   1.0779 C.3            1 S1                 0.0000
     18 ****         2.0900  -2.6026   2.4633 C.3            1 S1                 0.0000
     19 ****         0.7927  -2.7141   0.2689 C.3            1 S1                 0.0000
     20 ****        -4.4841   2.8233   1.6170 N.2            1 S1                 0.0000
     21 ****        -4.3485   3.9400   2.4505 O.3            1 S1                 0.0000
     22 ****        -2.8905   6.7426   2.1692 H              1 S1                 0.0000
     23 ****        -1.9626   5.7851   3.3253 H              1 S1                 0.0000
     24 ****        -3.6826   6.0715   3.5959 H              1 S1                 0.0000
     25 ****        -1.7589   4.3423   0.4720 H              1 S1                 0.0000
     26 ****        -2.9283   0.2978  -1.8332 H              1 S1                 0.0000
     27 ****        -1.8294  -1.7341  -0.1488 H              1 S1                 0.0000
     28 ****        -1.9625  -1.7615  -1.8820 H              1 S1                 0.0000
     29 ****         0.2430  -0.2408  -0.3984 H              1 S1                 0.0000
     30 ****        -0.4283   0.7971  -2.5756 H              1 S1                 0.0000
     31 ****        -0.0700  -0.7130  -3.3981 H              1 S1                 0.0000
     32 ****         1.2077   0.2181  -2.6072 H              1 S1                 0.0000
     33 ****         2.3201  -3.2685  -1.8249 H              1 S1                 0.0000
     34 ****         1.9984  -1.8737  -2.7877 H              1 S1                 0.0000
     35 ****         2.7808  -0.4103  -0.8180 H              1 S1                 0.0000
     36 ****         4.4758  -1.0760  -2.5264 H              1 S1                 0.0000
     37 ****         4.8009  -2.5616  -1.6342 H              1 S1                 0.0000
     38 ****         5.1894  -0.9996  -0.9185 H              1 S1                 0.0000
     39 ****         1.6192  -0.9317   1.2175 H              1 S1                 0.0000
     40 ****         1.1721  -2.5611   3.0501 H              1 S1                 0.0000
     41 ****         2.8630  -2.0717   3.0193 H              1 S1                 0.0000
     42 ****         2.3925  -3.6474   2.3868 H              1 S1                 0.0000
     43 ****        -0.1564  -2.6752   0.8002 H              1 S1                 0.0000
     44 ****         1.0478  -3.7725   0.1988 H              1 S1                 0.0000
     45 ****         0.1156  -2.8406  -1.6315 H              1 S1                 0.0000
     46 ****        -3.7458   2.0703  -1.0654 LP             1 S1                 0.0000
     47 ****        -1.9193   1.2802   1.8525 LP             1 S1                 0.0000
     48 ****        -1.2934  -0.1656   1.1329 LP             1 S1                 0.0000
     49 ****         3.8226  -1.5821   0.9130 LP             1 S1                 0.0000
     50 ****         3.3743  -3.0164   0.2739 LP             1 S1                 0.0000
     51 ****        -5.1992   2.1250   1.6503 LP             1 S1                 0.0000
     52 ****        -5.1605   4.5185   2.3732 LP             1 S1                 0.0000
     53 ****        -4.2412   3.6413   3.3988 LP             1 S1                 0.0000
@<TRIPOS>BOND
    1    1    2 1     
    2    1   22 1     
    3    1   23 1     
    4    1   24 1     
    5    2   21 1     
    6    2    3 2     
    7    3    4 1     
    8    3   25 1     
    9    4    5 1     
   10    4   20 2     
   11    5    6 1     
   12    6    7 2     
   13    6    8 am    
   14    8    9 1     
   15    8   26 1     
   16    9   10 1     
   17    9   27 1     
   18    9   28 1     
   19   10   11 1     
   20   10   12 1     
   21   10   29 1     
   22   11   30 1     
   23   11   31 1     
   24   11   32 1     
   25   12   19 1     
   26   12   13 1     
   27   12   45 1     
   28   13   14 1     
   29   13   33 1     
   30   13   34 1     
   31   14   15 1     
   32   14   16 1     
   33   14   35 1     
   34   15   36 1     
   35   15   37 1     
   36   15   38 1     
   37   16   17 1     
   38   17   18 1     
   39   17   19 1     
   40   17   39 1     
   41   18   40 1     
   42   18   41 1     
   43   18   42 1     
   44   19   43 1     
   45   19   44 1     
   46   20   21 1     
   47    5   46 1     
   48    7   47 1     
   49    7   48 1     
   50   16   49 1     
   51   16   50 1     
   52   20   51 1     
   53   21   52 1     
   54   21   53 1     
@<TRIPOS>SUBSTRUCTURE
      1 S1             1
@<TRIPOS>SET
LONE_PAIRS      STATIC     ATOMS    <user>   **** ""
8 46 47 48 49 50 51 52 53
DONOR_HYDROGENS      STATIC     ATOMS    <user>   **** ""
2 26 45
ATOM$BLUE        STATIC     ATOMS    COLORGROUP SYSTEM
8 46 47 48 49 50 51 52 53
ATOM$RED        STATIC     ATOMS    COLORGROUP SYSTEM
2 26 45
