#       Name:                AV-unprocessed.smi:2725
#       Creating user name   scv26
#       Creation time:       Fri Mar 27 14:55:37 2020


#       File generated by GOLD software.
#

@<TRIPOS>MOLECULE
AV-unprocessed.smi:2725
    49    50     1
SMALL
NO_CHARGES


@<TRIPOS>ATOM
      1 ****         1.2879   1.8690   0.1969 O.2            1 S1                 0.0000
      2 ****         0.8612   0.7168   0.2674 C.2            1 S1                 0.0000
      3 ****        -0.6442   0.4467   0.2165 C.3            1 S1                 0.0000
      4 ****        -1.4394   1.3532   1.1737 C.3            1 S1                 0.0000
      5 ****        -2.9477   1.0483   1.1765 C.3            1 S1                 0.0000
      6 ****        -3.6627   1.3716  -0.1395 C.3            1 S1                 0.0000
      7 ****        -5.1440   1.5201   0.2285 C.3            1 S1                 0.0000
      8 ****        -5.1907   1.7787   1.7420 C.3            1 S1                 0.0000
      9 ****        -3.7332   1.8655   2.2041 C.3            1 S1                 0.0000
     10 ****         1.6532  -0.3602   0.3780 N.am           1 S1                 0.0000
     11 ****         3.1156  -0.3431   0.4047 C.3            1 S1                 0.0000
     12 ****         3.6202  -0.1794   1.8546 C.3            1 S1                 0.0000
     13 ****         3.8862   1.1775   2.1398 O.3            1 S1                 0.0000
     14 ****         3.6529  -1.6435  -0.2305 C.3            1 S1                 0.0000
     15 ****         3.1143  -1.9115  -1.6271 C.ar           1 S1                 0.0000
     16 ****         2.0963  -2.8666  -1.8384 C.ar           1 S1                 0.0000
     17 ****         1.6287  -3.0700  -3.1509 C.ar           1 S1                 0.0000
     18 ****         2.1947  -2.3162  -4.1970 C.ar           1 S1                 0.0000
     19 ****         3.2068  -1.3876  -3.8821 C.ar           1 S1                 0.0000
     20 ****         3.6622  -1.1849  -2.6269 N.ar           1 S1                 0.0000
     21 ****        -0.9776   0.5980  -0.8103 H              1 S1                 0.0000
     22 ****        -0.8381  -0.6001   0.4557 H              1 S1                 0.0000
     23 ****        -1.0535   1.2266   2.1864 H              1 S1                 0.0000
     24 ****        -1.2800   2.4016   0.9171 H              1 S1                 0.0000
     25 ****        -3.0986  -0.0089   1.4015 H              1 S1                 0.0000
     26 ****        -3.2938   2.3172  -0.5392 H              1 S1                 0.0000
     27 ****        -3.5014   0.6086  -0.9019 H              1 S1                 0.0000
     28 ****        -5.6079   2.3306  -0.3346 H              1 S1                 0.0000
     29 ****        -5.6886   0.6054  -0.0088 H              1 S1                 0.0000
     30 ****        -5.7450   2.6850   1.9881 H              1 S1                 0.0000
     31 ****        -5.6892   0.9463   2.2400 H              1 S1                 0.0000
     32 ****        -3.5972   1.5002   3.2225 H              1 S1                 0.0000
     33 ****        -3.4067   2.9063   2.1806 H              1 S1                 0.0000
     34 ****         1.2099  -1.2658   0.4276 H              1 S1                 0.0000
     35 ****         3.4835   0.4821  -0.2090 H              1 S1                 0.0000
     36 ****         2.9142  -0.5856   2.5800 H              1 S1                 0.0000
     37 ****         4.5581  -0.7181   1.9946 H              1 S1                 0.0000
     38 ****         4.1901   1.2447   3.0320 H              1 S1                 0.0000
     39 ****         4.7422  -1.6092  -0.2790 H              1 S1                 0.0000
     40 ****         3.4078  -2.4934   0.4081 H              1 S1                 0.0000
     41 ****         1.6794  -3.4282  -1.0155 H              1 S1                 0.0000
     42 ****         0.8499  -3.7910  -3.3514 H              1 S1                 0.0000
     43 ****         1.8612  -2.4461  -5.2159 H              1 S1                 0.0000
     44 ****         3.6632  -0.7926  -4.6593 H              1 S1                 0.0000
     45 ****         0.6500   2.6338   0.1059 LP             1 S1                 0.0000
     46 ****         2.2725   2.0405   0.2306 LP             1 S1                 0.0000
     47 ****         3.0507   1.7154   2.0273 LP             1 S1                 0.0000
     48 ****         4.5898   1.5207   1.5176 LP             1 S1                 0.0000
     49 ****         4.3833  -0.5171  -2.4425 LP             1 S1                 0.0000
@<TRIPOS>BOND
    1    1    2 2     
    2    2    3 1     
    3    2   10 am    
    4    3    4 1     
    5    3   21 1     
    6    3   22 1     
    7    4    5 1     
    8    4   23 1     
    9    4   24 1     
   10    5    9 1     
   11    5    6 1     
   12    5   25 1     
   13    6    7 1     
   14    6   26 1     
   15    6   27 1     
   16    7    8 1     
   17    7   28 1     
   18    7   29 1     
   19    8    9 1     
   20    8   30 1     
   21    8   31 1     
   22    9   32 1     
   23    9   33 1     
   24   10   11 1     
   25   10   34 1     
   26   11   12 1     
   27   11   14 1     
   28   11   35 1     
   29   12   13 1     
   30   12   36 1     
   31   12   37 1     
   32   13   38 1     
   33   14   15 1     
   34   14   39 1     
   35   14   40 1     
   36   15   20 ar    
   37   15   16 ar    
   38   16   17 ar    
   39   16   41 1     
   40   17   18 ar    
   41   17   42 1     
   42   18   19 ar    
   43   18   43 1     
   44   19   20 ar    
   45   19   44 1     
   46    1   45 1     
   47    1   46 1     
   48   13   47 1     
   49   13   48 1     
   50   20   49 1     
@<TRIPOS>SUBSTRUCTURE
      1 S1             1
@<TRIPOS>SET
LONE_PAIRS      STATIC     ATOMS    <user>   **** ""
5 45 46 47 48 49
DONOR_HYDROGENS      STATIC     ATOMS    <user>   **** ""
2 34 38
ATOM$BLUE        STATIC     ATOMS    COLORGROUP SYSTEM
5 45 46 47 48 49
ATOM$RED        STATIC     ATOMS    COLORGROUP SYSTEM
2 34 38
