AV-unprocessed.smi:72|AV-procd|sdf|733|dock8
  -GOLD-   2262017 63D 1   1.00000     0.00000
 Structure written by MMmdl.
 28 29  0  0  0  0  0  0  0  0  2 V2000
  154.2961  138.1661  154.5610 N   0  0  0  0  0  0  0  0  0  0  0  0
  153.0824  138.4486  154.7535 C   0  0  0  0  0  0  0  0  0  0  0  0
  152.0466  137.6237  154.1720 N   0  0  0  0  0  0  0  0  0  0  0  0
  150.8126  137.9764  154.3633 C   0  0  0  0  0  0  0  0  0  0  0  0
  150.4603  139.1758  155.1164 N   0  0  0  0  0  0  0  0  0  0  0  0
  149.0183  139.6000  155.3571 C   0  0  2  0  0  0  0  0  0  0  0  0
  148.1349  138.6705  154.8019 O   0  0  0  0  0  0  0  0  0  0  0  0
  147.7483  139.0947  153.5006 C   0  0  1  0  0  0  0  0  0  0  0  0
  146.4466  138.3925  153.0862 C   0  0  0  0  0  0  0  0  0  0  0  0
  146.6325  136.9931  153.0766 O   0  0  0  0  0  0  0  0  0  0  0  0
  147.5975  140.6046  153.6908 C   0  0  2  0  0  0  0  0  0  0  0  0
  147.7871  141.2778  152.4625 O   0  0  0  0  0  0  0  0  0  0  0  0
  148.7122  140.9522  154.6746 C   0  0  1  0  0  0  0  0  0  0  0  0
  148.2581  141.9142  155.6047 O   0  0  0  0  0  0  0  0  0  0  0  0
  151.5000  139.9296  155.7267 C   0  0  0  0  0  0  0  0  0  0  0  0
  151.1842  140.8990  156.4174 O   0  0  0  0  0  0  0  0  0  0  0  0
  152.7927  139.5503  155.5269 N   0  5  0  0  0  0  0  0  0  0  0  0
  148.9086  139.6040  156.4432 H   0  0  0  0  0  0  0  0  0  0  0  0
  148.5489  138.8913  152.7865 H   0  0  0  0  0  0  0  0  0  0  0  0
  146.6165  140.8368  154.1094 H   0  0  0  0  0  0  0  0  0  0  0  0
  149.5991  141.3214  154.1565 H   0  0  0  0  0  0  0  0  0  0  0  0
  154.9241  138.8111  155.0178 H   0  0  0  0  0  0  0  0  0  0  0  0
  149.9764  137.3958  153.9740 H   0  0  0  0  0  0  0  0  0  0  0  0
  145.6219  138.6632  153.7462 H   0  0  0  0  0  0  0  0  0  0  0  0
  146.1653  138.6915  152.0762 H   0  0  0  0  0  0  0  0  0  0  0  0
  147.4850  136.8057  152.7150 H   0  0  0  0  0  0  0  0  0  0  0  0
  148.4517  140.8183  151.9724 H   0  0  0  0  0  0  0  0  0  0  0  0
  148.5272  142.7679  155.2994 H   0  0  0  0  0  0  0  0  0  0  0  0
  1  2  2  0  0  0  0
  1 22  1  0  0  0  0
  2 17  1  0  0  0  0
  2  3  1  0  0  0  0
  3  4  2  0  0  0  0
  4  5  1  0  0  0  0
  4 23  1  0  0  0  0
  5  6  1  0  0  0  0
  5 15  1  0  0  0  0
  6 18  1  0  0  0  0
  6 13  1  0  0  0  0
  6  7  1  0  0  0  0
  7  8  1  0  0  0  0
  8 19  1  0  0  0  0
  8  9  1  0  0  0  0
  8 11  1  0  0  0  0
  9 10  1  0  0  0  0
  9 24  1  0  0  0  0
  9 25  1  0  0  0  0
 10 26  1  0  0  0  0
 11 20  1  0  0  0  0
 11 12  1  0  0  0  0
 11 13  1  0  0  0  0
 12 27  1  0  0  0  0
 13 21  1  0  0  0  0
 13 14  1  0  0  0  0
 14 28  1  0  0  0  0
 15 16  2  0  0  0  0
 15 17  1  0  0  0  0
M  CHG  1  17  -1
M  END
> <s_m_source_file>
AV-unprocessed.smi

> <i_m_source_file_index>
72

> <i_lp_mmshare_version>
43012

> <i_f3d_flags>
0

> <s_epik_input>
W05IMl1jMW5bY0hdbihjKD1PKW4xKVtDQEBIXTJPW0NASF0oW0NIMl1bT0hdKVtDQEBIXShbT0hdKVtDQEhdMltPSF0=

> <s_epik_cmdline>
J2VwaWtfcHl0aG9uJywgJy1waCcsICc3LjAnLCAnLXRuJywgJzgnLCAnLW1hJywgJzIwMCcsICctbWV0YWxfYmluZGluZycsICctaW1hZScsICc8aW5maWxlLm1hZT4nLCAnLW9tYWUnLCAnPG91dGZpbGUubWFlPic=

> <r_lp_tautomer_probability>
7.17554e-07

> <r_epik_Ionization_Penalty>
12.8705

> <r_epik_Ionization_Penalty_Charging>
5.64144

> <r_epik_Ionization_Penalty_Neutral>
7.22905

> <r_epik_State_Penalty>
3.30104

> <r_epik_Charging_Adjusted_Penalty>
8.94249

> <i_epik_Tot_Q>
-1

> <i_epik_Tot_abs_Q>
1

> <r_epik_Metal_State_Penalty>
0.529074

> <b_epik_Metal_Only>
1

> <s_epik_Chemistry_Notes>
This compound contains an acetal/aminal-like group ( X-CH(R)-Y where X, Y are N, S, or O) that may be acid/base labile, releasing an aldehyde.

> <s_lp_Force_Field>
OPLS_2005

> <r_lp_Energy>
30.1413

> <b_lp_Chiralities_Consistent>
1

> <s_lp_Variant>
AV-unprocessed.smi:72-71

> <Gold.Version>
5.8.1

> <Gold.Id.Protein>
6NUR|6NUR_protein|mol2

> <Gold.PLP.Fitness>
44.9924

> <Gold.PLP.PLP>
-25.2715

> <Gold.PLP.part.hbond>
-7.1646

> <Gold.PLP.part.metal>
0.0000

> <Gold.PLP.part.buried>
-0.5847

> <Gold.PLP.part.nonpolar>
-19.7777

> <Gold.PLP.part.repulsive>
0.2958

> <Gold.PLP.ligand.clash>
0.0000

> <Gold.PLP.ligand.torsion>
0.0746

> <Gold.PLP.Chemscore.Hbond>
5.6589

> <Gold.PLP.Chemscore.CHOScore>
0.9529

> <Gold.PLP.Chemscore.Metal>
0.0000

> <Gold.Chemscore.Hbonds>
donor molecule, donor type, donor heavy atom, donor atom, acceptor molecule, acceptor atom, score
      L1  H    10    26       P1  7948  1.00
      L1  H    12    27       P1  7957  1.00
      L1  H    14    28       P1  8028  1.00
      P1  H  7997  8009       L1    17  2.00
      P1  H 10752 10763       L1     3  0.62
      L1  C     4    23       P1  7948  0.87

> <Gold.PLP.Chemscore.Internal.Correction>
0.0347

> <Gold.Rescore>
     Score         DG    S(hbond)    S(metal)    S(lipo)     H(rot)  DE(clash)    DE(int)     intcor
      9.23     -11.31       3.97        0.00      24.94       4.04       1.89       0.19       ----

> <Gold.Chemscore.Fitness>
9.2317

> <Gold.Chemscore.DG>
-11.3122

> <Gold.Chemscore.ZeroCoef>
-5.4800

> <Gold.Chemscore.Hbond>
3.9692

> <Gold.Chemscore.Metal>
0.0000

> <Gold.Chemscore.Lipo>
24.9413

> <Gold.Chemscore.Internal_Hbond>
0.0000

> <Gold.Chemscore.DEClash>
1.8908

> <Gold.Chemscore.DEInternal>
0.1897

> <Gold.Chemscore.Rot>
4.0403

> <Gold.Chemscore.Internal.Correction>
   9.000000E+99

> <Gold.Chemscore.Hbonds>
donor molecule, donor type, donor heavy atom, donor atom, acceptor molecule, acceptor atom, score
      L1  H    10    26       P1  7948  1.00
      L1  H    12    27       P1  7957  0.98
      L1  H    14    28       P1  8028  0.92
      P1  H  7997  8009       L1    17  0.45
      P1  H 10752 10763       L1     3  0.21

> <Gold.Chemscore.Hbond.Weighted>
-13.2572

> <Gold.Chemscore.Metal.Weighted>
-0.0000

> <Gold.Chemscore.Lipo.Weighted>
-2.9181

> <Gold.Chemscore.Internal_Hbond.Weighted>
0.0000

> <Gold.Chemscore.DEClash.Weighted>
1.8908

> <Gold.Chemscore.DEInternal.Weighted>
0.1897

> <Gold.Chemscore.Rot.Weighted>
10.3431

> <Gold.Chemscore.Internal.Correction.Weighted>
   9.000000E+99

> <Gold.Protein.RotatedTorsions>
[ 6907 6896 6895 6894 ] final  -71.41 input  -60.11 | X-H torsion
[ 7974 7965 7964 7962 ] final   77.53 input  175.53 | X-H torsion
[ 8008 7997 7996 7995 ] final -143.62 input   59.86 | X-H torsion
[ 10167 10162 10161 10158 ] final   33.10 input  -65.29 | X-H torsion
[ 10718 10713 10712 10709 ] final  -39.11 input   66.30 | X-H torsion
[ 10763 10752 10751 10750 ] final   34.47 input  -60.55 | X-H torsion
[ 11005 11000 10999 10996 ] final -114.17 input  -57.11 | X-H torsion

> <Gold.Protein.ActiveResidues>
 VAL166  LYS551  ARG553  GLY616  TRP617  ASP618  TYR619  PRO620  LYS621  CYS622 
 ASP623  PHE694  ASN695  SER759  ASP760  ASP761  ALA762  ILE779  LEU786  VAL792 
 PHE793  MET794  SER795  GLU796  ALA797  LYS798  CYS799  TRP800  GLU811  SER814 

> <Gold.Protein.RotatedAtoms>
  150.7213  134.5312  159.5700 H   0  0  0  0  0  0  0  0  0  0  0  0  # atno 6907 bound_to 6896
  152.2844  134.7789  160.0399 H   0  0  0  0  0  0  0  0  0  0  0  0  # atno 6908 bound_to 6896
  151.8424  133.3390  159.3684 H   0  0  0  0  0  0  0  0  0  0  0  0  # atno 6909 bound_to 6896
  145.6888  139.2546  143.1772 H   0  0  0  0  0  0  0  0  0  0  0  0  # atno 7974 bound_to 7965
  155.5136  140.0585  157.2919 H   0  0  0  0  0  0  0  0  0  0  0  0  # atno 8008 bound_to 7997
  154.4543  140.1965  156.0374 H   0  0  0  0  0  0  0  0  0  0  0  0  # atno 8009 bound_to 7997
  156.0767  140.3252  155.7647 H   0  0  0  0  0  0  0  0  0  0  0  0  # atno 8010 bound_to 7997
  140.4438  144.1148  150.6179 H   0  0  0  0  0  0  0  0  0  0  0  0  # atno 10167 bound_to 10162
  156.2961  130.4234  149.8190 H   0  0  0  0  0  0  0  0  0  0  0  0  # atno 10718 bound_to 10713
  153.0162  135.6359  154.1674 H   0  0  0  0  0  0  0  0  0  0  0  0  # atno 10763 bound_to 10752
  154.1413  135.2834  155.3161 H   0  0  0  0  0  0  0  0  0  0  0  0  # atno 10764 bound_to 10752
  154.6122  135.5552  153.7547 H   0  0  0  0  0  0  0  0  0  0  0  0  # atno 10765 bound_to 10752
  141.0569  133.9598  157.2738 H   0  0  0  0  0  0  0  0  0  0  0  0  # atno 11005 bound_to 11000
  146.0900  140.7666  142.9600 LP  0  0  0  0  0  0  0  0  0  0  0  0  # atno 17320 bound_to 7965
  144.7003  140.3622  143.7161 LP  0  0  0  0  0  0  0  0  0  0  0  0  # atno 17321 bound_to 7965
  140.4287  143.2578  151.9623 LP  0  0  0  0  0  0  0  0  0  0  0  0  # atno 17342 bound_to 10162
  139.4791  144.5764  151.8005 LP  0  0  0  0  0  0  0  0  0  0  0  0  # atno 17343 bound_to 10162
  156.5585  130.8373  151.3321 LP  0  0  0  0  0  0  0  0  0  0  0  0  # atno 17370 bound_to 10713
  157.7355  130.9764  150.2088 LP  0  0  0  0  0  0  0  0  0  0  0  0  # atno 17371 bound_to 10713
  139.9398  135.0192  156.8671 LP  0  0  0  0  0  0  0  0  0  0  0  0  # atno 17394 bound_to 11000
  140.5946  134.0229  155.7513 LP  0  0  0  0  0  0  0  0  0  0  0  0  # atno 17395 bound_to 11000

$$$$
