#       Name:                AV-unprocessed.smi:1507
#       Creating user name   scv26
#       Creation time:       Fri Mar 27 06:20:48 2020


#       File generated by GOLD software.
#

@<TRIPOS>MOLECULE
AV-unprocessed.smi:1507
    38    39     1
SMALL
NO_CHARGES


@<TRIPOS>ATOM
      1 ****        -2.3967   5.3806   1.2674 N.pl3          1 S1                -1.0000
      2 ****        -3.0301   4.9051  -0.1458 S.o2           1 S1                 0.0000
      3 ****        -4.4802   4.7099   0.0044 O.2            1 S1                 0.0000
      4 ****        -2.6287   5.8027  -1.2432 O.2            1 S1                 0.0000
      5 ****        -2.2800   3.4562  -0.2037 N.pl3          1 S1                -1.0000
      6 ****        -0.9461   3.2882  -0.7756 C.3            1 S1                 0.0000
      7 ****        -0.4338   1.8666  -0.5929 C.ar           1 S1                 0.0000
      8 ****        -0.7496   0.8526  -1.5226 C.ar           1 S1                 0.0000
      9 ****        -0.2531  -0.4486  -1.3103 C.ar           1 S1                 0.0000
     10 ****         0.5453  -0.7071  -0.1710 C.ar           1 S1                 0.0000
     11 ****         1.0473  -2.0061   0.0638 N.3            1 S1                 0.0000
     12 ****         2.0619  -2.1695   1.1036 C.3            1 S1                 0.0000
     13 ****         2.6864  -3.5729   1.0276 C.3            1 S1                 0.0000
     14 ****         1.6615  -4.5580   1.1015 O.3            1 S1                 0.0000
     15 ****         0.7446  -4.4504   0.0177 C.3            1 S1                 0.0000
     16 ****         0.0531  -3.0765   0.0532 C.3            1 S1                 0.0000
     17 ****         0.8533   0.2710   0.7161 N.ar           1 S1                 0.0000
     18 ****         0.3734   1.5174   0.5120 C.ar           1 S1                 0.0000
     19 ****        -1.6603   6.0694   1.0735 H              1 S1                 0.0000
     20 ****        -0.9326   3.5135  -1.8426 H              1 S1                 0.0000
     21 ****        -0.2211   3.9680  -0.3262 H              1 S1                 0.0000
     22 ****        -1.3607   1.0512  -2.3926 H              1 S1                 0.0000
     23 ****        -0.4807  -1.2234  -2.0266 H              1 S1                 0.0000
     24 ****         2.8452  -1.4192   0.9886 H              1 S1                 0.0000
     25 ****         1.6039  -2.0176   2.0819 H              1 S1                 0.0000
     26 ****         3.2584  -3.6952   0.1063 H              1 S1                 0.0000
     27 ****         3.3803  -3.7198   1.8551 H              1 S1                 0.0000
     28 ****         1.2652  -4.5989  -0.9298 H              1 S1                 0.0000
     29 ****         0.0030  -5.2450   0.1009 H              1 S1                 0.0000
     30 ****        -0.5632  -2.9925   0.9493 H              1 S1                 0.0000
     31 ****        -0.6180  -2.9966  -0.8007 H              1 S1                 0.0000
     32 ****         0.6532   2.2448   1.2621 H              1 S1                 0.0000
     33 ****        -2.6749   5.0588   2.1724 LP             1 S1                 0.0000
     34 ****        -2.7505   2.6548   0.1655 LP             1 S1                 0.0000
     35 ****         1.5802  -2.1235  -0.7742 LP             1 S1                 0.0000
     36 ****         1.1624  -4.4419   1.9602 LP             1 S1                 0.0000
     37 ****         2.0823  -5.4649   1.0805 LP             1 S1                 0.0000
     38 ****         1.4276   0.0726   1.5103 LP             1 S1                 0.0000
@<TRIPOS>BOND
    1    1    2 1     
    2    1   19 1     
    3    2    3 2     
    4    2    4 2     
    5    2    5 1     
    6    5    6 1     
    7    6    7 1     
    8    6   20 1     
    9    6   21 1     
   10    7   18 ar    
   11    7    8 ar    
   12    8    9 ar    
   13    8   22 1     
   14    9   10 ar    
   15    9   23 1     
   16   10   11 1     
   17   10   17 ar    
   18   11   16 1     
   19   11   12 1     
   20   12   13 1     
   21   12   24 1     
   22   12   25 1     
   23   13   14 1     
   24   13   26 1     
   25   13   27 1     
   26   14   15 1     
   27   15   16 1     
   28   15   28 1     
   29   15   29 1     
   30   16   30 1     
   31   16   31 1     
   32   17   18 ar    
   33   18   32 1     
   34    1   33 1     
   35    5   34 1     
   36   11   35 1     
   37   14   36 1     
   38   14   37 1     
   39   17   38 1     
@<TRIPOS>SUBSTRUCTURE
      1 S1             1
@<TRIPOS>SET
LONE_PAIRS      STATIC     ATOMS    <user>   **** ""
8 33 3 4 34 35 36 37 38
DONOR_HYDROGENS      STATIC     ATOMS    <user>   **** ""
1 19
ATOM$BLUE        STATIC     ATOMS    COLORGROUP SYSTEM
8 33 3 4 34 35 36 37 38
ATOM$RED        STATIC     ATOMS    COLORGROUP SYSTEM
1 19
