AV-unprocessed.smi:587|AV-procd|sdf|3003|dock4
  -GOLD-   2262023513D 1   1.00000     0.00000
 Structure written by MMmdl.
 47 49  0  0  0  0  0  0  0  0  2 V2000
  150.1143  137.6978  157.0848 C   0  0  0  0  0  0  0  0  0  0  0  0
  149.2913  136.5399  156.8051 N   0  0  0  0  0  0  0  0  0  0  0  0
  148.7959  136.2034  155.5467 C   0  0  0  0  0  0  0  0  0  0  0  0
  149.1048  137.0242  154.4713 N   0  0  0  0  0  0  0  0  0  0  0  0
  148.0294  135.0945  155.3644 C   0  0  0  0  0  0  0  0  0  0  0  0
  147.5436  134.7974  153.9815 N   0  3  0  0  0  0  0  0  0  0  0  0
  146.1881  135.3174  153.6679 C   0  0  0  0  0  0  0  0  0  0  0  0
  145.9003  135.2158  152.1607 C   0  0  0  0  0  0  0  0  0  0  0  0
  146.0706  133.7725  151.6651 C   0  0  0  0  0  0  0  0  0  0  0  0
  147.4646  133.2470  152.0363 C   0  0  0  0  0  0  0  0  0  0  0  0
  147.7214  133.3884  153.5458 C   0  0  0  0  0  0  0  0  0  0  0  0
  147.6906  134.2112  156.4849 C   0  0  0  0  0  0  0  0  0  0  0  0
  147.0060  133.1938  156.3652 O   0  0  0  0  0  0  0  0  0  0  0  0
  148.2076  134.5830  157.7457 N   0  0  0  0  0  0  0  0  0  0  0  0
  147.9272  133.7156  158.9126 C   0  0  0  0  0  0  0  0  0  0  0  0
  147.0229  134.3766  159.9648 C   0  0  0  0  0  0  0  0  0  0  0  0
  145.8864  134.7560  159.6764 O   0  0  0  0  0  0  0  0  0  0  0  0
  147.5557  134.5091  161.1879 N   0  0  0  0  0  0  0  0  0  0  0  0
  146.9035  135.0857  162.3187 C   0  0  0  0  0  0  0  0  0  0  0  0
  146.3516  136.4876  162.1751 C   0  0  0  0  0  0  0  0  0  0  0  0
  147.5861  136.2516  163.0009 C   0  0  0  0  0  0  0  0  0  0  0  0
  149.0139  135.7259  157.9288 C   0  0  0  0  0  0  0  0  0  0  0  0
  149.4667  136.0006  159.0439 O   0  0  0  0  0  0  0  0  0  0  0  0
  150.2569  138.2923  156.1851 H   0  0  0  0  0  0  0  0  0  0  0  0
  151.0778  137.3344  157.4470 H   0  0  0  0  0  0  0  0  0  0  0  0
  149.5977  138.2953  157.8384 H   0  0  0  0  0  0  0  0  0  0  0  0
  149.6726  137.8539  154.5613 H   0  0  0  0  0  0  0  0  0  0  0  0
  148.7652  136.8219  153.5412 H   0  0  0  0  0  0  0  0  0  0  0  0
  145.4329  134.7649  154.2280 H   0  0  0  0  0  0  0  0  0  0  0  0
  146.1198  136.3591  153.9840 H   0  0  0  0  0  0  0  0  0  0  0  0
  144.8898  135.5667  151.9489 H   0  0  0  0  0  0  0  0  0  0  0  0
  146.5773  135.8735  151.6139 H   0  0  0  0  0  0  0  0  0  0  0  0
  145.3059  133.1363  152.1128 H   0  0  0  0  0  0  0  0  0  0  0  0
  145.9247  133.7247  150.5855 H   0  0  0  0  0  0  0  0  0  0  0  0
  147.5617  132.2029  151.7373 H   0  0  0  0  0  0  0  0  0  0  0  0
  148.2244  133.7997  151.4822 H   0  0  0  0  0  0  0  0  0  0  0  0
  148.7375  133.0652  153.7760 H   0  0  0  0  0  0  0  0  0  0  0  0
  147.0468  132.7346  154.0996 H   0  0  0  0  0  0  0  0  0  0  0  0
  147.4675  132.7761  158.6012 H   0  0  0  0  0  0  0  0  0  0  0  0
  148.8521  133.4032  159.4001 H   0  0  0  0  0  0  0  0  0  0  0  0
  148.4951  134.1684  161.3327 H   0  0  0  0  0  0  0  0  0  0  0  0
  146.3429  134.4155  162.9690 H   0  0  0  0  0  0  0  0  0  0  0  0
  146.4763  136.9886  161.2170 H   0  0  0  0  0  0  0  0  0  0  0  0
  145.4299  136.7200  162.7048 H   0  0  0  0  0  0  0  0  0  0  0  0
  147.4894  136.3254  164.0821 H   0  0  0  0  0  0  0  0  0  0  0  0
  148.5350  136.5961  162.5939 H   0  0  0  0  0  0  0  0  0  0  0  0
  148.1494  135.3179  153.3646 H   0  0  0  0  0  0  0  0  0  0  0  0
  1  2  1  0  0  0  0
  1 24  1  0  0  0  0
  1 25  1  0  0  0  0
  1 26  1  0  0  0  0
  2 22  1  0  0  0  0
  2  3  1  0  0  0  0
  3  4  1  0  0  0  0
  3  5  2  0  0  0  0
  4 27  1  0  0  0  0
  4 28  1  0  0  0  0
  5  6  1  0  0  0  0
  5 12  1  0  0  0  0
  6 11  1  0  0  0  0
  6  7  1  0  0  0  0
  6 47  1  0  0  0  0
  7  8  1  0  0  0  0
  7 29  1  0  0  0  0
  7 30  1  0  0  0  0
  8  9  1  0  0  0  0
  8 31  1  0  0  0  0
  8 32  1  0  0  0  0
  9 10  1  0  0  0  0
  9 33  1  0  0  0  0
  9 34  1  0  0  0  0
 10 11  1  0  0  0  0
 10 35  1  0  0  0  0
 10 36  1  0  0  0  0
 11 37  1  0  0  0  0
 11 38  1  0  0  0  0
 12 13  2  0  0  0  0
 12 14  1  0  0  0  0
 14 15  1  0  0  0  0
 14 22  1  0  0  0  0
 15 16  1  0  0  0  0
 15 39  1  0  0  0  0
 15 40  1  0  0  0  0
 16 17  2  0  0  0  0
 16 18  1  0  0  0  0
 18 19  1  0  0  0  0
 18 41  1  0  0  0  0
 19 21  1  0  0  0  0
 19 20  1  0  0  0  0
 19 42  1  0  0  0  0
 20 21  1  0  0  0  0
 20 43  1  0  0  0  0
 20 44  1  0  0  0  0
 21 45  1  0  0  0  0
 21 46  1  0  0  0  0
 22 23  2  0  0  0  0
M  CHG  1   6   1
M  END
> <s_m_source_file>
AV-unprocessed.smi

> <i_m_source_file_index>
587

> <i_lp_mmshare_version>
43012

> <i_f3d_flags>
0

> <s_epik_input>
W0NIMl0xW0NIMl1bQ0gyXVtDSDJdW0NIMl1OMWMoYyhbTkgyXSluMltDSDNdKWMoPU8pbihjMj1PKVtDSDJdQyg9TylbTkhdW0NIXTNbQ0gyXVtDSDJdMw==

> <s_epik_cmdline>
J2VwaWtfcHl0aG9uJywgJy1waCcsICc3LjAnLCAnLXRuJywgJzgnLCAnLW1hJywgJzIwMCcsICctbWV0YWxfYmluZGluZycsICctaW1hZScsICc8aW5maWxlLm1hZT4nLCAnLW9tYWUnLCAnPG91dGZpbGUubWFlPic=

> <r_epik_Ionization_Penalty>
2.48068

> <r_epik_Ionization_Penalty_Charging>
2.47625

> <r_epik_Ionization_Penalty_Neutral>
0.00443673

> <r_epik_State_Penalty>
2.66159

> <r_epik_Charging_Adjusted_Penalty>
5.13784

> <i_epik_Tot_Q>
1

> <i_epik_Tot_abs_Q>
1

> <r_epik_Metal_State_Penalty>
2.66159

> <b_epik_Metal_Only>
0

> <s_lp_Force_Field>
OPLS_2005

> <r_lp_Energy>
35.5709

> <b_lp_Chiralities_Consistent>
1

> <s_lp_Variant>
AV-unprocessed.smi:587-2

> <Gold.Version>
5.8.1

> <Gold.Id.Protein>
6NUR|6NUR_protein|mol2

> <Gold.PLP.Fitness>
39.3175

> <Gold.PLP.PLP>
-28.2829

> <Gold.PLP.part.hbond>
-3.0000

> <Gold.PLP.part.metal>
0.0000

> <Gold.PLP.part.buried>
-3.7321

> <Gold.PLP.part.nonpolar>
-21.5113

> <Gold.PLP.part.repulsive>
0.0519

> <Gold.PLP.ligand.clash>
0.0000

> <Gold.PLP.ligand.torsion>
0.5850

> <Gold.PLP.Chemscore.Hbond>
4.0000

> <Gold.PLP.Chemscore.CHOScore>
0.0000

> <Gold.PLP.Chemscore.Metal>
0.0000

> <Gold.Chemscore.Hbonds>
donor molecule, donor type, donor heavy atom, donor atom, acceptor molecule, acceptor atom, score
      L1  H     4    28       P1  7948  1.00
      L1  H     6    47       P1  7948  2.00
      P1  H  6896  6908       L1    23  1.00

> <Gold.PLP.Chemscore.Internal.Correction>
0.2045

> <Gold.Rescore>
     Score         DG    S(hbond)    S(metal)    S(lipo)     H(rot)  DE(clash)    DE(int)     intcor
     15.40     -17.33       2.95        0.00      58.02       1.87       0.00       1.94       ----

> <Gold.Chemscore.Fitness>
15.3989

> <Gold.Chemscore.DG>
-17.3340

> <Gold.Chemscore.ZeroCoef>
-5.4800

> <Gold.Chemscore.Hbond>
2.9478

> <Gold.Chemscore.Metal>
0.0000

> <Gold.Chemscore.Lipo>
58.0201

> <Gold.Chemscore.Internal_Hbond>
0.0000

> <Gold.Chemscore.DEClash>
0.0000

> <Gold.Chemscore.DEInternal>
1.9352

> <Gold.Chemscore.Rot>
1.8672

> <Gold.Chemscore.Internal.Correction>
   9.000000E+99

> <Gold.Chemscore.Hbonds>
donor molecule, donor type, donor heavy atom, donor atom, acceptor molecule, acceptor atom, score
      L1  H     4    28       P1  7948  0.96
      L1  H     6    47       P1  7948  0.99
      P1  H  6896  6908       L1    23  0.91

> <Gold.Chemscore.Hbond.Weighted>
-9.8456

> <Gold.Chemscore.Metal.Weighted>
-0.0000

> <Gold.Chemscore.Lipo.Weighted>
-6.7884

> <Gold.Chemscore.Internal_Hbond.Weighted>
0.0000

> <Gold.Chemscore.DEClash.Weighted>
0.0000

> <Gold.Chemscore.DEInternal.Weighted>
1.9352

> <Gold.Chemscore.Rot.Weighted>
4.7799

> <Gold.Chemscore.Internal.Correction.Weighted>
   9.000000E+99

> <Gold.Protein.RotatedTorsions>
[ 6907 6896 6895 6894 ] final -173.61 input  -60.11 | X-H torsion
[ 7974 7965 7964 7962 ] final -135.65 input  175.53 | X-H torsion
[ 8008 7997 7996 7995 ] final   21.02 input   59.86 | X-H torsion
[ 10167 10162 10161 10158 ] final  -72.99 input  -65.29 | X-H torsion
[ 10718 10713 10712 10709 ] final -175.89 input   66.30 | X-H torsion
[ 10763 10752 10751 10750 ] final  -93.80 input  -60.55 | X-H torsion
[ 11005 11000 10999 10996 ] final  166.95 input  -57.11 | X-H torsion

> <Gold.Protein.ActiveResidues>
 VAL166  LYS551  ARG553  GLY616  TRP617  ASP618  TYR619  PRO620  LYS621  CYS622 
 ASP623  PHE694  ASN695  SER759  ASP760  ASP761  ALA762  ILE779  LEU786  VAL792 
 PHE793  MET794  SER795  GLU796  ALA797  LYS798  CYS799  TRP800  GLU811  SER814 

> <Gold.Protein.RotatedAtoms>
  151.5589  133.3406  159.2967 H   0  0  0  0  0  0  0  0  0  0  0  0  # atno 6907 bound_to 6896
  150.8434  134.7737  159.6962 H   0  0  0  0  0  0  0  0  0  0  0  0  # atno 6908 bound_to 6896
  152.4497  134.5427  159.9895 H   0  0  0  0  0  0  0  0  0  0  0  0  # atno 6909 bound_to 6896
  144.8995  140.6752  143.5094 H   0  0  0  0  0  0  0  0  0  0  0  0  # atno 7974 bound_to 7965
  154.9443  140.3057  155.5105 H   0  0  0  0  0  0  0  0  0  0  0  0  # atno 8008 bound_to 7997
  156.2993  140.2330  156.4452 H   0  0  0  0  0  0  0  0  0  0  0  0  # atno 8009 bound_to 7997
  154.8115  140.0428  157.1335 H   0  0  0  0  0  0  0  0  0  0  0  0  # atno 8010 bound_to 7997
  140.5147  143.2340  151.7533 H   0  0  0  0  0  0  0  0  0  0  0  0  # atno 10167 bound_to 10162
  156.8065  130.9571  151.3117 H   0  0  0  0  0  0  0  0  0  0  0  0  # atno 10718 bound_to 10713
  154.6994  135.5181  153.8504 H   0  0  0  0  0  0  0  0  0  0  0  0  # atno 10763 bound_to 10752
  153.0692  135.6595  154.0295 H   0  0  0  0  0  0  0  0  0  0  0  0  # atno 10764 bound_to 10752
  154.0156  135.2998  155.3367 H   0  0  0  0  0  0  0  0  0  0  0  0  # atno 10765 bound_to 10752
  140.2717  134.7821  157.3681 H   0  0  0  0  0  0  0  0  0  0  0  0  # atno 11005 bound_to 11000
  145.3641  139.1674  143.4367 LP  0  0  0  0  0  0  0  0  0  0  0  0  # atno 17320 bound_to 7965
  146.3100  140.3706  142.8674 LP  0  0  0  0  0  0  0  0  0  0  0  0  # atno 17321 bound_to 7965
  139.4906  144.4341  151.9839 LP  0  0  0  0  0  0  0  0  0  0  0  0  # atno 17342 bound_to 10162
  140.3435  144.3175  150.5962 LP  0  0  0  0  0  0  0  0  0  0  0  0  # atno 17343 bound_to 10162
  157.6527  130.8898  149.9666 LP  0  0  0  0  0  0  0  0  0  0  0  0  # atno 17370 bound_to 10713
  156.1070  130.3652  150.0116 LP  0  0  0  0  0  0  0  0  0  0  0  0  # atno 17371 bound_to 10713
  140.1366  134.5025  155.8063 LP  0  0  0  0  0  0  0  0  0  0  0  0  # atno 17394 bound_to 11000
  141.2176  133.6809  156.7136 LP  0  0  0  0  0  0  0  0  0  0  0  0  # atno 17395 bound_to 11000

$$$$
