AV-unprocessed.smi:2567|AV-procd|sdf|10077|dock3
  -GOLD-   2272014103D 1   1.00000     0.00000
 Structure written by MMmdl.
 34 35  0  0  0  0  0  0  0  0  2 V2000
  155.9046  138.7919  160.7780 C   0  0  0  0  0  0  0  0  0  0  0  0
  154.5507  139.2866  161.3239 C   0  0  0  0  0  0  0  0  0  0  0  0
  153.6578  138.0510  161.5761 C   0  0  0  0  0  0  0  0  0  0  0  0
  154.7644  140.0090  162.6678 C   0  0  0  0  0  0  0  0  0  0  0  0
  153.9214  140.2374  160.3334 C   0  0  0  0  0  0  0  0  0  0  0  0
  153.5043  139.8688  159.1169 N   0  0  0  0  0  0  0  0  0  0  0  0
  152.9705  140.9301  158.4772 N   0  0  0  0  0  0  0  0  0  0  0  0
  153.1199  141.8993  159.3775 C   0  0  0  0  0  0  0  0  0  0  0  0
  152.6141  143.2819  159.1079 C   0  0  1  0  0  0  0  0  0  0  0  0
  151.7236  143.3405  157.8522 C   0  0  0  0  0  0  0  0  0  0  0  0
  151.1706  144.6994  157.6923 N   0  3  0  0  0  0  0  0  0  0  0  0
  150.4559  145.1379  158.9075 C   0  0  0  0  0  0  0  0  0  0  0  0
  151.3739  145.0149  160.1368 C   0  0  0  0  0  0  0  0  0  0  0  0
  151.8547  143.6793  160.2479 O   0  0  0  0  0  0  0  0  0  0  0  0
  153.6862  141.5270  160.5655 N   0  0  0  0  0  0  0  0  0  0  0  0
  156.3814  138.0952  161.4683 H   0  0  0  0  0  0  0  0  0  0  0  0
  156.5990  139.6178  160.6198 H   0  0  0  0  0  0  0  0  0  0  0  0
  155.7833  138.2779  159.8238 H   0  0  0  0  0  0  0  0  0  0  0  0
  153.4787  137.4916  160.6569 H   0  0  0  0  0  0  0  0  0  0  0  0
  152.6885  138.3330  161.9888 H   0  0  0  0  0  0  0  0  0  0  0  0
  154.1223  137.3653  162.2859 H   0  0  0  0  0  0  0  0  0  0  0  0
  155.2129  139.3467  163.4091 H   0  0  0  0  0  0  0  0  0  0  0  0
  153.8204  140.3698  163.0777 H   0  0  0  0  0  0  0  0  0  0  0  0
  155.4250  140.8700  162.5588 H   0  0  0  0  0  0  0  0  0  0  0  0
  153.4687  143.9520  158.9950 H   0  0  0  0  0  0  0  0  0  0  0  0
  152.2930  143.0741  156.9613 H   0  0  0  0  0  0  0  0  0  0  0  0
  150.9007  142.6287  157.9345 H   0  0  0  0  0  0  0  0  0  0  0  0
  151.9320  145.3394  157.5162 H   0  0  0  0  0  0  0  0  0  0  0  0
  150.1211  146.1674  158.7788 H   0  0  0  0  0  0  0  0  0  0  0  0
  149.5647  144.5235  159.0406 H   0  0  0  0  0  0  0  0  0  0  0  0
  152.2124  145.7097  160.0676 H   0  0  0  0  0  0  0  0  0  0  0  0
  150.8246  145.2692  161.0434 H   0  0  0  0  0  0  0  0  0  0  0  0
  150.5380  144.7149  156.9049 H   0  0  0  0  0  0  0  0  0  0  0  0
  153.5566  138.9470  158.7064 H   0  0  0  0  0  0  0  0  0  0  0  0
  1  2  1  0  0  0  0
  1 16  1  0  0  0  0
  1 17  1  0  0  0  0
  1 18  1  0  0  0  0
  2  3  1  0  0  0  0
  2  4  1  0  0  0  0
  2  5  1  0  0  0  0
  3 19  1  0  0  0  0
  3 20  1  0  0  0  0
  3 21  1  0  0  0  0
  4 22  1  0  0  0  0
  4 23  1  0  0  0  0
  4 24  1  0  0  0  0
  5 15  2  0  0  0  0
  5  6  1  0  0  0  0
  6  7  1  0  0  0  0
  6 34  1  0  0  0  0
  7  8  2  0  0  0  0
  8  9  1  0  0  0  0
  8 15  1  0  0  0  0
  9 14  1  0  0  0  0
  9 10  1  0  0  0  0
  9 25  1  0  0  0  0
 10 11  1  0  0  0  0
 10 26  1  0  0  0  0
 10 27  1  0  0  0  0
 11 12  1  0  0  0  0
 11 28  1  0  0  0  0
 11 33  1  0  0  0  0
 12 13  1  0  0  0  0
 12 29  1  0  0  0  0
 12 30  1  0  0  0  0
 13 14  1  0  0  0  0
 13 31  1  0  0  0  0
 13 32  1  0  0  0  0
M  CHG  1  11   1
M  END
> <s_m_source_file>
AV-unprocessed.smi

> <i_m_source_file_index>
2567

> <i_lp_mmshare_version>
43012

> <i_f3d_flags>
0

> <s_epik_input>
W0NIM11DKFtDSDNdKShbQ0gzXSljMW5bbkhdYyhuMSlbQ0BASF0yW0NIMl1bTkhdW0NIMl1bQ0gyXU8y

> <s_epik_cmdline>
J2VwaWtfcHl0aG9uJywgJy1waCcsICc3LjAnLCAnLXRuJywgJzgnLCAnLW1hJywgJzIwMCcsICctbWV0YWxfYmluZGluZycsICctaW1hZScsICc8aW5maWxlLm1hZT4nLCAnLW9tYWUnLCAnPG91dGZpbGUubWFlPic=

> <r_lp_tautomer_probability>
0.948284

> <r_epik_Ionization_Penalty>
0.108767

> <r_epik_Ionization_Penalty_Charging>
0.100865

> <r_epik_Ionization_Penalty_Neutral>
0.00790271

> <r_epik_State_Penalty>
0.197684

> <r_epik_Charging_Adjusted_Penalty>
0.298549

> <i_epik_Tot_Q>
1

> <i_epik_Tot_abs_Q>
1

> <r_epik_Metal_State_Penalty>
0.508163

> <b_epik_Metal_Only>
0

> <s_lp_Force_Field>
OPLS_2005

> <r_lp_Energy>
13.5153

> <b_lp_Chiralities_Consistent>
1

> <s_lp_Variant>
AV-unprocessed.smi:2567-2

> <Gold.Version>
5.8.1

> <Gold.Id.Protein>
6NUR|6NUR_protein|mol2

> <Gold.PLP.Fitness>
33.3406

> <Gold.PLP.PLP>
-28.0387

> <Gold.PLP.part.hbond>
-1.0000

> <Gold.PLP.part.metal>
0.0000

> <Gold.PLP.part.buried>
-4.7986

> <Gold.PLP.part.nonpolar>
-22.9274

> <Gold.PLP.part.repulsive>
0.2528

> <Gold.PLP.ligand.clash>
0.0000

> <Gold.PLP.ligand.torsion>
0.3585

> <Gold.PLP.Chemscore.Hbond>
2.0000

> <Gold.PLP.Chemscore.CHOScore>
0.0000

> <Gold.PLP.Chemscore.Metal>
0.0000

> <Gold.Chemscore.Hbonds>
donor molecule, donor type, donor heavy atom, donor atom, acceptor molecule, acceptor atom, score
      L1  H    11    33       P1  8028  2.00

> <Gold.PLP.Chemscore.Internal.Correction>
0.0188

> <Gold.Rescore>
     Score         DG    S(hbond)    S(metal)    S(lipo)     H(rot)  DE(clash)    DE(int)     intcor
     13.06     -13.18       0.97        0.00      65.82       1.26       0.09       0.03       ----

> <Gold.Chemscore.Fitness>
13.0558

> <Gold.Chemscore.DG>
-13.1782

> <Gold.Chemscore.ZeroCoef>
-5.4800

> <Gold.Chemscore.Hbond>
0.9685

> <Gold.Chemscore.Metal>
0.0000

> <Gold.Chemscore.Lipo>
65.8212

> <Gold.Chemscore.Internal_Hbond>
0.0000

> <Gold.Chemscore.DEClash>
0.0920

> <Gold.Chemscore.DEInternal>
0.0304

> <Gold.Chemscore.Rot>
1.2647

> <Gold.Chemscore.Internal.Correction>
   9.000000E+99

> <Gold.Chemscore.Hbonds>
donor molecule, donor type, donor heavy atom, donor atom, acceptor molecule, acceptor atom, score
      L1  H    11    33       P1  8028  0.70

> <Gold.Chemscore.Hbond.Weighted>
-3.2347

> <Gold.Chemscore.Metal.Weighted>
-0.0000

> <Gold.Chemscore.Lipo.Weighted>
-7.7011

> <Gold.Chemscore.Internal_Hbond.Weighted>
0.0000

> <Gold.Chemscore.DEClash.Weighted>
0.0920

> <Gold.Chemscore.DEInternal.Weighted>
0.0304

> <Gold.Chemscore.Rot.Weighted>
3.2375

> <Gold.Chemscore.Internal.Correction.Weighted>
   9.000000E+99

> <Gold.Protein.RotatedTorsions>
[ 6907 6896 6895 6894 ] final -157.91 input  -60.11 | X-H torsion
[ 7974 7965 7964 7962 ] final -144.65 input  175.53 | X-H torsion
[ 8008 7997 7996 7995 ] final  -71.86 input   59.86 | X-H torsion
[ 10167 10162 10161 10158 ] final  -31.78 input  -65.29 | X-H torsion
[ 10718 10713 10712 10709 ] final   92.74 input   66.30 | X-H torsion
[ 10763 10752 10751 10750 ] final -127.30 input  -60.55 | X-H torsion
[ 11005 11000 10999 10996 ] final  -42.94 input  -57.11 | X-H torsion

> <Gold.Protein.ActiveResidues>
 VAL166  LYS551  ARG553  GLY616  TRP617  ASP618  TYR619  PRO620  LYS621  CYS622 
 ASP623  PHE694  ASN695  SER759  ASP760  ASP761  ALA762  ILE779  LEU786  VAL792 
 PHE793  MET794  SER795  GLU796  ALA797  LYS798  CYS799  TRP800  GLU811  SER814 

> <Gold.Protein.RotatedAtoms>
  151.3100  133.4084  159.2645 H   0  0  0  0  0  0  0  0  0  0  0  0  # atno 6907 bound_to 6896
  151.0122  134.9406  159.8024 H   0  0  0  0  0  0  0  0  0  0  0  0  # atno 6908 bound_to 6896
  152.5303  134.3065  159.9150 H   0  0  0  0  0  0  0  0  0  0  0  0  # atno 6909 bound_to 6896
  144.8283  140.5684  143.5532 H   0  0  0  0  0  0  0  0  0  0  0  0  # atno 7974 bound_to 7965
  154.5121  140.0808  156.8010 H   0  0  0  0  0  0  0  0  0  0  0  0  # atno 8008 bound_to 7997
  155.3762  140.3425  155.4227 H   0  0  0  0  0  0  0  0  0  0  0  0  # atno 8009 bound_to 7997
  156.1585  140.1581  156.8639 H   0  0  0  0  0  0  0  0  0  0  0  0  # atno 8010 bound_to 7997
  140.7231  143.3745  151.1716 H   0  0  0  0  0  0  0  0  0  0  0  0  # atno 10167 bound_to 10162
  157.6957  131.0454  150.3927 H   0  0  0  0  0  0  0  0  0  0  0  0  # atno 10718 bound_to 10713
  154.8751  135.3966  154.3571 H   0  0  0  0  0  0  0  0  0  0  0  0  # atno 10763 bound_to 10752
  153.4349  135.7026  153.6212 H   0  0  0  0  0  0  0  0  0  0  0  0  # atno 10764 bound_to 10752
  153.4818  135.3767  155.2415 H   0  0  0  0  0  0  0  0  0  0  0  0  # atno 10765 bound_to 10752
  141.0350  133.6804  156.2664 H   0  0  0  0  0  0  0  0  0  0  0  0  # atno 11005 bound_to 11000
  145.4952  139.1486  143.3687 LP  0  0  0  0  0  0  0  0  0  0  0  0  # atno 17320 bound_to 7965
  146.2587  140.5091  142.8862 LP  0  0  0  0  0  0  0  0  0  0  0  0  # atno 17321 bound_to 7965
  139.7322  143.9054  152.3023 LP  0  0  0  0  0  0  0  0  0  0  0  0  # atno 17342 bound_to 10162
  139.8847  144.6998  150.8838 LP  0  0  0  0  0  0  0  0  0  0  0  0  # atno 17343 bound_to 10162
  156.4329  130.3976  149.6748 LP  0  0  0  0  0  0  0  0  0  0  0  0  # atno 17370 bound_to 10713
  156.3959  130.7650  151.2655 LP  0  0  0  0  0  0  0  0  0  0  0  0  # atno 17371 bound_to 10713
  140.6338  134.5236  157.5562 LP  0  0  0  0  0  0  0  0  0  0  0  0  # atno 17394 bound_to 11000
  139.9234  134.8103  156.1141 LP  0  0  0  0  0  0  0  0  0  0  0  0  # atno 17395 bound_to 11000

$$$$
