#       Name:                AV-unprocessed.smi:3009
#       Creating user name   scv26
#       Creation time:       Fri Mar 27 16:38:12 2020


#       File generated by GOLD software.
#

@<TRIPOS>MOLECULE
AV-unprocessed.smi:3009
    49    50     1
SMALL
NO_CHARGES


@<TRIPOS>ATOM
      1 ****        -3.6404   2.2179  -2.7834 C.3            1 S1                 0.0000
      2 ****        -2.1062   2.2236  -2.8631 C.3            1 S1                 0.0000
      3 ****        -1.6433   2.7534  -4.2308 C.3            1 S1                 0.0000
      4 ****        -1.5440   0.8157  -2.5678 C.3            1 S1                 0.0000
      5 ****        -0.0572   0.7774  -2.4988 N.4            1 S1                 1.0000
      6 ****         0.5099  -0.5720  -2.7370 C.3            1 S1                 0.0000
      7 ****         0.3757  -1.4579  -1.4859 C.3            1 S1                 0.0000
      8 ****         1.0080  -0.8169  -0.3858 O.3            1 S1                 0.0000
      9 ****         0.4071   0.4318  -0.0548 C.3            1 S1                 0.0000
     10 ****         1.1151   1.0104   1.1834 C.3            1 S1                 0.0000
     11 ****         0.8160   0.2442   2.3887 N.am           1 S1                 0.0000
     12 ****         1.5074  -0.8190   2.8221 C.2            1 S1                 0.0000
     13 ****         2.4865  -1.2803   2.2358 O.2            1 S1                 0.0000
     14 ****         0.9915  -1.3016   3.9642 N.am           1 S1                 0.0000
     15 ****         1.4562  -2.4071   4.7203 C.2            1 S1                 0.0000
     16 ****         0.8723  -2.8578   5.9352 C.2            1 S1                 0.0000
     17 ****         1.5160  -3.9098   6.4203 N.2            1 S1                 0.0000
     18 ****         2.5057  -4.1346   5.5267 N.pl3          1 S1                 0.0000
     19 ****         2.5078  -3.2450   4.4750 C.2            1 S1                 0.0000
     20 ****         0.5325   1.3750  -1.2724 C.3            1 S1                 0.0000
     21 ****         3.1649  -4.8906   5.6473 H              1 S1                 0.0000
     22 ****        -4.0750   1.5519  -3.5298 H              1 S1                 0.0000
     23 ****        -4.0467   3.2157  -2.9516 H              1 S1                 0.0000
     24 ****        -3.9834   1.8867  -1.8027 H              1 S1                 0.0000
     25 ****        -1.7583   2.9184  -2.0996 H              1 S1                 0.0000
     26 ****        -1.9722   2.1022  -5.0413 H              1 S1                 0.0000
     27 ****        -0.5572   2.8297  -4.2845 H              1 S1                 0.0000
     28 ****        -2.0467   3.7484  -4.4211 H              1 S1                 0.0000
     29 ****        -1.9704   0.4231  -1.6449 H              1 S1                 0.0000
     30 ****        -1.8827   0.1460  -3.3597 H              1 S1                 0.0000
     31 ****         0.0404  -1.0433  -3.6011 H              1 S1                 0.0000
     32 ****         1.5660  -0.4611  -2.9868 H              1 S1                 0.0000
     33 ****        -0.6698  -1.6657  -1.2542 H              1 S1                 0.0000
     34 ****         0.8593  -2.4199  -1.6561 H              1 S1                 0.0000
     35 ****        -0.6444   0.2754   0.1904 H              1 S1                 0.0000
     36 ****         2.1922   1.0754   1.0197 H              1 S1                 0.0000
     37 ****         0.7701   2.0297   1.3590 H              1 S1                 0.0000
     38 ****         0.0275   0.5522   2.9388 H              1 S1                 0.0000
     39 ****         0.1849  -0.8230   4.3377 H              1 S1                 0.0000
     40 ****         0.0204  -2.4642   6.4703 H              1 S1                 0.0000
     41 ****         3.2357  -3.2929   3.6788 H              1 S1                 0.0000
     42 ****         1.5881   1.5675  -1.4695 H              1 S1                 0.0000
     43 ****         0.0880   2.3450  -1.0550 H              1 S1                 0.0000
     44 ****         0.2535   1.3458  -3.2739 H              1 S1                 0.0000
     45 ****         1.9679  -0.6583  -0.6171 LP             1 S1                 0.0000
     46 ****         0.9521  -1.4194   0.4103 LP             1 S1                 0.0000
     47 ****         2.8056  -0.8585   1.3871 LP             1 S1                 0.0000
     48 ****         2.9627  -2.0769   2.6081 LP             1 S1                 0.0000
     49 ****         1.3156  -4.4207   7.2562 LP             1 S1                 0.0000
@<TRIPOS>BOND
    1    1    2 1     
    2    1   22 1     
    3    1   23 1     
    4    1   24 1     
    5    2    3 1     
    6    2    4 1     
    7    2   25 1     
    8    3   26 1     
    9    3   27 1     
   10    3   28 1     
   11    4    5 1     
   12    4   29 1     
   13    4   30 1     
   14    5   20 1     
   15    5    6 1     
   16    5   44 1     
   17    6    7 1     
   18    6   31 1     
   19    6   32 1     
   20    7    8 1     
   21    7   33 1     
   22    7   34 1     
   23    8    9 1     
   24    9   10 1     
   25    9   20 1     
   26    9   35 1     
   27   10   11 1     
   28   10   36 1     
   29   10   37 1     
   30   11   12 am    
   31   11   38 1     
   32   12   13 2     
   33   12   14 am    
   34   14   15 1     
   35   14   39 1     
   36   15   19 2     
   37   15   16 1     
   38   16   17 2     
   39   16   40 1     
   40   17   18 1     
   41   18   21 1     
   42   18   19 1     
   43   19   41 1     
   44   20   42 1     
   45   20   43 1     
   46    8   45 1     
   47    8   46 1     
   48   13   47 1     
   49   13   48 1     
   50   17   49 1     
@<TRIPOS>SUBSTRUCTURE
      1 S1             1
@<TRIPOS>SET
LONE_PAIRS      STATIC     ATOMS    <user>   **** ""
5 45 46 47 48 49
DONOR_HYDROGENS      STATIC     ATOMS    <user>   **** ""
4 44 38 39 21
ATOM$BLUE        STATIC     ATOMS    COLORGROUP SYSTEM
5 45 46 47 48 49
ATOM$RED        STATIC     ATOMS    COLORGROUP SYSTEM
4 44 38 39 21
