#       Name:                AV-unprocessed.smi:47
#       Creating user name   scv26
#       Creation time:       Thu Mar 26 16:30:18 2020


#       File generated by GOLD software.
#

@<TRIPOS>MOLECULE
AV-unprocessed.smi:47
    36    38     1
SMALL
NO_CHARGES


@<TRIPOS>ATOM
      1 ****        -4.7416  -0.8977   1.3187 O.3            1 S1                 0.0000
      2 ****        -4.1140  -0.5469   0.1037 C.3            1 S1                 0.0000
      3 ****        -3.7297   0.9361   0.0560 C.3            1 S1                 0.0000
      4 ****        -2.5035   1.0185  -0.7632 N.4            1 S1                 1.0000
      5 ****        -2.0558  -0.3537  -1.0787 C.3            1 S1                 0.0000
      6 ****        -0.5668  -0.4935  -1.0399 C.2            1 S1                 0.0000
      7 ****         0.0559  -1.3761  -1.8133 N.2            1 S1                 0.0000
      8 ****         1.3424  -1.2090  -1.4436 N.pl3          1 S1                 0.0000
      9 ****         1.4346  -0.2778  -0.4854 C.2            1 S1                 0.0000
     10 ****         2.6850   0.1473   0.1478 C.ar           1 S1                 0.0000
     11 ****         3.9236  -0.3804  -0.2859 C.ar           1 S1                 0.0000
     12 ****         5.1264   0.0273   0.3229 C.ar           1 S1                 0.0000
     13 ****         5.1038   0.9652   1.3718 C.ar           1 S1                 0.0000
     14 ****         3.8767   1.4959   1.8114 C.ar           1 S1                 0.0000
     15 ****         2.6732   1.0894   1.2029 C.ar           1 S1                 0.0000
     16 ****         0.2309   0.2107  -0.1818 N.2            1 S1                 0.0000
     17 ****        -2.7793  -1.2615  -0.0810 C.3            1 S1                 0.0000
     18 ****        -4.7758  -0.7847  -0.7304 H              1 S1                 0.0000
     19 ****        -2.4119  -0.5815  -2.0850 H              1 S1                 0.0000
     20 ****         2.1015  -1.7377  -1.8495 H              1 S1                 0.0000
     21 ****        -4.9485  -1.8200   1.2987 H              1 S1                 0.0000
     22 ****        -4.5274   1.5578  -0.3514 H              1 S1                 0.0000
     23 ****        -3.4890   1.3083   1.0528 H              1 S1                 0.0000
     24 ****        -2.6702   1.5320  -1.6166 H              1 S1                 0.0000
     25 ****         3.9658  -1.1009  -1.0895 H              1 S1                 0.0000
     26 ****         6.0677  -0.3800  -0.0158 H              1 S1                 0.0000
     27 ****         6.0266   1.2771   1.8387 H              1 S1                 0.0000
     28 ****         3.8581   2.2155   2.6168 H              1 S1                 0.0000
     29 ****         1.7431   1.5092   1.5568 H              1 S1                 0.0000
     30 ****        -2.2380  -1.2784   0.8671 H              1 S1                 0.0000
     31 ****        -2.8781  -2.2898  -0.4303 H              1 S1                 0.0000
     32 ****        -1.7850   1.4804  -0.2234 H              1 S1                 0.0000
     33 ****        -5.5819  -0.3669   1.4286 LP             1 S1                 0.0000
     34 ****        -4.1250  -0.7079   2.0827 LP             1 S1                 0.0000
     35 ****        -0.3288  -2.0013  -2.4925 LP             1 S1                 0.0000
     36 ****        -0.0203   0.9053   0.4923 LP             1 S1                 0.0000
@<TRIPOS>BOND
    1    1    2 1     
    2    1   21 1     
    3    2   18 1     
    4    2   17 1     
    5    2    3 1     
    6    3    4 1     
    7    3   22 1     
    8    3   23 1     
    9    4    5 1     
   10    4   24 1     
   11    4   32 1     
   12    5   19 1     
   13    5    6 1     
   14    5   17 1     
   15    6   16 1     
   16    6    7 2     
   17    7    8 1     
   18    8   20 1     
   19    8    9 1     
   20    9   10 1     
   21    9   16 2     
   22   10   15 ar    
   23   10   11 ar    
   24   11   12 ar    
   25   11   25 1     
   26   12   13 ar    
   27   12   26 1     
   28   13   14 ar    
   29   13   27 1     
   30   14   15 ar    
   31   14   28 1     
   32   15   29 1     
   33   17   30 1     
   34   17   31 1     
   35    1   33 1     
   36    1   34 1     
   37    7   35 1     
   38   16   36 1     
@<TRIPOS>SUBSTRUCTURE
      1 S1             1
@<TRIPOS>SET
LONE_PAIRS      STATIC     ATOMS    <user>   **** ""
4 33 34 35 36
DONOR_HYDROGENS      STATIC     ATOMS    <user>   **** ""
4 21 24 32 20
ATOM$BLUE        STATIC     ATOMS    COLORGROUP SYSTEM
4 33 34 35 36
ATOM$RED        STATIC     ATOMS    COLORGROUP SYSTEM
4 21 24 32 20
