AV-unprocessed.smi:2418|AV-procd|sdf|9550|dock2
  -GOLD-   2272013183D 1   1.00000     0.00000
 Structure written by MMmdl.
 34 35  0  0  0  0  0  0  0  0  1 V2000
  145.1031  141.1646  155.2887 C   0  0  0  0  0  0  0  0  0  0  0  0
  146.5981  141.2436  155.5421 C   0  0  0  0  0  0  0  0  0  0  0  0
  146.9786  141.3402  156.8835 N   0  0  0  0  0  0  0  0  0  0  0  0
  148.2312  141.4121  157.1944 C   0  0  0  0  0  0  0  0  0  0  0  0
  149.2383  141.3940  156.2142 N   0  0  0  0  0  0  0  0  0  0  0  0
  150.6255  141.4860  156.7021 C   0  0  0  0  0  0  0  0  0  0  0  0
  150.8418  142.7001  157.6331 C   0  0  2  0  0  0  0  0  0  0  0  0
  151.2965  143.7954  156.8622 O   0  0  0  0  0  0  0  0  0  0  0  0
  151.8204  142.3559  158.7492 C   0  0  0  0  0  0  0  0  0  0  0  0
  152.3478  141.0495  158.8634 C   0  0  0  0  0  0  0  0  0  0  0  0
  153.2433  140.7309  159.9025 C   0  0  0  0  0  0  0  0  0  0  0  0
  153.7448  139.4773  160.0031 F   0  0  0  0  0  0  0  0  0  0  0  0
  153.6158  141.7147  160.8376 C   0  0  0  0  0  0  0  0  0  0  0  0
  153.0884  143.0159  160.7352 C   0  0  0  0  0  0  0  0  0  0  0  0
  152.1916  143.3366  159.6973 C   0  0  0  0  0  0  0  0  0  0  0  0
  151.6855  144.5910  159.6214 F   0  0  0  0  0  0  0  0  0  0  0  0
  148.9539  141.3056  154.8828 C   0  0  0  0  0  0  0  0  0  0  0  0
  149.8424  141.2947  154.0289 O   0  0  0  0  0  0  0  0  0  0  0  0
  147.5236  141.2243  154.5442 C   0  0  0  0  0  0  0  0  0  0  0  0
  147.1674  141.1213  153.0662 C   0  0  0  0  0  0  0  0  0  0  0  0
  144.7743  142.0062  154.6785 H   0  0  0  0  0  0  0  0  0  0  0  0
  144.5401  141.1884  156.2225 H   0  0  0  0  0  0  0  0  0  0  0  0
  144.8512  140.2380  154.7720 H   0  0  0  0  0  0  0  0  0  0  0  0
  148.5816  141.4950  158.2249 H   0  0  0  0  0  0  0  0  0  0  0  0
  150.8538  140.5706  157.2524 H   0  0  0  0  0  0  0  0  0  0  0  0
  151.3513  141.4924  155.8868 H   0  0  0  0  0  0  0  0  0  0  0  0
  149.8952  142.9996  158.0839 H   0  0  0  0  0  0  0  0  0  0  0  0
  150.5526  144.1918  156.4349 H   0  0  0  0  0  0  0  0  0  0  0  0
  152.0650  140.2837  158.1558 H   0  0  0  0  0  0  0  0  0  0  0  0
  154.3025  141.4707  161.6348 H   0  0  0  0  0  0  0  0  0  0  0  0
  153.3702  143.7694  161.4560 H   0  0  0  0  0  0  0  0  0  0  0  0
  147.6248  140.2322  152.6308 H   0  0  0  0  0  0  0  0  0  0  0  0
  147.5399  141.9933  152.5274 H   0  0  0  0  0  0  0  0  0  0  0  0
  146.0957  141.0588  152.8857 H   0  0  0  0  0  0  0  0  0  0  0  0
  1  2  1  0  0  0  0
  1 21  1  0  0  0  0
  1 22  1  0  0  0  0
  1 23  1  0  0  0  0
  2 19  2  0  0  0  0
  2  3  1  0  0  0  0
  3  4  2  0  0  0  0
  4  5  1  0  0  0  0
  4 24  1  0  0  0  0
  5  6  1  0  0  0  0
  5 17  1  0  0  0  0
  6  7  1  0  0  0  0
  6 25  1  0  0  0  0
  6 26  1  0  0  0  0
  7  8  1  0  0  0  0
  7  9  1  0  0  0  0
  7 27  1  0  0  0  0
  8 28  1  0  0  0  0
  9 15  1  0  0  0  0
  9 10  2  0  0  0  0
 10 11  1  0  0  0  0
 10 29  1  0  0  0  0
 11 12  1  0  0  0  0
 11 13  2  0  0  0  0
 13 14  1  0  0  0  0
 13 30  1  0  0  0  0
 14 15  2  0  0  0  0
 14 31  1  0  0  0  0
 15 16  1  0  0  0  0
 17 18  2  0  0  0  0
 17 19  1  0  0  0  0
 19 20  1  0  0  0  0
 20 32  1  0  0  0  0
 20 33  1  0  0  0  0
 20 34  1  0  0  0  0
M  END
> <s_m_source_file>
AV-unprocessed.smi

> <i_m_source_file_index>
2418

> <i_lp_mmshare_version>
43012

> <i_f3d_flags>
0

> <s_epik_input>
W0NIM11jMW5bY0hdbihjKD1PKWMxW0NIM10pW0NIMl1bQ0BIXShbT0hdKWMyW2NIXWMoRilbY0hdW2NIXWMyRg==

> <s_epik_cmdline>
J2VwaWtfcHl0aG9uJywgJy1waCcsICc3LjAnLCAnLXRuJywgJzgnLCAnLW1hJywgJzIwMCcsICctbWV0YWxfYmluZGluZycsICctaW1hZScsICc8aW5maWxlLm1hZT4nLCAnLW9tYWUnLCAnPG91dGZpbGUubWFlPic=

> <r_lp_tautomer_probability>
1

> <r_epik_Ionization_Penalty>
5.08222e-05

> <r_epik_Ionization_Penalty_Charging>
7.56727e-08

> <r_epik_Ionization_Penalty_Neutral>
5.07465e-05

> <r_epik_State_Penalty>
-0

> <r_epik_Charging_Adjusted_Penalty>
7.56727e-08

> <i_epik_Tot_Q>
0

> <i_epik_Tot_abs_Q>
0

> <r_epik_Metal_State_Penalty>
-0

> <b_epik_Metal_Only>
0

> <s_lp_Force_Field>
OPLS_2005

> <r_lp_Energy>
19.2488

> <b_lp_Chiralities_Consistent>
1

> <s_lp_Variant>
AV-unprocessed.smi:2418-1

> <Gold.Version>
5.8.1

> <Gold.Id.Protein>
6NUR|6NUR_protein|mol2

> <Gold.PLP.Fitness>
46.0742

> <Gold.PLP.PLP>
-41.2230

> <Gold.PLP.part.hbond>
-3.0000

> <Gold.PLP.part.metal>
0.0000

> <Gold.PLP.part.buried>
-5.1603

> <Gold.PLP.part.nonpolar>
-33.7125

> <Gold.PLP.part.repulsive>
0.2724

> <Gold.PLP.ligand.clash>
0.0000

> <Gold.PLP.ligand.torsion>
0.5330

> <Gold.PLP.Chemscore.Hbond>
1.9684

> <Gold.PLP.Chemscore.CHOScore>
0.0000

> <Gold.PLP.Chemscore.Metal>
0.0000

> <Gold.Chemscore.Hbonds>
donor molecule, donor type, donor heavy atom, donor atom, acceptor molecule, acceptor atom, score
      L1  H     8    28       P1  8028  1.00
      P1  H  7989  7998       L1    18  0.32
      P1  H  8011  8017       L1    18  0.72

> <Gold.PLP.Chemscore.Internal.Correction>
0.0120

> <Gold.Rescore>
     Score         DG    S(hbond)    S(metal)    S(lipo)     H(rot)  DE(clash)    DE(int)     intcor
     16.85     -17.56       1.92        0.00      94.72       2.11       0.04       0.67       ----

> <Gold.Chemscore.Fitness>
16.8532

> <Gold.Chemscore.DG>
-17.5594

> <Gold.Chemscore.ZeroCoef>
-5.4800

> <Gold.Chemscore.Hbond>
1.9155

> <Gold.Chemscore.Metal>
0.0000

> <Gold.Chemscore.Lipo>
94.7219

> <Gold.Chemscore.Internal_Hbond>
0.0000

> <Gold.Chemscore.DEClash>
0.0373

> <Gold.Chemscore.DEInternal>
0.6689

> <Gold.Chemscore.Rot>
2.1097

> <Gold.Chemscore.Internal.Correction>
   9.000000E+99

> <Gold.Chemscore.Hbonds>
donor molecule, donor type, donor heavy atom, donor atom, acceptor molecule, acceptor atom, score
      L1  H     8    28       P1  8028  1.00
      P1  H  7989  7998       L1    18  0.32
      P1  H  8011  8017       L1    18  0.67

> <Gold.Chemscore.Hbond.Weighted>
-6.3979

> <Gold.Chemscore.Metal.Weighted>
-0.0000

> <Gold.Chemscore.Lipo.Weighted>
-11.0825

> <Gold.Chemscore.Internal_Hbond.Weighted>
0.0000

> <Gold.Chemscore.DEClash.Weighted>
0.0373

> <Gold.Chemscore.DEInternal.Weighted>
0.6689

> <Gold.Chemscore.Rot.Weighted>
5.4009

> <Gold.Chemscore.Internal.Correction.Weighted>
   9.000000E+99

> <Gold.Protein.RotatedTorsions>
[ 6907 6896 6895 6894 ] final   27.74 input  -60.11 | X-H torsion
[ 7974 7965 7964 7962 ] final -130.99 input  175.53 | X-H torsion
[ 8008 7997 7996 7995 ] final  -13.98 input   59.86 | X-H torsion
[ 10167 10162 10161 10158 ] final  -36.95 input  -65.29 | X-H torsion
[ 10718 10713 10712 10709 ] final   16.17 input   66.30 | X-H torsion
[ 10763 10752 10751 10750 ] final   -3.02 input  -60.55 | X-H torsion
[ 11005 11000 10999 10996 ] final  109.54 input  -57.11 | X-H torsion

> <Gold.Protein.ActiveResidues>
 VAL166  LYS551  ARG553  GLY616  TRP617  ASP618  TYR619  PRO620  LYS621  CYS622 
 ASP623  PHE694  ASN695  SER759  ASP760  ASP761  ALA762  ILE779  LEU786  VAL792 
 PHE793  MET794  SER795  GLU796  ALA797  LYS798  CYS799  TRP800  GLU811  SER814 

> <Gold.Protein.RotatedAtoms>
  152.0067  134.9898  160.0566 H   0  0  0  0  0  0  0  0  0  0  0  0  # atno 6907 bound_to 6896
  152.1467  133.4492  159.4802 H   0  0  0  0  0  0  0  0  0  0  0  0  # atno 6908 bound_to 6896
  150.6871  134.2157  159.4420 H   0  0  0  0  0  0  0  0  0  0  0  0  # atno 6909 bound_to 6896
  144.9422  140.7251  143.4839 H   0  0  0  0  0  0  0  0  0  0  0  0  # atno 7974 bound_to 7965
  154.5247  140.2235  155.8911 H   0  0  0  0  0  0  0  0  0  0  0  0  # atno 8008 bound_to 7997
  156.1701  140.3123  155.8922 H   0  0  0  0  0  0  0  0  0  0  0  0  # atno 8009 bound_to 7997
  155.3576  140.0459  157.3037 H   0  0  0  0  0  0  0  0  0  0  0  0  # atno 8010 bound_to 7997
  140.7130  143.3374  151.2432 H   0  0  0  0  0  0  0  0  0  0  0  0  # atno 10167 bound_to 10162
  157.0640  130.6320  149.5792 H   0  0  0  0  0  0  0  0  0  0  0  0  # atno 10718 bound_to 10713
  153.3658  135.6992  153.6676 H   0  0  0  0  0  0  0  0  0  0  0  0  # atno 10763 bound_to 10752
  153.5347  135.3585  155.2692 H   0  0  0  0  0  0  0  0  0  0  0  0  # atno 10764 bound_to 10752
  154.8674  135.4189  154.2925 H   0  0  0  0  0  0  0  0  0  0  0  0  # atno 10765 bound_to 10752
  139.8864  134.9461  156.6142 H   0  0  0  0  0  0  0  0  0  0  0  0  # atno 11005 bound_to 11000
  145.2973  139.1862  143.4708 LP  0  0  0  0  0  0  0  0  0  0  0  0  # atno 17320 bound_to 7965
  146.3290  140.2959  142.8618 LP  0  0  0  0  0  0  0  0  0  0  0  0  # atno 17321 bound_to 7965
  139.6873  143.9752  152.2841 LP  0  0  0  0  0  0  0  0  0  0  0  0  # atno 17342 bound_to 10162
  139.9402  144.6687  150.8274 LP  0  0  0  0  0  0  0  0  0  0  0  0  # atno 17343 bound_to 10162
  155.9970  130.5040  150.7517 LP  0  0  0  0  0  0  0  0  0  0  0  0  # atno 17370 bound_to 10713
  157.4932  131.0912  151.0403 LP  0  0  0  0  0  0  0  0  0  0  0  0  # atno 17371 bound_to 10713
  140.7788  133.8677  155.8551 LP  0  0  0  0  0  0  0  0  0  0  0  0  # atno 17394 bound_to 11000
  140.9778  134.1446  157.4521 LP  0  0  0  0  0  0  0  0  0  0  0  0  # atno 17395 bound_to 11000

$$$$
