#       Name:                AV-unprocessed.smi:145
#       Creating user name   scv26
#       Creation time:       Thu Mar 26 18:35:41 2020


#       File generated by GOLD software.
#

@<TRIPOS>MOLECULE
AV-unprocessed.smi:145
    48    50     1
SMALL
NO_CHARGES


@<TRIPOS>ATOM
      1 ****        -1.3758  -0.9576  -0.8545 O.2            1 S1                 0.0000
      2 ****        -0.7686  -1.6397  -0.0280 C.2            1 S1                 0.0000
      3 ****         0.7680  -1.6343   0.0123 C.3            1 S1                 0.0000
      4 ****         1.3853  -0.6792  -0.9348 N.am           1 S1                 0.0000
      5 ****         1.6939  -1.1241  -2.2444 C.2            1 S1                 0.0000
      6 ****         1.4756  -2.2853  -2.5928 O.2            1 S1                 0.0000
      7 ****         2.2662  -0.1186  -3.1324 C.2            1 S1                 0.0000
      8 ****         2.5759  -0.4463  -4.3983 F              1 S1                 0.0000
      9 ****         2.4863   1.1412  -2.7038 C.2            1 S1                 0.0000
     10 ****         2.2015   1.5569  -1.4181 N.am           1 S1                 0.0000
     11 ****         2.4346   3.0016  -1.0410 C.3            1 S1                 0.0000
     12 ****         3.3698   3.1806   0.1700 C.3            1 S1                 0.0000
     13 ****         2.5073   3.9536   1.1542 C.3            1 S1                 0.0000
     14 ****         1.4475   4.5829   0.2564 C.3            1 S1                 0.0000
     15 ****         1.2078   3.5806  -0.7189 O.3            1 S1                 0.0000
     16 ****         1.6086   0.6519  -0.5074 C.2            1 S1                 0.0000
     17 ****         1.2864   1.0111   0.6263 O.2            1 S1                 0.0000
     18 ****        -1.3575  -2.4494   0.8707 N.am           1 S1                 0.0000
     19 ****        -2.7439  -2.6729   1.0901 C.ar           1 S1                 0.0000
     20 ****        -3.7479  -1.7233   0.7797 C.ar           1 S1                 0.0000
     21 ****        -5.1013  -2.0104   1.0447 C.ar           1 S1                 0.0000
     22 ****        -5.4627  -3.2390   1.6284 C.ar           1 S1                 0.0000
     23 ****        -4.4682  -4.1799   1.9546 C.ar           1 S1                 0.0000
     24 ****        -4.9991  -6.0016   2.8330 I              1 S1                 0.0000
     25 ****        -3.1144  -3.8943   1.6910 C.ar           1 S1                 0.0000
     26 ****         1.0878  -1.4262   1.0347 H              1 S1                 0.0000
     27 ****         1.1207  -2.6504  -0.1712 H              1 S1                 0.0000
     28 ****         2.9064   1.8491  -3.4034 H              1 S1                 0.0000
     29 ****         2.8353   3.4850  -1.9331 H              1 S1                 0.0000
     30 ****         3.7260   2.2308   0.5698 H              1 S1                 0.0000
     31 ****         4.2332   3.7689  -0.1424 H              1 S1                 0.0000
     32 ****         2.0370   3.2688   1.8602 H              1 S1                 0.0000
     33 ****         3.0710   4.6912   1.7258 H              1 S1                 0.0000
     34 ****         0.5374   4.8443   0.7965 H              1 S1                 0.0000
     35 ****         1.8319   5.4813  -0.2296 H              1 S1                 0.0000
     36 ****        -0.7346  -3.0224   1.4210 H              1 S1                 0.0000
     37 ****        -3.5032  -0.7635   0.3516 H              1 S1                 0.0000
     38 ****        -5.8626  -1.2831   0.8042 H              1 S1                 0.0000
     39 ****        -6.5013  -3.4555   1.8309 H              1 S1                 0.0000
     40 ****        -2.3588  -4.6226   1.9476 H              1 S1                 0.0000
     41 ****        -0.8690  -0.3940  -1.5068 LP             1 S1                 0.0000
     42 ****        -2.3756  -0.9674  -0.8732 LP             1 S1                 0.0000
     43 ****         1.0732  -2.9339  -1.9467 LP             1 S1                 0.0000
     44 ****         1.7007  -2.5793  -3.5217 LP             1 S1                 0.0000
     45 ****         0.5899   2.8865  -0.3494 LP             1 S1                 0.0000
     46 ****         0.7995   3.9899  -1.5348 LP             1 S1                 0.0000
     47 ****         0.8622   0.3598   1.2555 LP             1 S1                 0.0000
     48 ****         1.4490   1.9539   0.9172 LP             1 S1                 0.0000
@<TRIPOS>BOND
    1    1    2 2     
    2    2    3 1     
    3    2   18 am    
    4    3    4 1     
    5    3   26 1     
    6    3   27 1     
    7    4   16 am    
    8    4    5 am    
    9    5    6 2     
   10    5    7 1     
   11    7    8 1     
   12    7    9 2     
   13    9   10 1     
   14    9   28 1     
   15   10   11 1     
   16   10   16 am    
   17   11   15 1     
   18   11   12 1     
   19   11   29 1     
   20   12   13 1     
   21   12   30 1     
   22   12   31 1     
   23   13   14 1     
   24   13   32 1     
   25   13   33 1     
   26   14   15 1     
   27   14   34 1     
   28   14   35 1     
   29   16   17 2     
   30   18   19 1     
   31   18   36 1     
   32   19   25 ar    
   33   19   20 ar    
   34   20   21 ar    
   35   20   37 1     
   36   21   22 ar    
   37   21   38 1     
   38   22   23 ar    
   39   22   39 1     
   40   23   24 1     
   41   23   25 ar    
   42   25   40 1     
   43    1   41 1     
   44    1   42 1     
   45    6   43 1     
   46    6   44 1     
   47   15   45 1     
   48   15   46 1     
   49   17   47 1     
   50   17   48 1     
@<TRIPOS>SUBSTRUCTURE
      1 S1             1
@<TRIPOS>SET
LONE_PAIRS      STATIC     ATOMS    <user>   **** ""
8 41 42 43 44 45 46 47 48
DONOR_HYDROGENS      STATIC     ATOMS    <user>   **** ""
1 36
ATOM$BLUE        STATIC     ATOMS    COLORGROUP SYSTEM
8 41 42 43 44 45 46 47 48
ATOM$RED        STATIC     ATOMS    COLORGROUP SYSTEM
1 36
