AV-unprocessed.smi:2775|AV-procd|sdf|10692|dock6
  -GOLD-   2272015133D 1   1.00000     0.00000
 Structure written by MMmdl.
 42 45  0  0  0  0  0  0  0  0  1 V2000
  152.1951  139.5981  155.9187 C   0  0  0  0  0  0  0  0  0  0  0  0
  150.8440  139.8549  155.2781 C   0  0  0  0  0  0  0  0  0  0  0  0
  150.4150  141.1358  155.3106 N   0  0  0  0  0  0  0  0  0  0  0  0
  149.2158  141.4183  154.7610 C   0  0  0  0  0  0  0  0  0  0  0  0
  148.3949  140.4499  154.1525 C   0  0  0  0  0  0  0  0  0  0  0  0
  148.8501  139.1113  154.1019 C   0  0  0  0  0  0  0  0  0  0  0  0
  148.0971  138.0530  153.5266 N   0  0  0  0  0  0  0  0  0  0  0  0
  146.8549  138.0893  153.0077 C   0  0  0  0  0  0  0  0  0  0  0  0
  146.1123  139.0686  153.0279 O   0  0  0  0  0  0  0  0  0  0  0  0
  146.4914  136.9482  152.3971 N   0  0  0  0  0  0  0  0  0  0  0  0
  145.2143  136.6610  151.7342 C   0  0  2  0  0  0  0  0  0  0  0  0
  143.9720  136.8090  152.6529 C   0  0  2  0  0  0  0  0  0  0  0  0
  144.0138  137.4424  154.0239 C   0  0  0  0  0  0  0  0  0  0  0  0
  144.0751  136.2308  154.9576 C   0  0  0  0  0  0  0  0  0  0  0  0
  144.5795  135.1733  154.1455 O   0  0  0  0  0  0  0  0  0  0  0  0
  143.9872  135.2988  152.8563 C   0  0  2  0  0  0  0  0  0  0  0  0
  144.9449  135.1480  151.6669 C   0  0  0  0  0  0  0  0  0  0  0  0
  146.0560  134.0849  151.6632 C   0  0  0  0  0  0  0  0  0  0  0  0
  145.1600  133.2253  150.7674 C   0  0  0  0  0  0  0  0  0  0  0  0
  144.4209  134.5075  150.3725 C   0  0  0  0  0  0  0  0  0  0  0  0
  150.0987  138.8054  154.6912 C   0  0  0  0  0  0  0  0  0  0  0  0
  150.7062  137.1825  154.6832 Cl  0  0  0  0  0  0  0  0  0  0  0  0
  152.8810  139.1575  155.1946 H   0  0  0  0  0  0  0  0  0  0  0  0
  152.0912  138.9115  156.7592 H   0  0  0  0  0  0  0  0  0  0  0  0
  152.6452  140.5201  156.2896 H   0  0  0  0  0  0  0  0  0  0  0  0
  148.8970  142.4487  154.8133 H   0  0  0  0  0  0  0  0  0  0  0  0
  147.4382  140.7459  153.7505 H   0  0  0  0  0  0  0  0  0  0  0  0
  148.6113  137.1991  153.3662 H   0  0  0  0  0  0  0  0  0  0  0  0
  147.1957  136.2281  152.3236 H   0  0  0  0  0  0  0  0  0  0  0  0
  145.0935  137.1454  150.7638 H   0  0  0  0  0  0  0  0  0  0  0  0
  143.1021  137.1077  152.0659 H   0  0  0  0  0  0  0  0  0  0  0  0
  144.8812  138.0852  154.1616 H   0  0  0  0  0  0  0  0  0  0  0  0
  143.1302  138.0488  154.2246 H   0  0  0  0  0  0  0  0  0  0  0  0
  144.7053  136.4026  155.8303 H   0  0  0  0  0  0  0  0  0  0  0  0
  143.0756  135.9647  155.3048 H   0  0  0  0  0  0  0  0  0  0  0  0
  143.0102  134.8224  152.7623 H   0  0  0  0  0  0  0  0  0  0  0  0
  146.9605  134.4170  151.1510 H   0  0  0  0  0  0  0  0  0  0  0  0
  146.2817  133.6494  152.6369 H   0  0  0  0  0  0  0  0  0  0  0  0
  145.6772  132.7241  149.9488 H   0  0  0  0  0  0  0  0  0  0  0  0
  144.5343  132.5354  151.3360 H   0  0  0  0  0  0  0  0  0  0  0  0
  143.3366  134.4086  150.3119 H   0  0  0  0  0  0  0  0  0  0  0  0
  144.8332  134.9692  149.4739 H   0  0  0  0  0  0  0  0  0  0  0  0
  1  2  1  0  0  0  0
  1 23  1  0  0  0  0
  1 24  1  0  0  0  0
  1 25  1  0  0  0  0
  2 21  1  0  0  0  0
  2  3  2  0  0  0  0
  3  4  1  0  0  0  0
  4  5  2  0  0  0  0
  4 26  1  0  0  0  0
  5  6  1  0  0  0  0
  5 27  1  0  0  0  0
  6  7  1  0  0  0  0
  6 21  2  0  0  0  0
  7  8  1  0  0  0  0
  7 28  1  0  0  0  0
  8  9  2  0  0  0  0
  8 10  1  0  0  0  0
 10 11  1  0  0  0  0
 10 29  1  0  0  0  0
 11 17  1  0  0  0  0
 11 12  1  0  0  0  0
 11 30  1  0  0  0  0
 12 16  1  0  0  0  0
 12 13  1  0  0  0  0
 12 31  1  0  0  0  0
 13 14  1  0  0  0  0
 13 32  1  0  0  0  0
 13 33  1  0  0  0  0
 14 15  1  0  0  0  0
 14 34  1  0  0  0  0
 14 35  1  0  0  0  0
 15 16  1  0  0  0  0
 16 17  1  0  0  0  0
 16 36  1  0  0  0  0
 17 20  1  0  0  0  0
 17 18  1  0  0  0  0
 18 19  1  0  0  0  0
 18 37  1  0  0  0  0
 18 38  1  0  0  0  0
 19 20  1  0  0  0  0
 19 39  1  0  0  0  0
 19 40  1  0  0  0  0
 20 41  1  0  0  0  0
 20 42  1  0  0  0  0
 21 22  1  0  0  0  0
M  END
> <s_m_source_file>
AV-unprocessed.smi

> <i_m_source_file_index>
2775

> <i_lp_mmshare_version>
43012

> <i_f3d_flags>
0

> <s_epik_input>
W0NIM11jMW5bY0hdW2NIXWMoYzFDbClbTkhdQyg9TylbTkhdW0NAQEhdMltDQEhdKFtDSDJdW0NIMl1PMylbQ0BASF0zQzI0W0NIMl1bQ0gyXVtDSDJdNA==

> <s_epik_cmdline>
J2VwaWtfcHl0aG9uJywgJy1waCcsICc3LjAnLCAnLXRuJywgJzgnLCAnLW1hJywgJzIwMCcsICctbWV0YWxfYmluZGluZycsICctaW1hZScsICc8aW5maWxlLm1hZT4nLCAnLW9tYWUnLCAnPG91dGZpbGUubWFlPic=

> <r_epik_Ionization_Penalty>
0.01026

> <r_epik_Ionization_Penalty_Charging>
0

> <r_epik_Ionization_Penalty_Neutral>
0.01026

> <r_epik_State_Penalty>
0.00780685

> <r_epik_Charging_Adjusted_Penalty>
0.00780685

> <i_epik_Tot_Q>
0

> <i_epik_Tot_abs_Q>
0

> <r_epik_Metal_State_Penalty>
0.00767411

> <b_epik_Metal_Only>
0

> <s_lp_Force_Field>
OPLS_2005

> <r_lp_Energy>
58.5604

> <b_lp_Chiralities_Consistent>
1

> <s_lp_Variant>
AV-unprocessed.smi:2775-5

> <Gold.Version>
5.8.1

> <Gold.Id.Protein>
6NUR|6NUR_protein|mol2

> <Gold.PLP.Fitness>
41.1419

> <Gold.PLP.PLP>
-34.2421

> <Gold.PLP.part.hbond>
-3.0000

> <Gold.PLP.part.metal>
0.0000

> <Gold.PLP.part.buried>
-0.1827

> <Gold.PLP.part.nonpolar>
-32.9871

> <Gold.PLP.part.repulsive>
2.1498

> <Gold.PLP.ligand.clash>
0.0000

> <Gold.PLP.ligand.torsion>
0.1708

> <Gold.PLP.Chemscore.Hbond>
1.3440

> <Gold.PLP.Chemscore.CHOScore>
1.0000

> <Gold.PLP.Chemscore.Metal>
0.0000

> <Gold.Chemscore.Hbonds>
donor molecule, donor type, donor heavy atom, donor atom, acceptor molecule, acceptor atom, score
      L1  H     7    28       P1  7948  0.66
      L1  H    10    29       P1  7948  0.69
      L1  C     4    26       P1  8028  1.00

> <Gold.PLP.Chemscore.Internal.Correction>
0.2095

> <Gold.Rescore>
     Score         DG    S(hbond)    S(metal)    S(lipo)     H(rot)  DE(clash)    DE(int)     intcor
     13.54     -18.55       1.63        0.00      87.19       1.00       1.50       3.51       ----

> <Gold.Chemscore.Fitness>
13.5438

> <Gold.Chemscore.DG>
-18.5532

> <Gold.Chemscore.ZeroCoef>
-5.4800

> <Gold.Chemscore.Hbond>
1.6263

> <Gold.Chemscore.Metal>
0.0000

> <Gold.Chemscore.Lipo>
87.1902

> <Gold.Chemscore.Internal_Hbond>
0.0000

> <Gold.Chemscore.DEClash>
1.5000

> <Gold.Chemscore.DEInternal>
3.5095

> <Gold.Chemscore.Rot>
1.0000

> <Gold.Chemscore.Internal.Correction>
   9.000000E+99

> <Gold.Chemscore.Hbonds>
donor molecule, donor type, donor heavy atom, donor atom, acceptor molecule, acceptor atom, score
      L1  H     7    28       P1  7948  0.66
      L1  H    10    29       P1  7948  0.68

> <Gold.Chemscore.Hbond.Weighted>
-5.4320

> <Gold.Chemscore.Metal.Weighted>
-0.0000

> <Gold.Chemscore.Lipo.Weighted>
-10.2012

> <Gold.Chemscore.Internal_Hbond.Weighted>
0.0000

> <Gold.Chemscore.DEClash.Weighted>
1.5000

> <Gold.Chemscore.DEInternal.Weighted>
3.5095

> <Gold.Chemscore.Rot.Weighted>
2.5600

> <Gold.Chemscore.Internal.Correction.Weighted>
   9.000000E+99

> <Gold.Protein.RotatedTorsions>
[ 6907 6896 6895 6894 ] final -146.60 input  -60.11 | X-H torsion
[ 7974 7965 7964 7962 ] final   98.66 input  175.53 | X-H torsion
[ 8008 7997 7996 7995 ] final  -34.12 input   59.86 | X-H torsion
[ 10167 10162 10161 10158 ] final   44.95 input  -65.29 | X-H torsion
[ 10718 10713 10712 10709 ] final   37.02 input   66.30 | X-H torsion
[ 10763 10752 10751 10750 ] final -155.67 input  -60.55 | X-H torsion
[ 11005 11000 10999 10996 ] final  107.63 input  -57.11 | X-H torsion

> <Gold.Protein.ActiveResidues>
 VAL166  LYS551  ARG553  GLY616  TRP617  ASP618  TYR619  PRO620  LYS621  CYS622 
 ASP623  PHE694  ASN695  SER759  ASP760  ASP761  ALA762  ILE779  LEU786  VAL792 
 PHE793  MET794  SER795  GLU796  ALA797  LYS798  CYS799  TRP800  GLU811  SER814 

> <Gold.Protein.RotatedAtoms>
  151.1439  133.4953  159.2596 H   0  0  0  0  0  0  0  0  0  0  0  0  # atno 6907 bound_to 6896
  151.1626  135.0280  159.8727 H   0  0  0  0  0  0  0  0  0  0  0  0  # atno 6908 bound_to 6896
  152.5463  134.1311  159.8492 H   0  0  0  0  0  0  0  0  0  0  0  0  # atno 6909 bound_to 6896
  145.4093  139.2336  143.3257 H   0  0  0  0  0  0  0  0  0  0  0  0  # atno 7974 bound_to 7965
  154.4129  140.1692  156.1999 H   0  0  0  0  0  0  0  0  0  0  0  0  # atno 8008 bound_to 7997
  155.9533  140.3399  155.6403 H   0  0  0  0  0  0  0  0  0  0  0  0  # atno 8009 bound_to 7997
  155.6842  140.0726  157.2464 H   0  0  0  0  0  0  0  0  0  0  0  0  # atno 8010 bound_to 7997
  140.3290  144.2611  150.6171 H   0  0  0  0  0  0  0  0  0  0  0  0  # atno 10167 bound_to 10162
  157.3418  130.7552  149.6917 H   0  0  0  0  0  0  0  0  0  0  0  0  # atno 10718 bound_to 10713
  154.7770  135.3162  154.8071 H   0  0  0  0  0  0  0  0  0  0  0  0  # atno 10763 bound_to 10752
  153.8792  135.6836  153.4772 H   0  0  0  0  0  0  0  0  0  0  0  0  # atno 10764 bound_to 10752
  153.1396  135.4745  154.9412 H   0  0  0  0  0  0  0  0  0  0  0  0  # atno 10765 bound_to 10752
  139.8831  134.9406  156.5848 H   0  0  0  0  0  0  0  0  0  0  0  0  # atno 11005 bound_to 11000
  146.2713  140.4802  142.8813 LP  0  0  0  0  0  0  0  0  0  0  0  0  # atno 17320 bound_to 7965
  144.8320  140.6722  143.6285 LP  0  0  0  0  0  0  0  0  0  0  0  0  # atno 17321 bound_to 7965
  140.5414  143.2223  151.8078 LP  0  0  0  0  0  0  0  0  0  0  0  0  # atno 17342 bound_to 10162
  139.4860  144.4595  151.9558 LP  0  0  0  0  0  0  0  0  0  0  0  0  # atno 17343 bound_to 10162
  155.9709  130.4165  150.4235 LP  0  0  0  0  0  0  0  0  0  0  0  0  # atno 17370 bound_to 10713
  157.2284  131.0498  151.2506 LP  0  0  0  0  0  0  0  0  0  0  0  0  # atno 17371 bound_to 10713
  140.8000  133.8513  155.8718 LP  0  0  0  0  0  0  0  0  0  0  0  0  # atno 17394 bound_to 11000
  140.9601  134.1666  157.4660 LP  0  0  0  0  0  0  0  0  0  0  0  0  # atno 17395 bound_to 11000

$$$$
