AV-unprocessed.smi:1535|AV-procd|sdf|6183|dock8
  -GOLD-   22720 6343D 1   1.00000     0.00000
 Structure written by MMmdl.
 47 48  0  0  0  0  0  0  0  0  2 V2000
  152.0238  144.1875  159.5672 C   0  0  0  0  0  0  0  0  0  0  0  0
  151.7968  142.9301  158.7465 C   0  0  0  0  0  0  0  0  0  0  0  0
  151.0378  143.0129  157.5574 C   0  0  0  0  0  0  0  0  0  0  0  0
  150.8048  141.8672  156.7659 C   0  0  0  0  0  0  0  0  0  0  0  0
  150.1020  141.7197  155.5825 N   0  0  0  0  0  0  0  0  0  0  0  0
  150.2478  140.4201  155.3433 C   0  0  0  0  0  0  0  0  0  0  0  0
  150.9774  139.7092  156.2250 N   0  0  0  0  0  0  0  0  0  0  0  0
  151.2864  138.2919  156.1669 C   0  0  0  0  0  0  0  0  0  0  0  0
  150.6922  137.6092  154.9188 C   0  0  1  0  0  0  0  0  0  0  0  0
  151.7616  137.2416  154.0711 O   0  0  0  0  0  0  0  0  0  0  0  0
  149.8522  136.3532  155.2347 C   0  0  0  0  0  0  0  0  0  0  0  0
  148.5533  136.3696  154.5141 N   0  3  2  0  0  0  0  0  0  0  0  0
  147.8413  137.6609  154.6619 C   0  0  0  0  0  0  0  0  0  0  0  0
  147.6816  135.2137  154.8443 C   0  0  0  0  0  0  0  0  0  0  0  0
  148.1388  133.9145  154.1521 C   0  0  1  0  0  0  0  0  0  0  0  0
  149.4757  133.4184  154.7169 C   0  0  0  0  0  0  0  0  0  0  0  0
  147.1097  132.8664  154.2476 C   0  0  0  0  0  0  0  0  0  0  0  0
  146.3041  132.0405  154.3250 N   0  0  0  0  0  0  0  0  0  0  0  0
  151.3586  140.6269  157.1983 C   0  0  0  0  0  0  0  0  0  0  0  0
  152.1117  140.5311  158.3817 C   0  0  0  0  0  0  0  0  0  0  0  0
  152.3336  141.6850  159.1617 C   0  0  0  0  0  0  0  0  0  0  0  0
  153.1470  141.5704  160.4387 C   0  0  0  0  0  0  0  0  0  0  0  0
  151.5659  145.0583  159.0966 H   0  0  0  0  0  0  0  0  0  0  0  0
  153.0901  144.3877  159.6738 H   0  0  0  0  0  0  0  0  0  0  0  0
  151.5901  144.0773  160.5613 H   0  0  0  0  0  0  0  0  0  0  0  0
  150.6265  143.9610  157.2426 H   0  0  0  0  0  0  0  0  0  0  0  0
  149.8081  139.9606  154.4701 H   0  0  0  0  0  0  0  0  0  0  0  0
  152.3718  138.1804  156.1804 H   0  0  0  0  0  0  0  0  0  0  0  0
  150.9109  137.8173  157.0747 H   0  0  0  0  0  0  0  0  0  0  0  0
  150.0841  138.3367  154.3819 H   0  0  0  0  0  0  0  0  0  0  0  0
  151.4374  137.1618  153.1866 H   0  0  0  0  0  0  0  0  0  0  0  0
  150.4357  135.4692  154.9780 H   0  0  0  0  0  0  0  0  0  0  0  0
  149.6517  136.2679  156.3035 H   0  0  0  0  0  0  0  0  0  0  0  0
  147.5187  137.8130  155.6927 H   0  0  0  0  0  0  0  0  0  0  0  0
  146.9591  137.6896  154.0214 H   0  0  0  0  0  0  0  0  0  0  0  0
  148.4757  138.5006  154.3785 H   0  0  0  0  0  0  0  0  0  0  0  0
  147.6392  135.0850  155.9270 H   0  0  0  0  0  0  0  0  0  0  0  0
  146.6622  135.4286  154.5195 H   0  0  0  0  0  0  0  0  0  0  0  0
  148.2797  134.0952  153.0872 H   0  0  0  0  0  0  0  0  0  0  0  0
  149.8061  132.5159  154.2020 H   0  0  0  0  0  0  0  0  0  0  0  0
  149.3938  133.1837  155.7785 H   0  0  0  0  0  0  0  0  0  0  0  0
  150.2565  134.1703  154.5993 H   0  0  0  0  0  0  0  0  0  0  0  0
  152.5144  139.5774  158.6891 H   0  0  0  0  0  0  0  0  0  0  0  0
  153.4520  140.5403  160.6249 H   0  0  0  0  0  0  0  0  0  0  0  0
  152.5628  141.9050  161.2962 H   0  0  0  0  0  0  0  0  0  0  0  0
  154.0480  142.1805  160.3736 H   0  0  0  0  0  0  0  0  0  0  0  0
  148.7730  136.2780  153.5319 H   0  0  0  0  0  0  0  0  0  0  0  0
  1  2  1  0  0  0  0
  1 23  1  0  0  0  0
  1 24  1  0  0  0  0
  1 25  1  0  0  0  0
  2 21  1  0  0  0  0
  2  3  2  0  0  0  0
  3  4  1  0  0  0  0
  3 26  1  0  0  0  0
  4 19  2  0  0  0  0
  4  5  1  0  0  0  0
  5  6  2  0  0  0  0
  6  7  1  0  0  0  0
  6 27  1  0  0  0  0
  7  8  1  0  0  0  0
  7 19  1  0  0  0  0
  8  9  1  0  0  0  0
  8 28  1  0  0  0  0
  8 29  1  0  0  0  0
  9 10  1  0  0  0  0
  9 11  1  0  0  0  0
  9 30  1  0  0  0  0
 10 31  1  0  0  0  0
 11 12  1  0  0  0  0
 11 32  1  0  0  0  0
 11 33  1  0  0  0  0
 12 13  1  0  0  0  0
 12 14  1  0  0  0  0
 12 47  1  0  0  0  0
 13 34  1  0  0  0  0
 13 35  1  0  0  0  0
 13 36  1  0  0  0  0
 14 15  1  0  0  0  0
 14 37  1  0  0  0  0
 14 38  1  0  0  0  0
 15 16  1  0  0  0  0
 15 17  1  0  0  0  0
 15 39  1  0  0  0  0
 16 40  1  0  0  0  0
 16 41  1  0  0  0  0
 16 42  1  0  0  0  0
 17 18  3  0  0  0  0
 19 20  1  0  0  0  0
 20 21  2  0  0  0  0
 20 43  1  0  0  0  0
 21 22  1  0  0  0  0
 22 44  1  0  0  0  0
 22 45  1  0  0  0  0
 22 46  1  0  0  0  0
M  CHG  1  12   1
M  END
> <s_m_source_file>
AV-unprocessed.smi

> <i_m_source_file_index>
1535

> <i_lp_mmshare_version>
43012

> <i_f3d_flags>
0

> <s_epik_input>
W0NIM11jKFtjSF0xKWMoW0NIM10pW2NIXWMoYzEyKW4oW2NIXW4yKVtDSDJdW0NASF0oW09IXSlbQ0gyXU4oW0NIM10pW0NIMl1bQ0BIXShbQ0gzXSlDI04=

> <s_epik_cmdline>
J2VwaWtfcHl0aG9uJywgJy1waCcsICc3LjAnLCAnLXRuJywgJzgnLCAnLW1hJywgJzIwMCcsICctbWV0YWxfYmluZGluZycsICctaW1hZScsICc8aW5maWxlLm1hZT4nLCAnLW9tYWUnLCAnPG91dGZpbGUubWFlPic=

> <r_epik_Ionization_Penalty>
2.21058

> <r_epik_Ionization_Penalty_Charging>
2.12381

> <r_epik_Ionization_Penalty_Neutral>
0.0867699

> <r_epik_State_Penalty>
2.36208

> <r_epik_Charging_Adjusted_Penalty>
4.48589

> <i_epik_Tot_Q>
1

> <i_epik_Tot_abs_Q>
1

> <r_epik_Metal_State_Penalty>
2.2818

> <b_epik_Metal_Only>
0

> <s_lp_Force_Field>
OPLS_2005

> <r_lp_Energy>
13.4259

> <b_lp_Chiralities_Consistent>
1

> <s_lp_Variant>
AV-unprocessed.smi:1535-14

> <Gold.Version>
5.8.1

> <Gold.Id.Protein>
6NUR|6NUR_protein|mol2

> <Gold.PLP.Fitness>
50.0904

> <Gold.PLP.PLP>
-41.3281

> <Gold.PLP.part.hbond>
-3.4072

> <Gold.PLP.part.metal>
0.0000

> <Gold.PLP.part.buried>
-3.9804

> <Gold.PLP.part.nonpolar>
-34.3770

> <Gold.PLP.part.repulsive>
0.2003

> <Gold.PLP.ligand.clash>
0.0000

> <Gold.PLP.ligand.torsion>
1.6756

> <Gold.PLP.Chemscore.Hbond>
3.9920

> <Gold.PLP.Chemscore.CHOScore>
0.0000

> <Gold.PLP.Chemscore.Metal>
0.0000

> <Gold.Chemscore.Hbonds>
donor molecule, donor type, donor heavy atom, donor atom, acceptor molecule, acceptor atom, score
      L1  H    10    31       P1  7949  0.86
      L1  H    12    47       P1  7948  2.00
      P1  H 10752 10765       L1    10  0.78

> <Gold.PLP.Chemscore.Internal.Correction>
0.1376

> <Gold.Rescore>
     Score         DG    S(hbond)    S(metal)    S(lipo)     H(rot)  DE(clash)    DE(int)     intcor
     16.48     -18.43       2.16        0.00     106.10       2.60       0.05       1.91       ----

> <Gold.Chemscore.Fitness>
16.4820

> <Gold.Chemscore.DG>
-18.4350

> <Gold.Chemscore.ZeroCoef>
-5.4800

> <Gold.Chemscore.Hbond>
2.1571

> <Gold.Chemscore.Metal>
0.0000

> <Gold.Chemscore.Lipo>
106.1034

> <Gold.Chemscore.Internal_Hbond>
0.0000

> <Gold.Chemscore.DEClash>
0.0475

> <Gold.Chemscore.DEInternal>
1.9055

> <Gold.Chemscore.Rot>
2.6031

> <Gold.Chemscore.Internal.Correction>
   9.000000E+99

> <Gold.Chemscore.Hbonds>
donor molecule, donor type, donor heavy atom, donor atom, acceptor molecule, acceptor atom, score
      L1  H    10    31       P1  7949  0.68
      L1  H    12    47       P1  7948  1.00
      P1  H 10752 10765       L1    10  0.11

> <Gold.Chemscore.Hbond.Weighted>
-7.2049

> <Gold.Chemscore.Metal.Weighted>
-0.0000

> <Gold.Chemscore.Lipo.Weighted>
-12.4141

> <Gold.Chemscore.Internal_Hbond.Weighted>
0.0000

> <Gold.Chemscore.DEClash.Weighted>
0.0475

> <Gold.Chemscore.DEInternal.Weighted>
1.9055

> <Gold.Chemscore.Rot.Weighted>
6.6640

> <Gold.Chemscore.Internal.Correction.Weighted>
   9.000000E+99

> <Gold.Protein.RotatedTorsions>
[ 6907 6896 6895 6894 ] final   52.36 input  -60.11 | X-H torsion
[ 7974 7965 7964 7962 ] final -148.31 input  175.53 | X-H torsion
[ 8008 7997 7996 7995 ] final   -8.91 input   59.86 | X-H torsion
[ 10167 10162 10161 10158 ] final   27.04 input  -65.29 | X-H torsion
[ 10718 10713 10712 10709 ] final  -53.97 input   66.30 | X-H torsion
[ 10763 10752 10751 10750 ] final  138.74 input  -60.55 | X-H torsion
[ 11005 11000 10999 10996 ] final -113.91 input  -57.11 | X-H torsion

> <Gold.Protein.ActiveResidues>
 VAL166  LYS551  ARG553  GLY616  TRP617  ASP618  TYR619  PRO620  LYS621  CYS622 
 ASP623  PHE694  ASN695  SER759  ASP760  ASP761  ALA762  ILE779  LEU786  VAL792 
 PHE793  MET794  SER795  GLU796  ALA797  LYS798  CYS799  TRP800  GLU811  SER814 

> <Gold.Protein.RotatedAtoms>
  152.3224  134.7363  160.0310 H   0  0  0  0  0  0  0  0  0  0  0  0  # atno 6907 bound_to 6896
  151.7807  133.3344  159.3479 H   0  0  0  0  0  0  0  0  0  0  0  0  # atno 6908 bound_to 6896
  150.7377  134.5865  159.6010 H   0  0  0  0  0  0  0  0  0  0  0  0  # atno 6909 bound_to 6896
  144.8037  140.5213  143.5689 H   0  0  0  0  0  0  0  0  0  0  0  0  # atno 7974 bound_to 7965
  154.5696  140.2369  155.8211 H   0  0  0  0  0  0  0  0  0  0  0  0  # atno 8008 bound_to 7997
  156.2096  140.3030  155.9661 H   0  0  0  0  0  0  0  0  0  0  0  0  # atno 8009 bound_to 7997
  155.2736  140.0419  157.3000 H   0  0  0  0  0  0  0  0  0  0  0  0  # atno 8010 bound_to 7997
  140.4972  144.0373  150.6319 H   0  0  0  0  0  0  0  0  0  0  0  0  # atno 10167 bound_to 10162
  156.1490  130.4152  149.9976 H   0  0  0  0  0  0  0  0  0  0  0  0  # atno 10718 bound_to 10713
  153.8946  135.3029  155.3448 H   0  0  0  0  0  0  0  0  0  0  0  0  # atno 10763 bound_to 10752
  154.7700  135.4891  153.9632 H   0  0  0  0  0  0  0  0  0  0  0  0  # atno 10764 bound_to 10752
  153.1278  135.6797  153.9326 H   0  0  0  0  0  0  0  0  0  0  0  0  # atno 10765 bound_to 10752
  141.0585  133.9574  157.2710 H   0  0  0  0  0  0  0  0  0  0  0  0  # atno 11005 bound_to 11000
  145.5490  139.1476  143.3405 LP  0  0  0  0  0  0  0  0  0  0  0  0  # atno 17320 bound_to 7965
  146.2324  140.5628  142.8969 LP  0  0  0  0  0  0  0  0  0  0  0  0  # atno 17321 bound_to 7965
  140.3658  143.2882  152.0333 LP  0  0  0  0  0  0  0  0  0  0  0  0  # atno 17342 bound_to 10162
  139.4864  144.6268  151.7149 LP  0  0  0  0  0  0  0  0  0  0  0  0  # atno 17343 bound_to 10162
  156.7839  130.9231  151.3646 LP  0  0  0  0  0  0  0  0  0  0  0  0  # atno 17370 bound_to 10713
  157.6641  130.8992  149.9893 LP  0  0  0  0  0  0  0  0  0  0  0  0  # atno 17371 bound_to 10713
  139.9411  135.0191  156.8712 LP  0  0  0  0  0  0  0  0  0  0  0  0  # atno 17394 bound_to 11000
  140.5916  134.0256  155.7502 LP  0  0  0  0  0  0  0  0  0  0  0  0  # atno 17395 bound_to 11000

$$$$
