AV-unprocessed.smi:1869|AV-procd|sdf|7592|dock10
  -GOLD-   22720 9303D 1   1.00000     0.00000
 Structure written by MMmdl.
 39 40  0  0  0  0  0  0  0  0  1 V2000
  145.5782  136.8767  152.0459 C   0  0  0  0  0  0  0  0  0  0  0  0
  146.2142  137.7477  152.9647 O   0  0  0  0  0  0  0  0  0  0  0  0
  146.6887  138.9339  152.3496 C   0  0  0  0  0  0  0  0  0  0  0  0
  147.3809  139.8040  153.4031 C   0  0  0  0  0  0  0  0  0  0  0  0
  148.5703  139.1476  153.8314 O   0  0  0  0  0  0  0  0  0  0  0  0
  149.3696  139.7741  154.7653 C   0  0  0  0  0  0  0  0  0  0  0  0
  150.6038  139.1824  155.1000 C   0  0  0  0  0  0  0  0  0  0  0  0
  151.4282  139.8161  156.0492 C   0  0  0  0  0  0  0  0  0  0  0  0
  150.9933  141.0314  156.6291 C   0  0  0  0  0  0  0  0  0  0  0  0
  151.7243  141.7543  157.6096 N   0  0  0  0  0  0  0  0  0  0  0  0
  152.6987  141.3119  158.4293 C   0  0  0  0  0  0  0  0  0  0  0  0
  153.1097  140.1509  158.4240 O   0  0  0  0  0  0  0  0  0  0  0  0
  153.2077  142.2629  159.2551 N   0  0  0  0  0  0  0  0  0  0  0  0
  153.7868  142.0355  160.5902 C   0  0  0  0  0  0  0  0  0  0  0  0
  152.7189  142.3275  161.6571 C   0  0  0  0  0  0  0  0  0  0  0  0
  152.2015  144.0717  161.5987 S   0  0  0  0  0  0  0  0  0  0  0  0
  151.8644  144.2329  159.8169 C   0  0  0  0  0  0  0  0  0  0  0  0
  153.0381  143.6952  158.9804 C   0  0  0  0  0  0  0  0  0  0  0  0
  149.7334  141.5309  156.2403 C   0  0  0  0  0  0  0  0  0  0  0  0
  148.9387  140.9291  155.3304 N   0  0  0  0  0  0  0  0  0  0  0  0
  145.2372  135.9817  152.5663 H   0  0  0  0  0  0  0  0  0  0  0  0
  146.2636  136.5663  151.2560 H   0  0  0  0  0  0  0  0  0  0  0  0
  144.7090  137.3520  151.5893 H   0  0  0  0  0  0  0  0  0  0  0  0
  147.4045  138.6702  151.5695 H   0  0  0  0  0  0  0  0  0  0  0  0
  145.8741  139.4835  151.8756 H   0  0  0  0  0  0  0  0  0  0  0  0
  147.5964  140.7918  152.9919 H   0  0  0  0  0  0  0  0  0  0  0  0
  146.7123  139.9335  154.2557 H   0  0  0  0  0  0  0  0  0  0  0  0
  150.9119  138.2557  154.6387 H   0  0  0  0  0  0  0  0  0  0  0  0
  152.3642  139.3535  156.3214 H   0  0  0  0  0  0  0  0  0  0  0  0
  151.5366  142.7456  157.6459 H   0  0  0  0  0  0  0  0  0  0  0  0
  154.1811  141.0278  160.7213 H   0  0  0  0  0  0  0  0  0  0  0  0
  154.6466  142.6908  160.7383 H   0  0  0  0  0  0  0  0  0  0  0  0
  151.8463  141.6902  161.5084 H   0  0  0  0  0  0  0  0  0  0  0  0
  153.1068  142.1117  162.6527 H   0  0  0  0  0  0  0  0  0  0  0  0
  150.9478  143.6921  159.5780 H   0  0  0  0  0  0  0  0  0  0  0  0
  151.6837  145.2833  159.5886 H   0  0  0  0  0  0  0  0  0  0  0  0
  153.9534  144.2370  159.2227 H   0  0  0  0  0  0  0  0  0  0  0  0
  152.8599  143.8925  157.9223 H   0  0  0  0  0  0  0  0  0  0  0  0
  149.3513  142.4466  156.6678 H   0  0  0  0  0  0  0  0  0  0  0  0
  1  2  1  0  0  0  0
  1 21  1  0  0  0  0
  1 22  1  0  0  0  0
  1 23  1  0  0  0  0
  2  3  1  0  0  0  0
  3  4  1  0  0  0  0
  3 24  1  0  0  0  0
  3 25  1  0  0  0  0
  4  5  1  0  0  0  0
  4 26  1  0  0  0  0
  4 27  1  0  0  0  0
  5  6  1  0  0  0  0
  6 20  1  0  0  0  0
  6  7  2  0  0  0  0
  7  8  1  0  0  0  0
  7 28  1  0  0  0  0
  8  9  2  0  0  0  0
  8 29  1  0  0  0  0
  9 10  1  0  0  0  0
  9 19  1  0  0  0  0
 10 11  1  0  0  0  0
 10 30  1  0  0  0  0
 11 12  2  0  0  0  0
 11 13  1  0  0  0  0
 13 18  1  0  0  0  0
 13 14  1  0  0  0  0
 14 15  1  0  0  0  0
 14 31  1  0  0  0  0
 14 32  1  0  0  0  0
 15 16  1  0  0  0  0
 15 33  1  0  0  0  0
 15 34  1  0  0  0  0
 16 17  1  0  0  0  0
 17 18  1  0  0  0  0
 17 35  1  0  0  0  0
 17 36  1  0  0  0  0
 18 37  1  0  0  0  0
 18 38  1  0  0  0  0
 19 20  2  0  0  0  0
 19 39  1  0  0  0  0
M  END
> <s_m_source_file>
AV-unprocessed.smi

> <i_m_source_file_index>
1869

> <i_lp_mmshare_version>
43012

> <i_f3d_flags>
0

> <s_epik_input>
W0NIM11PW0NIMl1bQ0gyXU9jMVtjSF1bY0hdYyhbY0hdbjEpW05IXUMoPU8pTjJbQ0gyXVtDSDJdU1tDSDJdW0NIMl0y

> <s_epik_cmdline>
J2VwaWtfcHl0aG9uJywgJy1waCcsICc3LjAnLCAnLXRuJywgJzgnLCAnLW1hJywgJzIwMCcsICctbWV0YWxfYmluZGluZycsICctaW1hZScsICc8aW5maWxlLm1hZT4nLCAnLW9tYWUnLCAnPG91dGZpbGUubWFlPic=

> <r_lp_tautomer_probability>
1

> <r_epik_Ionization_Penalty>
6.51674e-05

> <r_epik_Ionization_Penalty_Charging>
0

> <r_epik_Ionization_Penalty_Neutral>
6.51674e-05

> <r_epik_State_Penalty>
-0

> <r_epik_Charging_Adjusted_Penalty>
0

> <i_epik_Tot_Q>
0

> <i_epik_Tot_abs_Q>
0

> <r_epik_Metal_State_Penalty>
-0

> <b_epik_Metal_Only>
0

> <s_lp_Force_Field>
OPLS_2005

> <r_lp_Energy>
28.6984

> <b_lp_Chiralities_Consistent>
1

> <s_lp_Variant>
AV-unprocessed.smi:1869-1

> <Gold.Version>
5.8.1

> <Gold.Id.Protein>
6NUR|6NUR_protein|mol2

> <Gold.PLP.Fitness>
46.6519

> <Gold.PLP.PLP>
-42.7089

> <Gold.PLP.part.hbond>
-1.0000

> <Gold.PLP.part.metal>
0.0000

> <Gold.PLP.part.buried>
-3.1320

> <Gold.PLP.part.nonpolar>
-38.5140

> <Gold.PLP.part.repulsive>
1.6823

> <Gold.PLP.ligand.clash>
1.2593

> <Gold.PLP.ligand.torsion>
0.4141

> <Gold.PLP.Chemscore.Hbond>
0.9920

> <Gold.PLP.Chemscore.CHOScore>
1.0000

> <Gold.PLP.Chemscore.Metal>
0.0000

> <Gold.Chemscore.Hbonds>
donor molecule, donor type, donor heavy atom, donor atom, acceptor molecule, acceptor atom, score
      P1  H  7997  8009       L1    12  0.98
      L1  C    19    39       P1  8028  1.00

> <Gold.PLP.Chemscore.Internal.Correction>
0.0545

> <Gold.Rescore>
     Score         DG    S(hbond)    S(metal)    S(lipo)     H(rot)  DE(clash)    DE(int)     intcor
     14.92     -16.63       0.81        0.00     107.33       1.61       0.08       1.63       ----

> <Gold.Chemscore.Fitness>
14.9249

> <Gold.Chemscore.DG>
-16.6303

> <Gold.Chemscore.ZeroCoef>
-5.4800

> <Gold.Chemscore.Hbond>
0.8111

> <Gold.Chemscore.Metal>
0.0000

> <Gold.Chemscore.Lipo>
107.3273

> <Gold.Chemscore.Internal_Hbond>
0.0000

> <Gold.Chemscore.DEClash>
0.0764

> <Gold.Chemscore.DEInternal>
1.6289

> <Gold.Chemscore.Rot>
1.6078

> <Gold.Chemscore.Internal.Correction>
   9.000000E+99

> <Gold.Chemscore.Hbonds>
donor molecule, donor type, donor heavy atom, donor atom, acceptor molecule, acceptor atom, score
      P1  H  7997  8009       L1    12  0.52

> <Gold.Chemscore.Hbond.Weighted>
-2.7091

> <Gold.Chemscore.Metal.Weighted>
-0.0000

> <Gold.Chemscore.Lipo.Weighted>
-12.5573

> <Gold.Chemscore.Internal_Hbond.Weighted>
0.0000

> <Gold.Chemscore.DEClash.Weighted>
0.0764

> <Gold.Chemscore.DEInternal.Weighted>
1.6289

> <Gold.Chemscore.Rot.Weighted>
4.1161

> <Gold.Chemscore.Internal.Correction.Weighted>
   9.000000E+99

> <Gold.Protein.RotatedTorsions>
[ 6907 6896 6895 6894 ] final  -41.16 input  -60.11 | X-H torsion
[ 7974 7965 7964 7962 ] final   82.47 input  175.53 | X-H torsion
[ 8008 7997 7996 7995 ] final  151.22 input   59.86 | X-H torsion
[ 10167 10162 10161 10158 ] final  150.98 input  -65.29 | X-H torsion
[ 10718 10713 10712 10709 ] final  174.00 input   66.30 | X-H torsion
[ 10763 10752 10751 10750 ] final   53.34 input  -60.55 | X-H torsion
[ 11005 11000 10999 10996 ] final  -19.33 input  -57.11 | X-H torsion

> <Gold.Protein.ActiveResidues>
 VAL166  LYS551  ARG553  GLY616  TRP617  ASP618  TYR619  PRO620  LYS621  CYS622 
 ASP623  PHE694  ASN695  SER759  ASP760  ASP761  ALA762  ILE779  LEU786  VAL792 
 PHE793  MET794  SER795  GLU796  ALA797  LYS798  CYS799  TRP800  GLU811  SER814 

> <Gold.Protein.RotatedAtoms>
  150.9700  134.9074  159.7781 H   0  0  0  0  0  0  0  0  0  0  0  0  # atno 6907 bound_to 6896
  152.5187  134.3554  159.9276 H   0  0  0  0  0  0  0  0  0  0  0  0  # atno 6908 bound_to 6896
  151.3564  133.3865  159.2720 H   0  0  0  0  0  0  0  0  0  0  0  0  # atno 6909 bound_to 6896
  145.6246  139.2392  143.2119 H   0  0  0  0  0  0  0  0  0  0  0  0  # atno 7974 bound_to 7965
  156.2683  140.2053  156.6142 H   0  0  0  0  0  0  0  0  0  0  0  0  # atno 8008 bound_to 7997
  154.6808  140.0540  157.0287 H   0  0  0  0  0  0  0  0  0  0  0  0  # atno 8009 bound_to 7997
  155.1004  140.3205  155.4551 H   0  0  0  0  0  0  0  0  0  0  0  0  # atno 8010 bound_to 7997
  139.4845  144.5478  151.7453 H   0  0  0  0  0  0  0  0  0  0  0  0  # atno 10167 bound_to 10162
  156.9560  131.0046  151.2938 H   0  0  0  0  0  0  0  0  0  0  0  0  # atno 10718 bound_to 10713
  152.9794  135.5782  154.4725 H   0  0  0  0  0  0  0  0  0  0  0  0  # atno 10763 bound_to 10752
  154.4285  135.2773  155.1930 H   0  0  0  0  0  0  0  0  0  0  0  0  # atno 10764 bound_to 10752
  154.3648  135.6180  153.5763 H   0  0  0  0  0  0  0  0  0  0  0  0  # atno 10765 bound_to 10752
  140.8356  133.7964  155.9805 H   0  0  0  0  0  0  0  0  0  0  0  0  # atno 11005 bound_to 11000
  146.1405  140.7065  142.9369 LP  0  0  0  0  0  0  0  0  0  0  0  0  # atno 17320 bound_to 7965
  144.7217  140.4396  143.7003 LP  0  0  0  0  0  0  0  0  0  0  0  0  # atno 17321 bound_to 7965
  140.5028  144.1144  150.5975 LP  0  0  0  0  0  0  0  0  0  0  0  0  # atno 17342 bound_to 10162
  140.4043  143.2688  151.9910 LP  0  0  0  0  0  0  0  0  0  0  0  0  # atno 17343 bound_to 10162
  157.5690  130.8297  149.8365 LP  0  0  0  0  0  0  0  0  0  0  0  0  # atno 17370 bound_to 10713
  156.0342  130.3756  150.1605 LP  0  0  0  0  0  0  0  0  0  0  0  0  # atno 17371 bound_to 10713
  140.8951  134.2448  157.5073 LP  0  0  0  0  0  0  0  0  0  0  0  0  # atno 17394 bound_to 11000
  139.8704  134.9680  156.4616 LP  0  0  0  0  0  0  0  0  0  0  0  0  # atno 17395 bound_to 11000

$$$$
