AV-unprocessed.smi:1459|AV-procd|sdf|5926|dock6
  -GOLD-   22720 6 13D 1   1.00000     0.00000
 Structure written by MMmdl.
 34 35  0  0  0  0  0  0  0  0  1 V2000
  153.5300  141.7634  160.5725 C   0  0  0  0  0  0  0  0  0  0  0  0
  152.6613  142.3732  159.5263 C   0  0  0  0  0  0  0  0  0  0  0  0
  151.6249  141.8889  158.7788 C   0  0  0  0  0  0  0  0  0  0  0  0
  151.2556  143.0055  157.9824 C   0  0  0  0  0  0  0  0  0  0  0  0
  150.1880  142.9151  157.0533 N   0  0  0  0  0  0  0  0  0  0  0  0
  149.4844  141.8206  156.7173 C   0  0  0  0  0  0  0  0  0  0  0  0
  149.6472  140.6990  157.1987 O   0  0  0  0  0  0  0  0  0  0  0  0
  148.5646  142.1035  155.7829 N   0  0  0  0  0  0  0  0  0  0  0  0
  147.6137  141.1537  155.2091 C   0  0  2  0  0  0  0  0  0  0  0  0
  148.3143  140.3789  154.0823 C   0  0  0  0  0  0  0  0  0  0  0  0
  146.3629  141.9062  154.7115 C   0  0  1  0  0  0  0  0  0  0  0  0
  145.5982  142.6661  155.7959 C   0  0  0  0  0  0  0  0  0  0  0  0
  144.8657  143.7510  155.0224 C   0  0  0  0  0  0  0  0  0  0  0  0
  145.5859  143.7968  153.6719 C   0  0  0  0  0  0  0  0  0  0  0  0
  146.7205  142.9562  153.8255 O   0  0  0  0  0  0  0  0  0  0  0  0
  152.0001  144.0744  158.2213 N   0  0  0  0  0  0  0  0  0  0  0  0
  152.9049  143.6745  159.2118 O   0  0  0  0  0  0  0  0  0  0  0  0
  153.2429  140.7293  160.7634 H   0  0  0  0  0  0  0  0  0  0  0  0
  153.4513  142.3147  161.5096 H   0  0  0  0  0  0  0  0  0  0  0  0
  154.5744  141.7723  160.2605 H   0  0  0  0  0  0  0  0  0  0  0  0
  151.2012  140.8959  158.8013 H   0  0  0  0  0  0  0  0  0  0  0  0
  149.9367  143.7754  156.5898 H   0  0  0  0  0  0  0  0  0  0  0  0
  148.5048  143.0550  155.4516 H   0  0  0  0  0  0  0  0  0  0  0  0
  147.3102  140.4294  155.9672 H   0  0  0  0  0  0  0  0  0  0  0  0
  147.6622  139.6139  153.6610 H   0  0  0  0  0  0  0  0  0  0  0  0
  149.2082  139.8745  154.4512 H   0  0  0  0  0  0  0  0  0  0  0  0
  148.6164  141.0425  153.2713 H   0  0  0  0  0  0  0  0  0  0  0  0
  145.6883  141.2225  154.1921 H   0  0  0  0  0  0  0  0  0  0  0  0
  144.9240  142.0259  156.3656 H   0  0  0  0  0  0  0  0  0  0  0  0
  146.2966  143.1273  156.4957 H   0  0  0  0  0  0  0  0  0  0  0  0
  143.8134  143.4996  154.8855 H   0  0  0  0  0  0  0  0  0  0  0  0
  144.9181  144.7073  155.5439 H   0  0  0  0  0  0  0  0  0  0  0  0
  144.9475  143.3971  152.8828 H   0  0  0  0  0  0  0  0  0  0  0  0
  145.8841  144.8069  153.3904 H   0  0  0  0  0  0  0  0  0  0  0  0
  1  2  1  0  0  0  0
  1 18  1  0  0  0  0
  1 19  1  0  0  0  0
  1 20  1  0  0  0  0
  2 17  1  0  0  0  0
  2  3  2  0  0  0  0
  3  4  1  0  0  0  0
  3 21  1  0  0  0  0
  4  5  1  0  0  0  0
  4 16  2  0  0  0  0
  5  6  1  0  0  0  0
  5 22  1  0  0  0  0
  6  7  2  0  0  0  0
  6  8  1  0  0  0  0
  8  9  1  0  0  0  0
  8 23  1  0  0  0  0
  9 10  1  0  0  0  0
  9 11  1  0  0  0  0
  9 24  1  0  0  0  0
 10 25  1  0  0  0  0
 10 26  1  0  0  0  0
 10 27  1  0  0  0  0
 11 15  1  0  0  0  0
 11 12  1  0  0  0  0
 11 28  1  0  0  0  0
 12 13  1  0  0  0  0
 12 29  1  0  0  0  0
 12 30  1  0  0  0  0
 13 14  1  0  0  0  0
 13 31  1  0  0  0  0
 13 32  1  0  0  0  0
 14 15  1  0  0  0  0
 14 33  1  0  0  0  0
 14 34  1  0  0  0  0
 16 17  1  0  0  0  0
M  END
> <s_m_source_file>
AV-unprocessed.smi

> <i_m_source_file_index>
1459

> <i_lp_mmshare_version>
43012

> <i_f3d_flags>
0

> <s_epik_input>
W0NIM11jMVtjSF1jKG5vMSlbTkhdQyg9TylbTkhdW0NASF0oW0NIM10pW0NAQEhdMltDSDJdW0NIMl1bQ0gyXU8y

> <s_epik_cmdline>
J2VwaWtfcHl0aG9uJywgJy1waCcsICc3LjAnLCAnLXRuJywgJzgnLCAnLW1hJywgJzIwMCcsICctbWV0YWxfYmluZGluZycsICctaW1hZScsICc8aW5maWxlLm1hZT4nLCAnLW9tYWUnLCAnPG91dGZpbGUubWFlPic=

> <r_lp_tautomer_probability>
1

> <r_epik_Ionization_Penalty>
2.20869e-05

> <r_epik_Ionization_Penalty_Charging>
0

> <r_epik_Ionization_Penalty_Neutral>
2.20869e-05

> <r_epik_State_Penalty>
-0

> <r_epik_Charging_Adjusted_Penalty>
0

> <i_epik_Tot_Q>
0

> <i_epik_Tot_abs_Q>
0

> <r_epik_Metal_State_Penalty>
-0

> <b_epik_Metal_Only>
0

> <s_lp_Force_Field>
OPLS_2005

> <r_lp_Energy>
16.1691

> <b_lp_Chiralities_Consistent>
1

> <s_lp_Variant>
AV-unprocessed.smi:1459-3

> <Gold.Version>
5.8.1

> <Gold.Id.Protein>
6NUR|6NUR_protein|mol2

> <Gold.PLP.Fitness>
36.1003

> <Gold.PLP.PLP>
-30.8275

> <Gold.PLP.part.hbond>
-2.4970

> <Gold.PLP.part.metal>
0.0000

> <Gold.PLP.part.buried>
-5.3978

> <Gold.PLP.part.nonpolar>
-23.7559

> <Gold.PLP.part.repulsive>
0.3938

> <Gold.PLP.ligand.clash>
0.0000

> <Gold.PLP.ligand.torsion>
0.3746

> <Gold.PLP.Chemscore.Hbond>
2.0000

> <Gold.PLP.Chemscore.CHOScore>
0.0000

> <Gold.PLP.Chemscore.Metal>
0.0000

> <Gold.Chemscore.Hbonds>
donor molecule, donor type, donor heavy atom, donor atom, acceptor molecule, acceptor atom, score
      L1  H     5    22       P1  8028  1.00
      L1  H     8    23       P1  8028  1.00

> <Gold.PLP.Chemscore.Internal.Correction>
0.0220

> <Gold.Rescore>
     Score         DG    S(hbond)    S(metal)    S(lipo)     H(rot)  DE(clash)    DE(int)     intcor
     13.84     -15.63       1.95        0.00      59.07       1.28       0.02       1.77       ----

> <Gold.Chemscore.Fitness>
13.8450

> <Gold.Chemscore.DG>
-15.6334

> <Gold.Chemscore.ZeroCoef>
-5.4800

> <Gold.Chemscore.Hbond>
1.9501

> <Gold.Chemscore.Metal>
0.0000

> <Gold.Chemscore.Lipo>
59.0660

> <Gold.Chemscore.Internal_Hbond>
0.0000

> <Gold.Chemscore.DEClash>
0.0174

> <Gold.Chemscore.DEInternal>
1.7710

> <Gold.Chemscore.Rot>
1.2776

> <Gold.Chemscore.Internal.Correction>
   9.000000E+99

> <Gold.Chemscore.Hbonds>
donor molecule, donor type, donor heavy atom, donor atom, acceptor molecule, acceptor atom, score
      L1  H     5    22       P1  8028  0.97
      L1  H     8    23       P1  8028  0.95

> <Gold.Chemscore.Hbond.Weighted>
-6.5134

> <Gold.Chemscore.Metal.Weighted>
-0.0000

> <Gold.Chemscore.Lipo.Weighted>
-6.9107

> <Gold.Chemscore.Internal_Hbond.Weighted>
0.0000

> <Gold.Chemscore.DEClash.Weighted>
0.0174

> <Gold.Chemscore.DEInternal.Weighted>
1.7710

> <Gold.Chemscore.Rot.Weighted>
3.2707

> <Gold.Chemscore.Internal.Correction.Weighted>
   9.000000E+99

> <Gold.Protein.RotatedTorsions>
[ 6907 6896 6895 6894 ] final -158.34 input  -60.11 | X-H torsion
[ 7974 7965 7964 7962 ] final -118.78 input  175.53 | X-H torsion
[ 8008 7997 7996 7995 ] final  -39.43 input   59.86 | X-H torsion
[ 10167 10162 10161 10158 ] final   37.65 input  -65.29 | X-H torsion
[ 10718 10713 10712 10709 ] final  108.81 input   66.30 | X-H torsion
[ 10763 10752 10751 10750 ] final -155.24 input  -60.55 | X-H torsion
[ 11005 11000 10999 10996 ] final  -80.65 input  -57.11 | X-H torsion

> <Gold.Protein.ActiveResidues>
 VAL166  LYS551  ARG553  GLY616  TRP617  ASP618  TYR619  PRO620  LYS621  CYS622 
 ASP623  PHE694  ASN695  SER759  ASP760  ASP761  ALA762  ILE779  LEU786  VAL792 
 PHE793  MET794  SER795  GLU796  ALA797  LYS798  CYS799  TRP800  GLU811  SER814 

> <Gold.Protein.RotatedAtoms>
  151.3167  133.4057  159.2650 H   0  0  0  0  0  0  0  0  0  0  0  0  # atno 6907 bound_to 6896
  151.0069  134.9367  159.7995 H   0  0  0  0  0  0  0  0  0  0  0  0  # atno 6908 bound_to 6896
  152.5290  134.3132  159.9173 H   0  0  0  0  0  0  0  0  0  0  0  0  # atno 6909 bound_to 6896
  145.0700  140.8352  143.4101 H   0  0  0  0  0  0  0  0  0  0  0  0  # atno 7974 bound_to 7965
  154.4023  140.1552  156.2862 H   0  0  0  0  0  0  0  0  0  0  0  0  # atno 8008 bound_to 7997
  155.8826  140.3443  155.5876 H   0  0  0  0  0  0  0  0  0  0  0  0  # atno 8009 bound_to 7997
  155.7650  140.0822  157.2127 H   0  0  0  0  0  0  0  0  0  0  0  0  # atno 8010 bound_to 7997
  140.4012  144.1721  150.6134 H   0  0  0  0  0  0  0  0  0  0  0  0  # atno 10167 bound_to 10162
  157.6570  131.0901  150.6361 H   0  0  0  0  0  0  0  0  0  0  0  0  # atno 10718 bound_to 10713
  154.7801  135.3172  154.8008 H   0  0  0  0  0  0  0  0  0  0  0  0  # atno 10763 bound_to 10752
  153.8722  135.6843  153.4778 H   0  0  0  0  0  0  0  0  0  0  0  0  # atno 10764 bound_to 10752
  153.1435  135.4729  154.9469 H   0  0  0  0  0  0  0  0  0  0  0  0  # atno 10765 bound_to 10752
  141.1667  133.7160  156.8304 H   0  0  0  0  0  0  0  0  0  0  0  0  # atno 11005 bound_to 11000
  145.1305  139.2635  143.5542 LP  0  0  0  0  0  0  0  0  0  0  0  0  # atno 17320 bound_to 7965
  146.3528  140.0954  142.8610 LP  0  0  0  0  0  0  0  0  0  0  0  0  # atno 17321 bound_to 7965
  140.4738  143.2403  151.9052 LP  0  0  0  0  0  0  0  0  0  0  0  0  # atno 17342 bound_to 10162
  139.4785  144.5342  151.8622 LP  0  0  0  0  0  0  0  0  0  0  0  0  # atno 17343 bound_to 10162
  156.6666  130.4527  149.5670 LP  0  0  0  0  0  0  0  0  0  0  0  0  # atno 17370 bound_to 10713
  156.2028  130.6630  151.1185 LP  0  0  0  0  0  0  0  0  0  0  0  0  # atno 17371 bound_to 10713
  140.2055  134.8866  157.3217 LP  0  0  0  0  0  0  0  0  0  0  0  0  # atno 17394 bound_to 11000
  140.2142  134.4102  155.7597 LP  0  0  0  0  0  0  0  0  0  0  0  0  # atno 17395 bound_to 11000

$$$$
