#       Name:                AV-unprocessed.smi:102
#       Creating user name   scv26
#       Creation time:       Thu Mar 26 17:51:37 2020


#       File generated by GOLD software.
#

@<TRIPOS>MOLECULE
AV-unprocessed.smi:102
    56    57     1
SMALL
NO_CHARGES


@<TRIPOS>ATOM
      1 ****        -4.6914   3.2887  -1.3775 C.3            1 S1                 0.0000
      2 ****        -4.1131   1.8828  -1.2779 C.2            1 S1                 0.0000
      3 ****        -4.8351   0.8874  -1.3376 O.2            1 S1                 0.0000
      4 ****        -2.7800   1.8825  -1.1241 O.3            1 S1                 0.0000
      5 ****        -2.0886   0.6495  -1.0136 C.3            1 S1                 0.0000
      6 ****        -0.5749   0.9198  -0.9062 C.3            1 S1                 0.0000
      7 ****        -0.2921   1.4458   0.3840 O.3            1 S1                 0.0000
      8 ****        -0.1053   0.3975   1.2880 C.3            1 S1                 0.0000
      9 ****         0.9789   0.7927   2.2675 N.am           1 S1                 0.0000
     10 ****         2.0277   1.6001   1.8624 C.2            1 S1                 0.0000
     11 ****         3.0169   1.9393   2.7139 C.2            1 S1                 0.0000
     12 ****         4.0240   2.7227   2.2913 F              1 S1                 0.0000
     13 ****         2.9881   1.4448   4.0893 C.2            1 S1                 0.0000
     14 ****         3.8881   1.7649   4.8643 O.2            1 S1                 0.0000
     15 ****         1.9512   0.6361   4.4551 N.pl3          1 S1                -1.0000
     16 ****         0.9529   0.2816   3.5936 C.2            1 S1                 0.0000
     17 ****         0.0317  -0.4733   3.9052 O.2            1 S1                 0.0000
     18 ****         0.2469  -0.8689   0.4767 C.3            1 S1                 0.0000
     19 ****         1.5029  -1.4251   0.8543 O.3            1 S1                 0.0000
     20 ****         1.7517  -2.7308   0.6709 C.2            1 S1                 0.0000
     21 ****         3.1353  -3.1287   1.1660 C.3            1 S1                 0.0000
     22 ****         0.9881  -3.5519   0.1623 O.2            1 S1                 0.0000
     23 ****         0.3006  -0.3394  -0.9494 C.3            1 S1                 0.0000
     24 ****        -0.1714  -1.3223  -1.8626 O.3            1 S1                 0.0000
     25 ****         0.2124  -1.2900  -3.1492 C.2            1 S1                 0.0000
     26 ****        -0.3890  -2.4290  -3.9611 C.3            1 S1                 0.0000
     27 ****         0.9569  -0.4553  -3.6634 O.2            1 S1                 0.0000
     28 ****        -3.9082   4.0182  -1.5861 H              1 S1                 0.0000
     29 ****        -5.1788   3.5620  -0.4417 H              1 S1                 0.0000
     30 ****        -5.4290   3.3374  -2.1786 H              1 S1                 0.0000
     31 ****        -2.4510   0.0835  -0.1545 H              1 S1                 0.0000
     32 ****        -2.2996   0.0578  -1.9054 H              1 S1                 0.0000
     33 ****        -0.2693   1.6226  -1.6821 H              1 S1                 0.0000
     34 ****        -1.0247   0.2865   1.8646 H              1 S1                 0.0000
     35 ****         2.0666   1.9614   0.8456 H              1 S1                 0.0000
     36 ****        -0.5729  -1.5774   0.6078 H              1 S1                 0.0000
     37 ****         3.2846  -2.7842   2.1896 H              1 S1                 0.0000
     38 ****         3.9044  -2.6839   0.5347 H              1 S1                 0.0000
     39 ****         3.2531  -4.2122   1.1457 H              1 S1                 0.0000
     40 ****         1.3289  -0.0501  -1.1744 H              1 S1                 0.0000
     41 ****        -0.1230  -3.3896  -3.5198 H              1 S1                 0.0000
     42 ****        -0.0199  -2.4057  -4.9866 H              1 S1                 0.0000
     43 ****        -1.4756  -2.3458  -3.9824 H              1 S1                 0.0000
     44 ****        -5.8227   0.9923  -1.4537 LP             1 S1                 0.0000
     45 ****        -4.4339  -0.0261  -1.2699 LP             1 S1                 0.0000
     46 ****        -1.0575   2.0136   0.6868 LP             1 S1                 0.0000
     47 ****         0.5387   2.0008   0.3421 LP             1 S1                 0.0000
     48 ****         4.6300   2.3579   4.5514 LP             1 S1                 0.0000
     49 ****         3.8779   1.4321   5.8073 LP             1 S1                 0.0000
     50 ****         1.9214   0.2890   5.3925 LP             1 S1                 0.0000
     51 ****        -0.6698  -0.7101   3.2331 LP             1 S1                 0.0000
     52 ****        -0.0150  -0.8498   4.8305 LP             1 S1                 0.0000
     53 ****         0.0862  -3.2637  -0.1592 LP             1 S1                 0.0000
     54 ****         1.2699  -4.5071   0.0708 LP             1 S1                 0.0000
     55 ****         1.3350   0.2862  -3.1092 LP             1 S1                 0.0000
     56 ****         1.1836  -0.5189  -4.6353 LP             1 S1                 0.0000
@<TRIPOS>BOND
    1    1    2 1     
    2    1   28 1     
    3    1   29 1     
    4    1   30 1     
    5    2    3 2     
    6    2    4 1     
    7    4    5 1     
    8    5    6 1     
    9    5   31 1     
   10    5   32 1     
   11    6   23 1     
   12    6    7 1     
   13    6   33 1     
   14    7    8 1     
   15    8    9 1     
   16    8   18 1     
   17    8   34 1     
   18    9   16 am    
   19    9   10 1     
   20   10   11 2     
   21   10   35 1     
   22   11   12 1     
   23   11   13 1     
   24   13   14 2     
   25   13   15 1     
   26   15   16 1     
   27   16   17 2     
   28   18   19 1     
   29   18   23 1     
   30   18   36 1     
   31   19   20 1     
   32   20   21 1     
   33   20   22 2     
   34   21   37 1     
   35   21   38 1     
   36   21   39 1     
   37   23   24 1     
   38   23   40 1     
   39   24   25 1     
   40   25   26 1     
   41   25   27 2     
   42   26   41 1     
   43   26   42 1     
   44   26   43 1     
   45    3   44 1     
   46    3   45 1     
   47    7   46 1     
   48    7   47 1     
   49   14   48 1     
   50   14   49 1     
   51   15   50 1     
   52   17   51 1     
   53   17   52 1     
   54   22   53 1     
   55   22   54 1     
   56   27   55 1     
   57   27   56 1     
@<TRIPOS>SUBSTRUCTURE
      1 S1             1
@<TRIPOS>SET
LONE_PAIRS      STATIC     ATOMS    <user>   **** ""
13 44 45 46 47 48 49 50 51 52 53 54 55 56
ATOM$BLUE        STATIC     ATOMS    COLORGROUP SYSTEM
13 44 45 46 47 48 49 50 51 52 53 54 55 56
