#       Name:                AV-unprocessed.smi:1982
#       Creating user name   scv26
#       Creation time:       Fri Mar 27 10:21:53 2020


#       File generated by GOLD software.
#

@<TRIPOS>MOLECULE
AV-unprocessed.smi:1982
    41    42     1
SMALL
NO_CHARGES


@<TRIPOS>ATOM
      1 ****        -3.2874   0.3077  -1.0187 C.3            1 S1                 0.0000
      2 ****        -2.5643  -1.0429  -0.8374 C.3            1 S1                 0.0000
      3 ****        -3.0492  -1.7808   0.4272 C.3            1 S1                 0.0000
      4 ****        -2.5226  -1.1312   1.7164 C.3            1 S1                 0.0000
      5 ****        -0.9909  -1.0361   1.7018 C.3            1 S1                 0.0000
      6 ****        -0.4715  -0.2956   0.4544 C.3            1 S1                 0.0000
      7 ****         0.9912  -0.3144   0.4782 N.am           1 S1                 0.0000
      8 ****         1.7956   0.7586   0.4181 C.2            1 S1                 0.0000
      9 ****         1.3781   1.9135   0.3196 O.2            1 S1                 0.0000
     10 ****         3.2987   0.4606   0.4738 C.3            1 S1                 0.0000
     11 ****         4.1156   1.6587   0.3852 N.pl3          1 S1                 0.0000
     12 ****         4.5116   2.3747  -0.6693 C.2            1 S1                 0.0000
     13 ****         5.2525   3.4107  -0.3065 N.2            1 S1                 0.0000
     14 ****         5.2972   3.2976   1.0730 N.2            1 S1                 0.0000
     15 ****         4.6249   2.2597   1.4893 N.2            1 S1                 0.0000
     16 ****        -1.0148  -0.9421  -0.8477 C.3            1 S1                 0.0000
     17 ****        -0.4811  -0.2681  -2.1274 C.3            1 S1                 0.0000
     18 ****        -3.0274   1.0233  -0.2395 H              1 S1                 0.0000
     19 ****        -4.3692   0.1745  -0.9925 H              1 S1                 0.0000
     20 ****        -3.0495   0.7642  -1.9792 H              1 S1                 0.0000
     21 ****        -2.8550  -1.6587  -1.6896 H              1 S1                 0.0000
     22 ****        -4.1387  -1.8207   0.4482 H              1 S1                 0.0000
     23 ****        -2.7119  -2.8175   0.3889 H              1 S1                 0.0000
     24 ****        -2.9522  -0.1365   1.8380 H              1 S1                 0.0000
     25 ****        -2.8473  -1.7107   2.5810 H              1 S1                 0.0000
     26 ****        -0.6480  -0.5301   2.6051 H              1 S1                 0.0000
     27 ****        -0.5709  -2.0425   1.7349 H              1 S1                 0.0000
     28 ****        -0.8291   0.7338   0.5055 H              1 S1                 0.0000
     29 ****         1.4268  -1.2220   0.5555 H              1 S1                 0.0000
     30 ****         3.5332  -0.0641   1.4015 H              1 S1                 0.0000
     31 ****         3.5678  -0.2016  -0.3500 H              1 S1                 0.0000
     32 ****         4.2569   2.1397  -1.6922 H              1 S1                 0.0000
     33 ****        -0.6431  -1.9681  -0.8712 H              1 S1                 0.0000
     34 ****        -0.6870   0.8024  -2.1327 H              1 S1                 0.0000
     35 ****        -0.9347  -0.7023  -3.0187 H              1 S1                 0.0000
     36 ****         0.5974  -0.3928  -2.2243 H              1 S1                 0.0000
     37 ****         0.3941   2.0878   0.2805 LP             1 S1                 0.0000
     38 ****         2.0231   2.6765   0.2788 LP             1 S1                 0.0000
     39 ****         5.6765   4.1055  -0.8873 LP             1 S1                 0.0000
     40 ****         5.7834   3.9315   1.6744 LP             1 S1                 0.0000
     41 ****         4.5079   1.9648   2.4377 LP             1 S1                 0.0000
@<TRIPOS>BOND
    1    1    2 1     
    2    1   18 1     
    3    1   19 1     
    4    1   20 1     
    5    2   16 1     
    6    2    3 1     
    7    2   21 1     
    8    3    4 1     
    9    3   22 1     
   10    3   23 1     
   11    4    5 1     
   12    4   24 1     
   13    4   25 1     
   14    5    6 1     
   15    5   26 1     
   16    5   27 1     
   17    6    7 1     
   18    6   16 1     
   19    6   28 1     
   20    7    8 am    
   21    7   29 1     
   22    8    9 2     
   23    8   10 1     
   24   10   11 1     
   25   10   30 1     
   26   10   31 1     
   27   11   15 1     
   28   11   12 1     
   29   12   13 2     
   30   12   32 1     
   31   13   14 1     
   32   14   15 2     
   33   16   17 1     
   34   16   33 1     
   35   17   34 1     
   36   17   35 1     
   37   17   36 1     
   38    9   37 1     
   39    9   38 1     
   40   13   39 1     
   41   14   40 1     
   42   15   41 1     
@<TRIPOS>SUBSTRUCTURE
      1 S1             1
@<TRIPOS>SET
LONE_PAIRS      STATIC     ATOMS    <user>   **** ""
5 37 38 39 40 41
DONOR_HYDROGENS      STATIC     ATOMS    <user>   **** ""
1 29
ATOM$BLUE        STATIC     ATOMS    COLORGROUP SYSTEM
5 37 38 39 40 41
ATOM$RED        STATIC     ATOMS    COLORGROUP SYSTEM
1 29
