AV-unprocessed.smi:1056|AV-procd|sdf|4632|dock4
  -GOLD-   22720 3133D 1   1.00000     0.00000
 Structure written by MMmdl.
 45 47  0  0  0  0  0  0  0  0  2 V2000
  153.2394  142.6426  161.5212 C   0  0  0  0  0  0  0  0  0  0  0  0
  152.6914  142.3421  160.1371 C   0  0  0  0  0  0  0  0  0  0  0  0
  153.0247  141.1168  159.5175 C   0  0  0  0  0  0  0  0  0  0  0  0
  152.5328  140.7969  158.2333 C   0  0  0  0  0  0  0  0  0  0  0  0
  152.7266  139.6711  157.4512 N   0  0  0  0  0  0  0  0  0  0  0  0
  152.0109  139.9686  156.3712 C   0  0  0  0  0  0  0  0  0  0  0  0
  151.3780  141.1575  156.3585 N   0  0  0  0  0  0  0  0  0  0  0  0
  150.5493  141.6947  155.2940 C   0  0  0  0  0  0  0  0  0  0  0  0
  149.3510  140.7846  154.9619 C   0  0  2  0  0  0  0  0  0  0  0  0
  149.7421  139.8150  154.0078 O   0  0  0  0  0  0  0  0  0  0  0  0
  148.1647  141.5860  154.3925 C   0  0  0  0  0  0  0  0  0  0  0  0
  147.3722  142.2525  155.4565 N   0  3  1  0  0  0  0  0  0  0  0  0
  146.0141  142.6560  155.0199 C   0  0  0  0  0  0  0  0  0  0  0  0
  145.3449  143.5233  156.1003 C   0  0  0  0  0  0  0  0  0  0  0  0
  145.5409  143.0036  157.4516 N   0  0  0  0  0  0  0  0  0  0  0  0
  146.4385  142.0687  157.8040 C   0  0  0  0  0  0  0  0  0  0  0  0
  146.5528  141.6875  158.9658 O   0  0  0  0  0  0  0  0  0  0  0  0
  147.3376  141.4639  156.7147 C   0  0  0  0  0  0  0  0  0  0  0  0
  151.6928  141.7453  157.5793 C   0  0  0  0  0  0  0  0  0  0  0  0
  151.3559  142.9691  158.1845 C   0  0  0  0  0  0  0  0  0  0  0  0
  151.8534  143.2710  159.4696 C   0  0  0  0  0  0  0  0  0  0  0  0
  151.4783  144.5921  160.1178 C   0  0  0  0  0  0  0  0  0  0  0  0
  153.9139  141.8565  161.8619 H   0  0  0  0  0  0  0  0  0  0  0  0
  152.4260  142.7226  162.2427 H   0  0  0  0  0  0  0  0  0  0  0  0
  153.7951  143.5805  161.5192 H   0  0  0  0  0  0  0  0  0  0  0  0
  153.6625  140.4086  160.0259 H   0  0  0  0  0  0  0  0  0  0  0  0
  151.9448  139.2835  155.5385 H   0  0  0  0  0  0  0  0  0  0  0  0
  150.1996  142.6815  155.6006 H   0  0  0  0  0  0  0  0  0  0  0  0
  151.1705  141.8474  154.4104 H   0  0  0  0  0  0  0  0  0  0  0  0
  149.0530  140.2608  155.8699 H   0  0  0  0  0  0  0  0  0  0  0  0
  149.8113  140.2306  153.1615 H   0  0  0  0  0  0  0  0  0  0  0  0
  148.5123  142.3371  153.6815 H   0  0  0  0  0  0  0  0  0  0  0  0
  147.5266  140.9060  153.8252 H   0  0  0  0  0  0  0  0  0  0  0  0
  146.0477  143.2092  154.0820 H   0  0  0  0  0  0  0  0  0  0  0  0
  145.4178  141.7607  154.8362 H   0  0  0  0  0  0  0  0  0  0  0  0
  145.7627  144.5300  156.0712 H   0  0  0  0  0  0  0  0  0  0  0  0
  144.2774  143.6213  155.9011 H   0  0  0  0  0  0  0  0  0  0  0  0
  144.9528  143.3876  158.1780 H   0  0  0  0  0  0  0  0  0  0  0  0
  146.9783  140.4560  156.5019 H   0  0  0  0  0  0  0  0  0  0  0  0
  148.3506  141.3674  157.1080 H   0  0  0  0  0  0  0  0  0  0  0  0
  150.7181  143.6694  157.6661 H   0  0  0  0  0  0  0  0  0  0  0  0
  150.8051  145.1698  159.4838 H   0  0  0  0  0  0  0  0  0  0  0  0
  152.3683  145.1955  160.2984 H   0  0  0  0  0  0  0  0  0  0  0  0
  150.9758  144.4216  161.0702 H   0  0  0  0  0  0  0  0  0  0  0  0
  147.8656  143.1052  155.6809 H   0  0  0  0  0  0  0  0  0  0  0  0
  1  2  1  0  0  0  0
  1 23  1  0  0  0  0
  1 24  1  0  0  0  0
  1 25  1  0  0  0  0
  2 21  1  0  0  0  0
  2  3  2  0  0  0  0
  3  4  1  0  0  0  0
  3 26  1  0  0  0  0
  4 19  2  0  0  0  0
  4  5  1  0  0  0  0
  5  6  2  0  0  0  0
  6  7  1  0  0  0  0
  6 27  1  0  0  0  0
  7  8  1  0  0  0  0
  7 19  1  0  0  0  0
  8  9  1  0  0  0  0
  8 28  1  0  0  0  0
  8 29  1  0  0  0  0
  9 10  1  0  0  0  0
  9 11  1  0  0  0  0
  9 30  1  0  0  0  0
 10 31  1  0  0  0  0
 11 12  1  0  0  0  0
 11 32  1  0  0  0  0
 11 33  1  0  0  0  0
 12 18  1  0  0  0  0
 12 13  1  0  0  0  0
 12 45  1  0  0  0  0
 13 14  1  0  0  0  0
 13 34  1  0  0  0  0
 13 35  1  0  0  0  0
 14 15  1  0  0  0  0
 14 36  1  0  0  0  0
 14 37  1  0  0  0  0
 15 16  1  0  0  0  0
 15 38  1  0  0  0  0
 16 17  2  0  0  0  0
 16 18  1  0  0  0  0
 18 39  1  0  0  0  0
 18 40  1  0  0  0  0
 19 20  1  0  0  0  0
 20 21  2  0  0  0  0
 20 41  1  0  0  0  0
 21 22  1  0  0  0  0
 22 42  1  0  0  0  0
 22 43  1  0  0  0  0
 22 44  1  0  0  0  0
M  CHG  1  12   1
M  END
> <s_m_source_file>
AV-unprocessed.smi

> <i_m_source_file_index>
1056

> <i_lp_mmshare_version>
43012

> <i_f3d_flags>
0

> <s_epik_input>
W0NIM11jKFtjSF0xKWMoW0NIM10pW2NIXWMoYzEyKW4oW2NIXW4yKVtDSDJdW0NASF0oW09IXSlbQ0gyXU4zW0NIMl1bQ0gyXVtOSF1DKD1PKVtDSDJdMw==

> <s_epik_cmdline>
J2VwaWtfcHl0aG9uJywgJy1waCcsICc3LjAnLCAnLXRuJywgJzgnLCAnLW1hJywgJzIwMCcsICctbWV0YWxfYmluZGluZycsICctaW1hZScsICc8aW5maWxlLm1hZT4nLCAnLW9tYWUnLCAnPG91dGZpbGUubWFlPic=

> <r_epik_Ionization_Penalty>
0.153633

> <r_epik_Ionization_Penalty_Charging>
0.0674887

> <r_epik_Ionization_Penalty_Neutral>
0.0861443

> <r_epik_State_Penalty>
0.135155

> <r_epik_Charging_Adjusted_Penalty>
0.202644

> <i_epik_Tot_Q>
1

> <i_epik_Tot_abs_Q>
1

> <r_epik_Metal_State_Penalty>
0.190685

> <b_epik_Metal_Only>
0

> <s_lp_Force_Field>
OPLS_2005

> <r_lp_Energy>
24.2633

> <b_lp_Chiralities_Consistent>
1

> <s_lp_Variant>
AV-unprocessed.smi:1056-3

> <Gold.Version>
5.8.1

> <Gold.Id.Protein>
6NUR|6NUR_protein|mol2

> <Gold.PLP.Fitness>
56.3035

> <Gold.PLP.PLP>
-43.4240

> <Gold.PLP.part.hbond>
-4.4371

> <Gold.PLP.part.metal>
0.0000

> <Gold.PLP.part.buried>
-5.8701

> <Gold.PLP.part.nonpolar>
-33.1814

> <Gold.PLP.part.repulsive>
0.0781

> <Gold.PLP.ligand.clash>
0.0000

> <Gold.PLP.ligand.torsion>
0.7611

> <Gold.PLP.Chemscore.Hbond>
4.7761

> <Gold.PLP.Chemscore.CHOScore>
0.0000

> <Gold.PLP.Chemscore.Metal>
0.0000

> <Gold.Chemscore.Hbonds>
donor molecule, donor type, donor heavy atom, donor atom, acceptor molecule, acceptor atom, score
      L1  H    10    31       P1  7957  0.94
      L1  H    12    45       P1  8028  2.00
      P1  H  6934  6946       L1    17  0.72
      P1  H  7997  8008       L1     5  0.90

> <Gold.PLP.Chemscore.Internal.Correction>
0.0735

> <Gold.Rescore>
     Score         DG    S(hbond)    S(metal)    S(lipo)     H(rot)  DE(clash)    DE(int)     intcor
     18.05     -18.85       2.05        0.00     107.68       2.38       0.20       0.61       ----

> <Gold.Chemscore.Fitness>
18.0469

> <Gold.Chemscore.DG>
-18.8534

> <Gold.Chemscore.ZeroCoef>
-5.4800

> <Gold.Chemscore.Hbond>
2.0547

> <Gold.Chemscore.Metal>
0.0000

> <Gold.Chemscore.Lipo>
107.6830

> <Gold.Chemscore.Internal_Hbond>
0.0000

> <Gold.Chemscore.DEClash>
0.1960

> <Gold.Chemscore.DEInternal>
0.6105

> <Gold.Chemscore.Rot>
2.3783

> <Gold.Chemscore.Internal.Correction>
   9.000000E+99

> <Gold.Chemscore.Hbonds>
donor molecule, donor type, donor heavy atom, donor atom, acceptor molecule, acceptor atom, score
      L1  H    10    31       P1  7957  0.86
      L1  H    12    45       P1  8028  0.55
      P1  H  6934  6946       L1    17  0.71
      P1  H  7997  8008       L1     5  0.05

> <Gold.Chemscore.Hbond.Weighted>
-6.8628

> <Gold.Chemscore.Metal.Weighted>
-0.0000

> <Gold.Chemscore.Lipo.Weighted>
-12.5989

> <Gold.Chemscore.Internal_Hbond.Weighted>
0.0000

> <Gold.Chemscore.DEClash.Weighted>
0.1960

> <Gold.Chemscore.DEInternal.Weighted>
0.6105

> <Gold.Chemscore.Rot.Weighted>
6.0884

> <Gold.Chemscore.Internal.Correction.Weighted>
   9.000000E+99

> <Gold.Protein.RotatedTorsions>
[ 6907 6896 6895 6894 ] final  -95.86 input  -60.11 | X-H torsion
[ 7974 7965 7964 7962 ] final   32.09 input  175.53 | X-H torsion
[ 8008 7997 7996 7995 ] final  -73.76 input   59.86 | X-H torsion
[ 10167 10162 10161 10158 ] final  -26.32 input  -65.29 | X-H torsion
[ 10718 10713 10712 10709 ] final -161.39 input   66.30 | X-H torsion
[ 10763 10752 10751 10750 ] final -102.12 input  -60.55 | X-H torsion
[ 11005 11000 10999 10996 ] final  174.84 input  -57.11 | X-H torsion

> <Gold.Protein.ActiveResidues>
 VAL166  LYS551  ARG553  GLY616  TRP617  ASP618  TYR619  PRO620  LYS621  CYS622 
 ASP623  PHE694  ASN695  SER759  ASP760  ASP761  ALA762  ILE779  LEU786  VAL792 
 PHE793  MET794  SER795  GLU796  ALA797  LYS798  CYS799  TRP800  GLU811  SER814 

> <Gold.Protein.RotatedAtoms>
  150.6974  134.1592  159.4169 H   0  0  0  0  0  0  0  0  0  0  0  0  # atno 6907 bound_to 6896
  151.9573  135.0138  160.0555 H   0  0  0  0  0  0  0  0  0  0  0  0  # atno 6908 bound_to 6896
  152.1958  133.4770  159.5069 H   0  0  0  0  0  0  0  0  0  0  0  0  # atno 6909 bound_to 6896
  146.1508  139.6571  142.9100 H   0  0  0  0  0  0  0  0  0  0  0  0  # atno 7974 bound_to 7965
  154.5274  140.0773  156.8283 H   0  0  0  0  0  0  0  0  0  0  0  0  # atno 8008 bound_to 7997
  155.3446  140.3409  155.4221 H   0  0  0  0  0  0  0  0  0  0  0  0  # atno 8009 bound_to 7997
  156.1746  140.1631  156.8373 H   0  0  0  0  0  0  0  0  0  0  0  0  # atno 8010 bound_to 7997
  140.7283  143.4189  151.0984 H   0  0  0  0  0  0  0  0  0  0  0  0  # atno 10167 bound_to 10162
  156.5956  130.8789  151.2901 H   0  0  0  0  0  0  0  0  0  0  0  0  # atno 10718 bound_to 10713
  154.7709  135.4872  153.9648 H   0  0  0  0  0  0  0  0  0  0  0  0  # atno 10763 bound_to 10752
  153.1367  135.6764  153.9099 H   0  0  0  0  0  0  0  0  0  0  0  0  # atno 10764 bound_to 10752
  153.8786  135.3135  155.3423 H   0  0  0  0  0  0  0  0  0  0  0  0  # atno 10765 bound_to 10752
  140.3557  134.7156  157.4298 H   0  0  0  0  0  0  0  0  0  0  0  0  # atno 11005 bound_to 11000
  145.4827  141.0438  143.2637 LP  0  0  0  0  0  0  0  0  0  0  0  0  # atno 17320 bound_to 7965
  144.7902  139.6344  143.7116 LP  0  0  0  0  0  0  0  0  0  0  0  0  # atno 17321 bound_to 7965
  139.7832  143.8325  152.3141 LP  0  0  0  0  0  0  0  0  0  0  0  0  # atno 17342 bound_to 10162
  139.8284  144.7265  150.9482 LP  0  0  0  0  0  0  0  0  0  0  0  0  # atno 17343 bound_to 10162
  157.7292  130.9668  150.1779 LP  0  0  0  0  0  0  0  0  0  0  0  0  # atno 17370 bound_to 10713
  156.2512  130.3701  149.8230 LP  0  0  0  0  0  0  0  0  0  0  0  0  # atno 17371 bound_to 10713
  140.0667  134.5919  155.8687 LP  0  0  0  0  0  0  0  0  0  0  0  0  # atno 17394 bound_to 11000
  141.1999  133.6609  156.5868 LP  0  0  0  0  0  0  0  0  0  0  0  0  # atno 17395 bound_to 11000

$$$$
