#       Name:                AV-unprocessed.smi:1554
#       Creating user name   scv26
#       Creation time:       Fri Mar 27 06:44:13 2020


#       File generated by GOLD software.
#

@<TRIPOS>MOLECULE
AV-unprocessed.smi:1554
    53    55     1
SMALL
NO_CHARGES


@<TRIPOS>ATOM
      1 ****        -3.4998   4.5734  -3.2687 C.3            1 S1                 0.0000
      2 ****        -3.0923   3.5695  -2.2035 C.ar           1 S1                 0.0000
      3 ****        -3.1725   3.9557  -0.8466 C.ar           1 S1                 0.0000
      4 ****        -2.7888   3.0172   0.1040 C.ar           1 S1                 0.0000
      5 ****        -2.7506   3.0909   1.4978 N.pl3          1 S1                 1.0000
      6 ****        -2.2973   1.9107   2.0036 C.2            1 S1                 0.0000
      7 ****        -2.0422   1.0841   0.9528 N.pl3          1 S1                 0.0000
      8 ****        -1.5414  -0.2986   0.9472 C.3            1 S1                 0.0000
      9 ****        -0.0022  -0.3812   0.9833 C.3            1 S1                 0.0000
     10 ****         0.5353   0.2625  -0.1557 O.3            1 S1                 0.0000
     11 ****         0.4878  -1.8431   1.0000 C.3            1 S1                 0.0000
     12 ****         1.9642  -1.9565   1.1187 N.4            1 S1                 1.0000
     13 ****         2.4780  -1.6819   2.4835 C.3            1 S1                 0.0000
     14 ****         4.0122  -1.7809   2.5081 C.3            1 S1                 0.0000
     15 ****         4.4160  -3.0641   2.0471 O.3            1 S1                 0.0000
     16 ****         4.0105  -3.3073   0.7048 C.3            1 S1                 0.0000
     17 ****         4.5695  -4.6679   0.2740 C.3            1 S1                 0.0000
     18 ****         2.4721  -3.2603   0.6291 C.3            1 S1                 0.0000
     19 ****        -2.3387   1.7312  -0.2534 C.ar           1 S1                 0.0000
     20 ****        -2.2561   1.3342  -1.5862 C.ar           1 S1                 0.0000
     21 ****        -2.6397   2.2751  -2.5684 C.ar           1 S1                 0.0000
     22 ****        -2.5567   1.8699  -4.0303 C.3            1 S1                 0.0000
     23 ****        -3.8471   5.5070  -2.8252 H              1 S1                 0.0000
     24 ****        -4.3083   4.1755  -3.8823 H              1 S1                 0.0000
     25 ****        -2.6548   4.8070  -3.9170 H              1 S1                 0.0000
     26 ****        -3.5155   4.9397  -0.5615 H              1 S1                 0.0000
     27 ****        -2.1656   1.6740   3.0497 H              1 S1                 0.0000
     28 ****        -1.9575  -0.7906   1.8273 H              1 S1                 0.0000
     29 ****        -1.9493  -0.8260   0.0844 H              1 S1                 0.0000
     30 ****         0.3480   0.1485   1.8688 H              1 S1                 0.0000
     31 ****         0.2414   1.1611  -0.1592 H              1 S1                 0.0000
     32 ****         0.0186  -2.3955   1.8157 H              1 S1                 0.0000
     33 ****         0.1594  -2.3266   0.0782 H              1 S1                 0.0000
     34 ****         2.1791  -0.6883   2.8145 H              1 S1                 0.0000
     35 ****         2.0485  -2.3961   3.1879 H              1 S1                 0.0000
     36 ****         4.4640  -1.0003   1.8939 H              1 S1                 0.0000
     37 ****         4.3810  -1.6391   3.5239 H              1 S1                 0.0000
     38 ****         4.4341  -2.5379   0.0567 H              1 S1                 0.0000
     39 ****         4.2963  -4.8962  -0.7565 H              1 S1                 0.0000
     40 ****         4.1894  -5.4705   0.9067 H              1 S1                 0.0000
     41 ****         5.6578  -4.6803   0.3388 H              1 S1                 0.0000
     42 ****         2.0384  -4.0657   1.2243 H              1 S1                 0.0000
     43 ****         2.1520  -3.4150  -0.4022 H              1 S1                 0.0000
     44 ****        -1.9089   0.3510  -1.8672 H              1 S1                 0.0000
     45 ****        -2.1567   0.8619  -4.1434 H              1 S1                 0.0000
     46 ****        -1.9050   2.5487  -4.5809 H              1 S1                 0.0000
     47 ****        -3.5457   1.8895  -4.4886 H              1 S1                 0.0000
     48 ****         2.3538  -1.2538   0.5059 H              1 S1                 0.0000
     49 ****        -3.0161   3.8863   2.0647 H              1 S1                 0.0000
     50 ****         0.2192  -0.1990  -0.9846 LP             1 S1                 0.0000
     51 ****         1.5343   0.2345  -0.1190 LP             1 S1                 0.0000
     52 ****         4.0087  -3.7609   2.6375 LP             1 S1                 0.0000
     53 ****         5.4129  -3.1253   2.0982 LP             1 S1                 0.0000
@<TRIPOS>BOND
    1    1    2 1     
    2    1   23 1     
    3    1   24 1     
    4    1   25 1     
    5    2   21 ar    
    6    2    3 ar    
    7    3    4 ar    
    8    3   26 1     
    9    4   19 ar    
   10    4    5 1     
   11    5    6 2     
   12    5   49 1     
   13    6    7 1     
   14    6   27 1     
   15    7    8 1     
   16    7   19 1     
   17    8    9 1     
   18    8   28 1     
   19    8   29 1     
   20    9   10 1     
   21    9   11 1     
   22    9   30 1     
   23   10   31 1     
   24   11   12 1     
   25   11   32 1     
   26   11   33 1     
   27   12   18 1     
   28   12   13 1     
   29   12   48 1     
   30   13   14 1     
   31   13   34 1     
   32   13   35 1     
   33   14   15 1     
   34   14   36 1     
   35   14   37 1     
   36   15   16 1     
   37   16   17 1     
   38   16   18 1     
   39   16   38 1     
   40   17   39 1     
   41   17   40 1     
   42   17   41 1     
   43   18   42 1     
   44   18   43 1     
   45   19   20 ar    
   46   20   21 ar    
   47   20   44 1     
   48   21   22 1     
   49   22   45 1     
   50   22   46 1     
   51   22   47 1     
   52   10   50 1     
   53   10   51 1     
   54   15   52 1     
   55   15   53 1     
@<TRIPOS>SUBSTRUCTURE
      1 S1             1
@<TRIPOS>SET
LONE_PAIRS      STATIC     ATOMS    <user>   **** ""
4 50 51 52 53
DONOR_HYDROGENS      STATIC     ATOMS    <user>   **** ""
3 49 31 48
ATOM$BLUE        STATIC     ATOMS    COLORGROUP SYSTEM
4 50 51 52 53
ATOM$RED        STATIC     ATOMS    COLORGROUP SYSTEM
3 49 31 48
