AV-unprocessed.smi:876|AV-procd|sdf|4020|dock4
  -GOLD-   22720 1503D 1   1.00000     0.00000
 Structure written by MMmdl.
 41 42  0  0  0  0  0  0  0  0  2 V2000
  150.3329  144.9526  159.2821 C   0  0  0  0  0  0  0  0  0  0  0  0
  151.2373  143.8376  159.0330 N   0  0  0  0  0  0  0  0  0  0  0  0
  151.2514  143.1774  157.7323 C   0  0  0  0  0  0  0  0  0  0  0  0
  152.0588  143.3542  160.0745 C   0  0  0  0  0  0  0  0  0  0  0  0
  151.9596  143.8067  161.4130 C   0  0  0  0  0  0  0  0  0  0  0  0
  152.8121  143.2749  162.4022 C   0  0  0  0  0  0  0  0  0  0  0  0
  153.7589  142.2819  162.0496 C   0  0  0  0  0  0  0  0  0  0  0  0
  154.6718  141.6878  162.9632 N   0  0  0  0  0  0  0  0  0  0  0  0
  154.9683  142.0684  164.2182 C   0  0  0  0  0  0  0  0  0  0  0  0
  154.4689  143.0261  164.8081 O   0  0  0  0  0  0  0  0  0  0  0  0
  155.8801  141.2561  164.7710 N   0  0  0  0  0  0  0  0  0  0  0  0
  156.4076  141.3990  166.1237 C   0  0  1  0  0  0  0  0  0  0  0  0
  156.6751  142.8446  166.4407 C   0  0  0  0  0  0  0  0  0  0  0  0
  156.0088  143.2679  167.5123 C   0  0  0  0  0  0  0  0  0  0  0  0
  155.1360  142.1993  168.1202 C   0  0  2  0  0  0  0  0  0  0  0  0
  155.4572  141.9380  169.6021 C   0  0  0  0  0  0  0  0  0  0  0  0
  155.1922  143.0867  170.3801 O   0  0  0  0  0  0  0  0  0  0  0  0
  155.3925  140.9671  167.2150 C   0  0  0  0  0  0  0  0  0  0  0  0
  153.8286  141.8791  160.7009 C   0  0  0  0  0  0  0  0  0  0  0  0
  152.9926  142.4150  159.7858 N   0  3  0  0  0  0  0  0  0  0  0  0
  157.3439  140.8472  166.2244 H   0  0  0  0  0  0  0  0  0  0  0  0
  154.0962  142.5141  168.0194 H   0  0  0  0  0  0  0  0  0  0  0  0
  150.8923  145.8417  159.5745 H   0  0  0  0  0  0  0  0  0  0  0  0
  149.6290  144.7055  160.0776 H   0  0  0  0  0  0  0  0  0  0  0  0
  149.7550  145.2015  158.3919 H   0  0  0  0  0  0  0  0  0  0  0  0
  150.9647  142.1298  157.8306 H   0  0  0  0  0  0  0  0  0  0  0  0
  152.2465  143.2255  157.2890 H   0  0  0  0  0  0  0  0  0  0  0  0
  150.5545  143.6497  157.0393 H   0  0  0  0  0  0  0  0  0  0  0  0
  151.2425  144.5606  161.7015 H   0  0  0  0  0  0  0  0  0  0  0  0
  152.7272  143.6516  163.4096 H   0  0  0  0  0  0  0  0  0  0  0  0
  155.1106  140.8361  162.6448 H   0  0  0  0  0  0  0  0  0  0  0  0
  156.2379  140.4887  164.2213 H   0  0  0  0  0  0  0  0  0  0  0  0
  157.3527  143.4472  165.8538 H   0  0  0  0  0  0  0  0  0  0  0  0
  156.0574  144.2681  167.9172 H   0  0  0  0  0  0  0  0  0  0  0  0
  154.8476  141.1173  169.9815 H   0  0  0  0  0  0  0  0  0  0  0  0
  156.5016  141.6506  169.7293 H   0  0  0  0  0  0  0  0  0  0  0  0
  155.9999  143.5633  170.4966 H   0  0  0  0  0  0  0  0  0  0  0  0
  154.4536  140.6203  166.7809 H   0  0  0  0  0  0  0  0  0  0  0  0
  155.7963  140.1307  167.7870 H   0  0  0  0  0  0  0  0  0  0  0  0
  154.5214  141.1400  160.3250 H   0  0  0  0  0  0  0  0  0  0  0  0
  153.0686  142.0929  158.8208 H   0  0  0  0  0  0  0  0  0  0  0  0
  1  2  1  0  0  0  0
  1 23  1  0  0  0  0
  1 24  1  0  0  0  0
  1 25  1  0  0  0  0
  2  3  1  0  0  0  0
  2  4  1  0  0  0  0
  3 26  1  0  0  0  0
  3 27  1  0  0  0  0
  3 28  1  0  0  0  0
  4 20  1  0  0  0  0
  4  5  2  0  0  0  0
  5  6  1  0  0  0  0
  5 29  1  0  0  0  0
  6  7  2  0  0  0  0
  6 30  1  0  0  0  0
  7  8  1  0  0  0  0
  7 19  1  0  0  0  0
  8  9  1  0  0  0  0
  8 31  1  0  0  0  0
  9 10  2  0  0  0  0
  9 11  1  0  0  0  0
 11 12  1  0  0  0  0
 11 32  1  0  0  0  0
 12 21  1  0  0  0  0
 12 18  1  0  0  0  0
 12 13  1  0  0  0  0
 13 14  2  0  0  0  0
 13 33  1  0  0  0  0
 14 15  1  0  0  0  0
 14 34  1  0  0  0  0
 15 22  1  0  0  0  0
 15 16  1  0  0  0  0
 15 18  1  0  0  0  0
 16 17  1  0  0  0  0
 16 35  1  0  0  0  0
 16 36  1  0  0  0  0
 17 37  1  0  0  0  0
 18 38  1  0  0  0  0
 18 39  1  0  0  0  0
 19 20  2  0  0  0  0
 19 40  1  0  0  0  0
 20 41  1  0  0  0  0
M  CHG  1  20   1
M  END
> <s_m_source_file>
AV-unprocessed.smi

> <i_m_source_file_index>
876

> <i_lp_mmshare_version>
43012

> <i_f3d_flags>
0

> <s_epik_input>
W0NIM11OKFtDSDNdKWMxW2NIXVtjSF1jKFtjSF1uMSlbTkhdQyg9TylbTkhdW0NAQEhdMltDSF09W0NIXVtDQEBIXShbQ0gyXTIpW0NIMl1bT0hd

> <s_epik_cmdline>
J2VwaWtfcHl0aG9uJywgJy1waCcsICc3LjAnLCAnLXRuJywgJzgnLCAnLW1hJywgJzIwMCcsICctbWV0YWxfYmluZGluZycsICctaW1hZScsICc8aW5maWxlLm1hZT4nLCAnLW9tYWUnLCAnPG91dGZpbGUubWFlPic=

> <r_lp_tautomer_probability>
0.999994

> <r_epik_Ionization_Penalty>
0.257994

> <r_epik_Ionization_Penalty_Charging>
0.257974

> <r_epik_Ionization_Penalty_Neutral>
1.95938e-05

> <r_epik_State_Penalty>
0.249586

> <r_epik_Charging_Adjusted_Penalty>
0.50756

> <i_epik_Tot_Q>
1

> <i_epik_Tot_abs_Q>
1

> <r_epik_Metal_State_Penalty>
0.538508

> <b_epik_Metal_Only>
0

> <s_lp_Force_Field>
OPLS_2005

> <r_lp_Energy>
26.3189

> <b_lp_Chiralities_Consistent>
1

> <s_lp_Variant>
AV-unprocessed.smi:876-2

> <Gold.Version>
5.8.1

> <Gold.Id.Protein>
6NUR|6NUR_protein|mol2

> <Gold.PLP.Fitness>
45.2220

> <Gold.PLP.PLP>
-45.7634

> <Gold.PLP.part.hbond>
-3.5058

> <Gold.PLP.part.metal>
0.0000

> <Gold.PLP.part.buried>
-6.8109

> <Gold.PLP.part.nonpolar>
-34.6953

> <Gold.PLP.part.repulsive>
0.1338

> <Gold.PLP.ligand.clash>
0.0000

> <Gold.PLP.ligand.torsion>
0.2819

> <Gold.PLP.Chemscore.Hbond>
0.0000

> <Gold.PLP.Chemscore.CHOScore>
0.0000

> <Gold.PLP.Chemscore.Metal>
0.0000

> <Gold.PLP.Chemscore.Internal.Correction>
0.0224

> <Gold.Rescore>
     Score         DG    S(hbond)    S(metal)    S(lipo)     H(rot)  DE(clash)    DE(int)     intcor
      8.05     -12.76       0.00        0.00     102.04       1.82       2.10       2.61       ----

> <Gold.Chemscore.Fitness>
8.0482

> <Gold.Chemscore.DG>
-12.7601

> <Gold.Chemscore.ZeroCoef>
-5.4800

> <Gold.Chemscore.Hbond>
0.0000

> <Gold.Chemscore.Metal>
0.0000

> <Gold.Chemscore.Lipo>
102.0391

> <Gold.Chemscore.Internal_Hbond>
0.0000

> <Gold.Chemscore.DEClash>
2.1036

> <Gold.Chemscore.DEInternal>
2.6083

> <Gold.Chemscore.Rot>
1.8197

> <Gold.Chemscore.Internal.Correction>
   9.000000E+99

> <Gold.Chemscore.Hbond.Weighted>
-0.0000

> <Gold.Chemscore.Metal.Weighted>
-0.0000

> <Gold.Chemscore.Lipo.Weighted>
-11.9386

> <Gold.Chemscore.Internal_Hbond.Weighted>
0.0000

> <Gold.Chemscore.DEClash.Weighted>
2.1036

> <Gold.Chemscore.DEInternal.Weighted>
2.6083

> <Gold.Chemscore.Rot.Weighted>
4.6585

> <Gold.Chemscore.Internal.Correction.Weighted>
   9.000000E+99

> <Gold.Protein.RotatedTorsions>
[ 6907 6896 6895 6894 ] final -163.83 input  -60.11 | X-H torsion
[ 7974 7965 7964 7962 ] final  -31.30 input  175.53 | X-H torsion
[ 8008 7997 7996 7995 ] final -128.00 input   59.86 | X-H torsion
[ 10167 10162 10161 10158 ] final  110.54 input  -65.29 | X-H torsion
[ 10718 10713 10712 10709 ] final -174.67 input   66.30 | X-H torsion
[ 10763 10752 10751 10750 ] final  -16.33 input  -60.55 | X-H torsion
[ 11005 11000 10999 10996 ] final  156.54 input  -57.11 | X-H torsion

> <Gold.Protein.ActiveResidues>
 VAL166  LYS551  ARG553  GLY616  TRP617  ASP618  TYR619  PRO620  LYS621  CYS622 
 ASP623  PHE694  ASN695  SER759  ASP760  ASP761  ALA762  ILE779  LEU786  VAL792 
 PHE793  MET794  SER795  GLU796  ALA797  LYS798  CYS799  TRP800  GLU811  SER814 

> <Gold.Protein.RotatedAtoms>
  151.4023  133.3753  159.2733 H   0  0  0  0  0  0  0  0  0  0  0  0  # atno 6907 bound_to 6896
  150.9424  134.8833  159.7631 H   0  0  0  0  0  0  0  0  0  0  0  0  # atno 6908 bound_to 6896
  152.5077  134.3974  159.9457 H   0  0  0  0  0  0  0  0  0  0  0  0  # atno 6909 bound_to 6896
  146.1078  140.5649  142.8792 H   0  0  0  0  0  0  0  0  0  0  0  0  # atno 7974 bound_to 7965
  155.2554  140.0434  157.2991 H   0  0  0  0  0  0  0  0  0  0  0  0  # atno 8008 bound_to 7997
  154.5743  140.2383  155.8115 H   0  0  0  0  0  0  0  0  0  0  0  0  # atno 8009 bound_to 7997
  156.2146  140.2988  155.9818 H   0  0  0  0  0  0  0  0  0  0  0  0  # atno 8010 bound_to 7997
  139.6680  144.7126  151.1740 H   0  0  0  0  0  0  0  0  0  0  0  0  # atno 10167 bound_to 10162
  156.7886  130.9509  151.3120 H   0  0  0  0  0  0  0  0  0  0  0  0  # atno 10718 bound_to 10713
  153.5569  135.7010  153.5565 H   0  0  0  0  0  0  0  0  0  0  0  0  # atno 10763 bound_to 10752
  153.3465  135.4007  155.1612 H   0  0  0  0  0  0  0  0  0  0  0  0  # atno 10764 bound_to 10752
  154.8653  135.3755  154.5083 H   0  0  0  0  0  0  0  0  0  0  0  0  # atno 10765 bound_to 10752
  140.1684  134.8560  157.2661 H   0  0  0  0  0  0  0  0  0  0  0  0  # atno 11005 bound_to 11000
  144.7485  140.5131  143.6818 LP  0  0  0  0  0  0  0  0  0  0  0  0  # atno 17320 bound_to 7965
  145.5725  139.1484  143.3280 LP  0  0  0  0  0  0  0  0  0  0  0  0  # atno 17321 bound_to 7965
  140.7607  143.5888  150.8817 LP  0  0  0  0  0  0  0  0  0  0  0  0  # atno 17342 bound_to 10162
  139.9551  143.6227  152.3018 LP  0  0  0  0  0  0  0  0  0  0  0  0  # atno 17343 bound_to 10162
  157.6612  130.8967  149.9833 LP  0  0  0  0  0  0  0  0  0  0  0  0  # atno 17370 bound_to 10713
  156.1173  130.3647  149.9946 LP  0  0  0  0  0  0  0  0  0  0  0  0  # atno 17371 bound_to 10713
  140.2406  134.3800  155.7482 LP  0  0  0  0  0  0  0  0  0  0  0  0  # atno 17394 bound_to 11000
  141.2215  133.7263  156.8783 LP  0  0  0  0  0  0  0  0  0  0  0  0  # atno 17395 bound_to 11000

$$$$
