AV-unprocessed.smi:2567|AV-procd|sdf|10076|dock2
  -GOLD-   2272014103D 1   1.00000     0.00000
 Structure written by MMmdl.
 34 35  0  0  0  0  0  0  0  0  2 V2000
  151.4180  138.3001  159.1941 C   0  0  0  0  0  0  0  0  0  0  0  0
  152.9334  138.2983  159.4758 C   0  0  0  0  0  0  0  0  0  0  0  0
  153.2302  137.4393  160.7198 C   0  0  0  0  0  0  0  0  0  0  0  0
  153.6432  137.6546  158.2636 C   0  0  0  0  0  0  0  0  0  0  0  0
  153.4068  139.7127  159.7136 C   0  0  0  0  0  0  0  0  0  0  0  0
  154.6772  140.0315  159.9857 N   0  0  0  0  0  0  0  0  0  0  0  0
  154.7836  141.3643  160.1677 N   0  0  0  0  0  0  0  0  0  0  0  0
  153.5310  141.7707  159.9731 C   0  0  0  0  0  0  0  0  0  0  0  0
  153.1598  143.2129  160.1236 C   0  0  2  0  0  0  0  0  0  0  0  0
  152.2056  143.4467  161.3101 C   0  0  0  0  0  0  0  0  0  0  0  0
  151.7919  144.8628  161.3495 N   0  3  0  0  0  0  0  0  0  0  0  0
  151.2035  145.2894  160.0643 C   0  0  0  0  0  0  0  0  0  0  0  0
  152.1765  144.9906  158.9098 C   0  0  0  0  0  0  0  0  0  0  0  0
  152.5181  143.6082  158.9127 O   0  0  0  0  0  0  0  0  0  0  0  0
  152.6192  140.7861  159.7082 N   0  0  0  0  0  0  0  0  0  0  0  0
  151.0464  137.2915  159.0095 H   0  0  0  0  0  0  0  0  0  0  0  0
  151.1784  138.9042  158.3182 H   0  0  0  0  0  0  0  0  0  0  0  0
  150.8542  138.7043  160.0356 H   0  0  0  0  0  0  0  0  0  0  0  0
  152.7182  137.8233  161.6030 H   0  0  0  0  0  0  0  0  0  0  0  0
  154.2977  137.4202  160.9421 H   0  0  0  0  0  0  0  0  0  0  0  0
  152.9053  136.4079  160.5783 H   0  0  0  0  0  0  0  0  0  0  0  0
  153.2907  136.6367  158.0932 H   0  0  0  0  0  0  0  0  0  0  0  0
  154.7224  137.6006  158.4119 H   0  0  0  0  0  0  0  0  0  0  0  0
  153.4605  138.2171  157.3470 H   0  0  0  0  0  0  0  0  0  0  0  0
  154.0726  143.7980  160.2534 H   0  0  0  0  0  0  0  0  0  0  0  0
  151.3182  142.8191  161.2154 H   0  0  0  0  0  0  0  0  0  0  0  0
  152.6879  143.1840  162.2520 H   0  0  0  0  0  0  0  0  0  0  0  0
  151.1176  144.9960  162.0898 H   0  0  0  0  0  0  0  0  0  0  0  0
  150.2616  144.7619  159.9087 H   0  0  0  0  0  0  0  0  0  0  0  0
  150.9731  146.3540  160.1075 H   0  0  0  0  0  0  0  0  0  0  0  0
  151.7139  145.2382  157.9544 H   0  0  0  0  0  0  0  0  0  0  0  0
  153.0786  145.5989  158.9935 H   0  0  0  0  0  0  0  0  0  0  0  0
  152.6049  145.4318  161.5378 H   0  0  0  0  0  0  0  0  0  0  0  0
  155.4631  139.4008  160.0592 H   0  0  0  0  0  0  0  0  0  0  0  0
  1  2  1  0  0  0  0
  1 16  1  0  0  0  0
  1 17  1  0  0  0  0
  1 18  1  0  0  0  0
  2  3  1  0  0  0  0
  2  4  1  0  0  0  0
  2  5  1  0  0  0  0
  3 19  1  0  0  0  0
  3 20  1  0  0  0  0
  3 21  1  0  0  0  0
  4 22  1  0  0  0  0
  4 23  1  0  0  0  0
  4 24  1  0  0  0  0
  5 15  2  0  0  0  0
  5  6  1  0  0  0  0
  6  7  1  0  0  0  0
  6 34  1  0  0  0  0
  7  8  2  0  0  0  0
  8  9  1  0  0  0  0
  8 15  1  0  0  0  0
  9 14  1  0  0  0  0
  9 10  1  0  0  0  0
  9 25  1  0  0  0  0
 10 11  1  0  0  0  0
 10 26  1  0  0  0  0
 10 27  1  0  0  0  0
 11 12  1  0  0  0  0
 11 28  1  0  0  0  0
 11 33  1  0  0  0  0
 12 13  1  0  0  0  0
 12 29  1  0  0  0  0
 12 30  1  0  0  0  0
 13 14  1  0  0  0  0
 13 31  1  0  0  0  0
 13 32  1  0  0  0  0
M  CHG  1  11   1
M  END
> <s_m_source_file>
AV-unprocessed.smi

> <i_m_source_file_index>
2567

> <i_lp_mmshare_version>
43012

> <i_f3d_flags>
0

> <s_epik_input>
W0NIM11DKFtDSDNdKShbQ0gzXSljMW5bbkhdYyhuMSlbQ0BASF0yW0NIMl1bTkhdW0NIMl1bQ0gyXU8y

> <s_epik_cmdline>
J2VwaWtfcHl0aG9uJywgJy1waCcsICc3LjAnLCAnLXRuJywgJzgnLCAnLW1hJywgJzIwMCcsICctbWV0YWxfYmluZGluZycsICctaW1hZScsICc8aW5maWxlLm1hZT4nLCAnLW9tYWUnLCAnPG91dGZpbGUubWFlPic=

> <r_lp_tautomer_probability>
0.948284

> <r_epik_Ionization_Penalty>
0.108767

> <r_epik_Ionization_Penalty_Charging>
0.100865

> <r_epik_Ionization_Penalty_Neutral>
0.00790271

> <r_epik_State_Penalty>
0.197684

> <r_epik_Charging_Adjusted_Penalty>
0.298549

> <i_epik_Tot_Q>
1

> <i_epik_Tot_abs_Q>
1

> <r_epik_Metal_State_Penalty>
0.508163

> <b_epik_Metal_Only>
0

> <s_lp_Force_Field>
OPLS_2005

> <r_lp_Energy>
13.5153

> <b_lp_Chiralities_Consistent>
1

> <s_lp_Variant>
AV-unprocessed.smi:2567-1

> <Gold.Version>
5.8.1

> <Gold.Id.Protein>
6NUR|6NUR_protein|mol2

> <Gold.PLP.Fitness>
33.0143

> <Gold.PLP.PLP>
-33.0785

> <Gold.PLP.part.hbond>
-1.2398

> <Gold.PLP.part.metal>
0.0000

> <Gold.PLP.part.buried>
-7.0313

> <Gold.PLP.part.nonpolar>
-24.9163

> <Gold.PLP.part.repulsive>
0.1564

> <Gold.PLP.ligand.clash>
0.0000

> <Gold.PLP.ligand.torsion>
0.0415

> <Gold.PLP.Chemscore.Hbond>
0.0000

> <Gold.PLP.Chemscore.CHOScore>
0.0000

> <Gold.PLP.Chemscore.Metal>
0.0000

> <Gold.PLP.Chemscore.Internal.Correction>
0.0188

> <Gold.Rescore>
     Score         DG    S(hbond)    S(metal)    S(lipo)     H(rot)  DE(clash)    DE(int)     intcor
     10.65     -10.67       0.00        0.00      72.01       1.26       0.00       0.02       ----

> <Gold.Chemscore.Fitness>
10.6453

> <Gold.Chemscore.DG>
-10.6680

> <Gold.Chemscore.ZeroCoef>
-5.4800

> <Gold.Chemscore.Hbond>
0.0000

> <Gold.Chemscore.Metal>
0.0000

> <Gold.Chemscore.Lipo>
72.0134

> <Gold.Chemscore.Internal_Hbond>
0.0000

> <Gold.Chemscore.DEClash>
0.0015

> <Gold.Chemscore.DEInternal>
0.0213

> <Gold.Chemscore.Rot>
1.2647

> <Gold.Chemscore.Internal.Correction>
   9.000000E+99

> <Gold.Chemscore.Hbond.Weighted>
-0.0000

> <Gold.Chemscore.Metal.Weighted>
-0.0000

> <Gold.Chemscore.Lipo.Weighted>
-8.4256

> <Gold.Chemscore.Internal_Hbond.Weighted>
0.0000

> <Gold.Chemscore.DEClash.Weighted>
0.0015

> <Gold.Chemscore.DEInternal.Weighted>
0.0213

> <Gold.Chemscore.Rot.Weighted>
3.2375

> <Gold.Chemscore.Internal.Correction.Weighted>
   9.000000E+99

> <Gold.Protein.RotatedTorsions>
[ 6907 6896 6895 6894 ] final -172.46 input  -60.11 | X-H torsion
[ 7974 7965 7964 7962 ] final  166.98 input  175.53 | X-H torsion
[ 8008 7997 7996 7995 ] final -154.65 input   59.86 | X-H torsion
[ 10167 10162 10161 10158 ] final   81.43 input  -65.29 | X-H torsion
[ 10718 10713 10712 10709 ] final   27.29 input   66.30 | X-H torsion
[ 10763 10752 10751 10750 ] final  107.54 input  -60.55 | X-H torsion
[ 11005 11000 10999 10996 ] final -167.52 input  -57.11 | X-H torsion

> <Gold.Protein.ActiveResidues>
 VAL166  LYS551  ARG553  GLY616  TRP617  ASP618  TYR619  PRO620  LYS621  CYS622 
 ASP623  PHE694  ASN695  SER759  ASP760  ASP761  ALA762  ILE779  LEU786  VAL792 
 PHE793  MET794  SER795  GLU796  ALA797  LYS798  CYS799  TRP800  GLU811  SER814 

> <Gold.Protein.RotatedAtoms>
  151.5404  133.3434  159.2934 H   0  0  0  0  0  0  0  0  0  0  0  0  # atno 6907 bound_to 6896
  150.8539  134.7874  159.7041 H   0  0  0  0  0  0  0  0  0  0  0  0  # atno 6908 bound_to 6896
  152.4578  134.5261  159.9849 H   0  0  0  0  0  0  0  0  0  0  0  0  # atno 6909 bound_to 6896
  144.7441  139.8694  143.6387 H   0  0  0  0  0  0  0  0  0  0  0  0  # atno 7974 bound_to 7965
  155.6896  140.0754  157.2453 H   0  0  0  0  0  0  0  0  0  0  0  0  # atno 8008 bound_to 7997
  154.4091  140.1667  156.2125 H   0  0  0  0  0  0  0  0  0  0  0  0  # atno 8009 bound_to 7997
  155.9463  140.3380  155.6373 H   0  0  0  0  0  0  0  0  0  0  0  0  # atno 8010 bound_to 7997
  139.9393  144.6100  150.8267 H   0  0  0  0  0  0  0  0  0  0  0  0  # atno 10167 bound_to 10162
  157.2183  130.6966  149.6258 H   0  0  0  0  0  0  0  0  0  0  0  0  # atno 10718 bound_to 10713
  153.4081  135.3841  155.2032 H   0  0  0  0  0  0  0  0  0  0  0  0  # atno 10763 bound_to 10752
  154.8735  135.3787  154.4535 H   0  0  0  0  0  0  0  0  0  0  0  0  # atno 10764 bound_to 10752
  153.5040  135.7088  153.5878 H   0  0  0  0  0  0  0  0  0  0  0  0  # atno 10765 bound_to 10752
  140.5524  134.5415  157.5125 H   0  0  0  0  0  0  0  0  0  0  0  0  # atno 11005 bound_to 11000
  146.1291  139.4322  143.0180 LP  0  0  0  0  0  0  0  0  0  0  0  0  # atno 17320 bound_to 7965
  145.7190  141.0081  143.1412 LP  0  0  0  0  0  0  0  0  0  0  0  0  # atno 17321 bound_to 7965
  140.7615  143.3176  151.2696 LP  0  0  0  0  0  0  0  0  0  0  0  0  # atno 17342 bound_to 10162
  139.6717  144.0008  152.2757 LP  0  0  0  0  0  0  0  0  0  0  0  0  # atno 17343 bound_to 10162
  155.9684  130.4528  150.5789 LP  0  0  0  0  0  0  0  0  0  0  0  0  # atno 17370 bound_to 10713
  157.3602  131.0748  151.1642 LP  0  0  0  0  0  0  0  0  0  0  0  0  # atno 17371 bound_to 10713
  139.9449  134.7721  156.0587 LP  0  0  0  0  0  0  0  0  0  0  0  0  # atno 17394 bound_to 11000
  141.1164  133.6626  156.3104 LP  0  0  0  0  0  0  0  0  0  0  0  0  # atno 17395 bound_to 11000

$$$$
