AV-unprocessed.smi:1047|AV-procd|sdf|4598|dock2
  -GOLD-   22720 3 83D 1   1.00000     0.00000
 Structure written by MMmdl.
 57 59  0  0  0  0  0  0  0  0  3 V2000
  150.0129  131.1312  155.0736 C   0  0  0  0  0  0  0  0  0  0  0  0
  148.7145  131.5395  154.3634 C   0  0  0  0  0  0  0  0  0  0  0  0
  148.9033  132.6984  153.4506 N   0  3  1  0  0  0  0  0  0  0  0  0
  147.6822  133.0538  152.6870 C   0  0  0  0  0  0  0  0  0  0  0  0
  146.6871  133.8365  153.5624 C   0  0  0  0  0  0  0  0  0  0  0  0
  147.3274  134.9929  154.0879 O   0  0  0  0  0  0  0  0  0  0  0  0
  148.4329  134.6736  154.9263 C   0  0  2  0  0  0  0  0  0  0  0  0
  148.9794  135.9924  155.4955 C   0  0  0  0  0  0  0  0  0  0  0  0
  149.9792  136.5829  154.6097 N   0  0  0  0  0  0  0  0  0  0  0  0
  149.9313  138.0421  154.5728 C   0  0  0  0  0  0  0  0  0  0  0  0
  151.3450  138.6467  154.5347 C   0  0  2  0  0  0  0  0  0  0  0  0
  152.2410  137.6452  154.0945 O   0  0  0  0  0  0  0  0  0  0  0  0
  151.7859  139.1520  155.9233 C   0  0  0  0  0  0  0  0  0  0  0  0
  151.2937  140.5041  156.2267 N   0  0  0  0  0  0  0  0  0  0  0  0
  150.4504  141.3005  155.5154 C   0  0  0  0  0  0  0  0  0  0  0  0
  150.2949  142.4603  156.2114 N   0  3  0  0  0  0  0  0  0  0  0  0
  151.0507  142.4052  157.3843 C   0  0  0  0  0  0  0  0  0  0  0  0
  151.2157  143.3344  158.4047 C   0  0  0  0  0  0  0  0  0  0  0  0
  152.0665  142.9743  159.4739 C   0  0  0  0  0  0  0  0  0  0  0  0
  152.2709  143.9682  160.6046 C   0  0  0  0  0  0  0  0  0  0  0  0
  152.7194  141.7146  159.4945 C   0  0  0  0  0  0  0  0  0  0  0  0
  153.6365  141.3397  160.6462 C   0  0  0  0  0  0  0  0  0  0  0  0
  152.5366  140.7826  158.4480 C   0  0  0  0  0  0  0  0  0  0  0  0
  151.6947  141.1526  157.4014 C   0  0  0  0  0  0  0  0  0  0  0  0
  149.4836  133.9085  154.0881 C   0  0  0  0  0  0  0  0  0  0  0  0
  149.8605  130.2196  155.6521 H   0  0  0  0  0  0  0  0  0  0  0  0
  150.3602  131.8964  155.7671 H   0  0  0  0  0  0  0  0  0  0  0  0
  150.8112  130.9358  154.3568 H   0  0  0  0  0  0  0  0  0  0  0  0
  148.3761  130.6826  153.7794 H   0  0  0  0  0  0  0  0  0  0  0  0
  147.9301  131.7387  155.0931 H   0  0  0  0  0  0  0  0  0  0  0  0
  147.9766  133.6716  151.8376 H   0  0  0  0  0  0  0  0  0  0  0  0
  147.2145  132.1622  152.2682 H   0  0  0  0  0  0  0  0  0  0  0  0
  145.8310  134.1505  152.9652 H   0  0  0  0  0  0  0  0  0  0  0  0
  146.2970  133.2181  154.3720 H   0  0  0  0  0  0  0  0  0  0  0  0
  148.0757  134.0595  155.7544 H   0  0  0  0  0  0  0  0  0  0  0  0
  148.1608  136.6917  155.6698 H   0  0  0  0  0  0  0  0  0  0  0  0
  149.4329  135.7984  156.4683 H   0  0  0  0  0  0  0  0  0  0  0  0
  149.8659  136.2153  153.6705 H   0  0  0  0  0  0  0  0  0  0  0  0
  149.3892  138.3525  153.6785 H   0  0  0  0  0  0  0  0  0  0  0  0
  149.3714  138.4345  155.4232 H   0  0  0  0  0  0  0  0  0  0  0  0
  151.3762  139.4796  153.8305 H   0  0  0  0  0  0  0  0  0  0  0  0
  152.9651  138.0649  153.6553 H   0  0  0  0  0  0  0  0  0  0  0  0
  151.3939  138.4912  156.6975 H   0  0  0  0  0  0  0  0  0  0  0  0
  152.8709  139.1316  156.0279 H   0  0  0  0  0  0  0  0  0  0  0  0
  149.9870  141.0561  154.5704 H   0  0  0  0  0  0  0  0  0  0  0  0
  150.7167  144.2923  158.3810 H   0  0  0  0  0  0  0  0  0  0  0  0
  153.3219  144.2471  160.6830 H   0  0  0  0  0  0  0  0  0  0  0  0
  151.9541  143.5386  161.5553 H   0  0  0  0  0  0  0  0  0  0  0  0
  151.6951  144.8803  160.4437 H   0  0  0  0  0  0  0  0  0  0  0  0
  154.0594  140.3434  160.5116 H   0  0  0  0  0  0  0  0  0  0  0  0
  153.0896  141.3445  161.5893 H   0  0  0  0  0  0  0  0  0  0  0  0
  154.4644  142.0450  160.7214 H   0  0  0  0  0  0  0  0  0  0  0  0
  153.0396  139.8270  158.4611 H   0  0  0  0  0  0  0  0  0  0  0  0
  150.3521  133.6511  154.6927 H   0  0  0  0  0  0  0  0  0  0  0  0
  149.8539  134.5596  153.2951 H   0  0  0  0  0  0  0  0  0  0  0  0
  149.5745  132.3841  152.7641 H   0  0  0  0  0  0  0  0  0  0  0  0
  149.7148  143.2313  155.9059 H   0  0  0  0  0  0  0  0  0  0  0  0
  1  2  1  0  0  0  0
  1 26  1  0  0  0  0
  1 27  1  0  0  0  0
  1 28  1  0  0  0  0
  2  3  1  0  0  0  0
  2 29  1  0  0  0  0
  2 30  1  0  0  0  0
  3 25  1  0  0  0  0
  3  4  1  0  0  0  0
  3 56  1  0  0  0  0
  4  5  1  0  0  0  0
  4 31  1  0  0  0  0
  4 32  1  0  0  0  0
  5  6  1  0  0  0  0
  5 33  1  0  0  0  0
  5 34  1  0  0  0  0
  6  7  1  0  0  0  0
  7  8  1  0  0  0  0
  7 25  1  0  0  0  0
  7 35  1  0  0  0  0
  8  9  1  0  0  0  0
  8 36  1  0  0  0  0
  8 37  1  0  0  0  0
  9 10  1  0  0  0  0
  9 38  1  0  0  0  0
 10 11  1  0  0  0  0
 10 39  1  0  0  0  0
 10 40  1  0  0  0  0
 11 12  1  0  0  0  0
 11 13  1  0  0  0  0
 11 41  1  0  0  0  0
 12 42  1  0  0  0  0
 13 14  1  0  0  0  0
 13 43  1  0  0  0  0
 13 44  1  0  0  0  0
 14 24  1  0  0  0  0
 14 15  1  0  0  0  0
 15 16  2  0  0  0  0
 15 45  1  0  0  0  0
 16 17  1  0  0  0  0
 16 57  1  0  0  0  0
 17 24  2  0  0  0  0
 17 18  1  0  0  0  0
 18 19  2  0  0  0  0
 18 46  1  0  0  0  0
 19 20  1  0  0  0  0
 19 21  1  0  0  0  0
 20 47  1  0  0  0  0
 20 48  1  0  0  0  0
 20 49  1  0  0  0  0
 21 22  1  0  0  0  0
 21 23  2  0  0  0  0
 22 50  1  0  0  0  0
 22 51  1  0  0  0  0
 22 52  1  0  0  0  0
 23 24  1  0  0  0  0
 23 53  1  0  0  0  0
 25 54  1  0  0  0  0
 25 55  1  0  0  0  0
M  CHG  1   3   1
M  CHG  1  16   1
M  END
> <s_m_source_file>
AV-unprocessed.smi

> <i_m_source_file_index>
1047

> <i_lp_mmshare_version>
43012

> <i_f3d_flags>
0

> <s_epik_input>
W0NIM11bQ0gyXU4xW0NIMl1bQ0gyXU9bQ0BIXShbQ0gyXTEpW0NIMl1bTkhdW0NIMl1bQ0BIXShbT0hdKVtDSDJdbihbY0hdbjIpYyhjMjMpW2NIXWMoW0NIM10pYyhbY0hdMylbQ0gzXQ==

> <s_epik_cmdline>
J2VwaWtfcHl0aG9uJywgJy1waCcsICc3LjAnLCAnLXRuJywgJzgnLCAnLW1hJywgJzIwMCcsICctbWV0YWxfYmluZGluZycsICctaW1hZScsICc8aW5maWxlLm1hZT4nLCAnLW9tYWUnLCAnPG91dGZpbGUubWFlPic=

> <r_epik_Ionization_Penalty>
2.03028

> <r_epik_Ionization_Penalty_Charging>
1.21256

> <r_epik_Ionization_Penalty_Neutral>
0.817715

> <r_epik_State_Penalty>
2.54959

> <r_epik_Charging_Adjusted_Penalty>
3.76215

> <i_epik_Tot_Q>
2

> <i_epik_Tot_abs_Q>
2

> <r_epik_Metal_State_Penalty>
6.52811

> <b_epik_Metal_Only>
0

> <s_lp_Force_Field>
OPLS_2005

> <r_lp_Energy>
38.5552

> <b_lp_Chiralities_Consistent>
1

> <s_lp_Variant>
AV-unprocessed.smi:1047-39

> <Gold.Version>
5.8.1

> <Gold.Id.Protein>
6NUR|6NUR_protein|mol2

> <Gold.PLP.Fitness>
58.2318

> <Gold.PLP.PLP>
-50.9434

> <Gold.PLP.part.hbond>
-3.2137

> <Gold.PLP.part.metal>
0.0000

> <Gold.PLP.part.buried>
-6.4574

> <Gold.PLP.part.nonpolar>
-41.8824

> <Gold.PLP.part.repulsive>
0.5504

> <Gold.PLP.ligand.clash>
0.0000

> <Gold.PLP.ligand.torsion>
1.7229

> <Gold.PLP.Chemscore.Hbond>
3.5546

> <Gold.PLP.Chemscore.CHOScore>
0.0000

> <Gold.PLP.Chemscore.Metal>
0.0000

> <Gold.Chemscore.Hbonds>
donor molecule, donor type, donor heavy atom, donor atom, acceptor molecule, acceptor atom, score
      L1  H     9    38       P1  7948  0.90
      L1  H    16    57       P1  8028  2.00
      P1  H 10752 10763       L1    12  0.61

> <Gold.PLP.Chemscore.Internal.Correction>
0.0704

> <Gold.Rescore>
     Score         DG    S(hbond)    S(metal)    S(lipo)     H(rot)  DE(clash)    DE(int)     intcor
     16.89     -18.76       1.44        0.00     131.71       2.71       0.09       1.77       ----

> <Gold.Chemscore.Fitness>
16.8928

> <Gold.Chemscore.DG>
-18.7604

> <Gold.Chemscore.ZeroCoef>
-5.4800

> <Gold.Chemscore.Hbond>
1.4387

> <Gold.Chemscore.Metal>
0.0000

> <Gold.Chemscore.Lipo>
131.7082

> <Gold.Chemscore.Internal_Hbond>
0.0000

> <Gold.Chemscore.DEClash>
0.0950

> <Gold.Chemscore.DEInternal>
1.7726

> <Gold.Chemscore.Rot>
2.7088

> <Gold.Chemscore.Internal.Correction>
   9.000000E+99

> <Gold.Chemscore.Hbonds>
donor molecule, donor type, donor heavy atom, donor atom, acceptor molecule, acceptor atom, score
      L1  H     9    38       P1  7948  0.17
      L1  H    16    57       P1  8028  1.00
      P1  H 10752 10763       L1    12  0.12

> <Gold.Chemscore.Hbond.Weighted>
-4.8051

> <Gold.Chemscore.Metal.Weighted>
-0.0000

> <Gold.Chemscore.Lipo.Weighted>
-15.4099

> <Gold.Chemscore.Internal_Hbond.Weighted>
0.0000

> <Gold.Chemscore.DEClash.Weighted>
0.0950

> <Gold.Chemscore.DEInternal.Weighted>
1.7726

> <Gold.Chemscore.Rot.Weighted>
6.9346

> <Gold.Chemscore.Internal.Correction.Weighted>
   9.000000E+99

> <Gold.Protein.RotatedTorsions>
[ 6907 6896 6895 6894 ] final    6.37 input  -60.11 | X-H torsion
[ 7974 7965 7964 7962 ] final   78.74 input  175.53 | X-H torsion
[ 8008 7997 7996 7995 ] final  -26.09 input   59.86 | X-H torsion
[ 10167 10162 10161 10158 ] final    1.07 input  -65.29 | X-H torsion
[ 10718 10713 10712 10709 ] final   94.59 input   66.30 | X-H torsion
[ 10763 10752 10751 10750 ] final   32.07 input  -60.55 | X-H torsion
[ 11005 11000 10999 10996 ] final  167.07 input  -57.11 | X-H torsion

> <Gold.Protein.ActiveResidues>
 VAL166  LYS551  ARG553  GLY616  TRP617  ASP618  TYR619  PRO620  LYS621  CYS622 
 ASP623  PHE694  ASN695  SER759  ASP760  ASP761  ALA762  ILE779  LEU786  VAL792 
 PHE793  MET794  SER795  GLU796  ALA797  LYS798  CYS799  TRP800  GLU811  SER814 

> <Gold.Protein.RotatedAtoms>
  151.6726  135.0974  160.0200 H   0  0  0  0  0  0  0  0  0  0  0  0  # atno 6907 bound_to 6896
  152.3882  133.6637  159.6225 H   0  0  0  0  0  0  0  0  0  0  0  0  # atno 6908 bound_to 6896
  150.7803  133.8915  159.3356 H   0  0  0  0  0  0  0  0  0  0  0  0  # atno 6909 bound_to 6896
  145.6732  139.2502  143.1856 H   0  0  0  0  0  0  0  0  0  0  0  0  # atno 7974 bound_to 7965
  154.4442  140.1909  156.0721 H   0  0  0  0  0  0  0  0  0  0  0  0  # atno 8008 bound_to 7997
  156.0503  140.3309  155.7317 H   0  0  0  0  0  0  0  0  0  0  0  0  # atno 8009 bound_to 7997
  155.5567  140.0600  157.2829 H   0  0  0  0  0  0  0  0  0  0  0  0  # atno 8010 bound_to 7997
  140.6700  143.7076  150.7903 H   0  0  0  0  0  0  0  0  0  0  0  0  # atno 10167 bound_to 10162
  157.6946  131.0517  150.4210 H   0  0  0  0  0  0  0  0  0  0  0  0  # atno 10718 bound_to 10713
  153.0282  135.6422  154.1298 H   0  0  0  0  0  0  0  0  0  0  0  0  # atno 10763 bound_to 10752
  154.1024  135.2858  155.3250 H   0  0  0  0  0  0  0  0  0  0  0  0  # atno 10764 bound_to 10752
  154.6389  135.5466  153.7829 H   0  0  0  0  0  0  0  0  0  0  0  0  # atno 10765 bound_to 10752
  140.2729  134.7812  157.3691 H   0  0  0  0  0  0  0  0  0  0  0  0  # atno 11005 bound_to 11000
  146.1028  140.7523  142.9541 LP  0  0  0  0  0  0  0  0  0  0  0  0  # atno 17320 bound_to 7965
  144.7050  140.3814  143.7125 LP  0  0  0  0  0  0  0  0  0  0  0  0  # atno 17321 bound_to 7965
  140.0759  143.5015  152.2555 LP  0  0  0  0  0  0  0  0  0  0  0  0  # atno 17342 bound_to 10162
  139.5964  144.7568  151.3277 LP  0  0  0  0  0  0  0  0  0  0  0  0  # atno 17343 bound_to 10162
  156.4585  130.4027  149.6591 LP  0  0  0  0  0  0  0  0  0  0  0  0  # atno 17370 bound_to 10713
  156.3715  130.7533  151.2516 LP  0  0  0  0  0  0  0  0  0  0  0  0  # atno 17371 bound_to 10713
  140.1355  134.5039  155.8071 LP  0  0  0  0  0  0  0  0  0  0  0  0  # atno 17394 bound_to 11000
  141.2174  133.6806  156.7117 LP  0  0  0  0  0  0  0  0  0  0  0  0  # atno 17395 bound_to 11000

$$$$
