AV-unprocessed.smi:1995|AV-procd|sdf|8076|dock5
  -GOLD-   2272010283D 1   1.00000     0.00000
 Structure written by MMmdl.
 42 43  0  0  0  0  0  0  0  0  1 V2000
  146.8753  140.8900  153.2664 C   0  0  0  0  0  0  0  0  0  0  0  0
  146.9074  139.3710  153.5172 C   0  0  0  0  0  0  0  0  0  0  0  0
  147.3054  138.9344  154.9630 C   0  0  1  0  0  0  0  0  0  0  0  0
  146.4784  139.8232  155.9307 C   0  0  0  0  0  0  0  0  0  0  0  0
  146.8750  137.4446  155.1629 C   0  0  0  0  0  0  0  0  0  0  0  0
  146.9606  136.6321  153.9485 N   0  0  0  0  0  0  0  0  0  0  0  0
  146.0262  135.7759  153.5095 C   0  0  0  0  0  0  0  0  0  0  0  0
  144.9638  135.5684  154.0956 O   0  0  0  0  0  0  0  0  0  0  0  0
  146.4038  135.1941  152.3596 N   0  0  0  0  0  0  0  0  0  0  0  0
  145.6790  134.2563  151.5827 C   0  0  0  0  0  0  0  0  0  0  0  0
  144.3521  134.1991  151.7128 N   0  0  0  0  0  0  0  0  0  0  0  0
  143.7851  133.2249  150.8860 C   0  0  0  0  0  0  0  0  0  0  0  0
  144.7031  132.5445  150.1250 C   0  0  0  0  0  0  0  0  0  0  0  0
  146.3288  133.1013  150.4162 S   0  0  0  0  0  0  0  0  0  0  0  0
  148.7647  139.1307  155.1982 N   0  0  0  0  0  0  0  0  0  0  0  0
  149.2064  140.5294  155.2641 C   0  0  0  0  0  0  0  0  0  0  0  0
  150.6882  140.6472  155.6597 C   0  0  0  0  0  0  0  0  0  0  0  0
  151.4890  139.9140  154.7406 O   0  0  0  0  0  0  0  0  0  0  0  0
  151.1300  138.5387  154.6837 C   0  0  0  0  0  0  0  0  0  0  0  0
  149.6513  138.4041  154.2811 C   0  0  0  0  0  0  0  0  0  0  0  0
  146.6025  141.1001  152.2322 H   0  0  0  0  0  0  0  0  0  0  0  0
  147.8461  141.3517  153.4452 H   0  0  0  0  0  0  0  0  0  0  0  0
  146.1441  141.3897  153.9012 H   0  0  0  0  0  0  0  0  0  0  0  0
  145.9195  138.9814  153.2689 H   0  0  0  0  0  0  0  0  0  0  0  0
  147.5712  138.9091  152.7868 H   0  0  0  0  0  0  0  0  0  0  0  0
  145.4321  139.8916  155.6319 H   0  0  0  0  0  0  0  0  0  0  0  0
  146.8657  140.8413  155.9741 H   0  0  0  0  0  0  0  0  0  0  0  0
  146.4816  139.4311  156.9480 H   0  0  0  0  0  0  0  0  0  0  0  0
  147.5210  136.9577  155.8926 H   0  0  0  0  0  0  0  0  0  0  0  0
  145.8675  137.3801  155.5745 H   0  0  0  0  0  0  0  0  0  0  0  0
  147.8000  136.7365  153.3976 H   0  0  0  0  0  0  0  0  0  0  0  0
  147.3062  135.4577  151.9923 H   0  0  0  0  0  0  0  0  0  0  0  0
  142.7149  133.0814  150.9023 H   0  0  0  0  0  0  0  0  0  0  0  0
  144.5218  131.7527  149.4133 H   0  0  0  0  0  0  0  0  0  0  0  0
  149.0649  141.0166  154.2996 H   0  0  0  0  0  0  0  0  0  0  0  0
  148.6225  141.0912  155.9903 H   0  0  0  0  0  0  0  0  0  0  0  0
  151.0014  141.6912  155.6494 H   0  0  0  0  0  0  0  0  0  0  0  0
  150.8487  140.2749  156.6727 H   0  0  0  0  0  0  0  0  0  0  0  0
  151.7679  138.0343  153.9578 H   0  0  0  0  0  0  0  0  0  0  0  0
  151.3112  138.0668  155.6508 H   0  0  0  0  0  0  0  0  0  0  0  0
  149.4092  137.3429  154.2617 H   0  0  0  0  0  0  0  0  0  0  0  0
  149.5315  138.7751  153.2633 H   0  0  0  0  0  0  0  0  0  0  0  0
  1  2  1  0  0  0  0
  1 21  1  0  0  0  0
  1 22  1  0  0  0  0
  1 23  1  0  0  0  0
  2  3  1  0  0  0  0
  2 24  1  0  0  0  0
  2 25  1  0  0  0  0
  3  4  1  0  0  0  0
  3  5  1  0  0  0  0
  3 15  1  0  0  0  0
  4 26  1  0  0  0  0
  4 27  1  0  0  0  0
  4 28  1  0  0  0  0
  5  6  1  0  0  0  0
  5 29  1  0  0  0  0
  5 30  1  0  0  0  0
  6  7  1  0  0  0  0
  6 31  1  0  0  0  0
  7  8  2  0  0  0  0
  7  9  1  0  0  0  0
  9 10  1  0  0  0  0
  9 32  1  0  0  0  0
 10 14  1  0  0  0  0
 10 11  2  0  0  0  0
 11 12  1  0  0  0  0
 12 13  2  0  0  0  0
 12 33  1  0  0  0  0
 13 14  1  0  0  0  0
 13 34  1  0  0  0  0
 15 20  1  0  0  0  0
 15 16  1  0  0  0  0
 16 17  1  0  0  0  0
 16 35  1  0  0  0  0
 16 36  1  0  0  0  0
 17 18  1  0  0  0  0
 17 37  1  0  0  0  0
 17 38  1  0  0  0  0
 18 19  1  0  0  0  0
 19 20  1  0  0  0  0
 19 39  1  0  0  0  0
 19 40  1  0  0  0  0
 20 41  1  0  0  0  0
 20 42  1  0  0  0  0
M  END
> <s_m_source_file>
AV-unprocessed.smi

> <i_m_source_file_index>
1995

> <i_lp_mmshare_version>
43012

> <i_f3d_flags>
0

> <s_epik_input>
W0NIMl0xW0NIMl1PW0NIMl1bQ0gyXU4xW0NAQF0oW0NIM10pKFtDSDJdW0NIM10pW0NIMl1bTkhdQyg9TylbTkhdYzJuW2NIXVtjSF1zMg==

> <s_epik_cmdline>
J2VwaWtfcHl0aG9uJywgJy1waCcsICc3LjAnLCAnLXRuJywgJzgnLCAnLW1hJywgJzIwMCcsICctbWV0YWxfYmluZGluZycsICctaW1hZScsICc8aW5maWxlLm1hZT4nLCAnLW9tYWUnLCAnPG91dGZpbGUubWFlPic=

> <r_lp_tautomer_probability>
0.999

> <r_epik_Ionization_Penalty>
0.295852

> <r_epik_Ionization_Penalty_Charging>
0

> <r_epik_Ionization_Penalty_Neutral>
0.295852

> <r_epik_State_Penalty>
0.288723

> <r_epik_Charging_Adjusted_Penalty>
0.288723

> <i_epik_Tot_Q>
0

> <i_epik_Tot_abs_Q>
0

> <r_epik_Metal_State_Penalty>
0.29791

> <b_epik_Metal_Only>
0

> <s_lp_Force_Field>
OPLS_2005

> <r_lp_Energy>
39.4988

> <b_lp_Chiralities_Consistent>
1

> <s_lp_Variant>
AV-unprocessed.smi:1995-1

> <Gold.Version>
5.8.1

> <Gold.Id.Protein>
6NUR|6NUR_protein|mol2

> <Gold.PLP.Fitness>
39.9526

> <Gold.PLP.PLP>
-29.8495

> <Gold.PLP.part.hbond>
-3.0000

> <Gold.PLP.part.metal>
0.0000

> <Gold.PLP.part.buried>
-4.4794

> <Gold.PLP.part.nonpolar>
-22.8030

> <Gold.PLP.part.repulsive>
0.3238

> <Gold.PLP.ligand.clash>
0.0000

> <Gold.PLP.ligand.torsion>
0.9860

> <Gold.PLP.Chemscore.Hbond>
2.9920

> <Gold.PLP.Chemscore.CHOScore>
1.0000

> <Gold.PLP.Chemscore.Metal>
0.0000

> <Gold.Chemscore.Hbonds>
donor molecule, donor type, donor heavy atom, donor atom, acceptor molecule, acceptor atom, score
      L1  H     6    31       P1  7948  1.00
      L1  H     9    32       P1  7948  1.00
      P1  H  7989  7998       L1    18  1.00
      L1  C    12    33       P1 10186  0.88

> <Gold.PLP.Chemscore.Internal.Correction>
0.0991

> <Gold.Rescore>
     Score         DG    S(hbond)    S(metal)    S(lipo)     H(rot)  DE(clash)    DE(int)     intcor
     16.47     -19.19       2.78        0.00      75.82       1.74       0.15       2.57       ----

> <Gold.Chemscore.Fitness>
16.4708

> <Gold.Chemscore.DG>
-19.1940

> <Gold.Chemscore.ZeroCoef>
-5.4800

> <Gold.Chemscore.Hbond>
2.7843

> <Gold.Chemscore.Metal>
0.0000

> <Gold.Chemscore.Lipo>
75.8212

> <Gold.Chemscore.Internal_Hbond>
0.0000

> <Gold.Chemscore.DEClash>
0.1514

> <Gold.Chemscore.DEInternal>
2.5717

> <Gold.Chemscore.Rot>
1.7408

> <Gold.Chemscore.Internal.Correction>
   9.000000E+99

> <Gold.Chemscore.Hbonds>
donor molecule, donor type, donor heavy atom, donor atom, acceptor molecule, acceptor atom, score
      L1  H     6    31       P1  7948  0.94
      L1  H     9    32       P1  7948  1.00
      P1  H  7989  7998       L1    18  0.48

> <Gold.Chemscore.Hbond.Weighted>
-9.2995

> <Gold.Chemscore.Metal.Weighted>
-0.0000

> <Gold.Chemscore.Lipo.Weighted>
-8.8711

> <Gold.Chemscore.Internal_Hbond.Weighted>
0.0000

> <Gold.Chemscore.DEClash.Weighted>
0.1514

> <Gold.Chemscore.DEInternal.Weighted>
2.5717

> <Gold.Chemscore.Rot.Weighted>
4.4565

> <Gold.Chemscore.Internal.Correction.Weighted>
   9.000000E+99

> <Gold.Protein.RotatedTorsions>
[ 6907 6896 6895 6894 ] final -169.42 input  -60.11 | X-H torsion
[ 7974 7965 7964 7962 ] final   50.26 input  175.53 | X-H torsion
[ 8008 7997 7996 7995 ] final   34.02 input   59.86 | X-H torsion
[ 10167 10162 10161 10158 ] final  -77.16 input  -65.29 | X-H torsion
[ 10718 10713 10712 10709 ] final -166.64 input   66.30 | X-H torsion
[ 10763 10752 10751 10750 ] final  -33.51 input  -60.55 | X-H torsion
[ 11005 11000 10999 10996 ] final   35.39 input  -57.11 | X-H torsion

> <Gold.Protein.ActiveResidues>
 VAL166  LYS551  ARG553  GLY616  TRP617  ASP618  TYR619  PRO620  LYS621  CYS622 
 ASP623  PHE694  ASN695  SER759  ASP760  ASP761  ALA762  ILE779  LEU786  VAL792 
 PHE793  MET794  SER795  GLU796  ALA797  LYS798  CYS799  TRP800  GLU811  SER814 

> <Gold.Protein.RotatedAtoms>
  151.4913  133.3524  159.2853 H   0  0  0  0  0  0  0  0  0  0  0  0  # atno 6907 bound_to 6896
  150.8833  134.8229  159.7251 H   0  0  0  0  0  0  0  0  0  0  0  0  # atno 6908 bound_to 6896
  152.4776  134.4814  159.9718 H   0  0  0  0  0  0  0  0  0  0  0  0  # atno 6909 bound_to 6896
  146.0029  139.4459  143.0004 H   0  0  0  0  0  0  0  0  0  0  0  0  # atno 7974 bound_to 7965
  155.1481  140.3272  155.4437 H   0  0  0  0  0  0  0  0  0  0  0  0  # atno 8008 bound_to 7997
  156.2583  140.1982  156.6544 H   0  0  0  0  0  0  0  0  0  0  0  0  # atno 8009 bound_to 7997
  154.6493  140.0560  156.9923 H   0  0  0  0  0  0  0  0  0  0  0  0  # atno 8010 bound_to 7997
  140.4794  143.2406  151.8082 H   0  0  0  0  0  0  0  0  0  0  0  0  # atno 10167 bound_to 10162
  156.6708  130.9083  151.3043 H   0  0  0  0  0  0  0  0  0  0  0  0  # atno 10718 bound_to 10713
  153.8314  135.6865  153.4814 H   0  0  0  0  0  0  0  0  0  0  0  0  # atno 10763 bound_to 10752
  153.1508  135.4619  154.9632 H   0  0  0  0  0  0  0  0  0  0  0  0  # atno 10764 bound_to 10752
  154.7885  135.3293  154.7777 H   0  0  0  0  0  0  0  0  0  0  0  0  # atno 10765 bound_to 10752
  140.2431  134.3391  155.7918 H   0  0  0  0  0  0  0  0  0  0  0  0  # atno 11005 bound_to 11000
  145.7460  140.9990  143.1276 LP  0  0  0  0  0  0  0  0  0  0  0  0  # atno 17320 bound_to 7965
  144.6925  139.9156  143.7465 LP  0  0  0  0  0  0  0  0  0  0  0  0  # atno 17321 bound_to 7965
  139.4831  144.4792  151.9328 LP  0  0  0  0  0  0  0  0  0  0  0  0  # atno 17342 bound_to 10162
  140.3877  144.2655  150.5902 LP  0  0  0  0  0  0  0  0  0  0  0  0  # atno 17343 bound_to 10162
  157.7078  130.9405  150.0987 LP  0  0  0  0  0  0  0  0  0  0  0  0  # atno 17370 bound_to 10713
  156.1940  130.3656  149.8873 LP  0  0  0  0  0  0  0  0  0  0  0  0  # atno 17371 bound_to 10713
  141.2208  133.7310  156.8917 LP  0  0  0  0  0  0  0  0  0  0  0  0  # atno 17394 bound_to 11000
  140.1633  134.9150  157.2742 LP  0  0  0  0  0  0  0  0  0  0  0  0  # atno 17395 bound_to 11000

$$$$
