#       Name:                AV-unprocessed.smi:2390
#       Creating user name   scv26
#       Creation time:       Fri Mar 27 13:10:27 2020


#       File generated by GOLD software.
#

@<TRIPOS>MOLECULE
AV-unprocessed.smi:2390
    51    52     1
SMALL
NO_CHARGES


@<TRIPOS>ATOM
      1 ****        -4.0664   4.4768  -0.7391 C.3            1 S1                 0.0000
      2 ****        -4.3720   3.1646  -0.0481 C.ar           1 S1                 0.0000
      3 ****        -5.6908   2.8227   0.3097 C.ar           1 S1                 0.0000
      4 ****        -5.9054   1.5875   0.9468 C.ar           1 S1                 0.0000
      5 ****        -4.8008   0.7507   1.1978 C.ar           1 S1                 0.0000
      6 ****        -3.5091   1.1690   0.8062 C.ar           1 S1                 0.0000
      7 ****        -2.4625   0.2567   1.1051 N.am           1 S1                 0.0000
      8 ****        -1.1509   0.3823   0.8361 C.2            1 S1                 0.0000
      9 ****        -0.6302   1.3382   0.2599 O.2            1 S1                 0.0000
     10 ****        -0.4601  -0.6808   1.2745 N.am           1 S1                 0.0000
     11 ****         0.9848  -0.8630   1.1358 C.3            1 S1                 0.0000
     12 ****         1.4734  -1.8425   2.2176 C.3            1 S1                 0.0000
     13 ****         1.3783  -1.2913  -0.3161 C.3            1 S1                 0.0000
     14 ****         0.6657  -2.6184  -0.6860 C.3            1 S1                 0.0000
     15 ****         2.8395  -1.3296  -0.5622 N.3            1 S1                 0.0000
     16 ****         3.4962  -0.0469  -0.2827 C.3            1 S1                 0.0000
     17 ****         5.0061  -0.0701  -0.5767 C.3            1 S1                 0.0000
     18 ****         5.2277  -0.4505  -1.9275 O.3            1 S1                 0.0000
     19 ****         4.6768  -1.7273  -2.2183 C.3            1 S1                 0.0000
     20 ****         3.1640  -1.7129  -1.9410 C.3            1 S1                 0.0000
     21 ****        -3.3129   2.3624   0.1921 N.ar           1 S1                 0.0000
     22 ****        -4.9460   5.1201  -0.7732 H              1 S1                 0.0000
     23 ****        -3.7353   4.2961  -1.7622 H              1 S1                 0.0000
     24 ****        -3.2758   5.0110  -0.2113 H              1 S1                 0.0000
     25 ****        -6.5169   3.4867   0.1025 H              1 S1                 0.0000
     26 ****        -6.9004   1.2857   1.2384 H              1 S1                 0.0000
     27 ****        -4.9487  -0.2019   1.6855 H              1 S1                 0.0000
     28 ****        -2.7451  -0.5880   1.5795 H              1 S1                 0.0000
     29 ****        -0.9681  -1.4212   1.7357 H              1 S1                 0.0000
     30 ****         1.4172   0.1091   1.3681 H              1 S1                 0.0000
     31 ****         2.5544  -1.9756   2.1720 H              1 S1                 0.0000
     32 ****         1.0122  -2.8248   2.1155 H              1 S1                 0.0000
     33 ****         1.2348  -1.4715   3.2148 H              1 S1                 0.0000
     34 ****         0.9641  -0.5331  -0.9826 H              1 S1                 0.0000
     35 ****        -0.3882  -2.6172  -0.4106 H              1 S1                 0.0000
     36 ****         1.1323  -3.4727  -0.1949 H              1 S1                 0.0000
     37 ****         0.6823  -2.8026  -1.7595 H              1 S1                 0.0000
     38 ****         3.0252   0.7452  -0.8667 H              1 S1                 0.0000
     39 ****         3.3863   0.2228   0.7655 H              1 S1                 0.0000
     40 ****         5.4386   0.9165  -0.4099 H              1 S1                 0.0000
     41 ****         5.5194  -0.7616   0.0934 H              1 S1                 0.0000
     42 ****         4.8669  -1.9664  -3.2646 H              1 S1                 0.0000
     43 ****         5.1732  -2.4928  -1.6196 H              1 S1                 0.0000
     44 ****         2.7889  -2.7113  -2.1594 H              1 S1                 0.0000
     45 ****         2.6755  -1.0310  -2.6388 H              1 S1                 0.0000
     46 ****        -1.1946   2.1037  -0.0490 LP             1 S1                 0.0000
     47 ****         0.3571   1.3488   0.1009 LP             1 S1                 0.0000
     48 ****         3.1840  -2.0228   0.0709 LP             1 S1                 0.0000
     49 ****         6.2128  -0.4775  -2.0979 LP             1 S1                 0.0000
     50 ****         4.8042   0.2281  -2.5276 LP             1 S1                 0.0000
     51 ****        -2.3931   2.6452  -0.0800 LP             1 S1                 0.0000
@<TRIPOS>BOND
    1    1    2 1     
    2    1   22 1     
    3    1   23 1     
    4    1   24 1     
    5    2   21 ar    
    6    2    3 ar    
    7    3    4 ar    
    8    3   25 1     
    9    4    5 ar    
   10    4   26 1     
   11    5    6 ar    
   12    5   27 1     
   13    6    7 1     
   14    6   21 ar    
   15    7    8 am    
   16    7   28 1     
   17    8    9 2     
   18    8   10 am    
   19   10   11 1     
   20   10   29 1     
   21   11   12 1     
   22   11   13 1     
   23   11   30 1     
   24   12   31 1     
   25   12   32 1     
   26   12   33 1     
   27   13   14 1     
   28   13   15 1     
   29   13   34 1     
   30   14   35 1     
   31   14   36 1     
   32   14   37 1     
   33   15   20 1     
   34   15   16 1     
   35   16   17 1     
   36   16   38 1     
   37   16   39 1     
   38   17   18 1     
   39   17   40 1     
   40   17   41 1     
   41   18   19 1     
   42   19   20 1     
   43   19   42 1     
   44   19   43 1     
   45   20   44 1     
   46   20   45 1     
   47    9   46 1     
   48    9   47 1     
   49   15   48 1     
   50   18   49 1     
   51   18   50 1     
   52   21   51 1     
@<TRIPOS>SUBSTRUCTURE
      1 S1             1
@<TRIPOS>SET
LONE_PAIRS      STATIC     ATOMS    <user>   **** ""
6 46 47 48 49 50 51
DONOR_HYDROGENS      STATIC     ATOMS    <user>   **** ""
2 28 29
ATOM$BLUE        STATIC     ATOMS    COLORGROUP SYSTEM
6 46 47 48 49 50 51
ATOM$RED        STATIC     ATOMS    COLORGROUP SYSTEM
2 28 29
