AV-unprocessed.smi:1830|AV-procd|sdf|7432|dock3
  -GOLD-   22720 9113D 1   1.00000     0.00000
 Structure written by MMmdl.
 53 56  0  0  0  0  0  0  0  0  2 V2000
  145.1501  137.9100  152.9644 O   0  0  0  0  0  0  0  0  0  0  0  0
  146.2183  137.3728  152.6716 C   0  0  0  0  0  0  0  0  0  0  0  0
  146.3169  136.2675  151.9206 N   0  0  0  0  0  0  0  0  0  0  0  0
  145.2117  135.6503  151.1923 C   0  0  0  0  0  0  0  0  0  0  0  0
  144.9616  134.1943  151.6404 C   0  0  2  0  0  0  0  0  0  0  0  0
  146.2505  133.4703  152.1131 C   0  0  0  0  0  0  0  0  0  0  0  0
  145.9296  132.0568  152.3796 N   0  3  2  0  0  0  0  0  0  0  0  0
  147.0153  131.1713  152.8372 C   0  0  0  0  0  0  0  0  0  0  0  0
  146.5965  129.7574  152.3860 C   0  0  0  0  0  0  0  0  0  0  0  0
  145.2914  129.9429  151.5932 C   0  0  0  0  0  0  0  0  0  0  0  0
  145.3438  131.4149  151.2009 C   0  0  1  0  0  0  0  0  0  0  0  0
  144.0287  132.1212  150.8542 C   0  0  0  0  0  0  0  0  0  0  0  0
  144.3402  133.4834  150.5624 O   0  0  0  0  0  0  0  0  0  0  0  0
  147.4293  137.8379  153.0143 N   0  0  0  0  0  0  0  0  0  0  0  0
  147.6986  139.1392  153.5121 C   0  0  0  0  0  0  0  0  0  0  0  0
  146.7860  140.1930  153.2728 C   0  0  0  0  0  0  0  0  0  0  0  0
  147.0362  141.4587  153.8295 C   0  0  0  0  0  0  0  0  0  0  0  0
  148.1866  141.6195  154.6199 C   0  0  0  0  0  0  0  0  0  0  0  0
  149.0600  140.6213  154.8631 N   0  0  0  0  0  0  0  0  0  0  0  0
  148.8432  139.3975  154.3205 C   0  0  0  0  0  0  0  0  0  0  0  0
  149.8132  138.4021  154.5895 N   0  0  0  0  0  0  0  0  0  0  0  0
  149.9068  137.7950  155.9134 C   0  0  0  0  0  0  0  0  0  0  0  0
  151.2604  137.0892  155.9347 C   0  0  0  0  0  0  0  0  0  0  0  0
  152.1271  138.0165  155.0891 C   0  0  0  0  0  0  0  0  0  0  0  0
  151.1548  138.5493  154.0335 C   0  0  0  0  0  0  0  0  0  0  0  0
  147.2374  135.8860  151.7583 H   0  0  0  0  0  0  0  0  0  0  0  0
  144.3187  136.2468  151.3798 H   0  0  0  0  0  0  0  0  0  0  0  0
  145.3878  135.6942  150.1163 H   0  0  0  0  0  0  0  0  0  0  0  0
  144.2508  134.2155  152.4681 H   0  0  0  0  0  0  0  0  0  0  0  0
  147.0343  133.5193  151.3574 H   0  0  0  0  0  0  0  0  0  0  0  0
  146.6430  133.9366  153.0172 H   0  0  0  0  0  0  0  0  0  0  0  0
  147.9576  131.4530  152.3653 H   0  0  0  0  0  0  0  0  0  0  0  0
  147.1421  131.2439  153.9176 H   0  0  0  0  0  0  0  0  0  0  0  0
  147.3715  129.3265  151.7508 H   0  0  0  0  0  0  0  0  0  0  0  0
  146.4528  129.0843  153.2317 H   0  0  0  0  0  0  0  0  0  0  0  0
  145.2200  129.2777  150.7320 H   0  0  0  0  0  0  0  0  0  0  0  0
  144.4328  129.7540  152.2391 H   0  0  0  0  0  0  0  0  0  0  0  0
  146.0358  131.5190  150.3623 H   0  0  0  0  0  0  0  0  0  0  0  0
  143.5662  131.6647  149.9792 H   0  0  0  0  0  0  0  0  0  0  0  0
  143.3115  132.0613  151.6743 H   0  0  0  0  0  0  0  0  0  0  0  0
  148.2237  137.3361  152.6452 H   0  0  0  0  0  0  0  0  0  0  0  0
  145.8947  140.0353  152.6834 H   0  0  0  0  0  0  0  0  0  0  0  0
  146.3572  142.2820  153.6636 H   0  0  0  0  0  0  0  0  0  0  0  0
  148.4116  142.5744  155.0713 H   0  0  0  0  0  0  0  0  0  0  0  0
  149.8853  138.5615  156.6893 H   0  0  0  0  0  0  0  0  0  0  0  0
  149.0851  137.1012  156.0923 H   0  0  0  0  0  0  0  0  0  0  0  0
  151.6474  136.9424  156.9432 H   0  0  0  0  0  0  0  0  0  0  0  0
  151.1804  136.1129  155.4545 H   0  0  0  0  0  0  0  0  0  0  0  0
  152.4905  138.8410  155.7037 H   0  0  0  0  0  0  0  0  0  0  0  0
  152.9915  137.5142  154.6545 H   0  0  0  0  0  0  0  0  0  0  0  0
  151.2206  137.9418  153.1313 H   0  0  0  0  0  0  0  0  0  0  0  0
  151.3819  139.5827  153.7685 H   0  0  0  0  0  0  0  0  0  0  0  0
  145.2199  132.0364  153.0979 H   0  0  0  0  0  0  0  0  0  0  0  0
  1  2  2  0  0  0  0
  2  3  1  0  0  0  0
  2 14  1  0  0  0  0
  3  4  1  0  0  0  0
  3 26  1  0  0  0  0
  4  5  1  0  0  0  0
  4 27  1  0  0  0  0
  4 28  1  0  0  0  0
  5 13  1  0  0  0  0
  5  6  1  0  0  0  0
  5 29  1  0  0  0  0
  6  7  1  0  0  0  0
  6 30  1  0  0  0  0
  6 31  1  0  0  0  0
  7 11  1  0  0  0  0
  7  8  1  0  0  0  0
  7 53  1  0  0  0  0
  8  9  1  0  0  0  0
  8 32  1  0  0  0  0
  8 33  1  0  0  0  0
  9 10  1  0  0  0  0
  9 34  1  0  0  0  0
  9 35  1  0  0  0  0
 10 11  1  0  0  0  0
 10 36  1  0  0  0  0
 10 37  1  0  0  0  0
 11 12  1  0  0  0  0
 11 38  1  0  0  0  0
 12 13  1  0  0  0  0
 12 39  1  0  0  0  0
 12 40  1  0  0  0  0
 14 15  1  0  0  0  0
 14 41  1  0  0  0  0
 15 20  1  0  0  0  0
 15 16  2  0  0  0  0
 16 17  1  0  0  0  0
 16 42  1  0  0  0  0
 17 18  2  0  0  0  0
 17 43  1  0  0  0  0
 18 19  1  0  0  0  0
 18 44  1  0  0  0  0
 19 20  2  0  0  0  0
 20 21  1  0  0  0  0
 21 25  1  0  0  0  0
 21 22  1  0  0  0  0
 22 23  1  0  0  0  0
 22 45  1  0  0  0  0
 22 46  1  0  0  0  0
 23 24  1  0  0  0  0
 23 47  1  0  0  0  0
 23 48  1  0  0  0  0
 24 25  1  0  0  0  0
 24 49  1  0  0  0  0
 24 50  1  0  0  0  0
 25 51  1  0  0  0  0
 25 52  1  0  0  0  0
M  CHG  1   7   1
M  END
> <s_m_source_file>
AV-unprocessed.smi

> <i_m_source_file_index>
1830

> <i_lp_mmshare_version>
43012

> <i_f3d_flags>
0

> <s_epik_input>
W0NIMl0xW0NIMl1bQ0gyXVtDQEhdKE4xMilbQ0gyXU9bQ0BASF0oW0NIMl0yKVtDSDJdW05IXUMoPU8pW05IXWMzW2NIXVtjSF1bY0hdbmMzTjRbQ0gyXVtDSDJdW0NIMl1bQ0gyXTQ=

> <s_epik_cmdline>
J2VwaWtfcHl0aG9uJywgJy1waCcsICc3LjAnLCAnLXRuJywgJzgnLCAnLW1hJywgJzIwMCcsICctbWV0YWxfYmluZGluZycsICctaW1hZScsICc8aW5maWxlLm1hZT4nLCAnLW9tYWUnLCAnPG91dGZpbGUubWFlPic=

> <r_lp_tautomer_probability>
1

> <r_epik_Ionization_Penalty>
0.193547

> <r_epik_Ionization_Penalty_Charging>
0.10673

> <r_epik_Ionization_Penalty_Neutral>
0.0868166

> <r_epik_State_Penalty>
0.173595

> <r_epik_Charging_Adjusted_Penalty>
0.280326

> <i_epik_Tot_Q>
1

> <i_epik_Tot_abs_Q>
1

> <r_epik_Metal_State_Penalty>
0.164683

> <b_epik_Metal_Only>
0

> <s_lp_Force_Field>
OPLS_2005

> <r_lp_Energy>
64.1667

> <b_lp_Chiralities_Consistent>
1

> <s_lp_Variant>
AV-unprocessed.smi:1830-1

> <Gold.Version>
5.8.1

> <Gold.Id.Protein>
6NUR|6NUR_protein|mol2

> <Gold.PLP.Fitness>
47.5217

> <Gold.PLP.PLP>
-39.5736

> <Gold.PLP.part.hbond>
-1.8710

> <Gold.PLP.part.metal>
0.0000

> <Gold.PLP.part.buried>
-6.8600

> <Gold.PLP.part.nonpolar>
-33.3293

> <Gold.PLP.part.repulsive>
1.7717

> <Gold.PLP.ligand.clash>
0.0000

> <Gold.PLP.ligand.torsion>
0.6324

> <Gold.PLP.Chemscore.Hbond>
1.9120

> <Gold.PLP.Chemscore.CHOScore>
1.0000

> <Gold.PLP.Chemscore.Metal>
0.0000

> <Gold.Chemscore.Hbonds>
donor molecule, donor type, donor heavy atom, donor atom, acceptor molecule, acceptor atom, score
      L1  H     3    26       P1  7948  0.91
      L1  H    14    41       P1  7948  0.99
      L1  C    18    44       P1  8028  1.00

> <Gold.PLP.Chemscore.Internal.Correction>
0.4769

> <Gold.Rescore>
     Score         DG    S(hbond)    S(metal)    S(lipo)     H(rot)  DE(clash)    DE(int)     intcor
     18.49     -20.64       1.88        0.00     106.69       1.41       0.24       1.91       ----

> <Gold.Chemscore.Fitness>
18.4910

> <Gold.Chemscore.DG>
-20.6438

> <Gold.Chemscore.ZeroCoef>
-5.4800

> <Gold.Chemscore.Hbond>
1.8808

> <Gold.Chemscore.Metal>
0.0000

> <Gold.Chemscore.Lipo>
106.6924

> <Gold.Chemscore.Internal_Hbond>
0.0000

> <Gold.Chemscore.DEClash>
0.2380

> <Gold.Chemscore.DEInternal>
1.9148

> <Gold.Chemscore.Rot>
1.4067

> <Gold.Chemscore.Internal.Correction>
   9.000000E+99

> <Gold.Chemscore.Hbonds>
donor molecule, donor type, donor heavy atom, donor atom, acceptor molecule, acceptor atom, score
      L1  H     3    26       P1  7948  0.88
      L1  H    14    41       P1  7948  0.91

> <Gold.Chemscore.Hbond.Weighted>
-6.2819

> <Gold.Chemscore.Metal.Weighted>
-0.0000

> <Gold.Chemscore.Lipo.Weighted>
-12.4830

> <Gold.Chemscore.Internal_Hbond.Weighted>
0.0000

> <Gold.Chemscore.DEClash.Weighted>
0.2380

> <Gold.Chemscore.DEInternal.Weighted>
1.9148

> <Gold.Chemscore.Rot.Weighted>
3.6011

> <Gold.Chemscore.Internal.Correction.Weighted>
   9.000000E+99

> <Gold.Protein.RotatedTorsions>
[ 6907 6896 6895 6894 ] final -130.64 input  -60.11 | X-H torsion
[ 7974 7965 7964 7962 ] final  111.08 input  175.53 | X-H torsion
[ 8008 7997 7996 7995 ] final  -47.47 input   59.86 | X-H torsion
[ 10167 10162 10161 10158 ] final    5.28 input  -65.29 | X-H torsion
[ 10718 10713 10712 10709 ] final    0.04 input   66.30 | X-H torsion
[ 10763 10752 10751 10750 ] final  -54.99 input  -60.55 | X-H torsion
[ 11005 11000 10999 10996 ] final   67.34 input  -57.11 | X-H torsion

> <Gold.Protein.ActiveResidues>
 VAL166  LYS551  ARG553  GLY616  TRP617  ASP618  TYR619  PRO620  LYS621  CYS622 
 ASP623  PHE694  ASN695  SER759  ASP760  ASP761  ALA762  ILE779  LEU786  VAL792 
 PHE793  MET794  SER795  GLU796  ALA797  LYS798  CYS799  TRP800  GLU811  SER814 

> <Gold.Protein.RotatedAtoms>
  150.9420  133.6645  159.2788 H   0  0  0  0  0  0  0  0  0  0  0  0  # atno 6907 bound_to 6896
  151.4031  135.0973  159.9571 H   0  0  0  0  0  0  0  0  0  0  0  0  # atno 6908 bound_to 6896
  152.5073  133.8910  159.7448 H   0  0  0  0  0  0  0  0  0  0  0  0  # atno 6909 bound_to 6896
  145.2468  139.2756  143.4088 H   0  0  0  0  0  0  0  0  0  0  0  0  # atno 7974 bound_to 7965
  154.4017  140.1345  156.4180 H   0  0  0  0  0  0  0  0  0  0  0  0  # atno 8008 bound_to 7997
  155.7670  140.3485  155.5207 H   0  0  0  0  0  0  0  0  0  0  0  0  # atno 8009 bound_to 7997
  155.8804  140.0986  157.1479 H   0  0  0  0  0  0  0  0  0  0  0  0  # atno 8010 bound_to 7997
  140.6490  143.7591  150.7545 H   0  0  0  0  0  0  0  0  0  0  0  0  # atno 10167 bound_to 10162
  156.8275  130.5477  149.5690 H   0  0  0  0  0  0  0  0  0  0  0  0  # atno 10718 bound_to 10713
  154.1837  135.6439  153.5041 H   0  0  0  0  0  0  0  0  0  0  0  0  # atno 10763 bound_to 10752
  153.0052  135.5412  154.6487 H   0  0  0  0  0  0  0  0  0  0  0  0  # atno 10764 bound_to 10752
  154.5858  135.2929  155.0659 H   0  0  0  0  0  0  0  0  0  0  0  0  # atno 10765 bound_to 10752
  139.9777  134.6795  156.0322 H   0  0  0  0  0  0  0  0  0  0  0  0  # atno 11005 bound_to 11000
  146.3313  140.2847  142.8612 LP  0  0  0  0  0  0  0  0  0  0  0  0  # atno 17320 bound_to 7965
  144.9539  140.8206  143.5555 LP  0  0  0  0  0  0  0  0  0  0  0  0  # atno 17321 bound_to 7965
  140.1238  143.4588  152.2297 LP  0  0  0  0  0  0  0  0  0  0  0  0  # atno 17342 bound_to 10162
  139.5703  144.7459  151.3908 LP  0  0  0  0  0  0  0  0  0  0  0  0  # atno 17343 bound_to 10162
  156.0953  130.5927  150.9803 LP  0  0  0  0  0  0  0  0  0  0  0  0  # atno 17370 bound_to 10713
  157.6424  131.0908  150.8223 LP  0  0  0  0  0  0  0  0  0  0  0  0  # atno 17371 bound_to 10713
  141.1452  133.6557  156.3847 LP  0  0  0  0  0  0  0  0  0  0  0  0  # atno 17394 bound_to 11000
  140.5161  134.6349  157.5301 LP  0  0  0  0  0  0  0  0  0  0  0  0  # atno 17395 bound_to 11000

$$$$
