AV-unprocessed.smi:1997|AV-procd|sdf|8088|dock8
  -GOLD-   2272010303D 1   1.00000     0.00000
 Structure written by MMmdl.
 36 38  0  0  0  0  0  0  0  0  2 V2000
  146.8940  133.0866  157.2396 O   0  0  0  0  0  0  0  0  0  0  0  0
  147.5832  133.9786  156.7391 C   0  0  0  0  0  0  0  0  0  0  0  0
  147.5009  135.3015  157.0086 N   0  5  0  0  0  0  0  0  0  0  0  0
  147.3525  135.7212  158.2758 C   0  0  0  0  0  0  0  0  0  0  0  0
  147.4248  137.0152  158.6180 N   0  0  0  0  0  0  0  0  0  0  0  0
  147.2360  137.2308  159.9756 N   0  0  0  0  0  0  0  0  0  0  0  0
  147.0167  136.0938  160.6403 C   0  0  0  0  0  0  0  0  0  0  0  0
  146.7861  136.0601  162.1142 C   0  0  0  0  0  0  0  0  0  0  0  0
  147.8357  136.5740  163.0727 C   0  0  0  0  0  0  0  0  0  0  0  0
  147.5356  135.0981  163.0101 C   0  0  0  0  0  0  0  0  0  0  0  0
  147.0176  134.6520  159.6373 S   0  0  0  0  0  0  0  0  0  0  0  0
  148.5218  133.6703  155.8310 N   0  0  0  0  0  0  0  0  0  0  0  0
  148.8320  132.3321  155.3225 C   0  0  2  0  0  0  0  0  0  0  0  0
  150.1938  131.8964  155.9203 C   0  0  0  0  0  0  0  0  0  0  0  0
  150.9050  130.7143  155.2238 C   0  0  0  0  0  0  0  0  0  0  0  0
  149.9974  129.5196  154.8661 C   0  0  0  0  0  0  0  0  0  0  0  0
  148.8256  129.8027  153.8903 C   0  0  0  0  0  0  0  0  0  0  0  0
  148.9046  131.0852  153.1910 N   0  0  0  0  0  0  0  0  0  0  0  0
  148.8975  132.2939  153.7787 C   0  0  0  0  0  0  0  0  0  0  0  0
  148.9714  133.3278  153.1156 O   0  0  0  0  0  0  0  0  0  0  0  0
  145.7420  136.2621  162.3444 H   0  0  0  0  0  0  0  0  0  0  0  0
  148.7807  136.9124  162.6523 H   0  0  0  0  0  0  0  0  0  0  0  0
  147.4906  137.1220  163.9467 H   0  0  0  0  0  0  0  0  0  0  0  0
  146.9899  134.6599  163.8431 H   0  0  0  0  0  0  0  0  0  0  0  0
  148.2903  134.4564  162.5596 H   0  0  0  0  0  0  0  0  0  0  0  0
  149.0566  134.4349  155.4465 H   0  0  0  0  0  0  0  0  0  0  0  0
  148.0534  131.6511  155.6686 H   0  0  0  0  0  0  0  0  0  0  0  0
  150.8832  132.7424  155.9267 H   0  0  0  0  0  0  0  0  0  0  0  0
  150.0360  131.6414  156.9689 H   0  0  0  0  0  0  0  0  0  0  0  0
  151.4027  131.0688  154.3199 H   0  0  0  0  0  0  0  0  0  0  0  0
  151.7121  130.3664  155.8692 H   0  0  0  0  0  0  0  0  0  0  0  0
  150.6277  128.7469  154.4248 H   0  0  0  0  0  0  0  0  0  0  0  0
  149.6004  129.0797  155.7815 H   0  0  0  0  0  0  0  0  0  0  0  0
  148.7765  129.0117  153.1417 H   0  0  0  0  0  0  0  0  0  0  0  0
  147.8754  129.7533  154.4238 H   0  0  0  0  0  0  0  0  0  0  0  0
  148.9597  131.0541  152.1834 H   0  0  0  0  0  0  0  0  0  0  0  0
  1  2  2  0  0  0  0
  2  3  1  0  0  0  0
  2 12  1  0  0  0  0
  3  4  1  0  0  0  0
  4 11  1  0  0  0  0
  4  5  2  0  0  0  0
  5  6  1  0  0  0  0
  6  7  2  0  0  0  0
  7  8  1  0  0  0  0
  7 11  1  0  0  0  0
  8 10  1  0  0  0  0
  8  9  1  0  0  0  0
  8 21  1  0  0  0  0
  9 10  1  0  0  0  0
  9 22  1  0  0  0  0
  9 23  1  0  0  0  0
 10 24  1  0  0  0  0
 10 25  1  0  0  0  0
 12 13  1  0  0  0  0
 12 26  1  0  0  0  0
 13 19  1  0  0  0  0
 13 14  1  0  0  0  0
 13 27  1  0  0  0  0
 14 15  1  0  0  0  0
 14 28  1  0  0  0  0
 14 29  1  0  0  0  0
 15 16  1  0  0  0  0
 15 30  1  0  0  0  0
 15 31  1  0  0  0  0
 16 17  1  0  0  0  0
 16 32  1  0  0  0  0
 16 33  1  0  0  0  0
 17 18  1  0  0  0  0
 17 34  1  0  0  0  0
 17 35  1  0  0  0  0
 18 19  1  0  0  0  0
 18 36  1  0  0  0  0
 19 20  2  0  0  0  0
M  CHG  1   3  -1
M  END
> <s_m_source_file>
AV-unprocessed.smi

> <i_m_source_file_index>
1997

> <i_lp_mmshare_version>
43012

> <i_f3d_flags>
0

> <s_epik_input>
W0NIMl0xW0NIMl1bQ0hdMWMoczIpbm5jMltOSF1DKD1PKVtOSF1bQ0BASF0zW0NIMl1bQ0gyXVtDSDJdW0NIMl1bTkhdQzM9Tw==

> <s_epik_cmdline>
J2VwaWtfcHl0aG9uJywgJy1waCcsICc3LjAnLCAnLXRuJywgJzgnLCAnLW1hJywgJzIwMCcsICctbWV0YWxfYmluZGluZycsICctaW1hZScsICc8aW5maWxlLm1hZT4nLCAnLW9tYWUnLCAnPG91dGZpbGUubWFlPic=

> <r_lp_tautomer_probability>
1

> <r_epik_Ionization_Penalty>
4.47229

> <r_epik_Ionization_Penalty_Charging>
4.32584

> <r_epik_Ionization_Penalty_Neutral>
0.146443

> <r_epik_State_Penalty>
4.32544

> <r_epik_Charging_Adjusted_Penalty>
8.65129

> <i_epik_Tot_Q>
-1

> <i_epik_Tot_abs_Q>
1

> <r_epik_Metal_State_Penalty>
0.738743

> <b_epik_Metal_Only>
1

> <s_lp_Force_Field>
OPLS_2005

> <r_lp_Energy>
12.6103

> <b_lp_Chiralities_Consistent>
1

> <s_lp_Variant>
AV-unprocessed.smi:1997-3

> <Gold.Version>
5.8.1

> <Gold.Id.Protein>
6NUR|6NUR_protein|mol2

> <Gold.PLP.Fitness>
32.1873

> <Gold.PLP.PLP>
-27.2377

> <Gold.PLP.part.hbond>
-2.0000

> <Gold.PLP.part.metal>
0.0000

> <Gold.PLP.part.buried>
-2.0972

> <Gold.PLP.part.nonpolar>
-23.2295

> <Gold.PLP.part.repulsive>
0.3881

> <Gold.PLP.ligand.clash>
0.0000

> <Gold.PLP.ligand.torsion>
0.5911

> <Gold.PLP.Chemscore.Hbond>
2.0000

> <Gold.PLP.Chemscore.CHOScore>
0.0000

> <Gold.PLP.Chemscore.Metal>
0.0000

> <Gold.Chemscore.Hbonds>
donor molecule, donor type, donor heavy atom, donor atom, acceptor molecule, acceptor atom, score
      L1  H    18    36       P1 10747  1.00
      P1  H  6934  6947       L1     6  1.00

> <Gold.PLP.Chemscore.Internal.Correction>
0.1317

> <Gold.Rescore>
     Score         DG    S(hbond)    S(metal)    S(lipo)     H(rot)  DE(clash)    DE(int)     intcor
     13.91     -15.95       1.88        0.00      63.52       1.27       0.18       1.86       ----

> <Gold.Chemscore.Fitness>
13.9121

> <Gold.Chemscore.DG>
-15.9456

> <Gold.Chemscore.ZeroCoef>
-5.4800

> <Gold.Chemscore.Hbond>
1.8846

> <Gold.Chemscore.Metal>
0.0000

> <Gold.Chemscore.Lipo>
63.5208

> <Gold.Chemscore.Internal_Hbond>
0.0000

> <Gold.Chemscore.DEClash>
0.1777

> <Gold.Chemscore.DEInternal>
1.8559

> <Gold.Chemscore.Rot>
1.2738

> <Gold.Chemscore.Internal.Correction>
   9.000000E+99

> <Gold.Chemscore.Hbonds>
donor molecule, donor type, donor heavy atom, donor atom, acceptor molecule, acceptor atom, score
      L1  H    18    36       P1 10747  0.55
      P1  H  6934  6947       L1     6  0.89

> <Gold.Chemscore.Hbond.Weighted>
-6.2946

> <Gold.Chemscore.Metal.Weighted>
-0.0000

> <Gold.Chemscore.Lipo.Weighted>
-7.4319

> <Gold.Chemscore.Internal_Hbond.Weighted>
0.0000

> <Gold.Chemscore.DEClash.Weighted>
0.1777

> <Gold.Chemscore.DEInternal.Weighted>
1.8559

> <Gold.Chemscore.Rot.Weighted>
3.2610

> <Gold.Chemscore.Internal.Correction.Weighted>
   9.000000E+99

> <Gold.Protein.RotatedTorsions>
[ 6907 6896 6895 6894 ] final   64.14 input  -60.11 | X-H torsion
[ 7974 7965 7964 7962 ] final  147.81 input  175.53 | X-H torsion
[ 8008 7997 7996 7995 ] final  119.25 input   59.86 | X-H torsion
[ 10167 10162 10161 10158 ] final   93.84 input  -65.29 | X-H torsion
[ 10718 10713 10712 10709 ] final    9.64 input   66.30 | X-H torsion
[ 10763 10752 10751 10750 ] final   74.86 input  -60.55 | X-H torsion
[ 11005 11000 10999 10996 ] final   79.42 input  -57.11 | X-H torsion

> <Gold.Protein.ActiveResidues>
 VAL166  LYS551  ARG553  GLY616  TRP617  ASP618  TYR619  PRO620  LYS621  CYS622 
 ASP623  PHE694  ASN695  SER759  ASP760  ASP761  ALA762  ILE779  LEU786  VAL792 
 PHE793  MET794  SER795  GLU796  ALA797  LYS798  CYS799  TRP800  GLU811  SER814 

> <Gold.Protein.RotatedAtoms>
  152.4308  134.5781  159.9939 H   0  0  0  0  0  0  0  0  0  0  0  0  # atno 6907 bound_to 6896
  151.5904  133.3361  159.3034 H   0  0  0  0  0  0  0  0  0  0  0  0  # atno 6908 bound_to 6896
  150.8201  134.7440  159.6829 H   0  0  0  0  0  0  0  0  0  0  0  0  # atno 6909 bound_to 6896
  144.8562  139.6075  143.5951 H   0  0  0  0  0  0  0  0  0  0  0  0  # atno 7974 bound_to 7965
  156.2586  140.2857  156.0962 H   0  0  0  0  0  0  0  0  0  0  0  0  # atno 8008 bound_to 7997
  155.1409  140.0395  157.2816 H   0  0  0  0  0  0  0  0  0  0  0  0  # atno 8009 bound_to 7997
  154.6530  140.2549  155.7199 H   0  0  0  0  0  0  0  0  0  0  0  0  # atno 8010 bound_to 7997
  139.8141  144.6760  150.9602 H   0  0  0  0  0  0  0  0  0  0  0  0  # atno 10167 bound_to 10162
  156.9693  130.5963  149.5667 H   0  0  0  0  0  0  0  0  0  0  0  0  # atno 10718 bound_to 10713
  153.0615  135.5010  154.8105 H   0  0  0  0  0  0  0  0  0  0  0  0  # atno 10763 bound_to 10752
  154.6890  135.2981  154.9508 H   0  0  0  0  0  0  0  0  0  0  0  0  # atno 10764 bound_to 10752
  154.0269  135.6734  153.4830 H   0  0  0  0  0  0  0  0  0  0  0  0  # atno 10765 bound_to 10752
  139.9173  134.7841  156.1777 H   0  0  0  0  0  0  0  0  0  0  0  0  # atno 11005 bound_to 11000
  146.2825  139.6915  142.9219 LP  0  0  0  0  0  0  0  0  0  0  0  0  # atno 17320 bound_to 7965
  145.4401  141.0422  143.2862 LP  0  0  0  0  0  0  0  0  0  0  0  0  # atno 17321 bound_to 7965
  140.7816  143.4156  151.0923 LP  0  0  0  0  0  0  0  0  0  0  0  0  # atno 17342 bound_to 10162
  139.7820  143.8341  152.3139 LP  0  0  0  0  0  0  0  0  0  0  0  0  # atno 17343 bound_to 10162
  156.0289  130.5382  150.8482 LP  0  0  0  0  0  0  0  0  0  0  0  0  # atno 17370 bound_to 10713
  157.5604  131.0946  150.9568 LP  0  0  0  0  0  0  0  0  0  0  0  0  # atno 17371 bound_to 10713
  141.0661  133.6818  156.2048 LP  0  0  0  0  0  0  0  0  0  0  0  0  # atno 17394 bound_to 11000
  140.6582  134.4995  157.5582 LP  0  0  0  0  0  0  0  0  0  0  0  0  # atno 17395 bound_to 11000

$$$$
