AV-unprocessed.smi:910|AV-procd|sdf|4127|dock5
  -GOLD-   22720 2 33D 1   1.00000     0.00000
 Structure written by MMmdl.
 46 47  0  0  0  0  0  0  0  0  1 V2000
  154.3230  132.0290  163.6409 C   0  0  0  0  0  0  0  0  0  0  0  0
  154.1615  133.4874  164.0089 C   0  0  0  0  0  0  0  0  0  0  0  0
  154.0336  134.4652  163.0616 N   0  0  0  0  0  0  0  0  0  0  0  0
  153.9020  135.6895  163.7128 C   0  0  0  0  0  0  0  0  0  0  0  0
  153.7547  136.9065  163.2864 N   0  0  0  0  0  0  0  0  0  0  0  0
  153.6848  137.1595  161.9239 C   0  0  0  0  0  0  0  0  0  0  0  0
  153.4653  136.3630  161.0057 O   0  0  0  0  0  0  0  0  0  0  0  0
  153.9177  138.4584  161.6853 N   0  0  0  0  0  0  0  0  0  0  0  0
  153.9584  139.0875  160.3690 C   0  0  0  0  0  0  0  0  0  0  0  0
  154.0942  140.6134  160.4727 C   0  0  0  0  0  0  0  0  0  0  0  0
  153.0608  141.2177  159.7093 O   0  0  0  0  0  0  0  0  0  0  0  0
  153.1836  142.6263  159.5602 C   0  0  1  0  0  0  0  0  0  0  0  0
  152.6025  143.0512  158.1954 C   0  0  0  0  0  0  0  0  0  0  0  0
  152.5820  144.5791  158.0427 C   0  0  0  0  0  0  0  0  0  0  0  0
  151.8090  145.2363  159.1946 C   0  0  0  0  0  0  0  0  0  0  0  0
  152.3902  144.8239  160.5556 C   0  0  0  0  0  0  0  0  0  0  0  0
  152.4180  143.2914  160.7263 C   0  0  2  0  0  0  0  0  0  0  0  0
  153.0165  142.9070  162.0901 C   0  0  0  0  0  0  0  0  0  0  0  0
  153.9585  135.4154  165.0563 O   0  0  0  0  0  0  0  0  0  0  0  0
  154.1143  134.0701  165.2040 C   0  0  0  0  0  0  0  0  0  0  0  0
  154.2044  133.4969  166.6001 C   0  0  0  0  0  0  0  0  0  0  0  0
  155.2593  131.6405  164.0421 H   0  0  0  0  0  0  0  0  0  0  0  0
  154.3313  131.8972  162.5586 H   0  0  0  0  0  0  0  0  0  0  0  0
  153.5012  131.4428  164.0528 H   0  0  0  0  0  0  0  0  0  0  0  0
  154.0368  134.2844  162.0681 H   0  0  0  0  0  0  0  0  0  0  0  0
  154.0995  139.0564  162.4785 H   0  0  0  0  0  0  0  0  0  0  0  0
  154.7810  138.6734  159.7840 H   0  0  0  0  0  0  0  0  0  0  0  0
  153.0412  138.8326  159.8375 H   0  0  0  0  0  0  0  0  0  0  0  0
  154.0331  140.9283  161.5155 H   0  0  0  0  0  0  0  0  0  0  0  0
  155.0709  140.9202  160.0980 H   0  0  0  0  0  0  0  0  0  0  0  0
  154.2315  142.9269  159.6223 H   0  0  0  0  0  0  0  0  0  0  0  0
  153.1811  142.6163  157.3808 H   0  0  0  0  0  0  0  0  0  0  0  0
  151.5879  142.6631  158.0942 H   0  0  0  0  0  0  0  0  0  0  0  0
  153.6042  144.9593  158.0225 H   0  0  0  0  0  0  0  0  0  0  0  0
  152.1306  144.8515  157.0883 H   0  0  0  0  0  0  0  0  0  0  0  0
  151.8389  146.3214  159.0912 H   0  0  0  0  0  0  0  0  0  0  0  0
  150.7580  144.9488  159.1420 H   0  0  0  0  0  0  0  0  0  0  0  0
  153.4005  145.2238  160.6532 H   0  0  0  0  0  0  0  0  0  0  0  0
  151.8016  145.2772  161.3541 H   0  0  0  0  0  0  0  0  0  0  0  0
  151.3874  142.9338  160.7039 H   0  0  0  0  0  0  0  0  0  0  0  0
  154.0579  143.2213  162.1689 H   0  0  0  0  0  0  0  0  0  0  0  0
  152.9832  141.8289  162.2501 H   0  0  0  0  0  0  0  0  0  0  0  0
  152.4653  143.3747  162.9063 H   0  0  0  0  0  0  0  0  0  0  0  0
  153.6682  132.5494  166.6590 H   0  0  0  0  0  0  0  0  0  0  0  0
  153.7684  134.1853  167.3240 H   0  0  0  0  0  0  0  0  0  0  0  0
  155.2463  133.3237  166.8695 H   0  0  0  0  0  0  0  0  0  0  0  0
  1 22  1  0  0  0  0
  1 23  1  0  0  0  0
  1 24  1  0  0  0  0
  1  2  1  0  0  0  0
  2  3  1  0  0  0  0
  2 20  2  0  0  0  0
  3 25  1  0  0  0  0
  3  4  1  0  0  0  0
  4 19  1  0  0  0  0
  4  5  2  0  0  0  0
  5  6  1  0  0  0  0
  6  8  1  0  0  0  0
  6  7  2  0  0  0  0
  8  9  1  0  0  0  0
  8 26  1  0  0  0  0
  9 10  1  0  0  0  0
  9 27  1  0  0  0  0
  9 28  1  0  0  0  0
 10 11  1  0  0  0  0
 10 29  1  0  0  0  0
 10 30  1  0  0  0  0
 11 12  1  0  0  0  0
 12 17  1  0  0  0  0
 12 13  1  0  0  0  0
 12 31  1  0  0  0  0
 13 14  1  0  0  0  0
 13 32  1  0  0  0  0
 13 33  1  0  0  0  0
 14 15  1  0  0  0  0
 14 34  1  0  0  0  0
 14 35  1  0  0  0  0
 15 16  1  0  0  0  0
 15 36  1  0  0  0  0
 15 37  1  0  0  0  0
 16 17  1  0  0  0  0
 16 38  1  0  0  0  0
 16 39  1  0  0  0  0
 17 18  1  0  0  0  0
 17 40  1  0  0  0  0
 18 41  1  0  0  0  0
 18 42  1  0  0  0  0
 18 43  1  0  0  0  0
 19 20  1  0  0  0  0
 20 21  1  0  0  0  0
 21 44  1  0  0  0  0
 21 45  1  0  0  0  0
 21 46  1  0  0  0  0
M  END
> <s_m_source_file>
AV-unprocessed.smi

> <i_m_source_file_index>
910

> <i_lp_mmshare_version>
43012

> <i_f3d_flags>
0

> <s_epik_input>
W0NIM11jMW5jKG9jMVtDSDNdKVtOSF1DKD1PKVtOSF1bQ0gyXVtDSDJdT1tDQEBIXTJbQ0gyXVtDSDJdW0NIMl1bQ0gyXVtDQEhdMltDSDNd

> <s_epik_cmdline>
J2VwaWtfcHl0aG9uJywgJy1waCcsICc3LjAnLCAnLXRuJywgJzgnLCAnLW1hJywgJzIwMCcsICctbWV0YWxfYmluZGluZycsICctaW1hZScsICc8aW5maWxlLm1hZT4nLCAnLW9tYWUnLCAnPG91dGZpbGUubWFlPic=

> <r_lp_tautomer_probability>
0.107061

> <r_epik_Ionization_Penalty>
0.727192

> <r_epik_Ionization_Penalty_Charging>
0.726719

> <r_epik_Ionization_Penalty_Neutral>
0.000473387

> <r_epik_State_Penalty>
2.53712

> <r_epik_Charging_Adjusted_Penalty>
3.26383

> <i_epik_Tot_Q>
0

> <i_epik_Tot_abs_Q>
0

> <r_epik_Metal_State_Penalty>
3.71015

> <b_epik_Metal_Only>
0

> <s_lp_Force_Field>
OPLS_2005

> <r_lp_Energy>
31.2477

> <b_lp_Chiralities_Consistent>
1

> <s_lp_Variant>
AV-unprocessed.smi:910-12

> <Gold.Version>
5.8.1

> <Gold.Id.Protein>
6NUR|6NUR_protein|mol2

> <Gold.PLP.Fitness>
47.3682

> <Gold.PLP.PLP>
-46.6582

> <Gold.PLP.part.hbond>
-0.7577

> <Gold.PLP.part.metal>
0.0000

> <Gold.PLP.part.buried>
-7.3031

> <Gold.PLP.part.nonpolar>
-38.9577

> <Gold.PLP.part.repulsive>
0.1655

> <Gold.PLP.ligand.clash>
0.0000

> <Gold.PLP.ligand.torsion>
0.8686

> <Gold.PLP.Chemscore.Hbond>
0.8125

> <Gold.PLP.Chemscore.CHOScore>
0.0000

> <Gold.PLP.Chemscore.Metal>
0.0000

> <Gold.Chemscore.Hbonds>
donor molecule, donor type, donor heavy atom, donor atom, acceptor molecule, acceptor atom, score
      P1  H  6896  6909       L1     7  0.80

> <Gold.PLP.Chemscore.Internal.Correction>
0.0098

> <Gold.Rescore>
     Score         DG    S(hbond)    S(metal)    S(lipo)     H(rot)  DE(clash)    DE(int)     intcor
     16.05     -18.39       0.96        0.00     119.15       1.66       0.03       2.32       ----

> <Gold.Chemscore.Fitness>
16.0457

> <Gold.Chemscore.DG>
-18.3934

> <Gold.Chemscore.ZeroCoef>
-5.4800

> <Gold.Chemscore.Hbond>
0.9631

> <Gold.Chemscore.Metal>
0.0000

> <Gold.Chemscore.Lipo>
119.1456

> <Gold.Chemscore.Internal_Hbond>
0.0000

> <Gold.Chemscore.DEClash>
0.0310

> <Gold.Chemscore.DEInternal>
2.3166

> <Gold.Chemscore.Rot>
1.6576

> <Gold.Chemscore.Internal.Correction>
   9.000000E+99

> <Gold.Chemscore.Hbonds>
donor molecule, donor type, donor heavy atom, donor atom, acceptor molecule, acceptor atom, score
      P1  H  6896  6909       L1     7  0.78

> <Gold.Chemscore.Hbond.Weighted>
-3.2169

> <Gold.Chemscore.Metal.Weighted>
-0.0000

> <Gold.Chemscore.Lipo.Weighted>
-13.9400

> <Gold.Chemscore.Internal_Hbond.Weighted>
0.0000

> <Gold.Chemscore.DEClash.Weighted>
0.0310

> <Gold.Chemscore.DEInternal.Weighted>
2.3166

> <Gold.Chemscore.Rot.Weighted>
4.2436

> <Gold.Chemscore.Internal.Correction.Weighted>
   9.000000E+99

> <Gold.Protein.RotatedTorsions>
[ 6907 6896 6895 6894 ] final  159.55 input  -60.11 | X-H torsion
[ 7974 7965 7964 7962 ] final   77.86 input  175.53 | X-H torsion
[ 8008 7997 7996 7995 ] final  -81.71 input   59.86 | X-H torsion
[ 10167 10162 10161 10158 ] final  145.93 input  -65.29 | X-H torsion
[ 10718 10713 10712 10709 ] final  140.80 input   66.30 | X-H torsion
[ 10763 10752 10751 10750 ] final  120.76 input  -60.55 | X-H torsion
[ 11005 11000 10999 10996 ] final  106.64 input  -57.11 | X-H torsion

> <Gold.Protein.ActiveResidues>
 VAL166  LYS551  ARG553  GLY616  TRP617  ASP618  TYR619  PRO620  LYS621  CYS622 
 ASP623  PHE694  ASN695  SER759  ASP760  ASP761  ALA762  ILE779  LEU786  VAL792 
 PHE793  MET794  SER795  GLU796  ALA797  LYS798  CYS799  TRP800  GLU811  SER814 

> <Gold.Protein.RotatedAtoms>
  151.9838  133.3767  159.4117 H   0  0  0  0  0  0  0  0  0  0  0  0  # atno 6907 bound_to 6896
  150.6931  134.4010  159.5128 H   0  0  0  0  0  0  0  0  0  0  0  0  # atno 6908 bound_to 6896
  152.1733  134.8816  160.0583 H   0  0  0  0  0  0  0  0  0  0  0  0  # atno 6909 bound_to 6896
  145.6846  139.2534  143.1794 H   0  0  0  0  0  0  0  0  0  0  0  0  # atno 7974 bound_to 7965
  154.6011  140.0644  156.9370 H   0  0  0  0  0  0  0  0  0  0  0  0  # atno 8008 bound_to 7997
  155.2130  140.3324  155.4308 H   0  0  0  0  0  0  0  0  0  0  0  0  # atno 8009 bound_to 7997
  156.2319  140.1845  156.7204 H   0  0  0  0  0  0  0  0  0  0  0  0  # atno 8010 bound_to 7997
  139.4916  144.5866  151.6765 H   0  0  0  0  0  0  0  0  0  0  0  0  # atno 10167 bound_to 10162
  157.3992  131.1014  151.0569 H   0  0  0  0  0  0  0  0  0  0  0  0  # atno 10718 bound_to 10713
  153.6035  135.3443  155.2953 H   0  0  0  0  0  0  0  0  0  0  0  0  # atno 10763 bound_to 10752
  154.8632  135.4233  154.2387 H   0  0  0  0  0  0  0  0  0  0  0  0  # atno 10764 bound_to 10752
  153.3221  135.7039  153.7093 H   0  0  0  0  0  0  0  0  0  0  0  0  # atno 10765 bound_to 10752
  139.8817  134.9376  156.5698 H   0  0  0  0  0  0  0  0  0  0  0  0  # atno 11005 bound_to 11000
  146.0935  140.7628  142.9584 LP  0  0  0  0  0  0  0  0  0  0  0  0  # atno 17320 bound_to 7965
  144.7015  140.3674  143.7152 LP  0  0  0  0  0  0  0  0  0  0  0  0  # atno 17321 bound_to 7965
  140.5484  144.0466  150.6116 LP  0  0  0  0  0  0  0  0  0  0  0  0  # atno 17342 bound_to 10162
  140.3512  143.2962  152.0485 LP  0  0  0  0  0  0  0  0  0  0  0  0  # atno 17343 bound_to 10162
  157.1574  130.6210  149.5600 LP  0  0  0  0  0  0  0  0  0  0  0  0  # atno 17370 bound_to 10713
  155.9818  130.4828  150.6850 LP  0  0  0  0  0  0  0  0  0  0  0  0  # atno 17371 bound_to 10713
  140.8107  133.8431  155.8807 LP  0  0  0  0  0  0  0  0  0  0  0  0  # atno 17394 bound_to 11000
  140.9509  134.1780  157.4728 LP  0  0  0  0  0  0  0  0  0  0  0  0  # atno 17395 bound_to 11000

$$$$
