AV-unprocessed.smi:26|AV-procd|sdf|184|dock6
  -GOLD-   2262015443D 1   1.00000     0.00000
 Structure written by MMmdl.
 58 61  0  0  0  0  0  0  0  0  1 V2000
  146.1946  138.7494  154.1208 C   0  0  0  0  0  0  0  0  0  0  0  0
  147.4181  137.9707  154.4866 C   0  0  0  0  0  0  0  0  0  0  0  0
  148.6844  138.4246  154.7046 C   0  0  0  0  0  0  0  0  0  0  0  0
  149.5057  137.3195  155.0511 C   0  0  0  0  0  0  0  0  0  0  0  0
  150.9560  137.3013  155.3591 C   0  0  0  0  0  0  0  0  0  0  0  0
  151.5222  136.3212  155.8422 O   0  0  0  0  0  0  0  0  0  0  0  0
  151.7541  138.5854  155.0802 C   0  0  0  0  0  0  0  0  0  0  0  0
  151.8819  139.3997  156.2836 N   0  0  0  0  0  0  0  0  0  0  0  0
  152.6142  138.8725  157.3784 C   0  0  0  0  0  0  0  0  0  0  0  0
  153.1111  137.7458  157.3576 O   0  0  0  0  0  0  0  0  0  0  0  0
  152.7287  139.7704  158.5223 C   0  0  0  0  0  0  0  0  0  0  0  0
  153.3941  139.3684  159.6182 F   0  0  0  0  0  0  0  0  0  0  0  0
  152.1767  141.0020  158.5012 C   0  0  0  0  0  0  0  0  0  0  0  0
  151.4760  141.4967  157.4150 N   0  0  0  0  0  0  0  0  0  0  0  0
  150.8728  142.8831  157.4394 C   0  0  1  0  0  0  0  0  0  0  0  0
  150.0128  143.0651  158.6950 C   0  0  0  0  0  0  0  0  0  0  0  0
  150.9792  143.7444  159.6412 C   0  0  0  0  0  0  0  0  0  0  0  0
  151.7966  144.6006  158.6817 C   0  0  0  0  0  0  0  0  0  0  0  0
  151.9038  143.8272  157.4902 O   0  0  0  0  0  0  0  0  0  0  0  0
  151.2977  140.6908  156.2696 C   0  0  0  0  0  0  0  0  0  0  0  0
  150.6569  141.1045  155.3005 O   0  0  0  0  0  0  0  0  0  0  0  0
  148.7173  136.1932  155.0245 C   0  0  0  0  0  0  0  0  0  0  0  0
  149.0734  134.7644  155.3286 C   0  0  0  0  0  0  0  0  0  0  0  0
  147.4224  136.5882  154.6609 N   0  0  0  0  0  0  0  0  0  0  0  0
  146.2335  135.7335  154.5207 C   0  0  2  0  0  0  0  0  0  0  0  0
  145.9530  134.9602  155.8243 C   0  0  0  0  0  0  0  0  0  0  0  0
  146.2531  134.9009  153.2359 C   0  0  0  0  0  0  0  0  0  0  0  0
  145.3708  135.2445  152.1872 C   0  0  0  0  0  0  0  0  0  0  0  0
  145.3550  134.5026  150.9906 C   0  0  0  0  0  0  0  0  0  0  0  0
  146.2201  133.4042  150.8319 C   0  0  0  0  0  0  0  0  0  0  0  0
  147.0986  133.0487  151.8720 C   0  0  0  0  0  0  0  0  0  0  0  0
  147.1145  133.7902  153.0693 C   0  0  0  0  0  0  0  0  0  0  0  0
  146.4004  139.8202  154.1262 H   0  0  0  0  0  0  0  0  0  0  0  0
  145.3861  138.5655  154.8286 H   0  0  0  0  0  0  0  0  0  0  0  0
  145.8469  138.4841  153.1223 H   0  0  0  0  0  0  0  0  0  0  0  0
  148.9883  139.4580  154.6267 H   0  0  0  0  0  0  0  0  0  0  0  0
  152.7612  138.3553  154.7284 H   0  0  0  0  0  0  0  0  0  0  0  0
  151.3059  139.1880  154.2901 H   0  0  0  0  0  0  0  0  0  0  0  0
  152.2923  141.6181  159.3804 H   0  0  0  0  0  0  0  0  0  0  0  0
  150.3217  142.9986  156.5052 H   0  0  0  0  0  0  0  0  0  0  0  0
  149.1830  143.7304  158.4539 H   0  0  0  0  0  0  0  0  0  0  0  0
  149.6130  142.1209  159.0672 H   0  0  0  0  0  0  0  0  0  0  0  0
  150.4822  144.3288  160.4158 H   0  0  0  0  0  0  0  0  0  0  0  0
  151.6167  143.0047  160.1266 H   0  0  0  0  0  0  0  0  0  0  0  0
  151.2655  145.5255  158.4527 H   0  0  0  0  0  0  0  0  0  0  0  0
  152.7774  144.8609  159.0798 H   0  0  0  0  0  0  0  0  0  0  0  0
  149.3353  134.2291  154.4160 H   0  0  0  0  0  0  0  0  0  0  0  0
  148.2595  134.2321  155.8141 H   0  0  0  0  0  0  0  0  0  0  0  0
  149.9218  134.6995  156.0085 H   0  0  0  0  0  0  0  0  0  0  0  0
  145.3714  136.3829  154.3767 H   0  0  0  0  0  0  0  0  0  0  0  0
  145.0035  134.4272  155.7689 H   0  0  0  0  0  0  0  0  0  0  0  0
  145.8880  135.6444  156.6708 H   0  0  0  0  0  0  0  0  0  0  0  0
  146.7313  134.2349  156.0570 H   0  0  0  0  0  0  0  0  0  0  0  0
  144.7027  136.0862  152.2988 H   0  0  0  0  0  0  0  0  0  0  0  0
  144.6791  134.7768  150.1943 H   0  0  0  0  0  0  0  0  0  0  0  0
  146.2092  132.8349  149.9142 H   0  0  0  0  0  0  0  0  0  0  0  0
  147.7627  132.2055  151.7516 H   0  0  0  0  0  0  0  0  0  0  0  0
  147.8014  133.4947  153.8473 H   0  0  0  0  0  0  0  0  0  0  0  0
  1  2  1  0  0  0  0
  1 33  1  0  0  0  0
  1 34  1  0  0  0  0
  1 35  1  0  0  0  0
  2 24  1  0  0  0  0
  2  3  2  0  0  0  0
  3  4  1  0  0  0  0
  3 36  1  0  0  0  0
  4  5  1  0  0  0  0
  4 22  2  0  0  0  0
  5  6  2  0  0  0  0
  5  7  1  0  0  0  0
  7  8  1  0  0  0  0
  7 37  1  0  0  0  0
  7 38  1  0  0  0  0
  8 20  1  0  0  0  0
  8  9  1  0  0  0  0
  9 10  2  0  0  0  0
  9 11  1  0  0  0  0
 11 12  1  0  0  0  0
 11 13  2  0  0  0  0
 13 14  1  0  0  0  0
 13 39  1  0  0  0  0
 14 15  1  0  0  0  0
 14 20  1  0  0  0  0
 15 19  1  0  0  0  0
 15 16  1  0  0  0  0
 15 40  1  0  0  0  0
 16 17  1  0  0  0  0
 16 41  1  0  0  0  0
 16 42  1  0  0  0  0
 17 18  1  0  0  0  0
 17 43  1  0  0  0  0
 17 44  1  0  0  0  0
 18 19  1  0  0  0  0
 18 45  1  0  0  0  0
 18 46  1  0  0  0  0
 20 21  2  0  0  0  0
 22 23  1  0  0  0  0
 22 24  1  0  0  0  0
 23 47  1  0  0  0  0
 23 48  1  0  0  0  0
 23 49  1  0  0  0  0
 24 25  1  0  0  0  0
 25 26  1  0  0  0  0
 25 27  1  0  0  0  0
 25 50  1  0  0  0  0
 26 51  1  0  0  0  0
 26 52  1  0  0  0  0
 26 53  1  0  0  0  0
 27 32  1  0  0  0  0
 27 28  2  0  0  0  0
 28 29  1  0  0  0  0
 28 54  1  0  0  0  0
 29 30  2  0  0  0  0
 29 55  1  0  0  0  0
 30 31  1  0  0  0  0
 30 56  1  0  0  0  0
 31 32  2  0  0  0  0
 31 57  1  0  0  0  0
 32 58  1  0  0  0  0
M  END
> <s_m_source_file>
AV-unprocessed.smi

> <i_m_source_file_index>
26

> <i_lp_mmshare_version>
43012

> <i_f3d_flags>
0

> <s_epik_input>
W2NIXTFbY0hdW2NIXVtjSF1bY0hdYzFbQ0BASF0oW0NIM10pbjJjKFtDSDNdKWMoW2NIXWMyW0NIM10pQyg9TylbQ0gyXW4zYyg9TyljKEYpW2NIXW4oYzM9TylbQ0BASF00W0NIMl1bQ0gyXVtDSDJdTzQ=

> <s_epik_cmdline>
J2VwaWtfcHl0aG9uJywgJy1waCcsICc3LjAnLCAnLXRuJywgJzgnLCAnLW1hJywgJzIwMCcsICctbWV0YWxfYmluZGluZycsICctaW1hZScsICc8aW5maWxlLm1hZT4nLCAnLW9tYWUnLCAnPG91dGZpbGUubWFlPic=

> <r_lp_tautomer_probability>
1

> <r_epik_Ionization_Penalty>
5.02402e-09

> <r_epik_Ionization_Penalty_Charging>
5.01743e-09

> <r_epik_Ionization_Penalty_Neutral>
6.58831e-12

> <r_epik_State_Penalty>
-0

> <r_epik_Charging_Adjusted_Penalty>
5.01743e-09

> <i_epik_Tot_Q>
0

> <i_epik_Tot_abs_Q>
0

> <r_epik_Metal_State_Penalty>
-0

> <b_epik_Metal_Only>
0

> <s_epik_Chemistry_Notes>
This compound contains an acetal/aminal-like group ( X-CH(R)-Y where X, Y are N, S, or O) that may be acid/base labile, releasing an aldehyde.

> <s_lp_Force_Field>
OPLS_2005

> <r_lp_Energy>
51.2992

> <b_lp_Chiralities_Consistent>
1

> <s_lp_Variant>
AV-unprocessed.smi:26-2

> <Gold.Version>
5.8.1

> <Gold.Id.Protein>
6NUR|6NUR_protein|mol2

> <Gold.PLP.Fitness>
47.6050

> <Gold.PLP.PLP>
-43.9280

> <Gold.PLP.part.hbond>
-2.0000

> <Gold.PLP.part.metal>
0.0000

> <Gold.PLP.part.buried>
-2.7291

> <Gold.PLP.part.nonpolar>
-38.9395

> <Gold.PLP.part.repulsive>
0.2029

> <Gold.PLP.ligand.clash>
0.0000

> <Gold.PLP.ligand.torsion>
0.8257

> <Gold.PLP.Chemscore.Hbond>
1.6720

> <Gold.PLP.Chemscore.CHOScore>
0.0000

> <Gold.PLP.Chemscore.Metal>
0.0000

> <Gold.Chemscore.Hbonds>
donor molecule, donor type, donor heavy atom, donor atom, acceptor molecule, acceptor atom, score
      P1  H  7989  7998       L1    21  0.64
      P1  H 10752 10764       L1     6  1.00

> <Gold.PLP.Chemscore.Internal.Correction>
0.3124

> <Gold.Rescore>
     Score         DG    S(hbond)    S(metal)    S(lipo)     H(rot)  DE(clash)    DE(int)     intcor
     12.84     -17.47       1.56        0.00      98.17       1.84       0.17       4.45       ----

> <Gold.Chemscore.Fitness>
12.8429

> <Gold.Chemscore.DG>
-17.4688

> <Gold.Chemscore.ZeroCoef>
-5.4800

> <Gold.Chemscore.Hbond>
1.5579

> <Gold.Chemscore.Metal>
0.0000

> <Gold.Chemscore.Lipo>
98.1650

> <Gold.Chemscore.Internal_Hbond>
0.0000

> <Gold.Chemscore.DEClash>
0.1744

> <Gold.Chemscore.DEInternal>
4.4516

> <Gold.Chemscore.Rot>
1.8359

> <Gold.Chemscore.Internal.Correction>
   9.000000E+99

> <Gold.Chemscore.Hbonds>
donor molecule, donor type, donor heavy atom, donor atom, acceptor molecule, acceptor atom, score
      P1  H  7989  7998       L1    21  0.52
      P1  H 10752 10764       L1     6  0.96

> <Gold.Chemscore.Hbond.Weighted>
-5.2035

> <Gold.Chemscore.Metal.Weighted>
-0.0000

> <Gold.Chemscore.Lipo.Weighted>
-11.4853

> <Gold.Chemscore.Internal_Hbond.Weighted>
0.0000

> <Gold.Chemscore.DEClash.Weighted>
0.1744

> <Gold.Chemscore.DEInternal.Weighted>
4.4516

> <Gold.Chemscore.Rot.Weighted>
4.7000

> <Gold.Chemscore.Internal.Correction.Weighted>
   9.000000E+99

> <Gold.Protein.RotatedTorsions>
[ 6907 6896 6895 6894 ] final  -99.28 input  -60.11 | X-H torsion
[ 7974 7965 7964 7962 ] final  -95.39 input  175.53 | X-H torsion
[ 8008 7997 7996 7995 ] final  -83.96 input   59.86 | X-H torsion
[ 10167 10162 10161 10158 ] final -117.32 input  -65.29 | X-H torsion
[ 10718 10713 10712 10709 ] final   88.05 input   66.30 | X-H torsion
[ 10763 10752 10751 10750 ] final  -39.16 input  -60.55 | X-H torsion
[ 11005 11000 10999 10996 ] final  -56.78 input  -57.11 | X-H torsion

> <Gold.Protein.ActiveResidues>
 VAL166  LYS551  ARG553  GLY616  TRP617  ASP618  TYR619  PRO620  LYS621  CYS622 
 ASP623  PHE694  ASN695  SER759  ASP760  ASP761  ALA762  ILE779  LEU786  VAL792 
 PHE793  MET794  SER795  GLU796  ALA797  LYS798  CYS799  TRP800  GLU811  SER814 

> <Gold.Protein.RotatedAtoms>
  150.7074  134.1065  159.3984 H   0  0  0  0  0  0  0  0  0  0  0  0  # atno 6907 bound_to 6896
  151.9052  135.0359  160.0519 H   0  0  0  0  0  0  0  0  0  0  0  0  # atno 6908 bound_to 6896
  152.2381  133.5077  159.5291 H   0  0  0  0  0  0  0  0  0  0  0  0  # atno 6909 bound_to 6896
  145.3607  140.9491  143.2502 H   0  0  0  0  0  0  0  0  0  0  0  0  # atno 7974 bound_to 7965
  154.6246  140.0611  156.9658 H   0  0  0  0  0  0  0  0  0  0  0  0  # atno 8008 bound_to 7997
  155.1762  140.3295  155.4365 H   0  0  0  0  0  0  0  0  0  0  0  0  # atno 8009 bound_to 7997
  156.2450  140.1905  156.6861 H   0  0  0  0  0  0  0  0  0  0  0  0  # atno 8010 bound_to 7997
  140.0696  143.4890  152.1987 H   0  0  0  0  0  0  0  0  0  0  0  0  # atno 10167 bound_to 10162
  157.6946  131.0280  150.3216 H   0  0  0  0  0  0  0  0  0  0  0  0  # atno 10718 bound_to 10713
  153.9248  135.6778  153.4747 H   0  0  0  0  0  0  0  0  0  0  0  0  # atno 10763 bound_to 10752
  153.1010  135.4828  154.8864 H   0  0  0  0  0  0  0  0  0  0  0  0  # atno 10764 bound_to 10752
  154.7459  135.3172  154.8602 H   0  0  0  0  0  0  0  0  0  0  0  0  # atno 10765 bound_to 10752
  141.1136  133.6610  156.4671 H   0  0  0  0  0  0  0  0  0  0  0  0  # atno 11005 bound_to 11000
  144.8648  139.5124  143.6795 LP  0  0  0  0  0  0  0  0  0  0  0  0  # atno 17320 bound_to 7965
  146.2928  139.7190  142.9148 LP  0  0  0  0  0  0  0  0  0  0  0  0  # atno 17321 bound_to 7965
  139.5844  144.7524  151.3558 LP  0  0  0  0  0  0  0  0  0  0  0  0  # atno 17342 bound_to 10162
  140.7132  143.7335  150.7606 LP  0  0  0  0  0  0  0  0  0  0  0  0  # atno 17343 bound_to 10162
  156.3703  130.3862  149.7181 LP  0  0  0  0  0  0  0  0  0  0  0  0  # atno 17370 bound_to 10713
  156.4597  130.7946  151.2966 LP  0  0  0  0  0  0  0  0  0  0  0  0  # atno 17371 bound_to 10713
  140.4709  134.6754  157.5128 LP  0  0  0  0  0  0  0  0  0  0  0  0  # atno 17394 bound_to 11000
  140.0044  134.6787  155.9479 LP  0  0  0  0  0  0  0  0  0  0  0  0  # atno 17395 bound_to 11000

$$$$
