#       Name:                AV-unprocessed.smi:101
#       Creating user name   scv26
#       Creation time:       Thu Mar 26 17:46:15 2020


#       File generated by GOLD software.
#

@<TRIPOS>MOLECULE
AV-unprocessed.smi:101
    56    58     1
SMALL
NO_CHARGES


@<TRIPOS>ATOM
      1 ****        -0.6716   4.9089   1.3736 C.3            1 S1                 0.0000
      2 ****        -1.8880   4.0956   0.9673 C.2            1 S1                 0.0000
      3 ****        -1.7813   2.8985   0.3494 C.2            1 S1                 0.0000
      4 ****        -2.8932   2.1601  -0.0167 N.am           1 S1                 0.0000
      5 ****        -2.7442   0.8158  -0.6933 C.3            1 S1                 0.0000
      6 ****        -1.5297   0.7856  -1.3875 O.3            1 S1                 0.0000
      7 ****        -0.7591  -0.3429  -0.9891 C.3            1 S1                 0.0000
      8 ****         0.7325  -0.0039  -1.1041 C.3            1 S1                 0.0000
      9 ****         1.5046  -1.1732  -0.8857 O.3            1 S1                 0.0000
     10 ****         2.8480  -1.0966  -0.8354 C.2            1 S1                 0.0000
     11 ****         3.4780  -0.0475  -0.9844 O.2            1 S1                 0.0000
     12 ****         3.4943  -2.4163  -0.5808 C.ar           1 S1                 0.0000
     13 ****         4.9055  -2.4987  -0.5297 C.ar           1 S1                 0.0000
     14 ****         5.5439  -3.7313  -0.2909 C.ar           1 S1                 0.0000
     15 ****         4.7788  -4.8963  -0.0980 C.ar           1 S1                 0.0000
     16 ****         3.3741  -4.8274  -0.1448 C.ar           1 S1                 0.0000
     17 ****         2.7338  -3.5959  -0.3850 C.ar           1 S1                 0.0000
     18 ****        -1.2364  -0.6310   0.4343 C.3            1 S1                 0.0000
     19 ****        -0.9876  -1.9585   0.8565 O.3            1 S1                 0.0000
     20 ****        -2.7221  -0.3048   0.3579 C.3            1 S1                 0.0000
     21 ****        -3.5074  -1.4045  -0.0659 O.3            1 S1                 0.0000
     22 ****        -4.1906   2.6449   0.2921 C.2            1 S1                 0.0000
     23 ****        -5.1569   1.9403  -0.0013 O.2            1 S1                 0.0000
     24 ****        -4.3086   3.8566   0.9061 N.pl3          1 S1                -1.0000
     25 ****        -3.2302   4.6151   1.2565 C.2            1 S1                 0.0000
     26 ****        -3.3514   5.7098   1.8056 O.2            1 S1                 0.0000
     27 ****         0.2537   4.4034   1.0969 H              1 S1                 0.0000
     28 ****        -0.6617   5.0656   2.4525 H              1 S1                 0.0000
     29 ****        -0.6836   5.8829   0.8838 H              1 S1                 0.0000
     30 ****        -0.7952   2.5098   0.1447 H              1 S1                 0.0000
     31 ****        -3.5635   0.7440  -1.4105 H              1 S1                 0.0000
     32 ****        -1.0187  -1.1696  -1.6529 H              1 S1                 0.0000
     33 ****         0.9486   0.3828  -2.1007 H              1 S1                 0.0000
     34 ****         1.0013   0.7727  -0.3865 H              1 S1                 0.0000
     35 ****         5.5141  -1.6176  -0.6741 H              1 S1                 0.0000
     36 ****         6.6222  -3.7818  -0.2551 H              1 S1                 0.0000
     37 ****         5.2685  -5.8412   0.0861 H              1 S1                 0.0000
     38 ****         2.7856  -5.7206   0.0037 H              1 S1                 0.0000
     39 ****         1.6541  -3.5781  -0.4136 H              1 S1                 0.0000
     40 ****        -0.7531   0.0590   1.1276 H              1 S1                 0.0000
     41 ****        -1.4939  -2.5402   0.3098 H              1 S1                 0.0000
     42 ****        -3.1102   0.0423   1.3169 H              1 S1                 0.0000
     43 ****        -4.4051  -1.1161  -0.1363 H              1 S1                 0.0000
     44 ****        -1.0167   1.6211  -1.1907 LP             1 S1                 0.0000
     45 ****        -1.7124   0.7301  -2.3691 LP             1 S1                 0.0000
     46 ****         2.9903   0.8090  -1.1533 LP             1 S1                 0.0000
     47 ****         4.4769  -0.0529  -0.9363 LP             1 S1                 0.0000
     48 ****        -1.2615  -2.0673   1.8121 LP             1 S1                 0.0000
     49 ****        -0.0140  -2.1671   0.7631 LP             1 S1                 0.0000
     50 ****        -3.4411  -2.1455   0.6024 LP             1 S1                 0.0000
     51 ****        -3.1849  -1.7281  -0.9554 LP             1 S1                 0.0000
     52 ****        -5.0141   1.0550  -0.4439 LP             1 S1                 0.0000
     53 ****        -6.0843   2.2534   0.2030 LP             1 S1                 0.0000
     54 ****        -5.2243   4.2039   1.1081 LP             1 S1                 0.0000
     55 ****        -2.5390   6.2386   2.0514 LP             1 S1                 0.0000
     56 ****        -4.2622   6.0706   2.0060 LP             1 S1                 0.0000
@<TRIPOS>BOND
    1    1    2 1     
    2    1   27 1     
    3    1   28 1     
    4    1   29 1     
    5    2   25 1     
    6    2    3 2     
    7    3    4 1     
    8    3   30 1     
    9    4    5 1     
   10    4   22 am    
   11    5   20 1     
   12    5    6 1     
   13    5   31 1     
   14    6    7 1     
   15    7    8 1     
   16    7   18 1     
   17    7   32 1     
   18    8    9 1     
   19    8   33 1     
   20    8   34 1     
   21    9   10 1     
   22   10   11 2     
   23   10   12 1     
   24   12   17 ar    
   25   12   13 ar    
   26   13   14 ar    
   27   13   35 1     
   28   14   15 ar    
   29   14   36 1     
   30   15   16 ar    
   31   15   37 1     
   32   16   17 ar    
   33   16   38 1     
   34   17   39 1     
   35   18   19 1     
   36   18   20 1     
   37   18   40 1     
   38   19   41 1     
   39   20   21 1     
   40   20   42 1     
   41   21   43 1     
   42   22   23 2     
   43   22   24 1     
   44   24   25 1     
   45   25   26 2     
   46    6   44 1     
   47    6   45 1     
   48   11   46 1     
   49   11   47 1     
   50   19   48 1     
   51   19   49 1     
   52   21   50 1     
   53   21   51 1     
   54   23   52 1     
   55   23   53 1     
   56   24   54 1     
   57   26   55 1     
   58   26   56 1     
@<TRIPOS>SUBSTRUCTURE
      1 S1             1
@<TRIPOS>SET
LONE_PAIRS      STATIC     ATOMS    <user>   **** ""
13 44 45 46 47 48 49 50 51 52 53 54 55 56
DONOR_HYDROGENS      STATIC     ATOMS    <user>   **** ""
2 41 43
ATOM$BLUE        STATIC     ATOMS    COLORGROUP SYSTEM
13 44 45 46 47 48 49 50 51 52 53 54 55 56
ATOM$RED        STATIC     ATOMS    COLORGROUP SYSTEM
2 41 43
