AV-unprocessed.smi:2496|AV-procd|sdf|9828|dock8
  -GOLD-   2272013453D 1   1.00000     0.00000
 Structure written by MMmdl.
 40 40  0  0  0  0  0  0  0  0  1 V2000
  151.9244  138.7674  155.9383 C   0  0  0  0  0  0  0  0  0  0  0  0
  150.8498  139.6878  155.4301 C   0  0  0  0  0  0  0  0  0  0  0  0
  150.5923  139.6997  154.1307 N   0  0  0  0  0  0  0  0  0  0  0  0
  149.6099  140.6061  154.0007 N   0  0  0  0  0  0  0  0  0  0  0  0
  149.2360  141.1696  155.1970 C   0  0  0  0  0  0  0  0  0  0  0  0
  148.1648  142.2045  155.2845 C   0  0  0  0  0  0  0  0  0  0  0  0
  150.0203  140.5979  156.1631 C   0  0  0  0  0  0  0  0  0  0  0  0
  149.9988  140.8912  157.6495 C   0  0  1  0  0  0  0  0  0  0  0  0
  149.4564  139.7060  158.4700 C   0  0  0  0  0  0  0  0  0  0  0  0
  151.3919  141.3548  158.1025 C   0  0  0  0  0  0  0  0  0  0  0  0
  152.3506  140.5819  158.0873 O   0  0  0  0  0  0  0  0  0  0  0  0
  151.4792  142.6315  158.5113 N   0  0  0  0  0  0  0  0  0  0  0  0
  152.6909  143.3181  158.9581 C   0  0  1  0  0  0  0  0  0  0  0  0
  152.4895  144.8250  158.7223 C   0  0  0  0  0  0  0  0  0  0  0  0
  153.0084  142.9626  160.4358 C   0  0  0  0  0  0  0  0  0  0  0  0
  153.0512  141.4423  160.6735 C   0  0  0  0  0  0  0  0  0  0  0  0
  152.0141  143.6058  161.4224 C   0  0  0  0  0  0  0  0  0  0  0  0
  149.2093  140.8278  153.1004 H   0  0  0  0  0  0  0  0  0  0  0  0
  152.5319  139.2494  156.7032 H   0  0  0  0  0  0  0  0  0  0  0  0
  152.5979  138.4558  155.1392 H   0  0  0  0  0  0  0  0  0  0  0  0
  151.4923  137.8667  156.3739 H   0  0  0  0  0  0  0  0  0  0  0  0
  148.5637  143.1379  155.6818 H   0  0  0  0  0  0  0  0  0  0  0  0
  147.3614  141.8729  155.9424 H   0  0  0  0  0  0  0  0  0  0  0  0
  147.7330  142.4134  154.3052 H   0  0  0  0  0  0  0  0  0  0  0  0
  149.3286  141.7289  157.8476 H   0  0  0  0  0  0  0  0  0  0  0  0
  150.0741  138.8144  158.3648 H   0  0  0  0  0  0  0  0  0  0  0  0
  148.4458  139.4469  158.1531 H   0  0  0  0  0  0  0  0  0  0  0  0
  149.4108  139.9510  159.5318 H   0  0  0  0  0  0  0  0  0  0  0  0
  150.6343  143.1836  158.4885 H   0  0  0  0  0  0  0  0  0  0  0  0
  153.5387  143.0042  158.3466 H   0  0  0  0  0  0  0  0  0  0  0  0
  153.3985  145.3920  158.9196 H   0  0  0  0  0  0  0  0  0  0  0  0
  151.6988  145.2249  159.3582 H   0  0  0  0  0  0  0  0  0  0  0  0
  152.2119  145.0236  157.6863 H   0  0  0  0  0  0  0  0  0  0  0  0
  153.9973  143.3573  160.6738 H   0  0  0  0  0  0  0  0  0  0  0  0
  152.1096  140.9709  160.3906 H   0  0  0  0  0  0  0  0  0  0  0  0
  153.2315  141.2142  161.7244 H   0  0  0  0  0  0  0  0  0  0  0  0
  153.8495  140.9644  160.1071 H   0  0  0  0  0  0  0  0  0  0  0  0
  150.9898  143.3024  161.2039 H   0  0  0  0  0  0  0  0  0  0  0  0
  152.0537  144.6946  161.3882 H   0  0  0  0  0  0  0  0  0  0  0  0
  152.2344  143.3140  162.4496 H   0  0  0  0  0  0  0  0  0  0  0  0
  1  2  1  0  0  0  0
  1 19  1  0  0  0  0
  1 20  1  0  0  0  0
  1 21  1  0  0  0  0
  2  7  1  0  0  0  0
  2  3  2  0  0  0  0
  3  4  1  0  0  0  0
  4 18  1  0  0  0  0
  4  5  1  0  0  0  0
  5  6  1  0  0  0  0
  5  7  2  0  0  0  0
  6 22  1  0  0  0  0
  6 23  1  0  0  0  0
  6 24  1  0  0  0  0
  7  8  1  0  0  0  0
  8  9  1  0  0  0  0
  8 10  1  0  0  0  0
  8 25  1  0  0  0  0
  9 26  1  0  0  0  0
  9 27  1  0  0  0  0
  9 28  1  0  0  0  0
 10 11  2  0  0  0  0
 10 12  1  0  0  0  0
 12 13  1  0  0  0  0
 12 29  1  0  0  0  0
 13 14  1  0  0  0  0
 13 15  1  0  0  0  0
 13 30  1  0  0  0  0
 14 31  1  0  0  0  0
 14 32  1  0  0  0  0
 14 33  1  0  0  0  0
 15 16  1  0  0  0  0
 15 17  1  0  0  0  0
 15 34  1  0  0  0  0
 16 35  1  0  0  0  0
 16 36  1  0  0  0  0
 16 37  1  0  0  0  0
 17 38  1  0  0  0  0
 17 39  1  0  0  0  0
 17 40  1  0  0  0  0
M  END
> <s_m_source_file>
AV-unprocessed.smi

> <i_m_source_file_index>
2496

> <i_lp_mmshare_version>
43012

> <i_f3d_flags>
0

> <s_epik_input>
W0NIM11jMW5bbkhdYyhbQ0gzXSljMVtDQEhdKFtDSDNdKUMoPU8pW05IXVtDQEhdKFtDSDNdKVtDSF0oW0NIM10pW0NIM10=

> <s_epik_cmdline>
J2VwaWtfcHl0aG9uJywgJy1waCcsICc3LjAnLCAnLXRuJywgJzgnLCAnLW1hJywgJzIwMCcsICctbWV0YWxfYmluZGluZycsICctaW1hZScsICc8aW5maWxlLm1hZT4nLCAnLW9tYWUnLCAnPG91dGZpbGUubWFlPic=

> <r_lp_tautomer_probability>
1

> <r_epik_Ionization_Penalty>
0.000456212

> <r_epik_Ionization_Penalty_Charging>
0

> <r_epik_Ionization_Penalty_Neutral>
0.000456212

> <r_epik_State_Penalty>
-0

> <r_epik_Charging_Adjusted_Penalty>
0

> <i_epik_Tot_Q>
0

> <i_epik_Tot_abs_Q>
0

> <r_epik_Metal_State_Penalty>
-0

> <b_epik_Metal_Only>
0

> <s_lp_Force_Field>
OPLS_2005

> <r_lp_Energy>
2.25398

> <b_lp_Chiralities_Consistent>
1

> <s_lp_Variant>
AV-unprocessed.smi:2496-4

> <Gold.Version>
5.8.1

> <Gold.Id.Protein>
6NUR|6NUR_protein|mol2

> <Gold.PLP.Fitness>
40.7857

> <Gold.PLP.PLP>
-36.0483

> <Gold.PLP.part.hbond>
-3.0000

> <Gold.PLP.part.metal>
0.0000

> <Gold.PLP.part.buried>
-0.8716

> <Gold.PLP.part.nonpolar>
-32.3895

> <Gold.PLP.part.repulsive>
1.5529

> <Gold.PLP.ligand.clash>
0.0000

> <Gold.PLP.ligand.torsion>
0.5325

> <Gold.PLP.Chemscore.Hbond>
1.8973

> <Gold.PLP.Chemscore.CHOScore>
0.0000

> <Gold.PLP.Chemscore.Metal>
0.0000

> <Gold.Chemscore.Hbonds>
donor molecule, donor type, donor heavy atom, donor atom, acceptor molecule, acceptor atom, score
      L1  H     4    18       P1  7957  0.48
      P1  H  7989  7998       L1     3  0.35

> <Gold.PLP.Chemscore.Internal.Correction>
0.1107

> <Gold.Rescore>
     Score         DG    S(hbond)    S(metal)    S(lipo)     H(rot)  DE(clash)    DE(int)     intcor
     14.37     -16.65       0.97        0.00      99.88       1.47       0.16       2.12       ----

> <Gold.Chemscore.Fitness>
14.3661

> <Gold.Chemscore.DG>
-16.6454

> <Gold.Chemscore.ZeroCoef>
-5.4800

> <Gold.Chemscore.Hbond>
0.9680

> <Gold.Chemscore.Metal>
0.0000

> <Gold.Chemscore.Lipo>
99.8783

> <Gold.Chemscore.Internal_Hbond>
0.0000

> <Gold.Chemscore.DEClash>
0.1574

> <Gold.Chemscore.DEInternal>
2.1219

> <Gold.Chemscore.Rot>
1.4662

> <Gold.Chemscore.Internal.Correction>
   9.000000E+99

> <Gold.Chemscore.Hbonds>
donor molecule, donor type, donor heavy atom, donor atom, acceptor molecule, acceptor atom, score
      L1  H     4    18       P1  7957  0.46
      P1  H  7997  8010       L1    11  0.01

> <Gold.Chemscore.Hbond.Weighted>
-3.2331

> <Gold.Chemscore.Metal.Weighted>
-0.0000

> <Gold.Chemscore.Lipo.Weighted>
-11.6858

> <Gold.Chemscore.Internal_Hbond.Weighted>
0.0000

> <Gold.Chemscore.DEClash.Weighted>
0.1574

> <Gold.Chemscore.DEInternal.Weighted>
2.1219

> <Gold.Chemscore.Rot.Weighted>
3.7534

> <Gold.Chemscore.Internal.Correction.Weighted>
   9.000000E+99

> <Gold.Protein.RotatedTorsions>
[ 6907 6896 6895 6894 ] final -169.48 input  -60.11 | X-H torsion
[ 7974 7965 7964 7962 ] final  141.62 input  175.53 | X-H torsion
[ 8008 7997 7996 7995 ] final   42.85 input   59.86 | X-H torsion
[ 10167 10162 10161 10158 ] final  102.35 input  -65.29 | X-H torsion
[ 10718 10713 10712 10709 ] final -133.50 input   66.30 | X-H torsion
[ 10763 10752 10751 10750 ] final  121.13 input  -60.55 | X-H torsion
[ 11005 11000 10999 10996 ] final  -93.51 input  -57.11 | X-H torsion

> <Gold.Protein.ActiveResidues>
 VAL166  LYS551  ARG553  GLY616  TRP617  ASP618  TYR619  PRO620  LYS621  CYS622 
 ASP623  PHE694  ASN695  SER759  ASP760  ASP761  ALA762  ILE779  LEU786  VAL792 
 PHE793  MET794  SER795  GLU796  ALA797  LYS798  CYS799  TRP800  GLU811  SER814 

> <Gold.Protein.RotatedAtoms>
  151.4923  133.3522  159.2855 H   0  0  0  0  0  0  0  0  0  0  0  0  # atno 6907 bound_to 6896
  150.8827  134.8222  159.7247 H   0  0  0  0  0  0  0  0  0  0  0  0  # atno 6908 bound_to 6896
  152.4773  134.4823  159.9721 H   0  0  0  0  0  0  0  0  0  0  0  0  # atno 6909 bound_to 6896
  144.9080  139.5332  143.5722 H   0  0  0  0  0  0  0  0  0  0  0  0  # atno 7974 bound_to 7965
  155.2930  140.3380  155.4251 H   0  0  0  0  0  0  0  0  0  0  0  0  # atno 8008 bound_to 7997
  156.2037  140.1743  156.7885 H   0  0  0  0  0  0  0  0  0  0  0  0  # atno 8009 bound_to 7997
  154.5593  140.0690  156.8777 H   0  0  0  0  0  0  0  0  0  0  0  0  # atno 8010 bound_to 7997
  139.7357  144.7024  151.0652 H   0  0  0  0  0  0  0  0  0  0  0  0  # atno 10167 bound_to 10162
  156.2455  130.7122  151.1000 H   0  0  0  0  0  0  0  0  0  0  0  0  # atno 10718 bound_to 10713
  153.6093  135.3433  155.2973 H   0  0  0  0  0  0  0  0  0  0  0  0  # atno 10763 bound_to 10752
  154.8621  135.4246  154.2327 H   0  0  0  0  0  0  0  0  0  0  0  0  # atno 10764 bound_to 10752
  153.3174  135.7036  153.7133 H   0  0  0  0  0  0  0  0  0  0  0  0  # atno 10765 bound_to 10752
  141.1495  133.7893  157.0170 H   0  0  0  0  0  0  0  0  0  0  0  0  # atno 11005 bound_to 11000
  146.3144  139.7863  142.8995 LP  0  0  0  0  0  0  0  0  0  0  0  0  # atno 17320 bound_to 7965
  145.3503  141.0306  143.3342 LP  0  0  0  0  0  0  0  0  0  0  0  0  # atno 17321 bound_to 7965
  140.7778  143.4987  150.9800 LP  0  0  0  0  0  0  0  0  0  0  0  0  # atno 17342 bound_to 10162
  139.8675  143.7235  152.3169 LP  0  0  0  0  0  0  0  0  0  0  0  0  # atno 17343 bound_to 10162
  157.7193  131.0691  150.6200 LP  0  0  0  0  0  0  0  0  0  0  0  0  # atno 17370 bound_to 10713
  156.6276  130.4423  149.5798 LP  0  0  0  0  0  0  0  0  0  0  0  0  # atno 17371 bound_to 10713
  140.0841  134.9631  157.1671 LP  0  0  0  0  0  0  0  0  0  0  0  0  # atno 17394 bound_to 11000
  140.3536  134.2571  155.7195 LP  0  0  0  0  0  0  0  0  0  0  0  0  # atno 17395 bound_to 11000

$$$$
