AV-unprocessed.smi:36|AV-procd|sdf|298|dock4
  -GOLD-   2262016 93D 1   1.00000     0.00000
 Structure written by MMmdl.
 63 66  0  0  0  0  0  0  0  0  2 V2000
  145.4951  134.9779  162.6930 C   0  0  0  0  0  0  0  0  0  0  0  0
  144.1131  135.1594  162.0435 C   0  0  0  0  0  0  0  0  0  0  0  0
  143.0157  134.6732  163.0046 C   0  0  0  0  0  0  0  0  0  0  0  0
  143.8837  136.6420  161.7044 C   0  0  0  0  0  0  0  0  0  0  0  0
  144.0277  134.1359  160.4326 Si  0  0  0  0  0  0  0  0  0  0  0  0
  144.3952  132.3018  160.7718 C   0  0  0  0  0  0  0  0  0  0  0  0
  142.3326  134.3102  159.5930 C   0  0  0  0  0  0  0  0  0  0  0  0
  145.2038  134.7381  159.3769 O   0  0  0  0  0  0  0  0  0  0  0  0
  145.4907  134.1742  158.1144 C   0  0  0  0  0  0  0  0  0  0  0  0
  146.3275  135.1782  157.3093 C   0  0  1  0  0  0  0  0  0  0  0  0
  147.6992  135.1408  157.7011 O   0  0  0  0  0  0  0  0  0  0  0  0
  148.5255  135.3974  156.6049 C   0  0  2  0  0  0  0  0  0  0  0  0
  149.3947  136.5724  156.9174 N   0  0  0  0  0  0  0  0  0  0  0  0
  149.4864  137.2324  158.0890 C   0  0  0  0  0  0  0  0  0  0  0  0
  150.3365  138.2549  158.1539 N   0  0  0  0  0  0  0  0  0  0  0  0
  150.8573  138.2683  156.8683 C   0  0  0  0  0  0  0  0  0  0  0  0
  151.8301  139.0928  156.2381 C   0  0  0  0  0  0  0  0  0  0  0  0
  152.4578  140.0937  156.8750 N   0  5  0  0  0  0  0  0  0  0  0  0
  152.4030  140.1711  158.2290 C   0  0  0  0  0  0  0  0  0  0  0  0
  152.4552  139.2459  159.0423 O   0  0  0  0  0  0  0  0  0  0  0  0
  152.3366  141.5845  158.7430 C   0  0  0  0  0  0  0  0  0  0  0  0
  152.6685  141.8555  160.0904 C   0  0  0  0  0  0  0  0  0  0  0  0
  152.5883  143.1668  160.5984 C   0  0  0  0  0  0  0  0  0  0  0  0
  152.1653  144.2205  159.7667 C   0  0  0  0  0  0  0  0  0  0  0  0
  151.8193  143.9612  158.4274 C   0  0  0  0  0  0  0  0  0  0  0  0
  151.8999  142.6501  157.9182 C   0  0  0  0  0  0  0  0  0  0  0  0
  152.1002  138.8363  154.9327 N   0  0  0  0  0  0  0  0  0  0  0  0
  151.4795  137.8354  154.2975 C   0  0  0  0  0  0  0  0  0  0  0  0
  150.5675  136.9796  154.7679 N   0  0  0  0  0  0  0  0  0  0  0  0
  150.2766  137.2342  156.0770 C   0  0  0  0  0  0  0  0  0  0  0  0
  147.6266  135.6818  155.3981 C   0  0  0  0  0  0  0  0  0  0  0  0
  146.3481  134.9696  155.7895 C   0  0  1  0  0  0  0  0  0  0  0  0
  146.4039  133.5993  155.4380 O   0  0  0  0  0  0  0  0  0  0  0  0
  145.5779  135.5550  163.6146 H   0  0  0  0  0  0  0  0  0  0  0  0
  146.2937  135.3062  162.0273 H   0  0  0  0  0  0  0  0  0  0  0  0
  145.6824  133.9331  162.9423 H   0  0  0  0  0  0  0  0  0  0  0  0
  143.1538  133.6246  163.2690 H   0  0  0  0  0  0  0  0  0  0  0  0
  142.0261  134.7723  162.5570 H   0  0  0  0  0  0  0  0  0  0  0  0
  143.0170  135.2481  163.9312 H   0  0  0  0  0  0  0  0  0  0  0  0
  143.9027  137.2623  162.6010 H   0  0  0  0  0  0  0  0  0  0  0  0
  142.9181  136.7928  161.2200 H   0  0  0  0  0  0  0  0  0  0  0  0
  144.6515  137.0193  161.0288 H   0  0  0  0  0  0  0  0  0  0  0  0
  143.6829  131.8751  161.4776 H   0  0  0  0  0  0  0  0  0  0  0  0
  145.3919  132.1641  161.1903 H   0  0  0  0  0  0  0  0  0  0  0  0
  144.3417  131.7055  159.8613 H   0  0  0  0  0  0  0  0  0  0  0  0
  141.5280  133.9519  160.2348 H   0  0  0  0  0  0  0  0  0  0  0  0
  142.2861  133.7392  158.6660 H   0  0  0  0  0  0  0  0  0  0  0  0
  142.1136  135.3481  159.3447 H   0  0  0  0  0  0  0  0  0  0  0  0
  146.0134  133.2235  158.2222 H   0  0  0  0  0  0  0  0  0  0  0  0
  144.5465  133.9743  157.6075 H   0  0  0  0  0  0  0  0  0  0  0  0
  145.9553  136.1851  157.5026 H   0  0  0  0  0  0  0  0  0  0  0  0
  149.2083  134.5612  156.4488 H   0  0  0  0  0  0  0  0  0  0  0  0
  148.8997  136.9417  158.9477 H   0  0  0  0  0  0  0  0  0  0  0  0
  152.9930  141.0576  160.7425 H   0  0  0  0  0  0  0  0  0  0  0  0
  152.8501  143.3631  161.6277 H   0  0  0  0  0  0  0  0  0  0  0  0
  152.1027  145.2255  160.1568 H   0  0  0  0  0  0  0  0  0  0  0  0
  151.4883  144.7676  157.7898 H   0  0  0  0  0  0  0  0  0  0  0  0
  151.6200  142.4708  156.8899 H   0  0  0  0  0  0  0  0  0  0  0  0
  151.7560  137.6988  153.2626 H   0  0  0  0  0  0  0  0  0  0  0  0
  147.4434  136.7537  155.3118 H   0  0  0  0  0  0  0  0  0  0  0  0
  148.0774  135.3271  154.4705 H   0  0  0  0  0  0  0  0  0  0  0  0
  145.4749  135.4125  155.3095 H   0  0  0  0  0  0  0  0  0  0  0  0
  145.5201  133.2821  155.3317 H   0  0  0  0  0  0  0  0  0  0  0  0
  1  2  1  0  0  0  0
  1 34  1  0  0  0  0
  1 35  1  0  0  0  0
  1 36  1  0  0  0  0
  2  3  1  0  0  0  0
  2  4  1  0  0  0  0
  2  5  1  0  0  0  0
  3 37  1  0  0  0  0
  3 38  1  0  0  0  0
  3 39  1  0  0  0  0
  4 40  1  0  0  0  0
  4 41  1  0  0  0  0
  4 42  1  0  0  0  0
  5  6  1  0  0  0  0
  5  7  1  0  0  0  0
  5  8  1  0  0  0  0
  6 43  1  0  0  0  0
  6 44  1  0  0  0  0
  6 45  1  0  0  0  0
  7 46  1  0  0  0  0
  7 47  1  0  0  0  0
  7 48  1  0  0  0  0
  8  9  1  0  0  0  0
  9 10  1  0  0  0  0
  9 49  1  0  0  0  0
  9 50  1  0  0  0  0
 10 32  1  0  0  0  0
 10 11  1  0  0  0  0
 10 51  1  0  0  0  0
 11 12  1  0  0  0  0
 12 13  1  0  0  0  0
 12 31  1  0  0  0  0
 12 52  1  0  0  0  0
 13 30  1  0  0  0  0
 13 14  1  0  0  0  0
 14 15  2  0  0  0  0
 14 53  1  0  0  0  0
 15 16  1  0  0  0  0
 16 30  2  0  0  0  0
 16 17  1  0  0  0  0
 17 18  1  0  0  0  0
 17 27  2  0  0  0  0
 18 19  1  0  0  0  0
 19 20  2  0  0  0  0
 19 21  1  0  0  0  0
 21 26  1  0  0  0  0
 21 22  2  0  0  0  0
 22 23  1  0  0  0  0
 22 54  1  0  0  0  0
 23 24  2  0  0  0  0
 23 55  1  0  0  0  0
 24 25  1  0  0  0  0
 24 56  1  0  0  0  0
 25 26  2  0  0  0  0
 25 57  1  0  0  0  0
 26 58  1  0  0  0  0
 27 28  1  0  0  0  0
 28 29  2  0  0  0  0
 28 59  1  0  0  0  0
 29 30  1  0  0  0  0
 31 32  1  0  0  0  0
 31 60  1  0  0  0  0
 31 61  1  0  0  0  0
 32 33  1  0  0  0  0
 32 62  1  0  0  0  0
 33 63  1  0  0  0  0
M  CHG  1  18  -1
M  END
> <s_m_source_file>
AV-unprocessed.smi

> <i_m_source_file_index>
36

> <i_lp_mmshare_version>
43012

> <i_f3d_flags>
0

> <s_epik_input>
W0NIM11DKFtDSDNdKShbQ0gzXSlbU2ldKFtDSDNdKShbQ0gzXSlPW0NIMl1bQ0BASF0xT1tDQEhdKFtDSDJdW0NASF0xW09IXSluKFtjSF1uMiljKGMyMyluW2NIXW5jM1tOSF1DKD1PKWM0W2NIXVtjSF1bY0hdW2NIXVtjSF00

> <s_epik_cmdline>
J2VwaWtfcHl0aG9uJywgJy1waCcsICc3LjAnLCAnLXRuJywgJzgnLCAnLW1hJywgJzIwMCcsICctbWV0YWxfYmluZGluZycsICctaW1hZScsICc8aW5maWxlLm1hZT4nLCAnLW9tYWUnLCAnPG91dGZpbGUubWFlPic=

> <r_lp_tautomer_probability>
1

> <r_epik_Ionization_Penalty>
4.75685

> <r_epik_Ionization_Penalty_Charging>
3.55822

> <r_epik_Ionization_Penalty_Neutral>
1.19863

> <r_epik_State_Penalty>
3.564

> <r_epik_Charging_Adjusted_Penalty>
7.12222

> <i_epik_Tot_Q>
-1

> <i_epik_Tot_abs_Q>
1

> <r_epik_Metal_State_Penalty>
0.523258

> <b_epik_Metal_Only>
1

> <s_epik_Chemistry_Notes>
This compound contains an acetal/aminal-like group ( X-CH(R)-Y where X, Y are N, S, or O) that may be acid/base labile, releasing an aldehyde.

> <s_lp_Force_Field>
OPLS_2005

> <r_lp_Energy>
38.0647

> <b_lp_Chiralities_Consistent>
1

> <s_lp_Variant>
AV-unprocessed.smi:36-20

> <Gold.Version>
5.8.1

> <Gold.Id.Protein>
6NUR|6NUR_protein|mol2

> <Gold.PLP.Fitness>
50.3881

> <Gold.PLP.PLP>
-41.3150

> <Gold.PLP.part.hbond>
-1.8320

> <Gold.PLP.part.metal>
0.0000

> <Gold.PLP.part.buried>
-5.7549

> <Gold.PLP.part.nonpolar>
-33.4318

> <Gold.PLP.part.repulsive>
0.2652

> <Gold.PLP.ligand.clash>
0.0000

> <Gold.PLP.ligand.torsion>
0.7796

> <Gold.PLP.Chemscore.Hbond>
2.6084

> <Gold.PLP.Chemscore.CHOScore>
0.8831

> <Gold.PLP.Chemscore.Metal>
0.0000

> <Gold.Chemscore.Hbonds>
donor molecule, donor type, donor heavy atom, donor atom, acceptor molecule, acceptor atom, score
      P1  H  7997  8010       L1    18  2.00
      L1  C    28    59       P1  7949  1.00

> <Gold.PLP.Chemscore.Internal.Correction>
0.1578

> <Gold.Rescore>
     Score         DG    S(hbond)    S(metal)    S(lipo)     H(rot)  DE(clash)    DE(int)     intcor
      8.37     -13.47       0.74        0.00     105.44       2.67       0.17       4.92       ----

> <Gold.Chemscore.Fitness>
8.3731

> <Gold.Chemscore.DG>
-13.4652

> <Gold.Chemscore.ZeroCoef>
-5.4800

> <Gold.Chemscore.Hbond>
0.7438

> <Gold.Chemscore.Metal>
0.0000

> <Gold.Chemscore.Lipo>
105.4406

> <Gold.Chemscore.Internal_Hbond>
0.0000

> <Gold.Chemscore.DEClash>
0.1715

> <Gold.Chemscore.DEInternal>
4.9206

> <Gold.Chemscore.Rot>
2.6702

> <Gold.Chemscore.Internal.Correction>
   9.000000E+99

> <Gold.Chemscore.Hbonds>
donor molecule, donor type, donor heavy atom, donor atom, acceptor molecule, acceptor atom, score
      P1  H  7997  8010       L1    18  0.45

> <Gold.Chemscore.Hbond.Weighted>
-2.4844

> <Gold.Chemscore.Metal.Weighted>
-0.0000

> <Gold.Chemscore.Lipo.Weighted>
-12.3365

> <Gold.Chemscore.Internal_Hbond.Weighted>
0.0000

> <Gold.Chemscore.DEClash.Weighted>
0.1715

> <Gold.Chemscore.DEInternal.Weighted>
4.9206

> <Gold.Chemscore.Rot.Weighted>
6.8358

> <Gold.Chemscore.Internal.Correction.Weighted>
   9.000000E+99

> <Gold.Protein.RotatedTorsions>
[ 6907 6896 6895 6894 ] final   27.07 input  -60.11 | X-H torsion
[ 7974 7965 7964 7962 ] final  140.24 input  175.53 | X-H torsion
[ 8008 7997 7996 7995 ] final   79.18 input   59.86 | X-H torsion
[ 10167 10162 10161 10158 ] final -112.57 input  -65.29 | X-H torsion
[ 10718 10713 10712 10709 ] final   52.50 input   66.30 | X-H torsion
[ 10763 10752 10751 10750 ] final  171.12 input  -60.55 | X-H torsion
[ 11005 11000 10999 10996 ] final -103.49 input  -57.11 | X-H torsion

> <Gold.Protein.ActiveResidues>
 VAL166  LYS551  ARG553  GLY616  TRP617  ASP618  TYR619  PRO620  LYS621  CYS622 
 ASP623  PHE694  ASN695  SER759  ASP760  ASP761  ALA762  ILE779  LEU786  VAL792 
 PHE793  MET794  SER795  GLU796  ALA797  LYS798  CYS799  TRP800  GLU811  SER814 

> <Gold.Protein.RotatedAtoms>
  151.9968  134.9950  160.0563 H   0  0  0  0  0  0  0  0  0  0  0  0  # atno 6907 bound_to 6896
  152.1557  133.4545  159.4844 H   0  0  0  0  0  0  0  0  0  0  0  0  # atno 6908 bound_to 6896
  150.6881  134.2052  159.4381 H   0  0  0  0  0  0  0  0  0  0  0  0  # atno 6909 bound_to 6896
  144.9205  139.5174  143.5665 H   0  0  0  0  0  0  0  0  0  0  0  0  # atno 7974 bound_to 7965
  155.8661  140.3451  155.5789 H   0  0  0  0  0  0  0  0  0  0  0  0  # atno 8008 bound_to 7997
  155.7879  140.0867  157.2044 H   0  0  0  0  0  0  0  0  0  0  0  0  # atno 8009 bound_to 7997
  154.4014  140.1488  156.3116 H   0  0  0  0  0  0  0  0  0  0  0  0  # atno 8010 bound_to 7997
  140.1213  143.4441  152.1689 H   0  0  0  0  0  0  0  0  0  0  0  0  # atno 10167 bound_to 10162
  157.5080  130.8482  149.8399 H   0  0  0  0  0  0  0  0  0  0  0  0  # atno 10718 bound_to 10713
  154.4074  135.2756  155.2059 H   0  0  0  0  0  0  0  0  0  0  0  0  # atno 10763 bound_to 10752
  154.4059  135.6033  153.5928 H   0  0  0  0  0  0  0  0  0  0  0  0  # atno 10764 bound_to 10752
  152.9831  135.5937  154.4350 H   0  0  0  0  0  0  0  0  0  0  0  0  # atno 10765 bound_to 10752
  141.1143  133.8644  157.1492 H   0  0  0  0  0  0  0  0  0  0  0  0  # atno 11005 bound_to 11000
  146.3202  139.8081  142.8951 LP  0  0  0  0  0  0  0  0  0  0  0  0  # atno 17320 bound_to 7965
  145.3304  141.0265  143.3450 LP  0  0  0  0  0  0  0  0  0  0  0  0  # atno 17321 bound_to 7965
  139.5567  144.7378  151.4273 LP  0  0  0  0  0  0  0  0  0  0  0  0  # atno 17342 bound_to 10162
  140.6870  143.7950  150.7201 LP  0  0  0  0  0  0  0  0  0  0  0  0  # atno 17343 bound_to 10162
  156.0271  130.3776  150.1792 LP  0  0  0  0  0  0  0  0  0  0  0  0  # atno 17370 bound_to 10713
  156.9982  130.9914  151.3397 LP  0  0  0  0  0  0  0  0  0  0  0  0  # atno 17371 bound_to 10713
  140.0056  135.0010  157.0285 LP  0  0  0  0  0  0  0  0  0  0  0  0  # atno 17394 bound_to 11000
  140.4688  134.1407  155.7200 LP  0  0  0  0  0  0  0  0  0  0  0  0  # atno 17395 bound_to 11000

$$$$
