AV-unprocessed.smi:2452|AV-procd|sdf|9685|dock10
  -GOLD-   2272013323D 1   1.00000     0.00000
 Structure written by MMmdl.
 34 35  0  0  0  0  0  0  0  0  1 V2000
  151.6310  138.1276  154.7360 C   0  0  0  0  0  0  0  0  0  0  0  0
  150.7177  139.3201  154.6669 C   0  0  0  0  0  0  0  0  0  0  0  0
  151.0824  140.4452  155.2641 N   0  0  0  0  0  0  0  0  0  0  0  0
  150.0230  141.3509  155.1000 O   0  0  0  0  0  0  0  0  0  0  0  0
  149.0310  140.7445  154.3971 C   0  0  0  0  0  0  0  0  0  0  0  0
  147.8010  141.5448  154.1323 C   0  0  0  0  0  0  0  0  0  0  0  0
  149.4295  139.4804  154.0769 C   0  0  0  0  0  0  0  0  0  0  0  0
  148.6406  138.5396  153.3690 N   0  0  0  0  0  0  0  0  0  0  0  0
  147.3079  138.4004  153.4331 C   0  0  0  0  0  0  0  0  0  0  0  0
  146.5703  139.0333  154.1884 O   0  0  0  0  0  0  0  0  0  0  0  0
  146.8704  137.4631  152.5814 N   0  0  0  0  0  0  0  0  0  0  0  0
  145.4724  137.0909  152.3962 C   0  0  0  0  0  0  0  0  0  0  0  0
  145.3243  135.9146  151.4165 C   0  0  2  0  0  0  0  0  0  0  0  0
  143.9609  135.2325  151.4706 C   0  0  0  0  0  0  0  0  0  0  0  0
  144.2483  133.8600  150.8881 C   0  0  0  0  0  0  0  0  0  0  0  0
  145.7549  133.6768  151.0996 C   0  0  0  0  0  0  0  0  0  0  0  0
  146.2004  134.8538  151.7635 O   0  0  0  0  0  0  0  0  0  0  0  0
  151.0637  137.1979  154.7798 H   0  0  0  0  0  0  0  0  0  0  0  0
  152.2651  138.1618  155.6225 H   0  0  0  0  0  0  0  0  0  0  0  0
  152.2844  138.0829  153.8648 H   0  0  0  0  0  0  0  0  0  0  0  0
  146.9803  140.9064  153.8055 H   0  0  0  0  0  0  0  0  0  0  0  0
  147.9843  142.2853  153.3539 H   0  0  0  0  0  0  0  0  0  0  0  0
  147.4807  142.0713  155.0315 H   0  0  0  0  0  0  0  0  0  0  0  0
  149.1446  137.8667  152.8107 H   0  0  0  0  0  0  0  0  0  0  0  0
  147.5476  136.9888  152.0022 H   0  0  0  0  0  0  0  0  0  0  0  0
  145.0545  136.8262  153.3677 H   0  0  0  0  0  0  0  0  0  0  0  0
  144.9066  137.9533  152.0396 H   0  0  0  0  0  0  0  0  0  0  0  0
  145.5340  136.2302  150.3925 H   0  0  0  0  0  0  0  0  0  0  0  0
  143.6304  135.1300  152.5052 H   0  0  0  0  0  0  0  0  0  0  0  0
  143.1922  135.7766  150.9210 H   0  0  0  0  0  0  0  0  0  0  0  0
  143.6623  133.0830  151.3798 H   0  0  0  0  0  0  0  0  0  0  0  0
  144.0133  133.8360  149.8233 H   0  0  0  0  0  0  0  0  0  0  0  0
  145.9851  132.7943  151.6972 H   0  0  0  0  0  0  0  0  0  0  0  0
  146.2683  133.5819  150.1419 H   0  0  0  0  0  0  0  0  0  0  0  0
  1  2  1  0  0  0  0
  1 18  1  0  0  0  0
  1 19  1  0  0  0  0
  1 20  1  0  0  0  0
  2  7  1  0  0  0  0
  2  3  2  0  0  0  0
  3  4  1  0  0  0  0
  4  5  1  0  0  0  0
  5  6  1  0  0  0  0
  5  7  2  0  0  0  0
  6 21  1  0  0  0  0
  6 22  1  0  0  0  0
  6 23  1  0  0  0  0
  7  8  1  0  0  0  0
  8  9  1  0  0  0  0
  8 24  1  0  0  0  0
  9 10  2  0  0  0  0
  9 11  1  0  0  0  0
 11 12  1  0  0  0  0
 11 25  1  0  0  0  0
 12 13  1  0  0  0  0
 12 26  1  0  0  0  0
 12 27  1  0  0  0  0
 13 17  1  0  0  0  0
 13 14  1  0  0  0  0
 13 28  1  0  0  0  0
 14 15  1  0  0  0  0
 14 29  1  0  0  0  0
 14 30  1  0  0  0  0
 15 16  1  0  0  0  0
 15 31  1  0  0  0  0
 15 32  1  0  0  0  0
 16 17  1  0  0  0  0
 16 33  1  0  0  0  0
 16 34  1  0  0  0  0
M  END
> <s_m_source_file>
AV-unprocessed.smi

> <i_m_source_file_index>
2452

> <i_lp_mmshare_version>
43012

> <i_f3d_flags>
0

> <s_epik_input>
W0NIM11jMW5vYyhbQ0gzXSljMVtOSF1DKD1PKVtOSF1bQ0gyXVtDQEBIXTJbQ0gyXVtDSDJdW0NIMl1PMg==

> <s_epik_cmdline>
J2VwaWtfcHl0aG9uJywgJy1waCcsICc3LjAnLCAnLXRuJywgJzgnLCAnLW1hJywgJzIwMCcsICctbWV0YWxfYmluZGluZycsICctaW1hZScsICc8aW5maWxlLm1hZT4nLCAnLW9tYWUnLCAnPG91dGZpbGUubWFlPic=

> <r_lp_tautomer_probability>
1

> <r_epik_Ionization_Penalty>
3.28451e-05

> <r_epik_Ionization_Penalty_Charging>
0

> <r_epik_Ionization_Penalty_Neutral>
3.28451e-05

> <r_epik_State_Penalty>
-0

> <r_epik_Charging_Adjusted_Penalty>
0

> <i_epik_Tot_Q>
0

> <i_epik_Tot_abs_Q>
0

> <r_epik_Metal_State_Penalty>
-0

> <b_epik_Metal_Only>
0

> <s_lp_Force_Field>
OPLS_2005

> <r_lp_Energy>
18.3338

> <b_lp_Chiralities_Consistent>
1

> <s_lp_Variant>
AV-unprocessed.smi:2452-1

> <Gold.Version>
5.8.1

> <Gold.Id.Protein>
6NUR|6NUR_protein|mol2

> <Gold.PLP.Fitness>
37.4205

> <Gold.PLP.PLP>
-31.9885

> <Gold.PLP.part.hbond>
-5.0000

> <Gold.PLP.part.metal>
0.0000

> <Gold.PLP.part.buried>
-3.1769

> <Gold.PLP.part.nonpolar>
-25.6191

> <Gold.PLP.part.repulsive>
0.9008

> <Gold.PLP.ligand.clash>
0.0000

> <Gold.PLP.ligand.torsion>
0.3588

> <Gold.PLP.Chemscore.Hbond>
1.9640

> <Gold.PLP.Chemscore.CHOScore>
0.0000

> <Gold.PLP.Chemscore.Metal>
0.0000

> <Gold.Chemscore.Hbonds>
donor molecule, donor type, donor heavy atom, donor atom, acceptor molecule, acceptor atom, score
      L1  H     8    24       P1  7948  0.90
      L1  H    11    25       P1  7948  1.00
      P1  H  7989  7998       L1     3  0.04

> <Gold.PLP.Chemscore.Internal.Correction>
0.2575

> <Gold.Rescore>
     Score         DG    S(hbond)    S(metal)    S(lipo)     H(rot)  DE(clash)    DE(int)     intcor
     13.47     -16.28       1.91        0.00      64.72       1.23       0.08       2.73       ----

> <Gold.Chemscore.Fitness>
13.4683

> <Gold.Chemscore.DG>
-16.2805

> <Gold.Chemscore.ZeroCoef>
-5.4800

> <Gold.Chemscore.Hbond>
1.9121

> <Gold.Chemscore.Metal>
0.0000

> <Gold.Chemscore.Lipo>
64.7212

> <Gold.Chemscore.Internal_Hbond>
0.0000

> <Gold.Chemscore.DEClash>
0.0782

> <Gold.Chemscore.DEInternal>
2.7340

> <Gold.Chemscore.Rot>
1.2337

> <Gold.Chemscore.Internal.Correction>
   9.000000E+99

> <Gold.Chemscore.Hbonds>
donor molecule, donor type, donor heavy atom, donor atom, acceptor molecule, acceptor atom, score
      L1  H     8    24       P1  7948  0.87
      L1  H    11    25       P1  7948  0.93

> <Gold.Chemscore.Hbond.Weighted>
-6.3863

> <Gold.Chemscore.Metal.Weighted>
-0.0000

> <Gold.Chemscore.Lipo.Weighted>
-7.5724

> <Gold.Chemscore.Internal_Hbond.Weighted>
0.0000

> <Gold.Chemscore.DEClash.Weighted>
0.0782

> <Gold.Chemscore.DEInternal.Weighted>
2.7340

> <Gold.Chemscore.Rot.Weighted>
3.1582

> <Gold.Chemscore.Internal.Correction.Weighted>
   9.000000E+99

> <Gold.Protein.RotatedTorsions>
[ 6907 6896 6895 6894 ] final  -78.16 input  -60.11 | X-H torsion
[ 7974 7965 7964 7962 ] final  -84.68 input  175.53 | X-H torsion
[ 8008 7997 7996 7995 ] final  -96.52 input   59.86 | X-H torsion
[ 10167 10162 10161 10158 ] final -154.25 input  -65.29 | X-H torsion
[ 10718 10713 10712 10709 ] final   14.72 input   66.30 | X-H torsion
[ 10763 10752 10751 10750 ] final -103.05 input  -60.55 | X-H torsion
[ 11005 11000 10999 10996 ] final   78.31 input  -57.11 | X-H torsion

> <Gold.Protein.ActiveResidues>
 VAL166  LYS551  ARG553  GLY616  TRP617  ASP618  TYR619  PRO620  LYS621  CYS622 
 ASP623  PHE694  ASN695  SER759  ASP760  ASP761  ALA762  ILE779  LEU786  VAL792 
 PHE793  MET794  SER795  GLU796  ALA797  LYS798  CYS799  TRP800  GLU811  SER814 

> <Gold.Protein.RotatedAtoms>
  150.6980  134.4314  159.5249 H   0  0  0  0  0  0  0  0  0  0  0  0  # atno 6907 bound_to 6896
  152.2040  134.8559  160.0514 H   0  0  0  0  0  0  0  0  0  0  0  0  # atno 6908 bound_to 6896
  151.9469  133.3619  159.4022 H   0  0  0  0  0  0  0  0  0  0  0  0  # atno 6909 bound_to 6896
  145.5034  140.9545  143.1747 H   0  0  0  0  0  0  0  0  0  0  0  0  # atno 7974 bound_to 7965
  154.7755  140.0470  157.1086 H   0  0  0  0  0  0  0  0  0  0  0  0  # atno 8008 bound_to 7997
  154.9768  140.3096  155.4944 H   0  0  0  0  0  0  0  0  0  0  0  0  # atno 8009 bound_to 7997
  156.2928  140.2243  156.4864 H   0  0  0  0  0  0  0  0  0  0  0  0  # atno 8010 bound_to 7997
  139.7029  143.9233  152.2436 H   0  0  0  0  0  0  0  0  0  0  0  0  # atno 10167 bound_to 10162
  157.0432  130.6239  149.5754 H   0  0  0  0  0  0  0  0  0  0  0  0  # atno 10718 bound_to 10713
  154.7779  135.4837  153.9783 H   0  0  0  0  0  0  0  0  0  0  0  0  # atno 10763 bound_to 10752
  153.1454  135.6781  153.8970 H   0  0  0  0  0  0  0  0  0  0  0  0  # atno 10764 bound_to 10752
  153.8632  135.3153  155.3417 H   0  0  0  0  0  0  0  0  0  0  0  0  # atno 10765 bound_to 10752
  139.9218  134.7753  156.1633 H   0  0  0  0  0  0  0  0  0  0  0  0  # atno 11005 bound_to 11000
  144.7767  139.6614  143.7171 LP  0  0  0  0  0  0  0  0  0  0  0  0  # atno 17320 bound_to 7965
  146.2212  139.5639  142.9617 LP  0  0  0  0  0  0  0  0  0  0  0  0  # atno 17321 bound_to 7965
  139.9081  144.6873  150.8592 LP  0  0  0  0  0  0  0  0  0  0  0  0  # atno 17342 bound_to 10162
  140.7714  143.3464  151.2103 LP  0  0  0  0  0  0  0  0  0  0  0  0  # atno 17343 bound_to 10162
  156.0031  130.5114  150.7736 LP  0  0  0  0  0  0  0  0  0  0  0  0  # atno 17370 bound_to 10713
  157.5088  131.0924  151.0223 LP  0  0  0  0  0  0  0  0  0  0  0  0  # atno 17371 bound_to 10713
  141.0745  133.6782  156.2207 LP  0  0  0  0  0  0  0  0  0  0  0  0  # atno 17394 bound_to 11000
  140.6452  134.5124  157.5573 LP  0  0  0  0  0  0  0  0  0  0  0  0  # atno 17395 bound_to 11000

$$$$
