AV-unprocessed.smi:456|AV-procd|sdf|2615|dock1
  -GOLD-   2262023 13D 1   1.00000     0.00000
 Structure written by MMmdl.
 32 34  0  0  0  0  0  0  0  0  1 V2000
  148.9621  142.3724  156.9414 O   0  0  0  0  0  0  0  0  0  0  0  0
  150.2675  141.9036  157.2103 C   0  0  2  0  0  0  0  0  0  0  0  0
  151.2291  143.1082  157.1804 C   0  0  0  0  0  0  0  0  0  0  0  0
  151.3443  143.7503  158.4777 N   0  0  0  0  0  0  0  0  0  0  0  0
  150.8135  144.9320  158.8458 C   0  0  0  0  0  0  0  0  0  0  0  0
  151.0275  145.3334  160.0955 N   0  0  0  0  0  0  0  0  0  0  0  0
  151.7875  144.2910  160.5978 C   0  0  0  0  0  0  0  0  0  0  0  0
  152.3418  144.0968  161.8833 C   0  0  0  0  0  0  0  0  0  0  0  0
  153.0886  142.9358  162.1720 C   0  0  0  0  0  0  0  0  0  0  0  0
  153.6115  142.7651  163.4096 F   0  0  0  0  0  0  0  0  0  0  0  0
  153.2933  141.9532  161.1807 C   0  0  0  0  0  0  0  0  0  0  0  0
  154.0100  140.8404  161.4662 F   0  0  0  0  0  0  0  0  0  0  0  0
  152.7532  142.1261  159.8922 C   0  0  0  0  0  0  0  0  0  0  0  0
  152.0070  143.2852  159.6091 C   0  0  0  0  0  0  0  0  0  0  0  0
  150.6923  140.8004  156.2504 C   0  0  0  0  0  0  0  0  0  0  0  0
  149.8232  140.3952  155.2142 C   0  0  0  0  0  0  0  0  0  0  0  0
  150.1950  139.3543  154.3416 C   0  0  0  0  0  0  0  0  0  0  0  0
  151.4386  138.7133  154.4988 C   0  0  0  0  0  0  0  0  0  0  0  0
  152.3105  139.1137  155.5291 C   0  0  0  0  0  0  0  0  0  0  0  0
  151.9388  140.1537  156.4029 C   0  0  0  0  0  0  0  0  0  0  0  0
  149.0095  143.0034  156.2394 H   0  0  0  0  0  0  0  0  0  0  0  0
  150.2448  141.4952  158.2218 H   0  0  0  0  0  0  0  0  0  0  0  0
  152.2221  142.8070  156.8438 H   0  0  0  0  0  0  0  0  0  0  0  0
  150.8734  143.8549  156.4689 H   0  0  0  0  0  0  0  0  0  0  0  0
  150.2323  145.5289  158.1579 H   0  0  0  0  0  0  0  0  0  0  0  0
  152.1914  144.8419  162.6502 H   0  0  0  0  0  0  0  0  0  0  0  0
  152.9061  141.3737  159.1331 H   0  0  0  0  0  0  0  0  0  0  0  0
  148.8629  140.8745  155.0917 H   0  0  0  0  0  0  0  0  0  0  0  0
  149.5244  139.0451  153.5534 H   0  0  0  0  0  0  0  0  0  0  0  0
  151.7228  137.9137  153.8306 H   0  0  0  0  0  0  0  0  0  0  0  0
  153.2635  138.6205  155.6520 H   0  0  0  0  0  0  0  0  0  0  0  0
  152.6097  140.4465  157.1973 H   0  0  0  0  0  0  0  0  0  0  0  0
  1  2  1  0  0  0  0
  1 21  1  0  0  0  0
  2  3  1  0  0  0  0
  2 15  1  0  0  0  0
  2 22  1  0  0  0  0
  3  4  1  0  0  0  0
  3 23  1  0  0  0  0
  3 24  1  0  0  0  0
  4 14  1  0  0  0  0
  4  5  1  0  0  0  0
  5  6  2  0  0  0  0
  5 25  1  0  0  0  0
  6  7  1  0  0  0  0
  7 14  2  0  0  0  0
  7  8  1  0  0  0  0
  8  9  2  0  0  0  0
  8 26  1  0  0  0  0
  9 10  1  0  0  0  0
  9 11  1  0  0  0  0
 11 12  1  0  0  0  0
 11 13  2  0  0  0  0
 13 14  1  0  0  0  0
 13 27  1  0  0  0  0
 15 20  1  0  0  0  0
 15 16  2  0  0  0  0
 16 17  1  0  0  0  0
 16 28  1  0  0  0  0
 17 18  2  0  0  0  0
 17 29  1  0  0  0  0
 18 19  1  0  0  0  0
 18 30  1  0  0  0  0
 19 20  2  0  0  0  0
 19 31  1  0  0  0  0
 20 32  1  0  0  0  0
M  END
> <s_m_source_file>
AV-unprocessed.smi

> <i_m_source_file_index>
456

> <i_lp_mmshare_version>
43012

> <i_f3d_flags>
0

> <s_epik_input>
W2NIXTFbY0hdW2NIXVtjSF1bY0hdYzFbQ0BIXShbT0hdKVtDSDJdbihbY0hdbjIpYyhjMjMpW2NIXWMoRiljKEYpW2NIXTM=

> <s_epik_cmdline>
J2VwaWtfcHl0aG9uJywgJy1waCcsICc3LjAnLCAnLXRuJywgJzgnLCAnLW1hJywgJzIwMCcsICctbWV0YWxfYmluZGluZycsICctaW1hZScsICc8aW5maWxlLm1hZT4nLCAnLW9tYWUnLCAnPG91dGZpbGUubWFlPic=

> <r_epik_Ionization_Penalty>
0.0156354

> <r_epik_Ionization_Penalty_Charging>
0

> <r_epik_Ionization_Penalty_Neutral>
0.0156354

> <r_epik_State_Penalty>
0.0122974

> <r_epik_Charging_Adjusted_Penalty>
0.0122974

> <i_epik_Tot_Q>
0

> <i_epik_Tot_abs_Q>
0

> <r_epik_Metal_State_Penalty>
1.24258e-05

> <b_epik_Metal_Only>
0

> <s_lp_Force_Field>
OPLS_2005

> <r_lp_Energy>
11.2052

> <b_lp_Chiralities_Consistent>
1

> <s_lp_Variant>
AV-unprocessed.smi:456-1

> <Gold.Version>
5.8.1

> <Gold.Id.Protein>
6NUR|6NUR_protein|mol2

> <Gold.PLP.Fitness>
61.6301

> <Gold.PLP.PLP>
-56.8003

> <Gold.PLP.part.hbond>
-1.0000

> <Gold.PLP.part.metal>
0.0000

> <Gold.PLP.part.buried>
-6.2408

> <Gold.PLP.part.nonpolar>
-50.1090

> <Gold.PLP.part.repulsive>
0.1934

> <Gold.PLP.ligand.clash>
0.0000

> <Gold.PLP.ligand.torsion>
0.5548

> <Gold.PLP.Chemscore.Hbond>
1.0000

> <Gold.PLP.Chemscore.CHOScore>
0.9736

> <Gold.PLP.Chemscore.Metal>
0.0000

> <Gold.Chemscore.Hbonds>
donor molecule, donor type, donor heavy atom, donor atom, acceptor molecule, acceptor atom, score
      L1  H     1    21       P1  8028  0.99
      L1  C     5    25       P1  8028  0.01
      L1  C     5    25       P1  8029  0.97

> <Gold.PLP.Chemscore.Internal.Correction>
0.0186

> <Gold.Rescore>
     Score         DG    S(hbond)    S(metal)    S(lipo)     H(rot)  DE(clash)    DE(int)     intcor
     18.18     -18.76       1.00        0.00     128.39       1.98       0.06       0.52       ----

> <Gold.Chemscore.Fitness>
18.1784

> <Gold.Chemscore.DG>
-18.7640

> <Gold.Chemscore.ZeroCoef>
-5.4800

> <Gold.Chemscore.Hbond>
0.9955

> <Gold.Chemscore.Metal>
0.0000

> <Gold.Chemscore.Lipo>
128.3899

> <Gold.Chemscore.Internal_Hbond>
0.0000

> <Gold.Chemscore.DEClash>
0.0636

> <Gold.Chemscore.DEInternal>
0.5220

> <Gold.Chemscore.Rot>
1.9776

> <Gold.Chemscore.Internal.Correction>
   9.000000E+99

> <Gold.Chemscore.Hbonds>
donor molecule, donor type, donor heavy atom, donor atom, acceptor molecule, acceptor atom, score
      L1  H     1    21       P1  8028  0.94

> <Gold.Chemscore.Hbond.Weighted>
-3.3250

> <Gold.Chemscore.Metal.Weighted>
-0.0000

> <Gold.Chemscore.Lipo.Weighted>
-15.0216

> <Gold.Chemscore.Internal_Hbond.Weighted>
0.0000

> <Gold.Chemscore.DEClash.Weighted>
0.0636

> <Gold.Chemscore.DEInternal.Weighted>
0.5220

> <Gold.Chemscore.Rot.Weighted>
5.0626

> <Gold.Chemscore.Internal.Correction.Weighted>
   9.000000E+99

> <Gold.Protein.RotatedTorsions>
[ 6907 6896 6895 6894 ] final   94.40 input  -60.11 | X-H torsion
[ 7974 7965 7964 7962 ] final -178.91 input  175.53 | X-H torsion
[ 8008 7997 7996 7995 ] final  -99.20 input   59.86 | X-H torsion
[ 10167 10162 10161 10158 ] final  -90.34 input  -65.29 | X-H torsion
[ 10718 10713 10712 10709 ] final   97.73 input   66.30 | X-H torsion
[ 10763 10752 10751 10750 ] final   65.19 input  -60.55 | X-H torsion
[ 11005 11000 10999 10996 ] final  107.86 input  -57.11 | X-H torsion

> <Gold.Protein.ActiveResidues>
 VAL166  LYS551  ARG553  GLY616  TRP617  ASP618  TYR619  PRO620  LYS621  CYS622 
 ASP623  PHE694  ASN695  SER759  ASP760  ASP761  ALA762  ILE779  LEU786  VAL792 
 PHE793  MET794  SER795  GLU796  ALA797  LYS798  CYS799  TRP800  GLU811  SER814 

> <Gold.Protein.RotatedAtoms>
  152.5449  134.1199  159.8394 H   0  0  0  0  0  0  0  0  0  0  0  0  # atno 6907 bound_to 6896
  151.1256  133.5066  159.2608 H   0  0  0  0  0  0  0  0  0  0  0  0  # atno 6908 bound_to 6896
  151.1731  135.0337  159.8815 H   0  0  0  0  0  0  0  0  0  0  0  0  # atno 6909 bound_to 6896
  144.7133  140.0797  143.6426 H   0  0  0  0  0  0  0  0  0  0  0  0  # atno 7974 bound_to 7965
  154.8115  140.0449  157.1346 H   0  0  0  0  0  0  0  0  0  0  0  0  # atno 8008 bound_to 7997
  154.9362  140.3046  155.5123 H   0  0  0  0  0  0  0  0  0  0  0  0  # atno 8009 bound_to 7997
  156.2972  140.2314  156.4427 H   0  0  0  0  0  0  0  0  0  0  0  0  # atno 8010 bound_to 7997
  140.3559  143.2867  151.9672 H   0  0  0  0  0  0  0  0  0  0  0  0  # atno 10167 bound_to 10162
  157.6908  131.0618  150.4688 H   0  0  0  0  0  0  0  0  0  0  0  0  # atno 10718 bound_to 10713
  153.0086  135.5366  154.6628 H   0  0  0  0  0  0  0  0  0  0  0  0  # atno 10763 bound_to 10752
  154.5833  135.2852  155.0713 H   0  0  0  0  0  0  0  0  0  0  0  0  # atno 10764 bound_to 10752
  154.1834  135.6512  153.5093 H   0  0  0  0  0  0  0  0  0  0  0  0  # atno 10765 bound_to 10752
  139.8835  134.9413  156.5884 H   0  0  0  0  0  0  0  0  0  0  0  0  # atno 11005 bound_to 11000
  145.9713  139.2872  143.1097 LP  0  0  0  0  0  0  0  0  0  0  0  0  # atno 17320 bound_to 7965
  145.9113  140.9178  143.0452 LP  0  0  0  0  0  0  0  0  0  0  0  0  # atno 17321 bound_to 7965
  139.4820  144.6036  151.7562 LP  0  0  0  0  0  0  0  0  0  0  0  0  # atno 17342 bound_to 10162
  140.5174  144.0931  150.6012 LP  0  0  0  0  0  0  0  0  0  0  0  0  # atno 17343 bound_to 10162
  156.5027  130.4121  149.6344 LP  0  0  0  0  0  0  0  0  0  0  0  0  # atno 17370 bound_to 10713
  156.3313  130.7333  151.2263 LP  0  0  0  0  0  0  0  0  0  0  0  0  # atno 17371 bound_to 10713
  140.7974  133.8533  155.8697 LP  0  0  0  0  0  0  0  0  0  0  0  0  # atno 17394 bound_to 11000
  140.9623  134.1639  157.4644 LP  0  0  0  0  0  0  0  0  0  0  0  0  # atno 17395 bound_to 11000

$$$$
