AV-unprocessed.smi:1433|AV-procd|sdf|5838|dock3
  -GOLD-   22720 5503D 1   1.00000     0.00000
 Structure written by MMmdl.
 44 45  0  0  0  0  0  0  0  0  1 V2000
  151.8216  144.5547  158.1306 C   0  0  0  0  0  0  0  0  0  0  0  0
  151.7759  143.3907  159.1258 C   0  0  1  0  0  0  0  0  0  0  0  0
  152.3115  142.0824  158.5140 C   0  0  0  0  0  0  0  0  0  0  0  0
  152.3453  140.9731  159.4734 N   0  0  0  0  0  0  0  0  0  0  0  0
  152.8892  139.7255  158.8870 C   0  0  1  0  0  0  0  0  0  0  0  0
  153.1562  138.6317  159.9522 C   0  0  0  0  0  0  0  0  0  0  0  0
  151.9914  139.1286  157.7629 C   0  0  0  0  0  0  0  0  0  0  0  0
  150.5773  139.0500  158.1191 N   0  0  0  0  0  0  0  0  0  0  0  0
  150.0264  138.1005  158.8913 C   0  0  0  0  0  0  0  0  0  0  0  0
  150.6666  137.1755  159.3913 O   0  0  0  0  0  0  0  0  0  0  0  0
  148.5217  138.2094  159.1390 C   0  0  0  0  0  0  0  0  0  0  0  0
  148.0795  137.2215  160.1063 N   0  0  0  0  0  0  0  0  0  0  0  0
  147.4932  135.9952  159.8710 C   0  0  0  0  0  0  0  0  0  0  0  0
  147.2505  135.4205  161.0858 C   0  0  0  0  0  0  0  0  0  0  0  0
  147.7259  136.3859  162.0170 C   0  0  0  0  0  0  0  0  0  0  0  0
  148.2220  137.4624  161.4282 N   0  0  0  0  0  0  0  0  0  0  0  0
  153.1042  141.4160  160.6485 C   0  0  0  0  0  0  0  0  0  0  0  0
  152.5677  142.7269  161.2545 C   0  0  1  0  0  0  0  0  0  0  0  0
  153.4242  143.2163  162.4272 C   0  0  0  0  0  0  0  0  0  0  0  0
  152.5679  143.7373  160.2543 O   0  0  0  0  0  0  0  0  0  0  0  0
  151.2152  144.3415  157.2501 H   0  0  0  0  0  0  0  0  0  0  0  0
  152.8410  144.7490  157.7961 H   0  0  0  0  0  0  0  0  0  0  0  0
  151.4395  145.4697  158.5836 H   0  0  0  0  0  0  0  0  0  0  0  0
  150.7431  143.2472  159.4482 H   0  0  0  0  0  0  0  0  0  0  0  0
  151.6631  141.8423  157.6740 H   0  0  0  0  0  0  0  0  0  0  0  0
  153.3105  142.2493  158.1082 H   0  0  0  0  0  0  0  0  0  0  0  0
  153.8523  139.9659  158.4340 H   0  0  0  0  0  0  0  0  0  0  0  0
  153.5112  137.7003  159.5129 H   0  0  0  0  0  0  0  0  0  0  0  0
  152.2523  138.4033  160.5175 H   0  0  0  0  0  0  0  0  0  0  0  0
  153.9325  138.9227  160.6582 H   0  0  0  0  0  0  0  0  0  0  0  0
  152.0799  139.7312  156.8583 H   0  0  0  0  0  0  0  0  0  0  0  0
  152.2958  138.1184  157.4914 H   0  0  0  0  0  0  0  0  0  0  0  0
  149.9730  139.7684  157.7470 H   0  0  0  0  0  0  0  0  0  0  0  0
  148.2859  139.2037  159.5202 H   0  0  0  0  0  0  0  0  0  0  0  0
  147.9656  138.0841  158.2081 H   0  0  0  0  0  0  0  0  0  0  0  0
  147.2991  135.6393  158.8697 H   0  0  0  0  0  0  0  0  0  0  0  0
  146.8001  134.4585  161.2798 H   0  0  0  0  0  0  0  0  0  0  0  0
  147.7253  136.3364  163.0958 H   0  0  0  0  0  0  0  0  0  0  0  0
  153.0656  140.6632  161.4338 H   0  0  0  0  0  0  0  0  0  0  0  0
  154.1547  141.5419  160.3815 H   0  0  0  0  0  0  0  0  0  0  0  0
  151.5460  142.5754  161.6072 H   0  0  0  0  0  0  0  0  0  0  0  0
  153.4497  142.4795  163.2305 H   0  0  0  0  0  0  0  0  0  0  0  0
  153.0256  144.1435  162.8394 H   0  0  0  0  0  0  0  0  0  0  0  0
  154.4510  143.4059  162.1133 H   0  0  0  0  0  0  0  0  0  0  0  0
  1  2  1  0  0  0  0
  1 21  1  0  0  0  0
  1 22  1  0  0  0  0
  1 23  1  0  0  0  0
  2 20  1  0  0  0  0
  2  3  1  0  0  0  0
  2 24  1  0  0  0  0
  3  4  1  0  0  0  0
  3 25  1  0  0  0  0
  3 26  1  0  0  0  0
  4  5  1  0  0  0  0
  4 17  1  0  0  0  0
  5  6  1  0  0  0  0
  5  7  1  0  0  0  0
  5 27  1  0  0  0  0
  6 28  1  0  0  0  0
  6 29  1  0  0  0  0
  6 30  1  0  0  0  0
  7  8  1  0  0  0  0
  7 31  1  0  0  0  0
  7 32  1  0  0  0  0
  8  9  1  0  0  0  0
  8 33  1  0  0  0  0
  9 10  2  0  0  0  0
  9 11  1  0  0  0  0
 11 12  1  0  0  0  0
 11 34  1  0  0  0  0
 11 35  1  0  0  0  0
 12 16  1  0  0  0  0
 12 13  1  0  0  0  0
 13 14  2  0  0  0  0
 13 36  1  0  0  0  0
 14 15  1  0  0  0  0
 14 37  1  0  0  0  0
 15 16  2  0  0  0  0
 15 38  1  0  0  0  0
 17 18  1  0  0  0  0
 17 39  1  0  0  0  0
 17 40  1  0  0  0  0
 18 19  1  0  0  0  0
 18 20  1  0  0  0  0
 18 41  1  0  0  0  0
 19 42  1  0  0  0  0
 19 43  1  0  0  0  0
 19 44  1  0  0  0  0
M  END
> <s_m_source_file>
AV-unprocessed.smi

> <i_m_source_file_index>
1433

> <i_lp_mmshare_version>
43012

> <i_f3d_flags>
0

> <s_epik_input>
W0NIM11bQ0BASF0xW0NIMl1OKFtDSDJdW0NASF0oTzEpW0NIM10pW0NASF0oW0NIM10pW0NIMl1bTkhdQyg9TylbQ0gyXW4yW2NIXVtjSF1bY0hdbjI=

> <s_epik_cmdline>
J2VwaWtfcHl0aG9uJywgJy1waCcsICc3LjAnLCAnLXRuJywgJzgnLCAnLW1hJywgJzIwMCcsICctbWV0YWxfYmluZGluZycsICctaW1hZScsICc8aW5maWxlLm1hZT4nLCAnLW9tYWUnLCAnPG91dGZpbGUubWFlPic=

> <r_lp_tautomer_probability>
1

> <r_epik_Ionization_Penalty>
0.196927

> <r_epik_Ionization_Penalty_Charging>
0

> <r_epik_Ionization_Penalty_Neutral>
0.196927

> <r_epik_State_Penalty>
0.186684

> <r_epik_Charging_Adjusted_Penalty>
0.186684

> <i_epik_Tot_Q>
0

> <i_epik_Tot_abs_Q>
0

> <r_epik_Metal_State_Penalty>
0.186682

> <b_epik_Metal_Only>
0

> <s_lp_Force_Field>
OPLS_2005

> <r_lp_Energy>
27.7845

> <b_lp_Chiralities_Consistent>
1

> <s_lp_Variant>
AV-unprocessed.smi:1433-4

> <Gold.Version>
5.8.1

> <Gold.Id.Protein>
6NUR|6NUR_protein|mol2

> <Gold.PLP.Fitness>
45.4339

> <Gold.PLP.PLP>
-40.0361

> <Gold.PLP.part.hbond>
-2.7606

> <Gold.PLP.part.metal>
0.0000

> <Gold.PLP.part.buried>
-5.4975

> <Gold.PLP.part.nonpolar>
-32.3335

> <Gold.PLP.part.repulsive>
0.1006

> <Gold.PLP.ligand.clash>
0.0000

> <Gold.PLP.ligand.torsion>
0.6927

> <Gold.PLP.Chemscore.Hbond>
2.2298

> <Gold.PLP.Chemscore.CHOScore>
0.0000

> <Gold.PLP.Chemscore.Metal>
0.0000

> <Gold.Chemscore.Hbonds>
donor molecule, donor type, donor heavy atom, donor atom, acceptor molecule, acceptor atom, score
      P1  H  6896  6907       L1    10  0.59
      P1  H  6931  6943       L1    16  0.24
      P1  H  6934  6947       L1    16  0.02

> <Gold.PLP.Chemscore.Internal.Correction>
0.0936

> <Gold.Rescore>
     Score         DG    S(hbond)    S(metal)    S(lipo)     H(rot)  DE(clash)    DE(int)     intcor
     18.13     -20.44       2.52        0.00      95.46       1.80       0.50       1.81       ----

> <Gold.Chemscore.Fitness>
18.1294

> <Gold.Chemscore.DG>
-20.4406

> <Gold.Chemscore.ZeroCoef>
-5.4800

> <Gold.Chemscore.Hbond>
2.5179

> <Gold.Chemscore.Metal>
0.0000

> <Gold.Chemscore.Lipo>
95.4571

> <Gold.Chemscore.Internal_Hbond>
0.0000

> <Gold.Chemscore.DEClash>
0.5024

> <Gold.Chemscore.DEInternal>
1.8088

> <Gold.Chemscore.Rot>
1.8038

> <Gold.Chemscore.Internal.Correction>
   9.000000E+99

> <Gold.Chemscore.Hbonds>
donor molecule, donor type, donor heavy atom, donor atom, acceptor molecule, acceptor atom, score
      P1  H  6896  6907       L1    10  0.58
      P1  H  6931  6943       L1    16  0.24

> <Gold.Chemscore.Hbond.Weighted>
-8.4099

> <Gold.Chemscore.Metal.Weighted>
-0.0000

> <Gold.Chemscore.Lipo.Weighted>
-11.1685

> <Gold.Chemscore.Internal_Hbond.Weighted>
0.0000

> <Gold.Chemscore.DEClash.Weighted>
0.5024

> <Gold.Chemscore.DEInternal.Weighted>
1.8088

> <Gold.Chemscore.Rot.Weighted>
4.6178

> <Gold.Chemscore.Internal.Correction.Weighted>
   9.000000E+99

> <Gold.Protein.RotatedTorsions>
[ 6907 6896 6895 6894 ] final  -29.55 input  -60.11 | X-H torsion
[ 7974 7965 7964 7962 ] final  -23.50 input  175.53 | X-H torsion
[ 8008 7997 7996 7995 ] final   -1.59 input   59.86 | X-H torsion
[ 10167 10162 10161 10158 ] final  -48.81 input  -65.29 | X-H torsion
[ 10718 10713 10712 10709 ] final  -82.62 input   66.30 | X-H torsion
[ 10763 10752 10751 10750 ] final  178.91 input  -60.55 | X-H torsion
[ 11005 11000 10999 10996 ] final   29.87 input  -57.11 | X-H torsion

> <Gold.Protein.ActiveResidues>
 VAL166  LYS551  ARG553  GLY616  TRP617  ASP618  TYR619  PRO620  LYS621  CYS622 
 ASP623  PHE694  ASN695  SER759  ASP760  ASP761  ALA762  ILE779  LEU786  VAL792 
 PHE793  MET794  SER795  GLU796  ALA797  LYS798  CYS799  TRP800  GLU811  SER814 

> <Gold.Protein.RotatedAtoms>
  151.1177  135.0062  159.8523 H   0  0  0  0  0  0  0  0  0  0  0  0  # atno 6907 bound_to 6896
  152.5446  134.1760  159.8626 H   0  0  0  0  0  0  0  0  0  0  0  0  # atno 6908 bound_to 6896
  151.1815  133.4677  159.2627 H   0  0  0  0  0  0  0  0  0  0  0  0  # atno 6909 bound_to 6896
  146.1612  140.4625  142.8570 H   0  0  0  0  0  0  0  0  0  0  0  0  # atno 7974 bound_to 7965
  154.6451  140.2555  155.7277 H   0  0  0  0  0  0  0  0  0  0  0  0  # atno 8008 bound_to 7997
  156.2548  140.2879  156.0782 H   0  0  0  0  0  0  0  0  0  0  0  0  # atno 8009 bound_to 7997
  155.1536  140.0383  157.2817 H   0  0  0  0  0  0  0  0  0  0  0  0  # atno 8010 bound_to 7997
  140.6714  143.2724  151.4125 H   0  0  0  0  0  0  0  0  0  0  0  0  # atno 10167 bound_to 10162
  156.0030  130.4640  150.4133 H   0  0  0  0  0  0  0  0  0  0  0  0  # atno 10718 bound_to 10713
  154.5138  135.2790  155.1320 H   0  0  0  0  0  0  0  0  0  0  0  0  # atno 10763 bound_to 10752
  154.2905  135.6268  153.5387 H   0  0  0  0  0  0  0  0  0  0  0  0  # atno 10764 bound_to 10752
  152.9923  135.5673  154.5610 H   0  0  0  0  0  0  0  0  0  0  0  0  # atno 10765 bound_to 10752
  140.3003  134.2764  155.7755 H   0  0  0  0  0  0  0  0  0  0  0  0  # atno 11005 bound_to 11000
  144.8030  140.6247  143.6466 LP  0  0  0  0  0  0  0  0  0  0  0  0  # atno 17320 bound_to 7965
  145.4583  139.1515  143.3880 LP  0  0  0  0  0  0  0  0  0  0  0  0  # atno 17321 bound_to 7965
  139.5984  144.1348  152.2170 LP  0  0  0  0  0  0  0  0  0  0  0  0  # atno 17342 bound_to 10162
  140.0724  144.5768  150.7182 LP  0  0  0  0  0  0  0  0  0  0  0  0  # atno 17343 bound_to 10162
  157.2194  131.0479  151.2555 LP  0  0  0  0  0  0  0  0  0  0  0  0  # atno 17370 bound_to 10713
  157.3815  130.7233  149.6633 LP  0  0  0  0  0  0  0  0  0  0  0  0  # atno 17371 bound_to 10713
  141.2129  133.7642  156.9757 LP  0  0  0  0  0  0  0  0  0  0  0  0  # atno 17394 bound_to 11000
  140.1115  134.9474  157.2072 LP  0  0  0  0  0  0  0  0  0  0  0  0  # atno 17395 bound_to 11000

$$$$
