#       Name:                AV-unprocessed.smi:3029
#       Creating user name   scv26
#       Creation time:       Fri Mar 27 16:47:33 2020


#       File generated by GOLD software.
#

@<TRIPOS>MOLECULE
AV-unprocessed.smi:3029
    46    47     1
SMALL
NO_CHARGES


@<TRIPOS>ATOM
      1 ****        -2.6384  -0.3834  -1.4299 O.2            1 S1                 0.0000
      2 ****        -2.7260   0.1926  -0.3454 C.2            1 S1                 0.0000
      3 ****        -3.2455   1.5595  -0.2348 C.2            1 S1                 0.0000
      4 ****        -3.3285   2.1922   0.9519 C.2            1 S1                 0.0000
      5 ****        -2.9013   1.5305   2.1692 C.2            1 S1                 0.0000
      6 ****        -2.9705   2.2061   3.4462 N.pl3          1 S1                 1.0000
      7 ****        -2.5769   1.6217   4.4512 O.2            1 S1                 0.0000
      8 ****        -3.4217   3.3462   3.4848 O.2            1 S1                -1.0000
      9 ****        -2.4311   0.2720   2.0661 C.2            1 S1                 0.0000
     10 ****        -2.3416  -0.3949   0.8289 N.am           1 S1                 0.0000
     11 ****        -1.7774  -1.7533   0.8528 C.3            1 S1                 0.0000
     12 ****        -0.2396  -1.7342   0.9228 C.3            1 S1                 0.0000
     13 ****         0.3207  -1.2779  -0.3409 N.3            1 S1                 0.0000
     14 ****         1.7734  -1.1476  -0.2912 C.3            1 S1                 0.0000
     15 ****         2.3695  -1.8948  -1.5033 C.3            1 S1                 0.0000
     16 ****         2.1388  -1.1540  -2.8325 C.3            1 S1                 0.0000
     17 ****         2.6347   0.2962  -2.7628 C.3            1 S1                 0.0000
     18 ****         1.9832   1.0487  -1.5932 C.3            1 S1                 0.0000
     19 ****         2.2384   0.3361  -0.2475 C.3            1 S1                 0.0000
     20 ****         1.7240   1.1499   0.9622 C.3            1 S1                 0.0000
     21 ****         0.4114   1.3700   0.8889 F              1 S1                 0.0000
     22 ****         1.9979   0.5073   2.0974 F              1 S1                 0.0000
     23 ****         2.3437   2.3295   0.9998 F              1 S1                 0.0000
     24 ****        -3.5685   2.0712  -1.1295 H              1 S1                 0.0000
     25 ****        -3.7170   3.1997   0.9819 H              1 S1                 0.0000
     26 ****        -2.0808  -0.3057   2.9095 H              1 S1                 0.0000
     27 ****        -2.1641  -2.2743   1.7298 H              1 S1                 0.0000
     28 ****        -2.1113  -2.3547   0.0055 H              1 S1                 0.0000
     29 ****         0.0928  -1.1002   1.7442 H              1 S1                 0.0000
     30 ****         0.1302  -2.7400   1.1250 H              1 S1                 0.0000
     31 ****         0.0604  -1.9237  -1.0728 H              1 S1                 0.0000
     32 ****         2.1411  -1.6512   0.6043 H              1 S1                 0.0000
     33 ****         3.4434  -2.0084  -1.3503 H              1 S1                 0.0000
     34 ****         1.9684  -2.9075  -1.5639 H              1 S1                 0.0000
     35 ****         2.6451  -1.6801  -3.6422 H              1 S1                 0.0000
     36 ****         1.0764  -1.1630  -3.0799 H              1 S1                 0.0000
     37 ****         3.7192   0.3077  -2.6479 H              1 S1                 0.0000
     38 ****         2.4181   0.8082  -3.7007 H              1 S1                 0.0000
     39 ****         2.3751   2.0654  -1.5596 H              1 S1                 0.0000
     40 ****         0.9103   1.1404  -1.7671 H              1 S1                 0.0000
     41 ****         3.3225   0.2970  -0.1276 H              1 S1                 0.0000
     42 ****        -2.2757  -1.3143  -1.4738 LP             1 S1                 0.0000
     43 ****        -2.9299   0.0796  -2.2669 LP             1 S1                 0.0000
     44 ****        -2.2150   0.6922   4.3797 LP             1 S1                 0.0000
     45 ****        -2.6180   2.0751   5.3416 LP             1 S1                 0.0000
     46 ****        -0.0509  -0.3685  -0.5280 LP             1 S1                 0.0000
@<TRIPOS>BOND
    1    1    2 2     
    2    2   10 am    
    3    2    3 1     
    4    3    4 2     
    5    3   24 1     
    6    4    5 1     
    7    4   25 1     
    8    5    6 1     
    9    5    9 2     
   10    6    7 2     
   11    6    8 1     
   12    9   10 1     
   13    9   26 1     
   14   10   11 1     
   15   11   12 1     
   16   11   27 1     
   17   11   28 1     
   18   12   13 1     
   19   12   29 1     
   20   12   30 1     
   21   13   14 1     
   22   13   31 1     
   23   14   19 1     
   24   14   15 1     
   25   14   32 1     
   26   15   16 1     
   27   15   33 1     
   28   15   34 1     
   29   16   17 1     
   30   16   35 1     
   31   16   36 1     
   32   17   18 1     
   33   17   37 1     
   34   17   38 1     
   35   18   19 1     
   36   18   39 1     
   37   18   40 1     
   38   19   20 1     
   39   19   41 1     
   40   20   21 1     
   41   20   22 1     
   42   20   23 1     
   43    1   42 1     
   44    1   43 1     
   45    7   44 1     
   46    7   45 1     
   47   13   46 1     
@<TRIPOS>SUBSTRUCTURE
      1 S1             1
@<TRIPOS>SET
LONE_PAIRS      STATIC     ATOMS    <user>   **** ""
6 42 43 44 45 8 46
DONOR_HYDROGENS      STATIC     ATOMS    <user>   **** ""
1 31
ATOM$BLUE        STATIC     ATOMS    COLORGROUP SYSTEM
6 42 43 44 45 8 46
ATOM$RED        STATIC     ATOMS    COLORGROUP SYSTEM
1 31
