#       Name:                AV-unprocessed.smi:2819
#       Creating user name   scv26
#       Creation time:       Fri Mar 27 15:29:46 2020


#       File generated by GOLD software.
#

@<TRIPOS>MOLECULE
AV-unprocessed.smi:2819
    56    57     1
SMALL
NO_CHARGES


@<TRIPOS>ATOM
      1 ****        -2.7601   4.2546  -1.2757 C.3            1 S1                 0.0000
      2 ****        -4.1233   3.7371  -1.2198 N.pl3          1 S1                 0.0000
      3 ****        -5.2579   4.6429  -1.3432 C.3            1 S1                 0.0000
      4 ****        -4.3394   2.3528  -1.0428 C.ar           1 S1                 0.0000
      5 ****        -5.6395   1.7949  -0.9839 C.ar           1 S1                 0.0000
      6 ****        -5.7261   0.4008  -0.8016 C.ar           1 S1                 0.0000
      7 ****        -4.6270  -0.3739  -0.6871 N.ar           1 S1                 0.0000
      8 ****        -3.4417   0.2361  -0.7560 C.ar           1 S1                 0.0000
      9 ****        -2.3598  -0.6073  -0.6257 N.am           1 S1                 0.0000
     10 ****        -1.0383  -0.3543  -0.6776 C.2            1 S1                 0.0000
     11 ****        -0.5280   0.7458  -0.8940 O.2            1 S1                 0.0000
     12 ****        -0.3212  -1.4663  -0.4555 N.am           1 S1                 0.0000
     13 ****         1.1394  -1.5443  -0.4426 C.3            1 S1                 0.0000
     14 ****         1.7546  -1.5022   0.9896 C.3            1 S1                 0.0000
     15 ****         1.3474  -0.1991   1.7225 C.3            1 S1                 0.0000
     16 ****         1.1806  -2.6654   1.8368 C.3            1 S1                 0.0000
     17 ****         3.2583  -1.6006   0.9430 N.4            1 S1                 1.0000
     18 ****         3.8111  -2.8782   0.4102 C.3            1 S1                 0.0000
     19 ****         5.3376  -2.9253   0.5923 C.3            1 S1                 0.0000
     20 ****         5.9326  -1.8106  -0.0561 O.3            1 S1                 0.0000
     21 ****         5.4861  -0.5815   0.4984 C.3            1 S1                 0.0000
     22 ****         3.9656  -0.4510   0.3095 C.3            1 S1                 0.0000
     23 ****        -3.2532   1.5516  -0.9261 N.ar           1 S1                 0.0000
     24 ****        -2.2240   4.0221  -0.3549 H              1 S1                 0.0000
     25 ****        -2.7496   5.3371  -1.4034 H              1 S1                 0.0000
     26 ****        -2.2171   3.8138  -2.1125 H              1 S1                 0.0000
     27 ****        -5.8778   4.6042  -0.4470 H              1 S1                 0.0000
     28 ****        -5.8702   4.3745  -2.2045 H              1 S1                 0.0000
     29 ****        -4.9297   5.6737  -1.4766 H              1 S1                 0.0000
     30 ****        -6.5374   2.3875  -1.0712 H              1 S1                 0.0000
     31 ****        -6.6835  -0.0954  -0.7460 H              1 S1                 0.0000
     32 ****        -2.6066  -1.5711  -0.4570 H              1 S1                 0.0000
     33 ****        -0.8223  -2.3269  -0.2883 H              1 S1                 0.0000
     34 ****         1.3964  -2.4800  -0.9380 H              1 S1                 0.0000
     35 ****         1.5519  -0.7544  -1.0708 H              1 S1                 0.0000
     36 ****         0.2865  -0.1892   1.9739 H              1 S1                 0.0000
     37 ****         1.5226   0.6894   1.1163 H              1 S1                 0.0000
     38 ****         1.8950  -0.0809   2.6582 H              1 S1                 0.0000
     39 ****         0.1218  -2.5208   2.0552 H              1 S1                 0.0000
     40 ****         1.6945  -2.7509   2.7950 H              1 S1                 0.0000
     41 ****         1.2542  -3.6266   1.3285 H              1 S1                 0.0000
     42 ****         3.3894  -3.7419   0.9206 H              1 S1                 0.0000
     43 ****         3.5730  -2.9802  -0.6487 H              1 S1                 0.0000
     44 ****         5.6045  -2.9335   1.6504 H              1 S1                 0.0000
     45 ****         5.7395  -3.8402   0.1561 H              1 S1                 0.0000
     46 ****         5.7551  -0.5232   1.5544 H              1 S1                 0.0000
     47 ****         5.9983   0.2385  -0.0052 H              1 S1                 0.0000
     48 ****         3.7390  -0.4066  -0.7559 H              1 S1                 0.0000
     49 ****         3.6601   0.4994   0.7425 H              1 S1                 0.0000
     50 ****         3.5407  -1.5774   1.9125 H              1 S1                 0.0000
     51 ****        -4.6976  -1.3627  -0.5562 LP             1 S1                 0.0000
     52 ****        -1.1091   1.5447  -1.0494 LP             1 S1                 0.0000
     53 ****         0.4673   0.8400  -0.9142 LP             1 S1                 0.0000
     54 ****         5.6932  -1.8343  -1.0267 LP             1 S1                 0.0000
     55 ****         6.9258  -1.8695   0.0439 LP             1 S1                 0.0000
     56 ****        -2.3301   1.9341  -0.9660 LP             1 S1                 0.0000
@<TRIPOS>BOND
    1    1    2 1     
    2    1   24 1     
    3    1   25 1     
    4    1   26 1     
    5    2    3 1     
    6    2    4 1     
    7    3   27 1     
    8    3   28 1     
    9    3   29 1     
   10    4   23 ar    
   11    4    5 ar    
   12    5    6 ar    
   13    5   30 1     
   14    6    7 ar    
   15    6   31 1     
   16    7    8 ar    
   17    8    9 1     
   18    8   23 ar    
   19    9   10 am    
   20    9   32 1     
   21   10   11 2     
   22   10   12 am    
   23   12   13 1     
   24   12   33 1     
   25   13   14 1     
   26   13   34 1     
   27   13   35 1     
   28   14   15 1     
   29   14   16 1     
   30   14   17 1     
   31   15   36 1     
   32   15   37 1     
   33   15   38 1     
   34   16   39 1     
   35   16   40 1     
   36   16   41 1     
   37   17   22 1     
   38   17   18 1     
   39   17   50 1     
   40   18   19 1     
   41   18   42 1     
   42   18   43 1     
   43   19   20 1     
   44   19   44 1     
   45   19   45 1     
   46   20   21 1     
   47   21   22 1     
   48   21   46 1     
   49   21   47 1     
   50   22   48 1     
   51   22   49 1     
   52    7   51 1     
   53   11   52 1     
   54   11   53 1     
   55   20   54 1     
   56   20   55 1     
   57   23   56 1     
@<TRIPOS>SUBSTRUCTURE
      1 S1             1
@<TRIPOS>SET
LONE_PAIRS      STATIC     ATOMS    <user>   **** ""
6 51 52 53 54 55 56
DONOR_HYDROGENS      STATIC     ATOMS    <user>   **** ""
3 32 33 50
ATOM$BLUE        STATIC     ATOMS    COLORGROUP SYSTEM
6 51 52 53 54 55 56
ATOM$RED        STATIC     ATOMS    COLORGROUP SYSTEM
3 32 33 50
