AV-unprocessed.smi:2175|AV-procd|sdf|8845|dock9
  -GOLD-   2272012 33D 1   1.00000     0.00000
 Structure written by MMmdl.
 33 34  0  0  0  0  0  0  0  0  2 V2000
  148.6695  140.8985  153.9529 C   0  0  0  0  0  0  0  0  0  0  0  0
  149.5372  140.2567  155.0142 C   0  0  0  0  0  0  0  0  0  0  0  0
  148.9944  139.8281  156.0892 N   0  0  0  0  0  0  0  0  0  0  0  0
  149.7947  139.2296  157.0769 C   0  0  0  0  0  0  0  0  0  0  0  0
  149.0642  138.7437  158.3167 C   0  0  0  0  0  0  0  0  0  0  0  0
  151.1425  139.1004  156.9110 C   0  0  0  0  0  0  0  0  0  0  0  0
  152.0521  138.4483  157.9521 C   0  0  0  0  0  0  0  0  0  0  0  0
  153.1383  139.3494  158.5447 C   0  0  0  0  0  0  0  0  0  0  0  0
  154.3220  139.0154  158.4923 O   0  0  0  0  0  0  0  0  0  0  0  0
  152.7205  140.4955  159.1030 N   0  0  0  0  0  0  0  0  0  0  0  0
  153.5878  141.4973  159.7083 C   0  0  0  0  0  0  0  0  0  0  0  0
  153.4251  142.9018  159.1589 C   0  0  0  0  0  0  0  0  0  0  0  0
  152.3862  143.8435  159.7211 C   0  0  0  0  0  0  0  0  0  0  0  0
  152.2103  143.2647  158.3375 C   0  0  0  0  0  0  0  0  0  0  0  0
  151.7299  139.6131  155.6599 C   0  0  0  0  0  0  0  0  0  0  0  0
  152.9420  139.5343  155.4643 O   0  0  0  0  0  0  0  0  0  0  0  0
  150.8850  140.1716  154.7466 N   0  5  0  0  0  0  0  0  0  0  0  0
  147.6558  141.0626  154.3209 H   0  0  0  0  0  0  0  0  0  0  0  0
  148.6158  140.2570  153.0731 H   0  0  0  0  0  0  0  0  0  0  0  0
  149.0829  141.8626  153.6549 H   0  0  0  0  0  0  0  0  0  0  0  0
  149.1581  137.6623  158.4169 H   0  0  0  0  0  0  0  0  0  0  0  0
  148.0013  138.9840  158.2677 H   0  0  0  0  0  0  0  0  0  0  0  0
  149.4709  139.2136  159.2122 H   0  0  0  0  0  0  0  0  0  0  0  0
  151.4240  138.0723  158.7604 H   0  0  0  0  0  0  0  0  0  0  0  0
  152.5343  137.5594  157.5449 H   0  0  0  0  0  0  0  0  0  0  0  0
  151.7293  140.6883  159.1034 H   0  0  0  0  0  0  0  0  0  0  0  0
  153.4196  141.5228  160.7861 H   0  0  0  0  0  0  0  0  0  0  0  0
  154.6206  141.1759  159.5698 H   0  0  0  0  0  0  0  0  0  0  0  0
  154.3589  143.3569  158.8334 H   0  0  0  0  0  0  0  0  0  0  0  0
  151.7350  143.4693  160.5087 H   0  0  0  0  0  0  0  0  0  0  0  0
  152.6523  144.8957  159.7969 H   0  0  0  0  0  0  0  0  0  0  0  0
  152.3569  143.9321  157.4907 H   0  0  0  0  0  0  0  0  0  0  0  0
  151.4407  142.5067  158.2059 H   0  0  0  0  0  0  0  0  0  0  0  0
  1  2  1  0  0  0  0
  1 18  1  0  0  0  0
  1 19  1  0  0  0  0
  1 20  1  0  0  0  0
  2 17  1  0  0  0  0
  2  3  2  0  0  0  0
  3  4  1  0  0  0  0
  4  5  1  0  0  0  0
  4  6  2  0  0  0  0
  5 21  1  0  0  0  0
  5 22  1  0  0  0  0
  5 23  1  0  0  0  0
  6  7  1  0  0  0  0
  6 15  1  0  0  0  0
  7  8  1  0  0  0  0
  7 24  1  0  0  0  0
  7 25  1  0  0  0  0
  8  9  2  0  0  0  0
  8 10  1  0  0  0  0
 10 11  1  0  0  0  0
 10 26  1  0  0  0  0
 11 12  1  0  0  0  0
 11 27  1  0  0  0  0
 11 28  1  0  0  0  0
 12 14  1  0  0  0  0
 12 13  1  0  0  0  0
 12 29  1  0  0  0  0
 13 14  1  0  0  0  0
 13 30  1  0  0  0  0
 13 31  1  0  0  0  0
 14 32  1  0  0  0  0
 14 33  1  0  0  0  0
 15 16  2  0  0  0  0
 15 17  1  0  0  0  0
M  CHG  1  17  -1
M  END
> <s_m_source_file>
AV-unprocessed.smi

> <i_m_source_file_index>
2175

> <i_lp_mmshare_version>
43012

> <i_f3d_flags>
0

> <s_epik_input>
W0NIM11jMW5jKFtDSDNdKWMoYyg9TylbbkhdMSlbQ0gyXUMoPU8pW05IXVtDSDJdW0NIXTJbQ0gyXVtDSDJdMg==

> <s_epik_cmdline>
J2VwaWtfcHl0aG9uJywgJy1waCcsICc3LjAnLCAnLXRuJywgJzgnLCAnLW1hJywgJzIwMCcsICctbWV0YWxfYmluZGluZycsICctaW1hZScsICc8aW5maWxlLm1hZT4nLCAnLW9tYWUnLCAnPG91dGZpbGUubWFlPic=

> <r_lp_tautomer_probability>
0.839158

> <r_epik_Ionization_Penalty>
6.60351

> <r_epik_Ionization_Penalty_Charging>
6.70818e-08

> <r_epik_Ionization_Penalty_Neutral>
6.60351

> <r_epik_State_Penalty>
4.42903

> <r_epik_Charging_Adjusted_Penalty>
4.42903

> <i_epik_Tot_Q>
-1

> <i_epik_Tot_abs_Q>
1

> <r_epik_Metal_State_Penalty>
0.797668

> <b_epik_Metal_Only>
1

> <s_lp_Force_Field>
OPLS_2005

> <r_lp_Energy>
17.43

> <b_lp_Chiralities_Consistent>
1

> <s_lp_Variant>
AV-unprocessed.smi:2175-3

> <Gold.Version>
5.8.1

> <Gold.Id.Protein>
6NUR|6NUR_protein|mol2

> <Gold.PLP.Fitness>
38.7455

> <Gold.PLP.PLP>
-30.2226

> <Gold.PLP.part.hbond>
-3.0000

> <Gold.PLP.part.metal>
0.0000

> <Gold.PLP.part.buried>
-2.3817

> <Gold.PLP.part.nonpolar>
-24.6265

> <Gold.PLP.part.repulsive>
0.1904

> <Gold.PLP.ligand.clash>
0.0000

> <Gold.PLP.ligand.torsion>
0.5097

> <Gold.PLP.Chemscore.Hbond>
3.0000

> <Gold.PLP.Chemscore.CHOScore>
0.0000

> <Gold.PLP.Chemscore.Metal>
0.0000

> <Gold.Chemscore.Hbonds>
donor molecule, donor type, donor heavy atom, donor atom, acceptor molecule, acceptor atom, score
      P1  H  7989  7998       L1    17  1.00
      P1  H  7997  8008       L1     9  1.00
      P1  H  7997  8009       L1    16  1.00

> <Gold.PLP.Chemscore.Internal.Correction>
0.5423

> <Gold.Rescore>
     Score         DG    S(hbond)    S(metal)    S(lipo)     H(rot)  DE(clash)    DE(int)     intcor
     17.54     -18.38       2.75        0.00      68.87       1.70       0.34       0.50       ----

> <Gold.Chemscore.Fitness>
17.5438

> <Gold.Chemscore.DG>
-18.3844

> <Gold.Chemscore.ZeroCoef>
-5.4800

> <Gold.Chemscore.Hbond>
2.7548

> <Gold.Chemscore.Metal>
0.0000

> <Gold.Chemscore.Lipo>
68.8686

> <Gold.Chemscore.Internal_Hbond>
0.0000

> <Gold.Chemscore.DEClash>
0.3425

> <Gold.Chemscore.DEInternal>
0.4982

> <Gold.Chemscore.Rot>
1.7009

> <Gold.Chemscore.Internal.Correction>
   9.000000E+99

> <Gold.Chemscore.Hbonds>
donor molecule, donor type, donor heavy atom, donor atom, acceptor molecule, acceptor atom, score
      P1  H  7989  7998       L1    17  0.87
      P1  H  7997  8008       L1     9  0.75
      P1  H  7997  8009       L1    16  0.98

> <Gold.Chemscore.Hbond.Weighted>
-9.2011

> <Gold.Chemscore.Metal.Weighted>
-0.0000

> <Gold.Chemscore.Lipo.Weighted>
-8.0576

> <Gold.Chemscore.Internal_Hbond.Weighted>
0.0000

> <Gold.Chemscore.DEClash.Weighted>
0.3425

> <Gold.Chemscore.DEInternal.Weighted>
0.4982

> <Gold.Chemscore.Rot.Weighted>
4.3543

> <Gold.Chemscore.Internal.Correction.Weighted>
   9.000000E+99

> <Gold.Protein.RotatedTorsions>
[ 6907 6896 6895 6894 ] final -163.76 input  -60.11 | X-H torsion
[ 7974 7965 7964 7962 ] final   76.61 input  175.53 | X-H torsion
[ 8008 7997 7996 7995 ] final -127.74 input   59.86 | X-H torsion
[ 10167 10162 10161 10158 ] final   77.15 input  -65.29 | X-H torsion
[ 10718 10713 10712 10709 ] final   60.84 input   66.30 | X-H torsion
[ 10763 10752 10751 10750 ] final   48.66 input  -60.55 | X-H torsion
[ 11005 11000 10999 10996 ] final  111.45 input  -57.11 | X-H torsion

> <Gold.Protein.ActiveResidues>
 VAL166  LYS551  ARG553  GLY616  TRP617  ASP618  TYR619  PRO620  LYS621  CYS622 
 ASP623  PHE694  ASN695  SER759  ASP760  ASP761  ALA762  ILE779  LEU786  VAL792 
 PHE793  MET794  SER795  GLU796  ALA797  LYS798  CYS799  TRP800  GLU811  SER814 

> <Gold.Protein.RotatedAtoms>
  151.4012  133.3757  159.2732 H   0  0  0  0  0  0  0  0  0  0  0  0  # atno 6907 bound_to 6896
  150.9432  134.8841  159.7636 H   0  0  0  0  0  0  0  0  0  0  0  0  # atno 6908 bound_to 6896
  152.5080  134.3963  159.9453 H   0  0  0  0  0  0  0  0  0  0  0  0  # atno 6909 bound_to 6896
  145.7006  139.2581  143.1707 H   0  0  0  0  0  0  0  0  0  0  0  0  # atno 7974 bound_to 7965
  155.2511  140.0432  157.2987 H   0  0  0  0  0  0  0  0  0  0  0  0  # atno 8008 bound_to 7997
  154.5768  140.2389  155.8080 H   0  0  0  0  0  0  0  0  0  0  0  0  # atno 8009 bound_to 7997
  156.2164  140.2983  155.9857 H   0  0  0  0  0  0  0  0  0  0  0  0  # atno 8010 bound_to 7997
  139.9846  144.5801  150.7870 H   0  0  0  0  0  0  0  0  0  0  0  0  # atno 10167 bound_to 10162
  157.5783  130.8961  149.9386 H   0  0  0  0  0  0  0  0  0  0  0  0  # atno 10718 bound_to 10713
  152.9790  135.5937  154.3961 H   0  0  0  0  0  0  0  0  0  0  0  0  # atno 10763 bound_to 10752
  154.3612  135.2767  155.2321 H   0  0  0  0  0  0  0  0  0  0  0  0  # atno 10764 bound_to 10752
  154.4317  135.6034  153.6128 H   0  0  0  0  0  0  0  0  0  0  0  0  # atno 10765 bound_to 10752
  139.8904  134.9508  156.6434 H   0  0  0  0  0  0  0  0  0  0  0  0  # atno 11005 bound_to 11000
  146.0801  140.7774  142.9646 LP  0  0  0  0  0  0  0  0  0  0  0  0  # atno 17320 bound_to 7965
  144.6969  140.3475  143.7188 LP  0  0  0  0  0  0  0  0  0  0  0  0  # atno 17321 bound_to 7965
  140.7477  143.2910  151.3331 LP  0  0  0  0  0  0  0  0  0  0  0  0  # atno 17342 bound_to 10162
  139.6384  144.0586  152.2535 LP  0  0  0  0  0  0  0  0  0  0  0  0  # atno 17343 bound_to 10162
  156.0828  130.3671  150.0546 LP  0  0  0  0  0  0  0  0  0  0  0  0  # atno 17370 bound_to 10713
  156.8689  130.9517  151.3611 LP  0  0  0  0  0  0  0  0  0  0  0  0  # atno 17371 bound_to 10713
  140.7576  133.8844  155.8394 LP  0  0  0  0  0  0  0  0  0  0  0  0  # atno 17394 bound_to 11000
  140.9949  134.1229  157.4373 LP  0  0  0  0  0  0  0  0  0  0  0  0  # atno 17395 bound_to 11000

$$$$
