#       Name:                AV-unprocessed.smi:3090
#       Creating user name   scv26
#       Creation time:       Fri Mar 27 17:15:47 2020


#       File generated by GOLD software.
#

@<TRIPOS>MOLECULE
AV-unprocessed.smi:3090
    25    25     1
SMALL
NO_CHARGES


@<TRIPOS>ATOM
      1 ****        -3.2882  -1.1926  -0.4393 C.3            1 S1                 0.0000
      2 ****        -2.0474  -0.4479  -0.4475 N.pl3          1 S1                 0.0000
      3 ****        -0.7560  -0.9269  -0.4047 C.2            1 S1                 0.0000
      4 ****         0.0853   0.1508  -0.4378 C.2            1 S1                 0.0000
      5 ****         1.5931   0.1831  -0.4149 C.3            1 S1                 0.0000
      6 ****         2.1477  -0.9341  -1.0771 O.3            1 S1                 0.0000
      7 ****         2.1493   0.1980   1.0199 C.3            1 S1                 0.0000
      8 ****         1.7550   1.3940   1.7809 N.3            1 S1                 0.0000
      9 ****        -0.8075   1.2596  -0.4960 C.2            1 S1                 0.0000
     10 ****        -2.0805   0.8990  -0.5037 N.2            1 S1                 0.0000
     11 ****        -3.0824  -2.2634  -0.4365 H              1 S1                 0.0000
     12 ****        -3.8719  -0.9467  -1.3268 H              1 S1                 0.0000
     13 ****        -3.8646  -0.9398   0.4510 H              1 S1                 0.0000
     14 ****        -0.5418  -1.9844  -0.3561 H              1 S1                 0.0000
     15 ****         1.9578   1.0677  -0.9385 H              1 S1                 0.0000
     16 ****         1.8946  -0.8983  -1.9869 H              1 S1                 0.0000
     17 ****         1.8218  -0.6972   1.5499 H              1 S1                 0.0000
     18 ****         3.2380   0.1455   0.9815 H              1 S1                 0.0000
     19 ****         2.1845   1.3843   2.7050 H              1 S1                 0.0000
     20 ****         2.0802   2.2376   1.3110 H              1 S1                 0.0000
     21 ****        -0.5667   2.3118  -0.5326 H              1 S1                 0.0000
     22 ****         1.8030  -1.7769  -0.6638 LP             1 S1                 0.0000
     23 ****         3.1446  -0.9099  -1.0029 LP             1 S1                 0.0000
     24 ****         0.7575   1.3885   1.8516 LP             1 S1                 0.0000
     25 ****        -2.8853   1.4914  -0.5425 LP             1 S1                 0.0000
@<TRIPOS>BOND
    1    1    2 1     
    2    1   11 1     
    3    1   12 1     
    4    1   13 1     
    5    2   10 1     
    6    2    3 1     
    7    3    4 2     
    8    3   14 1     
    9    4    5 1     
   10    4    9 1     
   11    5    6 1     
   12    5    7 1     
   13    5   15 1     
   14    6   16 1     
   15    7    8 1     
   16    7   17 1     
   17    7   18 1     
   18    8   19 1     
   19    8   20 1     
   20    9   10 2     
   21    9   21 1     
   22    6   22 1     
   23    6   23 1     
   24    8   24 1     
   25   10   25 1     
@<TRIPOS>SUBSTRUCTURE
      1 S1             1
@<TRIPOS>SET
LONE_PAIRS      STATIC     ATOMS    <user>   **** ""
4 22 23 24 25
DONOR_HYDROGENS      STATIC     ATOMS    <user>   **** ""
3 16 19 20
ATOM$BLUE        STATIC     ATOMS    COLORGROUP SYSTEM
4 22 23 24 25
ATOM$RED        STATIC     ATOMS    COLORGROUP SYSTEM
3 16 19 20
