AV-unprocessed.smi:3343|AV-procd|sdf|12895|dock4
  -GOLD-   2272019303D 1   1.00000     0.00000
 Structure written by MMmdl.
 42 43  0  0  0  0  0  0  0  0  2 V2000
  147.4234  133.6596  151.6041 C   0  0  0  0  0  0  0  0  0  0  0  0
  146.2385  134.3105  150.8621 C   0  0  2  0  0  0  0  0  0  0  0  0
  145.5317  135.3993  151.6902 C   0  0  0  0  0  0  0  0  0  0  0  0
  144.4282  135.1911  152.1958 O   0  0  0  0  0  0  0  0  0  0  0  0
  146.1875  136.5630  151.8276 N   0  0  0  0  0  0  0  0  0  0  0  0
  145.6849  137.7285  152.5433 C   0  0  0  0  0  0  0  0  0  0  0  0
  146.7581  138.8281  152.5890 C   0  0  0  0  0  0  0  0  0  0  0  0
  146.3642  139.9712  153.4501 N   0  3  0  0  0  0  0  0  0  0  0  0
  147.3904  141.0416  153.4705 C   0  0  0  0  0  0  0  0  0  0  0  0
  146.9033  142.2483  154.3001 C   0  0  0  0  0  0  0  0  0  0  0  0
  146.5510  141.8704  155.6696 N   0  0  0  0  0  0  0  0  0  0  0  0
  147.7118  141.5494  156.4930 C   0  0  0  0  0  0  0  0  0  0  0  0
  145.5469  140.8054  155.6498 C   0  0  0  0  0  0  0  0  0  0  0  0
  146.0129  139.5781  154.8380 C   0  0  0  0  0  0  0  0  0  0  0  0
  145.2840  133.3103  150.3973 N   0  0  0  0  0  0  0  0  0  0  0  0
  144.8700  133.0266  149.1604 C   0  0  0  0  0  0  0  0  0  0  0  0
  143.9551  132.0690  149.1051 N   0  0  0  0  0  0  0  0  0  0  0  0
  143.8423  131.7836  150.4364 C   0  0  0  0  0  0  0  0  0  0  0  0
  144.6082  132.5050  151.2547 N   0  0  0  0  0  0  0  0  0  0  0  0
  148.1722  134.4023  151.8815 H   0  0  0  0  0  0  0  0  0  0  0  0
  147.9180  132.9209  150.9727 H   0  0  0  0  0  0  0  0  0  0  0  0
  147.1042  133.1530  152.5158 H   0  0  0  0  0  0  0  0  0  0  0  0
  146.6422  134.8044  149.9768 H   0  0  0  0  0  0  0  0  0  0  0  0
  147.0933  136.6493  151.3896 H   0  0  0  0  0  0  0  0  0  0  0  0
  144.7857  138.1191  152.0638 H   0  0  0  0  0  0  0  0  0  0  0  0
  145.4015  137.4090  153.5457 H   0  0  0  0  0  0  0  0  0  0  0  0
  147.7152  138.4245  152.9233 H   0  0  0  0  0  0  0  0  0  0  0  0
  146.9135  139.1891  151.5708 H   0  0  0  0  0  0  0  0  0  0  0  0
  148.3324  140.6508  153.8577 H   0  0  0  0  0  0  0  0  0  0  0  0
  147.5880  141.3730  152.4504 H   0  0  0  0  0  0  0  0  0  0  0  0
  147.6641  143.0296  154.3196 H   0  0  0  0  0  0  0  0  0  0  0  0
  146.0243  142.6860  153.8246 H   0  0  0  0  0  0  0  0  0  0  0  0
  147.4012  141.3395  157.5167 H   0  0  0  0  0  0  0  0  0  0  0  0
  148.3974  142.3968  156.5242 H   0  0  0  0  0  0  0  0  0  0  0  0
  148.2623  140.6846  156.1244 H   0  0  0  0  0  0  0  0  0  0  0  0
  145.3010  140.5148  156.6720 H   0  0  0  0  0  0  0  0  0  0  0  0
  144.6295  141.2031  155.2134 H   0  0  0  0  0  0  0  0  0  0  0  0
  145.2062  138.8464  154.8257 H   0  0  0  0  0  0  0  0  0  0  0  0
  146.8634  139.0914  155.3171 H   0  0  0  0  0  0  0  0  0  0  0  0
  145.2412  133.5349  148.2826 H   0  0  0  0  0  0  0  0  0  0  0  0
  143.1702  131.0273  150.8144 H   0  0  0  0  0  0  0  0  0  0  0  0
  145.5377  140.3788  153.0365 H   0  0  0  0  0  0  0  0  0  0  0  0
  1  2  1  0  0  0  0
  1 20  1  0  0  0  0
  1 21  1  0  0  0  0
  1 22  1  0  0  0  0
  2  3  1  0  0  0  0
  2 15  1  0  0  0  0
  2 23  1  0  0  0  0
  3  4  2  0  0  0  0
  3  5  1  0  0  0  0
  5  6  1  0  0  0  0
  5 24  1  0  0  0  0
  6  7  1  0  0  0  0
  6 25  1  0  0  0  0
  6 26  1  0  0  0  0
  7  8  1  0  0  0  0
  7 27  1  0  0  0  0
  7 28  1  0  0  0  0
  8 14  1  0  0  0  0
  8  9  1  0  0  0  0
  8 42  1  0  0  0  0
  9 10  1  0  0  0  0
  9 29  1  0  0  0  0
  9 30  1  0  0  0  0
 10 11  1  0  0  0  0
 10 31  1  0  0  0  0
 10 32  1  0  0  0  0
 11 12  1  0  0  0  0
 11 13  1  0  0  0  0
 12 33  1  0  0  0  0
 12 34  1  0  0  0  0
 12 35  1  0  0  0  0
 13 14  1  0  0  0  0
 13 36  1  0  0  0  0
 13 37  1  0  0  0  0
 14 38  1  0  0  0  0
 14 39  1  0  0  0  0
 15 19  1  0  0  0  0
 15 16  1  0  0  0  0
 16 17  2  0  0  0  0
 16 40  1  0  0  0  0
 17 18  1  0  0  0  0
 18 19  2  0  0  0  0
 18 41  1  0  0  0  0
M  CHG  1   8   1
M  END
> <s_m_source_file>
AV-unprocessed.smi

> <i_m_source_file_index>
3343

> <i_lp_mmshare_version>
43012

> <i_f3d_flags>
0

> <s_epik_input>
bjFbY0hdbltjSF1uMVtDQEhdKFtDSDNdKUMoPU8pW05IXVtDSDJdW0NIMl1OMltDSDJdW0NIMl1OKFtDSDNdKVtDSDJdW0NIMl0y

> <s_epik_cmdline>
J2VwaWtfcHl0aG9uJywgJy1waCcsICc3LjAnLCAnLXRuJywgJzgnLCAnLW1hJywgJzIwMCcsICctbWV0YWxfYmluZGluZycsICctaW1hZScsICc8aW5maWxlLm1hZT4nLCAnLW9tYWUnLCAnPG91dGZpbGUubWFlPic=

> <r_epik_Ionization_Penalty>
0.559944

> <r_epik_Ionization_Penalty_Charging>
0.558624

> <r_epik_Ionization_Penalty_Neutral>
0.00131959

> <r_epik_State_Penalty>
2.08679

> <r_epik_Charging_Adjusted_Penalty>
2.64542

> <i_epik_Tot_Q>
1

> <i_epik_Tot_abs_Q>
1

> <r_epik_Metal_State_Penalty>
2.0868

> <b_epik_Metal_Only>
0

> <s_lp_Force_Field>
OPLS_2005

> <r_lp_Energy>
23.1114

> <b_lp_Chiralities_Consistent>
1

> <s_lp_Variant>
AV-unprocessed.smi:3343-5

> <Gold.Version>
5.8.1

> <Gold.Id.Protein>
6NUR|6NUR_protein|mol2

> <Gold.PLP.Fitness>
44.2227

> <Gold.PLP.PLP>
-29.6287

> <Gold.PLP.part.hbond>
-3.0000

> <Gold.PLP.part.metal>
0.0000

> <Gold.PLP.part.buried>
-5.4244

> <Gold.PLP.part.nonpolar>
-24.0320

> <Gold.PLP.part.repulsive>
0.6401

> <Gold.PLP.ligand.clash>
0.0000

> <Gold.PLP.ligand.torsion>
0.5128

> <Gold.PLP.Chemscore.Hbond>
3.8160

> <Gold.PLP.Chemscore.CHOScore>
1.3429

> <Gold.PLP.Chemscore.Metal>
0.0000

> <Gold.Chemscore.Hbonds>
donor molecule, donor type, donor heavy atom, donor atom, acceptor molecule, acceptor atom, score
      L1  H     5    24       P1  7948  0.77
      L1  H     8    42       P1 10175  2.00
      P1  H 10785 10796       L1    17  0.21
      L1  C    16    40       P1  7921  0.10
      L1  C    18    41       P1 10952  0.41

> <Gold.PLP.Chemscore.Internal.Correction>
0.1431

> <Gold.Rescore>
     Score         DG    S(hbond)    S(metal)    S(lipo)     H(rot)  DE(clash)    DE(int)     intcor
     10.38     -12.69       2.55        0.00      46.21       2.63       0.21       2.10       ----

> <Gold.Chemscore.Fitness>
10.3825

> <Gold.Chemscore.DG>
-12.6916

> <Gold.Chemscore.ZeroCoef>
-5.4800

> <Gold.Chemscore.Hbond>
2.5547

> <Gold.Chemscore.Metal>
0.0000

> <Gold.Chemscore.Lipo>
46.2062

> <Gold.Chemscore.Internal_Hbond>
0.0000

> <Gold.Chemscore.DEClash>
0.2127

> <Gold.Chemscore.DEInternal>
2.0964

> <Gold.Chemscore.Rot>
2.6278

> <Gold.Chemscore.Internal.Correction>
   9.000000E+99

> <Gold.Chemscore.Hbonds>
donor molecule, donor type, donor heavy atom, donor atom, acceptor molecule, acceptor atom, score
      L1  H     5    24       P1  7948  0.75
      L1  H     8    42       P1 10175  0.93

> <Gold.Chemscore.Hbond.Weighted>
-8.5326

> <Gold.Chemscore.Metal.Weighted>
-0.0000

> <Gold.Chemscore.Lipo.Weighted>
-5.4061

> <Gold.Chemscore.Internal_Hbond.Weighted>
0.0000

> <Gold.Chemscore.DEClash.Weighted>
0.2127

> <Gold.Chemscore.DEInternal.Weighted>
2.0964

> <Gold.Chemscore.Rot.Weighted>
6.7271

> <Gold.Chemscore.Internal.Correction.Weighted>
   9.000000E+99

> <Gold.Protein.RotatedTorsions>
[ 6907 6896 6895 6894 ] final -127.95 input  -60.11 | X-H torsion
[ 7974 7965 7964 7962 ] final   37.27 input  175.53 | X-H torsion
[ 8008 7997 7996 7995 ] final   67.00 input   59.86 | X-H torsion
[ 10167 10162 10161 10158 ] final -112.52 input  -65.29 | X-H torsion
[ 10718 10713 10712 10709 ] final  -19.92 input   66.30 | X-H torsion
[ 10763 10752 10751 10750 ] final   30.97 input  -60.55 | X-H torsion
[ 11005 11000 10999 10996 ] final  -40.29 input  -57.11 | X-H torsion

> <Gold.Protein.ActiveResidues>
 VAL166  LYS551  ARG553  GLY616  TRP617  ASP618  TYR619  PRO620  LYS621  CYS622 
 ASP623  PHE694  ASN695  SER759  ASP760  ASP761  ALA762  ILE779  LEU786  VAL792 
 PHE793  MET794  SER795  GLU796  ALA797  LYS798  CYS799  TRP800  GLU811  SER814 

> <Gold.Protein.RotatedAtoms>
  150.9127  133.6977  159.2850 H   0  0  0  0  0  0  0  0  0  0  0  0  # atno 6907 bound_to 6896
  151.4458  135.1023  159.9693 H   0  0  0  0  0  0  0  0  0  0  0  0  # atno 6908 bound_to 6896
  152.4938  133.8525  159.7264 H   0  0  0  0  0  0  0  0  0  0  0  0  # atno 6909 bound_to 6896
  146.1150  139.5914  142.9327 H   0  0  0  0  0  0  0  0  0  0  0  0  # atno 7974 bound_to 7965
  155.6861  140.3496  155.4875 H   0  0  0  0  0  0  0  0  0  0  0  0  # atno 8008 bound_to 7997
  155.9564  140.1129  157.0955 H   0  0  0  0  0  0  0  0  0  0  0  0  # atno 8009 bound_to 7997
  154.4133  140.1184  156.5107 H   0  0  0  0  0  0  0  0  0  0  0  0  # atno 8010 bound_to 7997
  140.1218  143.4436  152.1686 H   0  0  0  0  0  0  0  0  0  0  0  0  # atno 10167 bound_to 10162
  156.5390  130.4673  149.6508 H   0  0  0  0  0  0  0  0  0  0  0  0  # atno 10718 bound_to 10713
  153.0341  135.6450  154.1128 H   0  0  0  0  0  0  0  0  0  0  0  0  # atno 10763 bound_to 10752
  154.0845  135.2871  155.3285 H   0  0  0  0  0  0  0  0  0  0  0  0  # atno 10764 bound_to 10752
  154.6507  135.5427  153.7962 H   0  0  0  0  0  0  0  0  0  0  0  0  # atno 10765 bound_to 10752
  141.0164  133.6883  156.2301 H   0  0  0  0  0  0  0  0  0  0  0  0  # atno 11005 bound_to 11000
  145.5586  141.0406  143.2239 LP  0  0  0  0  0  0  0  0  0  0  0  0  # atno 17320 bound_to 7965
  144.7545  139.7110  143.7260 LP  0  0  0  0  0  0  0  0  0  0  0  0  # atno 17321 bound_to 7965
  139.5565  144.7376  151.4280 LP  0  0  0  0  0  0  0  0  0  0  0  0  # atno 17342 bound_to 10162
  140.6867  143.7956  150.7197 LP  0  0  0  0  0  0  0  0  0  0  0  0  # atno 17343 bound_to 10162
  156.2989  130.7166  151.2033 LP  0  0  0  0  0  0  0  0  0  0  0  0  # atno 17370 bound_to 10713
  157.7409  131.0511  150.5137 LP  0  0  0  0  0  0  0  0  0  0  0  0  # atno 17371 bound_to 10713
  140.6648  134.4930  157.5585 LP  0  0  0  0  0  0  0  0  0  0  0  0  # atno 17394 bound_to 11000
  139.9119  134.8326  156.1498 LP  0  0  0  0  0  0  0  0  0  0  0  0  # atno 17395 bound_to 11000

$$$$
