AV-unprocessed.smi:3028|AV-procd|sdf|11519|dock2
  -GOLD-   2272016453D 1   1.00000     0.00000
 Structure written by MMmdl.
 48 49  0  0  0  0  0  0  0  0  2 V2000
  140.9601  141.2843  156.2653 C   0  0  0  0  0  0  0  0  0  0  0  0
  142.4319  141.5771  156.3068 C   0  0  0  0  0  0  0  0  0  0  0  0
  143.3394  141.3528  157.3803 C   0  0  0  0  0  0  0  0  0  0  0  0
  144.5752  141.7271  157.0934 N   0  0  0  0  0  0  0  0  0  0  0  0
  144.5037  142.2021  155.8300 N   0  0  0  0  0  0  0  0  0  0  0  0
  145.6948  142.7277  155.1718 C   0  0  2  0  0  0  0  0  0  0  0  0
  145.3477  143.1637  153.7356 C   0  0  0  0  0  0  0  0  0  0  0  0
  146.8713  141.7168  155.2396 C   0  0  1  0  0  0  0  0  0  0  0  0
  146.5888  140.4157  154.4703 C   0  0  0  0  0  0  0  0  0  0  0  0
  148.1055  142.3294  154.6958 N   0  3  0  0  0  0  0  0  0  0  0  0
  149.3096  141.4747  154.7623 C   0  0  0  0  0  0  0  0  0  0  0  0
  149.9368  141.4612  156.1621 C   0  0  0  0  0  0  0  0  0  0  0  0
  150.2859  140.3960  156.6686 O   0  0  0  0  0  0  0  0  0  0  0  0
  150.0996  142.6202  156.8220 N   0  0  0  0  0  0  0  0  0  0  0  0
  150.6701  142.8309  158.1522 C   0  0  0  0  0  0  0  0  0  0  0  0
  151.1363  144.2877  158.2948 C   0  0  0  0  0  0  0  0  0  0  0  0
  151.9009  144.4878  159.6137 C   0  0  0  0  0  0  0  0  0  0  0  0
  152.9956  143.5805  159.6852 O   0  0  0  0  0  0  0  0  0  0  0  0
  152.5873  142.2168  159.6816 C   0  0  0  0  0  0  0  0  0  0  0  0
  151.8636  141.8876  158.3656 C   0  0  0  0  0  0  0  0  0  0  0  0
  143.2206  142.1169  155.3309 C   0  0  0  0  0  0  0  0  0  0  0  0
  140.5937  140.9064  157.2201 H   0  0  0  0  0  0  0  0  0  0  0  0
  140.7209  140.5348  155.5107 H   0  0  0  0  0  0  0  0  0  0  0  0
  140.3793  142.1759  156.0291 H   0  0  0  0  0  0  0  0  0  0  0  0
  143.1375  140.9338  158.3551 H   0  0  0  0  0  0  0  0  0  0  0  0
  145.9884  143.6238  155.7210 H   0  0  0  0  0  0  0  0  0  0  0  0
  146.1646  143.7170  153.2732 H   0  0  0  0  0  0  0  0  0  0  0  0
  144.4764  143.8197  153.7276 H   0  0  0  0  0  0  0  0  0  0  0  0
  145.1223  142.3068  153.1001 H   0  0  0  0  0  0  0  0  0  0  0  0
  147.0371  141.4473  156.2844 H   0  0  0  0  0  0  0  0  0  0  0  0
  145.7563  139.8626  154.9040 H   0  0  0  0  0  0  0  0  0  0  0  0
  147.4550  139.7535  154.4948 H   0  0  0  0  0  0  0  0  0  0  0  0
  146.3519  140.6139  153.4243 H   0  0  0  0  0  0  0  0  0  0  0  0
  147.9467  142.5813  153.7307 H   0  0  0  0  0  0  0  0  0  0  0  0
  149.0374  140.4553  154.4880 H   0  0  0  0  0  0  0  0  0  0  0  0
  150.0424  141.8343  154.0387 H   0  0  0  0  0  0  0  0  0  0  0  0
  149.7891  143.4553  156.3459 H   0  0  0  0  0  0  0  0  0  0  0  0
  149.9442  142.6334  158.9403 H   0  0  0  0  0  0  0  0  0  0  0  0
  151.7885  144.5538  157.4614 H   0  0  0  0  0  0  0  0  0  0  0  0
  150.2824  144.9649  158.2515 H   0  0  0  0  0  0  0  0  0  0  0  0
  152.2847  145.5064  159.6728 H   0  0  0  0  0  0  0  0  0  0  0  0
  151.2410  144.3464  160.4709 H   0  0  0  0  0  0  0  0  0  0  0  0
  153.4690  141.5854  159.7917 H   0  0  0  0  0  0  0  0  0  0  0  0
  151.9439  142.0167  160.5398 H   0  0  0  0  0  0  0  0  0  0  0  0
  151.5290  140.8494  158.3727 H   0  0  0  0  0  0  0  0  0  0  0  0
  152.5677  141.9839  157.5378 H   0  0  0  0  0  0  0  0  0  0  0  0
  142.9742  142.4485  154.3328 H   0  0  0  0  0  0  0  0  0  0  0  0
  148.2952  143.1742  155.2160 H   0  0  0  0  0  0  0  0  0  0  0  0
  1  2  1  0  0  0  0
  1 22  1  0  0  0  0
  1 23  1  0  0  0  0
  1 24  1  0  0  0  0
  2 21  2  0  0  0  0
  2  3  1  0  0  0  0
  3  4  2  0  0  0  0
  3 25  1  0  0  0  0
  4  5  1  0  0  0  0
  5  6  1  0  0  0  0
  5 21  1  0  0  0  0
  6  7  1  0  0  0  0
  6  8  1  0  0  0  0
  6 26  1  0  0  0  0
  7 27  1  0  0  0  0
  7 28  1  0  0  0  0
  7 29  1  0  0  0  0
  8  9  1  0  0  0  0
  8 10  1  0  0  0  0
  8 30  1  0  0  0  0
  9 31  1  0  0  0  0
  9 32  1  0  0  0  0
  9 33  1  0  0  0  0
 10 11  1  0  0  0  0
 10 34  1  0  0  0  0
 10 48  1  0  0  0  0
 11 12  1  0  0  0  0
 11 35  1  0  0  0  0
 11 36  1  0  0  0  0
 12 13  2  0  0  0  0
 12 14  1  0  0  0  0
 14 15  1  0  0  0  0
 14 37  1  0  0  0  0
 15 20  1  0  0  0  0
 15 16  1  0  0  0  0
 15 38  1  0  0  0  0
 16 17  1  0  0  0  0
 16 39  1  0  0  0  0
 16 40  1  0  0  0  0
 17 18  1  0  0  0  0
 17 41  1  0  0  0  0
 17 42  1  0  0  0  0
 18 19  1  0  0  0  0
 19 20  1  0  0  0  0
 19 43  1  0  0  0  0
 19 44  1  0  0  0  0
 20 45  1  0  0  0  0
 20 46  1  0  0  0  0
 21 47  1  0  0  0  0
M  CHG  1  10   1
M  END
> <s_m_source_file>
AV-unprocessed.smi

> <i_m_source_file_index>
3028

> <i_lp_mmshare_version>
43012

> <i_f3d_flags>
0

> <s_epik_input>
W0NIM11jMVtjSF1ubihbY0hdMSlbQ0BIXShbQ0gzXSlbQ0BIXShbQ0gzXSlbTkhdW0NIMl1DKD1PKVtOSF1bQ0hdMltDSDJdW0NIMl1PW0NIMl1bQ0gyXTI=

> <s_epik_cmdline>
J2VwaWtfcHl0aG9uJywgJy1waCcsICc3LjAnLCAnLXRuJywgJzgnLCAnLW1hJywgJzIwMCcsICctbWV0YWxfYmluZGluZycsICctaW1hZScsICc8aW5maWxlLm1hZT4nLCAnLW9tYWUnLCAnPG91dGZpbGUubWFlPic=

> <r_lp_tautomer_probability>
1

> <r_epik_Ionization_Penalty>
0.151514

> <r_epik_Ionization_Penalty_Charging>
0.151494

> <r_epik_Ionization_Penalty_Neutral>
1.95502e-05

> <r_epik_State_Penalty>
0.141395

> <r_epik_Charging_Adjusted_Penalty>
0.292889

> <i_epik_Tot_Q>
1

> <i_epik_Tot_abs_Q>
1

> <r_epik_Metal_State_Penalty>
0.141632

> <b_epik_Metal_Only>
0

> <s_lp_Force_Field>
OPLS_2005

> <r_lp_Energy>
16.7547

> <b_lp_Chiralities_Consistent>
1

> <s_lp_Variant>
AV-unprocessed.smi:3028-3

> <Gold.Version>
5.8.1

> <Gold.Id.Protein>
6NUR|6NUR_protein|mol2

> <Gold.PLP.Fitness>
48.6462

> <Gold.PLP.PLP>
-37.8339

> <Gold.PLP.part.hbond>
-2.0000

> <Gold.PLP.part.metal>
0.0000

> <Gold.PLP.part.buried>
-6.1080

> <Gold.PLP.part.nonpolar>
-30.8419

> <Gold.PLP.part.repulsive>
0.3087

> <Gold.PLP.ligand.clash>
0.0000

> <Gold.PLP.ligand.torsion>
0.6480

> <Gold.PLP.Chemscore.Hbond>
2.9600

> <Gold.PLP.Chemscore.CHOScore>
1.0000

> <Gold.PLP.Chemscore.Metal>
0.0000

> <Gold.Chemscore.Hbonds>
donor molecule, donor type, donor heavy atom, donor atom, acceptor molecule, acceptor atom, score
      L1  H    10    48       P1  8028  2.00
      L1  H    14    37       P1  8028  1.00
      L1  C    21    47       P1 10174  1.00

> <Gold.PLP.Chemscore.Internal.Correction>
0.2283

> <Gold.Rescore>
     Score         DG    S(hbond)    S(metal)    S(lipo)     H(rot)  DE(clash)    DE(int)     intcor
     15.22     -17.33       1.97        0.00      88.60       1.99       0.04       2.08       ----

> <Gold.Chemscore.Fitness>
15.2154

> <Gold.Chemscore.DG>
-17.3264

> <Gold.Chemscore.ZeroCoef>
-5.4800

> <Gold.Chemscore.Hbond>
1.9683

> <Gold.Chemscore.Metal>
0.0000

> <Gold.Chemscore.Lipo>
88.5958

> <Gold.Chemscore.Internal_Hbond>
0.0000

> <Gold.Chemscore.DEClash>
0.0354

> <Gold.Chemscore.DEInternal>
2.0756

> <Gold.Chemscore.Rot>
1.9897

> <Gold.Chemscore.Internal.Correction>
   9.000000E+99

> <Gold.Chemscore.Hbonds>
donor molecule, donor type, donor heavy atom, donor atom, acceptor molecule, acceptor atom, score
      L1  H    10    48       P1  8028  0.98
      L1  H    14    37       P1  8028  1.00

> <Gold.Chemscore.Hbond.Weighted>
-6.5743

> <Gold.Chemscore.Metal.Weighted>
-0.0000

> <Gold.Chemscore.Lipo.Weighted>
-10.3657

> <Gold.Chemscore.Internal_Hbond.Weighted>
0.0000

> <Gold.Chemscore.DEClash.Weighted>
0.0354

> <Gold.Chemscore.DEInternal.Weighted>
2.0756

> <Gold.Chemscore.Rot.Weighted>
5.0936

> <Gold.Chemscore.Internal.Correction.Weighted>
   9.000000E+99

> <Gold.Protein.RotatedTorsions>
[ 6907 6896 6895 6894 ] final -140.52 input  -60.11 | X-H torsion
[ 7974 7965 7964 7962 ] final  168.83 input  175.53 | X-H torsion
[ 8008 7997 7996 7995 ] final -121.17 input   59.86 | X-H torsion
[ 10167 10162 10161 10158 ] final -139.20 input  -65.29 | X-H torsion
[ 10718 10713 10712 10709 ] final  -17.89 input   66.30 | X-H torsion
[ 10763 10752 10751 10750 ] final   34.61 input  -60.55 | X-H torsion
[ 11005 11000 10999 10996 ] final   92.24 input  -57.11 | X-H torsion

> <Gold.Protein.ActiveResidues>
 VAL166  LYS551  ARG553  GLY616  TRP617  ASP618  TYR619  PRO620  LYS621  CYS622 
 ASP623  PHE694  ASN695  SER759  ASP760  ASP761  ALA762  ILE779  LEU786  VAL792 
 PHE793  MET794  SER795  GLU796  ALA797  LYS798  CYS799  TRP800  GLU811  SER814 

> <Gold.Protein.RotatedAtoms>
  151.0617  133.5538  159.2633 H   0  0  0  0  0  0  0  0  0  0  0  0  # atno 6907 bound_to 6896
  151.2511  135.0621  159.9072 H   0  0  0  0  0  0  0  0  0  0  0  0  # atno 6908 bound_to 6896
  152.5398  134.0377  159.8107 H   0  0  0  0  0  0  0  0  0  0  0  0  # atno 6909 bound_to 6896
  144.7375  139.8966  143.6406 H   0  0  0  0  0  0  0  0  0  0  0  0  # atno 7974 bound_to 7965
  155.1436  140.0402  157.2804 H   0  0  0  0  0  0  0  0  0  0  0  0  # atno 8008 bound_to 7997
  154.6455  140.2557  155.7246 H   0  0  0  0  0  0  0  0  0  0  0  0  # atno 8009 bound_to 7997
  156.2553  140.2847  156.0867 H   0  0  0  0  0  0  0  0  0  0  0  0  # atno 8010 bound_to 7997
  139.8403  143.7331  152.2663 H   0  0  0  0  0  0  0  0  0  0  0  0  # atno 10167 bound_to 10162
  156.5672  130.4740  149.6379 H   0  0  0  0  0  0  0  0  0  0  0  0  # atno 10718 bound_to 10713
  153.0156  135.6356  154.1696 H   0  0  0  0  0  0  0  0  0  0  0  0  # atno 10763 bound_to 10752
  154.1435  135.2833  155.3156 H   0  0  0  0  0  0  0  0  0  0  0  0  # atno 10764 bound_to 10752
  154.6107  135.5557  153.7531 H   0  0  0  0  0  0  0  0  0  0  0  0  # atno 10765 bound_to 10752
  139.8826  134.8721  156.3544 H   0  0  0  0  0  0  0  0  0  0  0  0  # atno 11005 bound_to 11000
  146.1103  139.4107  143.0292 LP  0  0  0  0  0  0  0  0  0  0  0  0  # atno 17320 bound_to 7965
  145.7453  140.9993  143.1279 LP  0  0  0  0  0  0  0  0  0  0  0  0  # atno 17321 bound_to 7965
  139.7566  144.7519  151.0426 LP  0  0  0  0  0  0  0  0  0  0  0  0  # atno 17342 bound_to 10162
  140.7798  143.4799  151.0032 LP  0  0  0  0  0  0  0  0  0  0  0  0  # atno 17343 bound_to 10162
  156.2746  130.7036  151.1843 LP  0  0  0  0  0  0  0  0  0  0  0  0  # atno 17370 bound_to 10713
  157.7356  131.0571  150.5461 LP  0  0  0  0  0  0  0  0  0  0  0  0  # atno 17371 bound_to 10713
  140.9572  133.7412  156.0352 LP  0  0  0  0  0  0  0  0  0  0  0  0  # atno 17394 bound_to 11000
  140.8033  134.3483  157.5433 LP  0  0  0  0  0  0  0  0  0  0  0  0  # atno 17395 bound_to 11000

$$$$
