AV-unprocessed.smi:72|AV-procd|sdf|749|dock3
  -GOLD-   2262017 83D 1   1.00000     0.00000
 Structure written by MMmdl.
 29 30  0  0  0  0  0  0  0  0  1 V2000
  152.1227  141.1634  159.5043 N   0  0  0  0  0  0  0  0  0  0  0  0
  151.5192  141.0646  158.2685 C   0  0  0  0  0  0  0  0  0  0  0  0
  150.3755  141.8489  158.0697 N   0  0  0  0  0  0  0  0  0  0  0  0
  149.7958  141.7480  156.9159 C   0  0  0  0  0  0  0  0  0  0  0  0
  150.2961  140.8424  155.8927 N   0  0  0  0  0  0  0  0  0  0  0  0
  149.6558  140.7172  154.5178 C   0  0  2  0  0  0  0  0  0  0  0  0
  148.8163  141.8055  154.2714 O   0  0  0  0  0  0  0  0  0  0  0  0
  147.4826  141.4721  154.6353 C   0  0  1  0  0  0  0  0  0  0  0  0
  146.4978  142.4271  153.9452 C   0  0  0  0  0  0  0  0  0  0  0  0
  145.1712  142.0617  154.2602 O   0  0  0  0  0  0  0  0  0  0  0  0
  147.3756  140.0245  154.1538 C   0  0  2  0  0  0  0  0  0  0  0  0
  146.3994  139.3274  154.9016 O   0  0  0  0  0  0  0  0  0  0  0  0
  148.7678  139.4557  154.4213 C   0  0  1  0  0  0  0  0  0  0  0  0
  149.1645  138.6200  153.3533 O   0  0  0  0  0  0  0  0  0  0  0  0
  151.4934  140.1163  156.1488 C   0  0  0  0  0  0  0  0  0  0  0  0
  151.9790  139.3973  155.2751 O   0  0  0  0  0  0  0  0  0  0  0  0
  152.0756  140.2560  157.4137 N   0  0  0  0  0  0  0  0  0  0  0  0
  150.4956  140.7352  153.8207 H   0  0  0  0  0  0  0  0  0  0  0  0
  147.3688  141.5090  155.7206 H   0  0  0  0  0  0  0  0  0  0  0  0
  147.1358  139.9975  153.0893 H   0  0  0  0  0  0  0  0  0  0  0  0
  148.7969  138.9006  155.3607 H   0  0  0  0  0  0  0  0  0  0  0  0
  152.9523  140.6480  159.7596 H   0  0  0  0  0  0  0  0  0  0  0  0
  151.7822  141.7609  160.2433 H   0  0  0  0  0  0  0  0  0  0  0  0
  148.9137  142.3311  156.6516 H   0  0  0  0  0  0  0  0  0  0  0  0
  146.6852  143.4636  154.2268 H   0  0  0  0  0  0  0  0  0  0  0  0
  146.6072  142.3597  152.8625 H   0  0  0  0  0  0  0  0  0  0  0  0
  144.8906  141.3953  153.6519 H   0  0  0  0  0  0  0  0  0  0  0  0
  146.3224  139.7405  155.7482 H   0  0  0  0  0  0  0  0  0  0  0  0
  149.5498  139.1591  152.6793 H   0  0  0  0  0  0  0  0  0  0  0  0
  1  2  1  0  0  0  0
  1 22  1  0  0  0  0
  1 23  1  0  0  0  0
  2 17  2  0  0  0  0
  2  3  1  0  0  0  0
  3  4  2  0  0  0  0
  4  5  1  0  0  0  0
  4 24  1  0  0  0  0
  5  6  1  0  0  0  0
  5 15  1  0  0  0  0
  6 18  1  0  0  0  0
  6 13  1  0  0  0  0
  6  7  1  0  0  0  0
  7  8  1  0  0  0  0
  8 19  1  0  0  0  0
  8  9  1  0  0  0  0
  8 11  1  0  0  0  0
  9 10  1  0  0  0  0
  9 25  1  0  0  0  0
  9 26  1  0  0  0  0
 10 27  1  0  0  0  0
 11 20  1  0  0  0  0
 11 12  1  0  0  0  0
 11 13  1  0  0  0  0
 12 28  1  0  0  0  0
 13 21  1  0  0  0  0
 13 14  1  0  0  0  0
 14 29  1  0  0  0  0
 15 16  2  0  0  0  0
 15 17  1  0  0  0  0
M  END
> <s_m_source_file>
AV-unprocessed.smi

> <i_m_source_file_index>
72

> <i_lp_mmshare_version>
43012

> <i_f3d_flags>
0

> <s_epik_input>
W05IMl1jMW5bY0hdbihjKD1PKW4xKVtDQEBIXTJPW0NASF0oW0NIMl1bT0hdKVtDQEBIXShbT0hdKVtDQEhdMltPSF0=

> <s_epik_cmdline>
J2VwaWtfcHl0aG9uJywgJy1waCcsICc3LjAnLCAnLXRuJywgJzgnLCAnLW1hJywgJzIwMCcsICctbWV0YWxfYmluZGluZycsICctaW1hZScsICc8aW5maWxlLm1hZT4nLCAnLW9tYWUnLCAnPG91dGZpbGUubWFlPic=

> <r_lp_tautomer_probability>
4.77166e-05

> <r_epik_Ionization_Penalty>
1.3546

> <r_epik_Ionization_Penalty_Charging>
1.46833e-10

> <r_epik_Ionization_Penalty_Neutral>
1.3546

> <r_epik_State_Penalty>
3.51908

> <r_epik_Charging_Adjusted_Penalty>
3.51908

> <i_epik_Tot_Q>
0

> <i_epik_Tot_abs_Q>
0

> <r_epik_Metal_State_Penalty>
3.44088

> <b_epik_Metal_Only>
1

> <s_epik_Chemistry_Notes>
This compound contains an acetal/aminal-like group ( X-CH(R)-Y where X, Y are N, S, or O) that may be acid/base labile, releasing an aldehyde.

> <s_lp_Force_Field>
OPLS_2005

> <r_lp_Energy>
23.1621

> <b_lp_Chiralities_Consistent>
1

> <s_lp_Variant>
AV-unprocessed.smi:72-87

> <Gold.Version>
5.8.1

> <Gold.Id.Protein>
6NUR|6NUR_protein|mol2

> <Gold.PLP.Fitness>
41.1809

> <Gold.PLP.PLP>
-27.9531

> <Gold.PLP.part.hbond>
-5.7526

> <Gold.PLP.part.metal>
0.0000

> <Gold.PLP.part.buried>
-0.2073

> <Gold.PLP.part.nonpolar>
-20.9196

> <Gold.PLP.part.repulsive>
0.3908

> <Gold.PLP.ligand.clash>
0.0000

> <Gold.PLP.ligand.torsion>
0.5559

> <Gold.PLP.Chemscore.Hbond>
3.7666

> <Gold.PLP.Chemscore.CHOScore>
1.0000

> <Gold.PLP.Chemscore.Metal>
0.0000

> <Gold.Chemscore.Hbonds>
donor molecule, donor type, donor heavy atom, donor atom, acceptor molecule, acceptor atom, score
      L1  H    10    27       P1 10175  0.95
      L1  H    14    29       P1  7957  1.00
      P1  H  7989  7998       L1    16  0.23
      P1  H  8011  8017       L1     7  0.17
      L1  C     4    24       P1  8028  0.82

> <Gold.PLP.Chemscore.Internal.Correction>
0.0398

> <Gold.Rescore>
     Score         DG    S(hbond)    S(metal)    S(lipo)     H(rot)  DE(clash)    DE(int)     intcor
      4.93      -5.41       2.41        0.00      19.51       4.06       0.08       0.41       ----

> <Gold.Chemscore.Fitness>
4.9269

> <Gold.Chemscore.DG>
-5.4142

> <Gold.Chemscore.ZeroCoef>
-5.4800

> <Gold.Chemscore.Hbond>
2.4086

> <Gold.Chemscore.Metal>
0.0000

> <Gold.Chemscore.Lipo>
19.5143

> <Gold.Chemscore.Internal_Hbond>
0.0000

> <Gold.Chemscore.DEClash>
0.0801

> <Gold.Chemscore.DEInternal>
0.4073

> <Gold.Chemscore.Rot>
4.0600

> <Gold.Chemscore.Internal.Correction>
   9.000000E+99

> <Gold.Chemscore.Hbonds>
donor molecule, donor type, donor heavy atom, donor atom, acceptor molecule, acceptor atom, score
      L1  H    10    27       P1 10175  0.21
      L1  H    14    29       P1  7957  0.96
      P1  H  7989  7998       L1    16  0.04
      P1  H  8011  8017       L1     7  0.03

> <Gold.Chemscore.Hbond.Weighted>
-8.0447

> <Gold.Chemscore.Metal.Weighted>
-0.0000

> <Gold.Chemscore.Lipo.Weighted>
-2.2832

> <Gold.Chemscore.Internal_Hbond.Weighted>
0.0000

> <Gold.Chemscore.DEClash.Weighted>
0.0801

> <Gold.Chemscore.DEInternal.Weighted>
0.4073

> <Gold.Chemscore.Rot.Weighted>
10.3936

> <Gold.Chemscore.Internal.Correction.Weighted>
   9.000000E+99

> <Gold.Protein.RotatedTorsions>
[ 6907 6896 6895 6894 ] final -130.49 input  -60.11 | X-H torsion
[ 7974 7965 7964 7962 ] final  102.74 input  175.53 | X-H torsion
[ 8008 7997 7996 7995 ] final -169.51 input   59.86 | X-H torsion
[ 10167 10162 10161 10158 ] final   83.09 input  -65.29 | X-H torsion
[ 10718 10713 10712 10709 ] final -119.50 input   66.30 | X-H torsion
[ 10763 10752 10751 10750 ] final  179.96 input  -60.55 | X-H torsion
[ 11005 11000 10999 10996 ] final  110.15 input  -57.11 | X-H torsion

> <Gold.Protein.ActiveResidues>
 VAL166  LYS551  ARG553  GLY616  TRP617  ASP618  TYR619  PRO620  LYS621  CYS622 
 ASP623  PHE694  ASN695  SER759  ASP760  ASP761  ALA762  ILE779  LEU786  VAL792 
 PHE793  MET794  SER795  GLU796  ALA797  LYS798  CYS799  TRP800  GLU811  SER814 

> <Gold.Protein.RotatedAtoms>
  150.9403  133.6664  159.2791 H   0  0  0  0  0  0  0  0  0  0  0  0  # atno 6907 bound_to 6896
  151.4055  135.0976  159.9579 H   0  0  0  0  0  0  0  0  0  0  0  0  # atno 6908 bound_to 6896
  152.5066  133.8888  159.7438 H   0  0  0  0  0  0  0  0  0  0  0  0  # atno 6909 bound_to 6896
  145.3551  139.2430  143.3537 H   0  0  0  0  0  0  0  0  0  0  0  0  # atno 7974 bound_to 7965
  155.9060  140.1049  157.1315 H   0  0  0  0  0  0  0  0  0  0  0  0  # atno 8008 bound_to 7997
  154.4032  140.1283  156.4561 H   0  0  0  0  0  0  0  0  0  0  0  0  # atno 8009 bound_to 7997
  155.7367  140.3467  155.5087 H   0  0  0  0  0  0  0  0  0  0  0  0  # atno 8010 bound_to 7997
  139.9220  144.6206  150.8430 H   0  0  0  0  0  0  0  0  0  0  0  0  # atno 10167 bound_to 10162
  156.1186  130.6305  150.9424 H   0  0  0  0  0  0  0  0  0  0  0  0  # atno 10718 bound_to 10713
  154.5274  135.2797  155.1210 H   0  0  0  0  0  0  0  0  0  0  0  0  # atno 10763 bound_to 10752
  154.2744  135.6297  153.5326 H   0  0  0  0  0  0  0  0  0  0  0  0  # atno 10764 bound_to 10752
  152.9949  135.5636  154.5778 H   0  0  0  0  0  0  0  0  0  0  0  0  # atno 10765 bound_to 10752
  139.8876  134.9477  156.6235 H   0  0  0  0  0  0  0  0  0  0  0  0  # atno 11005 bound_to 11000
  146.2951  140.4174  142.8724 LP  0  0  0  0  0  0  0  0  0  0  0  0  # atno 17320 bound_to 7965
  144.8688  140.7244  143.6060 LP  0  0  0  0  0  0  0  0  0  0  0  0  # atno 17321 bound_to 7965
  140.7659  143.3290  151.2452 LP  0  0  0  0  0  0  0  0  0  0  0  0  # atno 17342 bound_to 10162
  139.6853  143.9784  152.2831 LP  0  0  0  0  0  0  0  0  0  0  0  0  # atno 17343 bound_to 10162
  157.6369  131.0915  150.8330 LP  0  0  0  0  0  0  0  0  0  0  0  0  # atno 17370 bound_to 10713
  156.8429  130.5054  149.5319 LP  0  0  0  0  0  0  0  0  0  0  0  0  # atno 17371 bound_to 10713
  140.7721  133.8730  155.8500 LP  0  0  0  0  0  0  0  0  0  0  0  0  # atno 17394 bound_to 11000
  140.9833  134.1376  157.4475 LP  0  0  0  0  0  0  0  0  0  0  0  0  # atno 17395 bound_to 11000

$$$$
