AV-unprocessed.smi:746|AV-procd|sdf|3577|dock4
  -GOLD-   22720 0573D 1   1.00000     0.00000
 Structure written by MMmdl.
 48 50  0  0  0  0  0  0  0  0  1 V2000
  154.3749  133.7081  165.3898 C   0  0  0  0  0  0  0  0  0  0  0  0
  155.2884  133.7060  164.3064 O   0  0  0  0  0  0  0  0  0  0  0  0
  154.7722  133.0439  163.1640 C   0  0  0  0  0  0  0  0  0  0  0  0
  155.8095  133.0985  162.0391 C   0  0  0  0  0  0  0  0  0  0  0  0
  155.2118  133.7152  160.9031 O   0  0  0  0  0  0  0  0  0  0  0  0
  154.9573  135.0705  160.9447 C   0  0  0  0  0  0  0  0  0  0  0  0
  155.4063  135.8045  162.0599 C   0  0  0  0  0  0  0  0  0  0  0  0
  155.1518  137.1880  162.1126 C   0  0  0  0  0  0  0  0  0  0  0  0
  154.4605  137.7976  161.0387 C   0  0  0  0  0  0  0  0  0  0  0  0
  154.1277  139.1781  160.9817 N   0  0  0  0  0  0  0  0  0  0  0  0
  153.7772  139.9183  159.9110 C   0  0  0  0  0  0  0  0  0  0  0  0
  153.5287  139.4378  158.8054 O   0  0  0  0  0  0  0  0  0  0  0  0
  153.5648  141.2226  160.2130 N   0  0  0  0  0  0  0  0  0  0  0  0
  154.2373  141.8859  161.3439 C   0  0  0  0  0  0  0  0  0  0  0  0
  153.2119  142.6240  162.2249 C   0  0  0  0  0  0  0  0  0  0  0  0
  152.0531  143.2216  161.4039 C   0  0  0  0  0  0  0  0  0  0  0  0
  152.4635  143.4844  159.9399 C   0  0  2  0  0  0  0  0  0  0  0  0
  151.2887  143.9775  159.0721 C   0  0  0  0  0  0  0  0  0  0  0  0
  151.1661  142.9915  157.9074 C   0  0  0  0  0  0  0  0  0  0  0  0
  151.8083  141.7043  158.4169 C   0  0  0  0  0  0  0  0  0  0  0  0
  153.0004  142.1996  159.2535 C   0  0  2  0  0  0  0  0  0  0  0  0
  154.0411  136.9716  159.9753 C   0  0  0  0  0  0  0  0  0  0  0  0
  154.2823  135.6447  159.9185 N   0  0  0  0  0  0  0  0  0  0  0  0
  154.8164  134.2263  166.2409 H   0  0  0  0  0  0  0  0  0  0  0  0
  154.1326  132.6918  165.7036 H   0  0  0  0  0  0  0  0  0  0  0  0
  153.4502  134.2229  165.1257 H   0  0  0  0  0  0  0  0  0  0  0  0
  154.5401  132.0055  163.4053 H   0  0  0  0  0  0  0  0  0  0  0  0
  153.8467  133.5229  162.8406 H   0  0  0  0  0  0  0  0  0  0  0  0
  156.6791  133.6708  162.3672 H   0  0  0  0  0  0  0  0  0  0  0  0
  156.1409  132.0875  161.7955 H   0  0  0  0  0  0  0  0  0  0  0  0
  155.9339  135.3141  162.8645 H   0  0  0  0  0  0  0  0  0  0  0  0
  155.4786  137.7450  162.9768 H   0  0  0  0  0  0  0  0  0  0  0  0
  154.1466  139.6653  161.8659 H   0  0  0  0  0  0  0  0  0  0  0  0
  154.8436  141.2181  161.9573 H   0  0  0  0  0  0  0  0  0  0  0  0
  154.9454  142.6072  160.9324 H   0  0  0  0  0  0  0  0  0  0  0  0
  152.8046  141.9451  162.9751 H   0  0  0  0  0  0  0  0  0  0  0  0
  153.7243  143.4132  162.7763 H   0  0  0  0  0  0  0  0  0  0  0  0
  151.2190  142.5182  161.4136 H   0  0  0  0  0  0  0  0  0  0  0  0
  151.6878  144.1344  161.8756 H   0  0  0  0  0  0  0  0  0  0  0  0
  153.2505  144.2403  159.9374 H   0  0  0  0  0  0  0  0  0  0  0  0
  150.3612  143.9835  159.6462 H   0  0  0  0  0  0  0  0  0  0  0  0
  151.4484  144.9949  158.7132 H   0  0  0  0  0  0  0  0  0  0  0  0
  150.1334  142.8468  157.5884 H   0  0  0  0  0  0  0  0  0  0  0  0
  151.7286  143.3639  157.0502 H   0  0  0  0  0  0  0  0  0  0  0  0
  151.1007  141.1613  159.0456 H   0  0  0  0  0  0  0  0  0  0  0  0
  152.0988  141.0522  157.5932 H   0  0  0  0  0  0  0  0  0  0  0  0
  153.7966  142.4873  158.5646 H   0  0  0  0  0  0  0  0  0  0  0  0
  153.4971  137.3875  159.1396 H   0  0  0  0  0  0  0  0  0  0  0  0
  1  2  1  0  0  0  0
  1 24  1  0  0  0  0
  1 25  1  0  0  0  0
  1 26  1  0  0  0  0
  2  3  1  0  0  0  0
  3  4  1  0  0  0  0
  3 27  1  0  0  0  0
  3 28  1  0  0  0  0
  4  5  1  0  0  0  0
  4 29  1  0  0  0  0
  4 30  1  0  0  0  0
  5  6  1  0  0  0  0
  6 23  1  0  0  0  0
  6  7  2  0  0  0  0
  7  8  1  0  0  0  0
  7 31  1  0  0  0  0
  8  9  2  0  0  0  0
  8 32  1  0  0  0  0
  9 10  1  0  0  0  0
  9 22  1  0  0  0  0
 10 11  1  0  0  0  0
 10 33  1  0  0  0  0
 11 12  2  0  0  0  0
 11 13  1  0  0  0  0
 13 21  1  0  0  0  0
 13 14  1  0  0  0  0
 14 15  1  0  0  0  0
 14 34  1  0  0  0  0
 14 35  1  0  0  0  0
 15 16  1  0  0  0  0
 15 36  1  0  0  0  0
 15 37  1  0  0  0  0
 16 17  1  0  0  0  0
 16 38  1  0  0  0  0
 16 39  1  0  0  0  0
 17 21  1  0  0  0  0
 17 18  1  0  0  0  0
 17 40  1  0  0  0  0
 18 19  1  0  0  0  0
 18 41  1  0  0  0  0
 18 42  1  0  0  0  0
 19 20  1  0  0  0  0
 19 43  1  0  0  0  0
 19 44  1  0  0  0  0
 20 21  1  0  0  0  0
 20 45  1  0  0  0  0
 20 46  1  0  0  0  0
 21 47  1  0  0  0  0
 22 23  2  0  0  0  0
 22 48  1  0  0  0  0
M  END
> <s_m_source_file>
AV-unprocessed.smi

> <i_m_source_file_index>
746

> <i_lp_mmshare_version>
43012

> <i_f3d_flags>
0

> <s_epik_input>
W0NIM11PW0NIMl1bQ0gyXU9jMVtjSF1bY0hdYyhbY0hdbjEpW05IXUMoPU8pTihbQ0gyXVtDSDJdW0NIMl0yKVtDQEhdKFtDQEBIXTIzKVtDSDJdW0NIMl1bQ0gyXTM=

> <s_epik_cmdline>
J2VwaWtfcHl0aG9uJywgJy1waCcsICc3LjAnLCAnLXRuJywgJzgnLCAnLW1hJywgJzIwMCcsICctbWV0YWxfYmluZGluZycsICctaW1hZScsICc8aW5maWxlLm1hZT4nLCAnLW9tYWUnLCAnPG91dGZpbGUubWFlPic=

> <r_lp_tautomer_probability>
1

> <r_epik_Ionization_Penalty>
8.29966e-05

> <r_epik_Ionization_Penalty_Charging>
0

> <r_epik_Ionization_Penalty_Neutral>
8.29966e-05

> <r_epik_State_Penalty>
-0

> <r_epik_Charging_Adjusted_Penalty>
0

> <i_epik_Tot_Q>
0

> <i_epik_Tot_abs_Q>
0

> <r_epik_Metal_State_Penalty>
-0

> <b_epik_Metal_Only>
0

> <s_lp_Force_Field>
OPLS_2005

> <r_lp_Energy>
61.4405

> <b_lp_Chiralities_Consistent>
1

> <s_lp_Variant>
AV-unprocessed.smi:746-2

> <Gold.Version>
5.8.1

> <Gold.Id.Protein>
6NUR|6NUR_protein|mol2

> <Gold.PLP.Fitness>
48.2515

> <Gold.PLP.PLP>
-44.7162

> <Gold.PLP.part.hbond>
-1.9475

> <Gold.PLP.part.metal>
0.0000

> <Gold.PLP.part.buried>
-2.7733

> <Gold.PLP.part.nonpolar>
-39.3313

> <Gold.PLP.part.repulsive>
0.0730

> <Gold.PLP.ligand.clash>
1.0851

> <Gold.PLP.ligand.torsion>
0.6471

> <Gold.PLP.Chemscore.Hbond>
1.8425

> <Gold.PLP.Chemscore.CHOScore>
0.0000

> <Gold.PLP.Chemscore.Metal>
0.0000

> <Gold.Chemscore.Hbonds>
donor molecule, donor type, donor heavy atom, donor atom, acceptor molecule, acceptor atom, score
      P1  H  6896  6908       L1    23  0.86
      P1  H  7997  8010       L1    12  0.76

> <Gold.PLP.Chemscore.Internal.Correction>
0.3871

> <Gold.Rescore>
     Score         DG    S(hbond)    S(metal)    S(lipo)     H(rot)  DE(clash)    DE(int)     intcor
     16.61     -20.27       1.06        0.00     129.48       1.52       0.26       3.41       ----

> <Gold.Chemscore.Fitness>
16.6051

> <Gold.Chemscore.DG>
-20.2745

> <Gold.Chemscore.ZeroCoef>
-5.4800

> <Gold.Chemscore.Hbond>
1.0567

> <Gold.Chemscore.Metal>
0.0000

> <Gold.Chemscore.Lipo>
129.4797

> <Gold.Chemscore.Internal_Hbond>
0.0000

> <Gold.Chemscore.DEClash>
0.2557

> <Gold.Chemscore.DEInternal>
3.4137

> <Gold.Chemscore.Rot>
1.5172

> <Gold.Chemscore.Internal.Correction>
   9.000000E+99

> <Gold.Chemscore.Hbonds>
donor molecule, donor type, donor heavy atom, donor atom, acceptor molecule, acceptor atom, score
      P1  H  6896  6908       L1    23  0.17
      P1  H  7997  8010       L1    12  0.69

> <Gold.Chemscore.Hbond.Weighted>
-3.5295

> <Gold.Chemscore.Metal.Weighted>
-0.0000

> <Gold.Chemscore.Lipo.Weighted>
-15.1491

> <Gold.Chemscore.Internal_Hbond.Weighted>
0.0000

> <Gold.Chemscore.DEClash.Weighted>
0.2557

> <Gold.Chemscore.DEInternal.Weighted>
3.4137

> <Gold.Chemscore.Rot.Weighted>
3.8841

> <Gold.Chemscore.Internal.Correction.Weighted>
   9.000000E+99

> <Gold.Protein.RotatedTorsions>
[ 6907 6896 6895 6894 ] final  -66.33 input  -60.11 | X-H torsion
[ 7974 7965 7964 7962 ] final   55.59 input  175.53 | X-H torsion
[ 8008 7997 7996 7995 ] final   18.07 input   59.86 | X-H torsion
[ 10167 10162 10161 10158 ] final  -29.62 input  -65.29 | X-H torsion
[ 10718 10713 10712 10709 ] final  -34.51 input   66.30 | X-H torsion
[ 10763 10752 10751 10750 ] final   83.27 input  -60.55 | X-H torsion
[ 11005 11000 10999 10996 ] final   82.39 input  -57.11 | X-H torsion

> <Gold.Protein.ActiveResidues>
 VAL166  LYS551  ARG553  GLY616  TRP617  ASP618  TYR619  PRO620  LYS621  CYS622 
 ASP623  PHE694  ASN695  SER759  ASP760  ASP761  ALA762  ILE779  LEU786  VAL792 
 PHE793  MET794  SER795  GLU796  ALA797  LYS798  CYS799  TRP800  GLU811  SER814 

> <Gold.Protein.RotatedAtoms>
  150.7472  134.6036  159.6049 H   0  0  0  0  0  0  0  0  0  0  0  0  # atno 6907 bound_to 6896
  152.3391  134.7156  160.0278 H   0  0  0  0  0  0  0  0  0  0  0  0  # atno 6908 bound_to 6896
  151.7614  133.3298  159.3455 H   0  0  0  0  0  0  0  0  0  0  0  0  # atno 6909 bound_to 6896
  145.9488  139.3953  143.0319 H   0  0  0  0  0  0  0  0  0  0  0  0  # atno 7974 bound_to 7965
  154.9006  140.3000  155.5320 H   0  0  0  0  0  0  0  0  0  0  0  0  # atno 8008 bound_to 7997
  156.3018  140.2407  156.3968 H   0  0  0  0  0  0  0  0  0  0  0  0  # atno 8009 bound_to 7997
  154.8525  140.0409  157.1602 H   0  0  0  0  0  0  0  0  0  0  0  0  # atno 8010 bound_to 7997
  140.7258  143.3914  151.1423 H   0  0  0  0  0  0  0  0  0  0  0  0  # atno 10167 bound_to 10162
  156.3497  130.4306  149.7715 H   0  0  0  0  0  0  0  0  0  0  0  0  # atno 10718 bound_to 10713
  153.1276  135.4697  154.9297 H   0  0  0  0  0  0  0  0  0  0  0  0  # atno 10763 bound_to 10752
  154.7634  135.3138  154.8336 H   0  0  0  0  0  0  0  0  0  0  0  0  # atno 10764 bound_to 10752
  153.8886  135.6887  153.4816 H   0  0  0  0  0  0  0  0  0  0  0  0  # atno 10765 bound_to 10752
  139.9065  134.8068  156.2169 H   0  0  0  0  0  0  0  0  0  0  0  0  # atno 11005 bound_to 11000
  145.8200  140.9684  143.0904 LP  0  0  0  0  0  0  0  0  0  0  0  0  # atno 17320 bound_to 7965
  144.6792  140.0029  143.7484 LP  0  0  0  0  0  0  0  0  0  0  0  0  # atno 17321 bound_to 7965
  139.7519  143.8765  152.3079 LP  0  0  0  0  0  0  0  0  0  0  0  0  # atno 17342 bound_to 10162
  139.8622  144.7111  150.9086 LP  0  0  0  0  0  0  0  0  0  0  0  0  # atno 17343 bound_to 10162
  156.4920  130.8089  151.3098 LP  0  0  0  0  0  0  0  0  0  0  0  0  # atno 17370 bound_to 10713
  157.7459  130.9972  150.2808 LP  0  0  0  0  0  0  0  0  0  0  0  0  # atno 17371 bound_to 10713
  141.0430  133.6928  156.1632 LP  0  0  0  0  0  0  0  0  0  0  0  0  # atno 17394 bound_to 11000
  140.6926  134.4649  157.5588 LP  0  0  0  0  0  0  0  0  0  0  0  0  # atno 17395 bound_to 11000

$$$$
