AV-unprocessed.smi:2082|AV-procd|sdf|8489|dock8
  -GOLD-   2272011193D 1   1.00000     0.00000
 Structure written by MMmdl.
 39 40  0  0  0  0  0  0  0  0  1 V2000
  152.0136  144.7873  158.9777 C   0  0  0  0  0  0  0  0  0  0  0  0
  151.7378  143.4107  158.7889 O   0  0  0  0  0  0  0  0  0  0  0  0
  151.2368  143.1296  157.4925 C   0  0  0  0  0  0  0  0  0  0  0  0
  150.9781  141.6252  157.3704 C   0  0  0  0  0  0  0  0  0  0  0  0
  151.0320  141.2632  155.9937 O   0  0  0  0  0  0  0  0  0  0  0  0
  150.1144  140.3514  155.5146 C   0  0  0  0  0  0  0  0  0  0  0  0
  149.0317  139.9891  156.3403 C   0  0  0  0  0  0  0  0  0  0  0  0
  148.0902  139.0585  155.8607 C   0  0  0  0  0  0  0  0  0  0  0  0
  148.2683  138.5111  154.5679 C   0  0  0  0  0  0  0  0  0  0  0  0
  147.3782  137.5844  153.9620 N   0  0  0  0  0  0  0  0  0  0  0  0
  146.0413  137.4816  154.1000 C   0  0  0  0  0  0  0  0  0  0  0  0
  145.3904  138.1856  154.8726 O   0  0  0  0  0  0  0  0  0  0  0  0
  145.4761  136.4985  153.3512 N   0  0  0  0  0  0  0  0  0  0  0  0
  146.1793  135.3315  152.7968 C   0  0  0  0  0  0  0  0  0  0  0  0
  145.7011  134.0792  153.5516 C   0  0  0  0  0  0  0  0  0  0  0  0
  144.2432  134.0375  153.6791 N   0  0  0  0  0  0  0  0  0  0  0  0
  143.4158  135.0823  153.4891 C   0  0  0  0  0  0  0  0  0  0  0  0
  142.1976  134.9683  153.6016 O   0  0  0  0  0  0  0  0  0  0  0  0
  144.0224  136.4507  153.1211 C   0  0  0  0  0  0  0  0  0  0  0  0
  149.3770  138.9505  153.8157 C   0  0  0  0  0  0  0  0  0  0  0  0
  150.2835  139.8411  154.2696 N   0  0  0  0  0  0  0  0  0  0  0  0
  152.3909  144.9502  159.9872 H   0  0  0  0  0  0  0  0  0  0  0  0
  151.1144  145.3919  158.8524 H   0  0  0  0  0  0  0  0  0  0  0  0
  152.7714  145.1367  158.2752 H   0  0  0  0  0  0  0  0  0  0  0  0
  150.3027  143.6733  157.3442 H   0  0  0  0  0  0  0  0  0  0  0  0
  151.9347  143.4595  156.7213 H   0  0  0  0  0  0  0  0  0  0  0  0
  151.7093  141.0682  157.9588 H   0  0  0  0  0  0  0  0  0  0  0  0
  149.9864  141.3993  157.7656 H   0  0  0  0  0  0  0  0  0  0  0  0
  148.9219  140.4222  157.3235 H   0  0  0  0  0  0  0  0  0  0  0  0
  147.2490  138.7973  156.4837 H   0  0  0  0  0  0  0  0  0  0  0  0
  147.8147  136.8810  153.3841 H   0  0  0  0  0  0  0  0  0  0  0  0
  145.9153  135.2449  151.7414 H   0  0  0  0  0  0  0  0  0  0  0  0
  147.2673  135.3964  152.8143 H   0  0  0  0  0  0  0  0  0  0  0  0
  146.0439  133.1769  153.0450 H   0  0  0  0  0  0  0  0  0  0  0  0
  146.1303  134.0627  154.5540 H   0  0  0  0  0  0  0  0  0  0  0  0
  143.8311  133.1489  153.9246 H   0  0  0  0  0  0  0  0  0  0  0  0
  143.4754  137.2161  153.6737 H   0  0  0  0  0  0  0  0  0  0  0  0
  143.8304  136.6417  152.0648 H   0  0  0  0  0  0  0  0  0  0  0  0
  149.5471  138.5727  152.8180 H   0  0  0  0  0  0  0  0  0  0  0  0
  1  2  1  0  0  0  0
  1 22  1  0  0  0  0
  1 23  1  0  0  0  0
  1 24  1  0  0  0  0
  2  3  1  0  0  0  0
  3  4  1  0  0  0  0
  3 25  1  0  0  0  0
  3 26  1  0  0  0  0
  4  5  1  0  0  0  0
  4 27  1  0  0  0  0
  4 28  1  0  0  0  0
  5  6  1  0  0  0  0
  6 21  1  0  0  0  0
  6  7  2  0  0  0  0
  7  8  1  0  0  0  0
  7 29  1  0  0  0  0
  8  9  2  0  0  0  0
  8 30  1  0  0  0  0
  9 10  1  0  0  0  0
  9 20  1  0  0  0  0
 10 11  1  0  0  0  0
 10 31  1  0  0  0  0
 11 12  2  0  0  0  0
 11 13  1  0  0  0  0
 13 19  1  0  0  0  0
 13 14  1  0  0  0  0
 14 15  1  0  0  0  0
 14 32  1  0  0  0  0
 14 33  1  0  0  0  0
 15 16  1  0  0  0  0
 15 34  1  0  0  0  0
 15 35  1  0  0  0  0
 16 17  1  0  0  0  0
 16 36  1  0  0  0  0
 17 18  2  0  0  0  0
 17 19  1  0  0  0  0
 19 37  1  0  0  0  0
 19 38  1  0  0  0  0
 20 21  2  0  0  0  0
 20 39  1  0  0  0  0
M  END
> <s_m_source_file>
AV-unprocessed.smi

> <i_m_source_file_index>
2082

> <i_lp_mmshare_version>
43012

> <i_f3d_flags>
0

> <s_epik_input>
W0NIM11PW0NIMl1bQ0gyXU9jMVtjSF1bY0hdYyhbY0hdbjEpW05IXUMoPU8pTjJbQ0gyXVtDSDJdW05IXUMoPU8pW0NIMl0y

> <s_epik_cmdline>
J2VwaWtfcHl0aG9uJywgJy1waCcsICc3LjAnLCAnLXRuJywgJzgnLCAnLW1hJywgJzIwMCcsICctbWV0YWxfYmluZGluZycsICctaW1hZScsICc8aW5maWxlLm1hZT4nLCAnLW9tYWUnLCAnPG91dGZpbGUubWFlPic=

> <r_lp_tautomer_probability>
1

> <r_epik_Ionization_Penalty>
5.92413e-05

> <r_epik_Ionization_Penalty_Charging>
0

> <r_epik_Ionization_Penalty_Neutral>
5.92413e-05

> <r_epik_State_Penalty>
-0

> <r_epik_Charging_Adjusted_Penalty>
0

> <i_epik_Tot_Q>
0

> <i_epik_Tot_abs_Q>
0

> <r_epik_Metal_State_Penalty>
-0

> <b_epik_Metal_Only>
0

> <s_lp_Force_Field>
OPLS_2005

> <r_lp_Energy>
31.1837

> <b_lp_Chiralities_Consistent>
1

> <s_lp_Variant>
AV-unprocessed.smi:2082-1

> <Gold.Version>
5.8.1

> <Gold.Id.Protein>
6NUR|6NUR_protein|mol2

> <Gold.PLP.Fitness>
36.2351

> <Gold.PLP.PLP>
-24.0932

> <Gold.PLP.part.hbond>
-3.3354

> <Gold.PLP.part.metal>
0.0000

> <Gold.PLP.part.buried>
-2.3125

> <Gold.PLP.part.nonpolar>
-19.2974

> <Gold.PLP.part.repulsive>
0.4634

> <Gold.PLP.ligand.clash>
0.2380

> <Gold.PLP.ligand.torsion>
0.9154

> <Gold.PLP.Chemscore.Hbond>
3.0000

> <Gold.PLP.Chemscore.CHOScore>
1.7260

> <Gold.PLP.Chemscore.Metal>
0.0000

> <Gold.Chemscore.Hbonds>
donor molecule, donor type, donor heavy atom, donor atom, acceptor molecule, acceptor atom, score
      L1  H    10    31       P1  7948  1.00
      L1  H    16    36       P1 10957  1.00
      P1  H  7989  7998       L1    21  1.00
      L1  C    20    39       P1  7948  0.94
      L1  C    20    39       P1  7957  0.78

> <Gold.PLP.Chemscore.Internal.Correction>
0.0328

> <Gold.Rescore>
     Score         DG    S(hbond)    S(metal)    S(lipo)     H(rot)  DE(clash)    DE(int)     intcor
     12.93     -15.30       2.64        0.00      48.29       1.81       0.22       2.14       ----

> <Gold.Chemscore.Fitness>
12.9307

> <Gold.Chemscore.DG>
-15.3002

> <Gold.Chemscore.ZeroCoef>
-5.4800

> <Gold.Chemscore.Hbond>
2.6354

> <Gold.Chemscore.Metal>
0.0000

> <Gold.Chemscore.Lipo>
48.2927

> <Gold.Chemscore.Internal_Hbond>
0.0000

> <Gold.Chemscore.DEClash>
0.2247

> <Gold.Chemscore.DEInternal>
2.1448

> <Gold.Chemscore.Rot>
1.8095

> <Gold.Chemscore.Internal.Correction>
   9.000000E+99

> <Gold.Chemscore.Hbonds>
donor molecule, donor type, donor heavy atom, donor atom, acceptor molecule, acceptor atom, score
      L1  H    10    31       P1  7948  0.93
      L1  H    16    36       P1 10957  0.95
      P1  H  7989  7998       L1    21  0.55

> <Gold.Chemscore.Hbond.Weighted>
-8.8022

> <Gold.Chemscore.Metal.Weighted>
-0.0000

> <Gold.Chemscore.Lipo.Weighted>
-5.6502

> <Gold.Chemscore.Internal_Hbond.Weighted>
0.0000

> <Gold.Chemscore.DEClash.Weighted>
0.2247

> <Gold.Chemscore.DEInternal.Weighted>
2.1448

> <Gold.Chemscore.Rot.Weighted>
4.6322

> <Gold.Chemscore.Internal.Correction.Weighted>
   9.000000E+99

> <Gold.Protein.RotatedTorsions>
[ 6907 6896 6895 6894 ] final  -39.22 input  -60.11 | X-H torsion
[ 7974 7965 7964 7962 ] final -159.02 input  175.53 | X-H torsion
[ 8008 7997 7996 7995 ] final  -92.73 input   59.86 | X-H torsion
[ 10167 10162 10161 10158 ] final    5.27 input  -65.29 | X-H torsion
[ 10718 10713 10712 10709 ] final   85.59 input   66.30 | X-H torsion
[ 10763 10752 10751 10750 ] final  -40.51 input  -60.55 | X-H torsion
[ 11005 11000 10999 10996 ] final -161.54 input  -57.11 | X-H torsion

> <Gold.Protein.ActiveResidues>
 VAL166  LYS551  ARG553  GLY616  TRP617  ASP618  TYR619  PRO620  LYS621  CYS622 
 ASP623  PHE694  ASN695  SER759  ASP760  ASP761  ALA762  ILE779  LEU786  VAL792 
 PHE793  MET794  SER795  GLU796  ALA797  LYS798  CYS799  TRP800  GLU811  SER814 

> <Gold.Protein.RotatedAtoms>
  150.9930  134.9260  159.7910 H   0  0  0  0  0  0  0  0  0  0  0  0  # atno 6907 bound_to 6896
  152.5256  134.3256  159.9174 H   0  0  0  0  0  0  0  0  0  0  0  0  # atno 6908 bound_to 6896
  151.3262  133.3978  159.2693 H   0  0  0  0  0  0  0  0  0  0  0  0  # atno 6909 bound_to 6896
  144.7482  140.3744  143.6069 H   0  0  0  0  0  0  0  0  0  0  0  0  # atno 7974 bound_to 7965
  154.7268  140.0506  157.0690 H   0  0  0  0  0  0  0  0  0  0  0  0  # atno 8008 bound_to 7997
  155.0355  140.3162  155.4724 H   0  0  0  0  0  0  0  0  0  0  0  0  # atno 8009 bound_to 7997
  156.2831  140.2142  156.5477 H   0  0  0  0  0  0  0  0  0  0  0  0  # atno 8010 bound_to 7997
  140.6491  143.7590  150.7545 H   0  0  0  0  0  0  0  0  0  0  0  0  # atno 10167 bound_to 10162
  157.6917  131.0181  150.2846 H   0  0  0  0  0  0  0  0  0  0  0  0  # atno 10718 bound_to 10713
  153.9471  135.6755  153.4744 H   0  0  0  0  0  0  0  0  0  0  0  0  # atno 10763 bound_to 10752
  153.0902  135.4878  154.8673 H   0  0  0  0  0  0  0  0  0  0  0  0  # atno 10764 bound_to 10752
  154.7345  135.3146  154.8793 H   0  0  0  0  0  0  0  0  0  0  0  0  # atno 10765 bound_to 10752
  140.6193  134.4767  157.5222 H   0  0  0  0  0  0  0  0  0  0  0  0  # atno 11005 bound_to 11000
  145.7043  139.1669  143.2575 LP  0  0  0  0  0  0  0  0  0  0  0  0  # atno 17320 bound_to 7965
  146.1393  140.7080  142.9375 LP  0  0  0  0  0  0  0  0  0  0  0  0  # atno 17321 bound_to 7965
  140.1237  143.4589  152.2297 LP  0  0  0  0  0  0  0  0  0  0  0  0  # atno 17342 bound_to 10162
  139.5704  144.7459  151.3907 LP  0  0  0  0  0  0  0  0  0  0  0  0  # atno 17343 bound_to 10162
  156.3387  130.3812  149.7428 LP  0  0  0  0  0  0  0  0  0  0  0  0  # atno 17370 bound_to 10713
  156.4944  130.8100  151.3107 LP  0  0  0  0  0  0  0  0  0  0  0  0  # atno 17371 bound_to 10713
  139.9160  134.8246  156.1366 LP  0  0  0  0  0  0  0  0  0  0  0  0  # atno 17394 bound_to 11000
  141.0754  133.6778  156.2225 LP  0  0  0  0  0  0  0  0  0  0  0  0  # atno 17395 bound_to 11000

$$$$
