AV-unprocessed.smi:102|AV-procd|sdf|967|dock5
  -GOLD-   2262017513D 1   1.00000     0.00000
 Structure written by MMmdl.
 43 44  0  0  0  0  0  0  0  0  2 V2000
  153.1268  136.3387  163.8623 C   0  0  0  0  0  0  0  0  0  0  0  0
  153.6745  137.1413  162.6895 C   0  0  0  0  0  0  0  0  0  0  0  0
  154.2846  138.1970  162.8605 O   0  0  0  0  0  0  0  0  0  0  0  0
  153.4087  136.5655  161.5094 O   0  0  0  0  0  0  0  0  0  0  0  0
  153.5397  137.3140  160.3113 C   0  0  0  0  0  0  0  0  0  0  0  0
  152.1975  137.9613  159.9437 C   0  0  2  0  0  0  0  0  0  0  0  0
  151.2758  136.9855  159.4829 O   0  0  0  0  0  0  0  0  0  0  0  0
  150.3414  137.5875  158.6382 C   0  0  2  0  0  0  0  0  0  0  0  0
  150.1986  136.7186  157.4056 N   0  0  0  0  0  0  0  0  0  0  0  0
  148.9762  136.1440  157.1023 C   0  0  0  0  0  0  0  0  0  0  0  0
  148.8233  135.3533  156.0214 C   0  0  0  0  0  0  0  0  0  0  0  0
  147.6241  134.8071  155.7561 F   0  0  0  0  0  0  0  0  0  0  0  0
  149.9676  135.0928  155.1500 C   0  0  0  0  0  0  0  0  0  0  0  0
  149.8208  134.3786  154.1595 O   0  0  0  0  0  0  0  0  0  0  0  0
  151.1642  135.6594  155.4817 N   0  5  0  0  0  0  0  0  0  0  0  0
  151.3261  136.4528  156.5812 C   0  0  0  0  0  0  0  0  0  0  0  0
  152.4097  136.9408  156.9023 O   0  0  0  0  0  0  0  0  0  0  0  0
  150.8322  139.0148  158.3027 C   0  0  2  0  0  0  0  0  0  0  0  0
  150.8102  139.2816  156.9035 O   0  0  0  0  0  0  0  0  0  0  0  0
  151.0969  140.5072  156.4385 C   0  0  0  0  0  0  0  0  0  0  0  0
  150.7729  140.6521  154.9577 C   0  0  0  0  0  0  0  0  0  0  0  0
  151.5720  141.4388  157.0883 O   0  0  0  0  0  0  0  0  0  0  0  0
  152.2583  139.0097  158.8311 C   0  0  1  0  0  0  0  0  0  0  0  0
  152.5843  140.2941  159.3453 O   0  0  0  0  0  0  0  0  0  0  0  0
  153.8200  140.5433  159.8102 C   0  0  0  0  0  0  0  0  0  0  0  0
  153.8513  141.7277  160.7667 C   0  0  0  0  0  0  0  0  0  0  0  0
  154.8416  139.9156  159.5314 O   0  0  0  0  0  0  0  0  0  0  0  0
  153.1994  135.2692  163.6626 H   0  0  0  0  0  0  0  0  0  0  0  0
  152.0795  136.5885  164.0326 H   0  0  0  0  0  0  0  0  0  0  0  0
  153.6882  136.5586  164.7704 H   0  0  0  0  0  0  0  0  0  0  0  0
  154.3080  138.0781  160.4344 H   0  0  0  0  0  0  0  0  0  0  0  0
  153.8601  136.6572  159.5013 H   0  0  0  0  0  0  0  0  0  0  0  0
  151.7581  138.4099  160.8364 H   0  0  0  0  0  0  0  0  0  0  0  0
  149.3776  137.5837  159.1477 H   0  0  0  0  0  0  0  0  0  0  0  0
  148.1269  136.3212  157.7444 H   0  0  0  0  0  0  0  0  0  0  0  0
  150.2088  139.7119  158.8652 H   0  0  0  0  0  0  0  0  0  0  0  0
  151.4510  140.0412  154.3618 H   0  0  0  0  0  0  0  0  0  0  0  0
  150.8741  141.6909  154.6426 H   0  0  0  0  0  0  0  0  0  0  0  0
  149.7505  140.3290  154.7602 H   0  0  0  0  0  0  0  0  0  0  0  0
  152.9308  138.6900  158.0334 H   0  0  0  0  0  0  0  0  0  0  0  0
  153.4474  141.4396  161.7373 H   0  0  0  0  0  0  0  0  0  0  0  0
  153.2555  142.5514  160.3729 H   0  0  0  0  0  0  0  0  0  0  0  0
  154.8740  142.0784  160.9076 H   0  0  0  0  0  0  0  0  0  0  0  0
  1  2  1  0  0  0  0
  1 28  1  0  0  0  0
  1 29  1  0  0  0  0
  1 30  1  0  0  0  0
  2  3  2  0  0  0  0
  2  4  1  0  0  0  0
  4  5  1  0  0  0  0
  5  6  1  0  0  0  0
  5 31  1  0  0  0  0
  5 32  1  0  0  0  0
  6 23  1  0  0  0  0
  6  7  1  0  0  0  0
  6 33  1  0  0  0  0
  7  8  1  0  0  0  0
  8  9  1  0  0  0  0
  8 18  1  0  0  0  0
  8 34  1  0  0  0  0
  9 16  1  0  0  0  0
  9 10  1  0  0  0  0
 10 11  2  0  0  0  0
 10 35  1  0  0  0  0
 11 12  1  0  0  0  0
 11 13  1  0  0  0  0
 13 14  2  0  0  0  0
 13 15  1  0  0  0  0
 15 16  1  0  0  0  0
 16 17  2  0  0  0  0
 18 19  1  0  0  0  0
 18 23  1  0  0  0  0
 18 36  1  0  0  0  0
 19 20  1  0  0  0  0
 20 21  1  0  0  0  0
 20 22  2  0  0  0  0
 21 37  1  0  0  0  0
 21 38  1  0  0  0  0
 21 39  1  0  0  0  0
 23 24  1  0  0  0  0
 23 40  1  0  0  0  0
 24 25  1  0  0  0  0
 25 26  1  0  0  0  0
 25 27  2  0  0  0  0
 26 41  1  0  0  0  0
 26 42  1  0  0  0  0
 26 43  1  0  0  0  0
M  CHG  1  15  -1
M  END
> <s_m_source_file>
AV-unprocessed.smi

> <i_m_source_file_index>
102

> <i_lp_mmshare_version>
43012

> <i_f3d_flags>
0

> <s_epik_input>
W0NIM11DKD1PKU9bQ0gyXVtDQEBIXTFPW0NASF0oW0NAQEhdKE9DKD1PKVtDSDNdKVtDQEhdMU9DKD1PKVtDSDNdKW4yW2NIXWMoRiljKD1PKVtuSF1jMj1P

> <s_epik_cmdline>
J2VwaWtfcHl0aG9uJywgJy1waCcsICc3LjAnLCAnLXRuJywgJzgnLCAnLW1hJywgJzIwMCcsICctbWV0YWxfYmluZGluZycsICctaW1hZScsICc8aW5maWxlLm1hZT4nLCAnLW9tYWUnLCAnPG91dGZpbGUubWFlPic=

> <r_epik_Ionization_Penalty>
1.40304

> <r_epik_Ionization_Penalty_Charging>
1.43915e-08

> <r_epik_Ionization_Penalty_Neutral>
1.40304

> <r_epik_State_Penalty>
1.48536

> <r_epik_Charging_Adjusted_Penalty>
1.48536

> <i_epik_Tot_Q>
-1

> <i_epik_Tot_abs_Q>
1

> <r_epik_Metal_State_Penalty>
0.00663881

> <b_epik_Metal_Only>
0

> <s_epik_Chemistry_Notes>
This compound has an ester and may undergo hydrolysis at high or low pH. This compound contains an acetal/aminal-like group ( X-CH(R)-Y where X, Y are N, S, or O) that may be acid/base labile, releasing an aldehyde.

> <s_lp_Force_Field>
OPLS_2005

> <r_lp_Energy>
21.6407

> <b_lp_Chiralities_Consistent>
1

> <s_lp_Variant>
AV-unprocessed.smi:102-23

> <Gold.Version>
5.8.1

> <Gold.Id.Protein>
6NUR|6NUR_protein|mol2

> <Gold.PLP.Fitness>
43.5122

> <Gold.PLP.PLP>
-33.4003

> <Gold.PLP.part.hbond>
-3.0000

> <Gold.PLP.part.metal>
0.0000

> <Gold.PLP.part.buried>
-5.0390

> <Gold.PLP.part.nonpolar>
-25.2878

> <Gold.PLP.part.repulsive>
0.2740

> <Gold.PLP.ligand.clash>
0.0000

> <Gold.PLP.ligand.torsion>
0.9558

> <Gold.PLP.Chemscore.Hbond>
3.9760

> <Gold.PLP.Chemscore.CHOScore>
0.0000

> <Gold.PLP.Chemscore.Metal>
0.0000

> <Gold.Chemscore.Hbonds>
donor molecule, donor type, donor heavy atom, donor atom, acceptor molecule, acceptor atom, score
      P1  H  6896  6909       L1     7  1.00
      P1  H  7997  8008       L1    27  0.57
      P1  H 10752 10763       L1    15  2.00

> <Gold.PLP.Chemscore.Internal.Correction>
0.0955

> <Gold.Rescore>
     Score         DG    S(hbond)    S(metal)    S(lipo)     H(rot)  DE(clash)    DE(int)     intcor
      5.71      -9.94       2.63        0.00      50.47       4.00       0.13       4.11       ----

> <Gold.Chemscore.Fitness>
5.7078

> <Gold.Chemscore.DG>
-9.9439

> <Gold.Chemscore.ZeroCoef>
-5.4800

> <Gold.Chemscore.Hbond>
2.6306

> <Gold.Chemscore.Metal>
0.0000

> <Gold.Chemscore.Lipo>
50.4716

> <Gold.Chemscore.Internal_Hbond>
0.0000

> <Gold.Chemscore.DEClash>
0.1307

> <Gold.Chemscore.DEInternal>
4.1054

> <Gold.Chemscore.Rot>
3.9951

> <Gold.Chemscore.Internal.Correction>
   9.000000E+99

> <Gold.Chemscore.Hbonds>
donor molecule, donor type, donor heavy atom, donor atom, acceptor molecule, acceptor atom, score
      P1  H  6896  6909       L1     7  0.99
      P1  H  7997  8008       L1    27  0.41
      P1  H 10752 10763       L1    15  0.44

> <Gold.Chemscore.Hbond.Weighted>
-8.7861

> <Gold.Chemscore.Metal.Weighted>
-0.0000

> <Gold.Chemscore.Lipo.Weighted>
-5.9052

> <Gold.Chemscore.Internal_Hbond.Weighted>
0.0000

> <Gold.Chemscore.DEClash.Weighted>
0.1307

> <Gold.Chemscore.DEInternal.Weighted>
4.1054

> <Gold.Chemscore.Rot.Weighted>
10.2274

> <Gold.Chemscore.Internal.Correction.Weighted>
   9.000000E+99

> <Gold.Protein.RotatedTorsions>
[ 6907 6896 6895 6894 ] final  110.58 input  -60.11 | X-H torsion
[ 7974 7965 7964 7962 ] final  -95.27 input  175.53 | X-H torsion
[ 8008 7997 7996 7995 ] final -127.85 input   59.86 | X-H torsion
[ 10167 10162 10161 10158 ] final   59.01 input  -65.29 | X-H torsion
[ 10718 10713 10712 10709 ] final  -26.69 input   66.30 | X-H torsion
[ 10763 10752 10751 10750 ] final   67.89 input  -60.55 | X-H torsion
[ 11005 11000 10999 10996 ] final -128.72 input  -57.11 | X-H torsion

> <Gold.Protein.ActiveResidues>
 VAL166  LYS551  ARG553  GLY616  TRP617  ASP618  TYR619  PRO620  LYS621  CYS622 
 ASP623  PHE694  ASN695  SER759  ASP760  ASP761  ALA762  ILE779  LEU786  VAL792 
 PHE793  MET794  SER795  GLU796  ALA797  LYS798  CYS799  TRP800  GLU811  SER814 

> <Gold.Protein.RotatedAtoms>
  152.5012  133.8779  159.7331 H   0  0  0  0  0  0  0  0  0  0  0  0  # atno 6907 bound_to 6896
  150.9249  133.6827  159.2830 H   0  0  0  0  0  0  0  0  0  0  0  0  # atno 6908 bound_to 6896
  151.4191  135.1000  159.9661 H   0  0  0  0  0  0  0  0  0  0  0  0  # atno 6909 bound_to 6896
  145.3623  140.9493  143.2494 H   0  0  0  0  0  0  0  0  0  0  0  0  # atno 7974 bound_to 7965
  155.2530  140.0433  157.2989 H   0  0  0  0  0  0  0  0  0  0  0  0  # atno 8008 bound_to 7997
  154.5757  140.2386  155.8096 H   0  0  0  0  0  0  0  0  0  0  0  0  # atno 8009 bound_to 7997
  156.2156  140.2985  155.9840 H   0  0  0  0  0  0  0  0  0  0  0  0  # atno 8010 bound_to 7997
  140.1810  144.4182  150.6615 H   0  0  0  0  0  0  0  0  0  0  0  0  # atno 10167 bound_to 10162
  156.4479  130.4477  149.7009 H   0  0  0  0  0  0  0  0  0  0  0  0  # atno 10718 bound_to 10713
  153.0208  135.5267  154.7049 H   0  0  0  0  0  0  0  0  0  0  0  0  # atno 10763 bound_to 10752
  154.6148  135.2882  155.0395 H   0  0  0  0  0  0  0  0  0  0  0  0  # atno 10764 bound_to 10752
  154.1403  135.6579  153.4993 H   0  0  0  0  0  0  0  0  0  0  0  0  # atno 10765 bound_to 10752
  140.9492  134.1088  157.4078 H   0  0  0  0  0  0  0  0  0  0  0  0  # atno 11005 bound_to 11000
  144.8637  139.5139  143.6800 LP  0  0  0  0  0  0  0  0  0  0  0  0  # atno 17320 bound_to 7965
  146.2922  139.7172  142.9153 LP  0  0  0  0  0  0  0  0  0  0  0  0  # atno 17321 bound_to 7965
  140.6519  143.2227  151.6056 LP  0  0  0  0  0  0  0  0  0  0  0  0  # atno 17342 bound_to 10162
  139.5296  144.2955  152.1117 LP  0  0  0  0  0  0  0  0  0  0  0  0  # atno 17343 bound_to 10162
  156.3848  130.7597  151.2593 LP  0  0  0  0  0  0  0  0  0  0  0  0  # atno 17370 bound_to 10713
  157.7504  131.0285  150.4052 LP  0  0  0  0  0  0  0  0  0  0  0  0  # atno 17371 bound_to 10713
  139.8842  135.0061  156.6356 LP  0  0  0  0  0  0  0  0  0  0  0  0  # atno 17394 bound_to 11000
  140.7626  133.8805  155.8429 LP  0  0  0  0  0  0  0  0  0  0  0  0  # atno 17395 bound_to 11000

$$$$
