#       Name:                AV-unprocessed.smi:1
#       Creating user name   scv26
#       Creation time:       Thu Mar 26 15:11:20 2020


#       File generated by GOLD software.
#

@<TRIPOS>MOLECULE
AV-unprocessed.smi:1
    66    71     1
SMALL
NO_CHARGES


@<TRIPOS>ATOM
      1 ****        -5.4551   4.0546  -1.0613 O.2            1 S1                 0.0000
      2 ****        -5.5559   2.9083  -0.6152 C.2            1 S1                 0.0000
      3 ****        -4.5514   1.9873  -0.3475 N.2            1 S1                 0.0000
      4 ****        -3.3054   2.3163  -0.5083 C.2            1 S1                 0.0000
      5 ****        -2.6846   3.5038  -0.9176 N.pl3          1 S1                 0.0000
      6 ****        -1.3010   3.7153  -1.0245 C.2            1 S1                 0.0000
      7 ****        -0.3857   2.8217  -0.7589 N.2            1 S1                 0.0000
      8 ****        -0.9513   1.6192  -0.3589 C.2            1 S1                 0.0000
      9 ****        -2.2816   1.2905  -0.2150 C.2            1 S1                 0.0000
     10 ****        -2.4218  -0.0286   0.2020 N.2            1 S1                 0.0000
     11 ****        -1.1601  -0.4419   0.2897 C.2            1 S1                 0.0000
     12 ****        -0.2275   0.4768  -0.0320 N.pl3          1 S1                 0.0000
     13 ****         1.2652   0.3266  -0.0342 C.3            1 S1                 0.0000
     14 ****         1.5969  -0.8604   0.6243 O.3            1 S1                 0.0000
     15 ****         1.8984  -1.8662  -0.3331 C.3            1 S1                 0.0000
     16 ****         2.7060  -3.0096   0.2957 C.3            1 S1                 0.0000
     17 ****         3.9602  -2.5332   0.7577 O.3            1 S1                 0.0000
     18 ****         4.8621  -3.3909   1.2713 C.2            1 S1                 0.0000
     19 ****         4.6664  -4.6031   1.3800 O.2            1 S1                 0.0000
     20 ****         6.1258  -2.7194   1.6910 C.ar           1 S1                 0.0000
     21 ****         7.1780  -3.4965   2.2292 C.ar           1 S1                 0.0000
     22 ****         8.3845  -2.8909   2.6308 C.ar           1 S1                 0.0000
     23 ****         8.5531  -1.5001   2.5003 C.ar           1 S1                 0.0000
     24 ****         7.5135  -0.7156   1.9677 C.ar           1 S1                 0.0000
     25 ****         6.3065  -1.3196   1.5647 C.ar           1 S1                 0.0000
     26 ****         2.5988  -1.0991  -1.4563 C.3            1 S1                 0.0000
     27 ****         2.4528  -1.7398  -2.7114 O.3            1 S1                 0.0000
     28 ****         1.1250  -1.0983  -3.4960 S.o2           1 S1                 0.0000
     29 ****         1.5777  -0.5204  -4.7705 O.2            1 S1                 0.0000
     30 ****         0.0250  -2.0711  -3.4130 O.2            1 S1                 0.0000
     31 ****         0.7920   0.1521  -2.4423 O.3            1 S1                 0.0000
     32 ****         1.8257   0.2280  -1.4711 C.3            1 S1                 0.0000
     33 ****        -6.9194   2.4158  -0.2531 C.ar           1 S1                 0.0000
     34 ****        -7.5259   2.8357   0.9500 C.ar           1 S1                 0.0000
     35 ****        -8.8084   2.3665   1.2959 C.ar           1 S1                 0.0000
     36 ****        -9.4870   1.4755   0.4420 C.ar           1 S1                 0.0000
     37 ****        -8.8826   1.0517  -0.7576 C.ar           1 S1                 0.0000
     38 ****        -7.6004   1.5204  -1.1052 C.ar           1 S1                 0.0000
     39 ****        -1.0306   4.7186  -1.3571 H              1 S1                 0.0000
     40 ****        -0.9126  -1.4467   0.5983 H              1 S1                 0.0000
     41 ****         1.6287   1.1894   0.5250 H              1 S1                 0.0000
     42 ****         0.9522  -2.2653  -0.7007 H              1 S1                 0.0000
     43 ****         2.1501  -3.4495   1.1246 H              1 S1                 0.0000
     44 ****         2.8643  -3.7947  -0.4451 H              1 S1                 0.0000
     45 ****         7.0718  -4.5662   2.3388 H              1 S1                 0.0000
     46 ****         9.1814  -3.4948   3.0392 H              1 S1                 0.0000
     47 ****         9.4782  -1.0356   2.8083 H              1 S1                 0.0000
     48 ****         7.6415   0.3521   1.8673 H              1 S1                 0.0000
     49 ****         5.5292  -0.6879   1.1602 H              1 S1                 0.0000
     50 ****         3.6498  -0.9183  -1.2295 H              1 S1                 0.0000
     51 ****         2.4724   1.0792  -1.6858 H              1 S1                 0.0000
     52 ****        -7.0106   3.5171   1.6114 H              1 S1                 0.0000
     53 ****        -9.2709   2.6891   2.2172 H              1 S1                 0.0000
     54 ****       -10.4699   1.1157   0.7084 H              1 S1                 0.0000
     55 ****        -9.4019   0.3664  -1.4111 H              1 S1                 0.0000
     56 ****        -7.1426   1.1891  -2.0263 H              1 S1                 0.0000
     57 ****        -3.2884   4.2790  -1.1509 H              1 S1                 0.0000
     58 ****        -4.5538   4.4288  -1.2795 LP             1 S1                 0.0000
     59 ****        -6.2748   4.6093  -1.2046 LP             1 S1                 0.0000
     60 ****        -4.7881   1.0690  -0.0303 LP             1 S1                 0.0000
     61 ****         0.5982   2.9838  -0.8343 LP             1 S1                 0.0000
     62 ****        -3.2611  -0.5390   0.3892 LP             1 S1                 0.0000
     63 ****         0.8247  -1.1564   1.1865 LP             1 S1                 0.0000
     64 ****         2.3943  -0.7061   1.2077 LP             1 S1                 0.0000
     65 ****         3.7989  -4.9985   1.0781 LP             1 S1                 0.0000
     66 ****         5.3751  -5.1910   1.7700 LP             1 S1                 0.0000
@<TRIPOS>BOND
    1    1    2 2     
    2    2    3 1     
    3    2   33 1     
    4    3    4 2     
    5    4    9 1     
    6    4    5 1     
    7    5    6 1     
    8    5   57 1     
    9    6    7 2     
   10    6   39 1     
   11    7    8 1     
   12    8   12 1     
   13    8    9 2     
   14    9   10 1     
   15   10   11 2     
   16   11   12 1     
   17   11   40 1     
   18   12   13 1     
   19   13   32 1     
   20   13   14 1     
   21   13   41 1     
   22   14   15 1     
   23   15   16 1     
   24   15   26 1     
   25   15   42 1     
   26   16   17 1     
   27   16   43 1     
   28   16   44 1     
   29   17   18 1     
   30   18   19 2     
   31   18   20 1     
   32   20   25 ar    
   33   20   21 ar    
   34   21   22 ar    
   35   21   45 1     
   36   22   23 ar    
   37   22   46 1     
   38   23   24 ar    
   39   23   47 1     
   40   24   25 ar    
   41   24   48 1     
   42   25   49 1     
   43   26   32 1     
   44   26   27 1     
   45   26   50 1     
   46   27   28 1     
   47   28   29 2     
   48   28   30 2     
   49   28   31 1     
   50   31   32 1     
   51   32   51 1     
   52   33   38 ar    
   53   33   34 ar    
   54   34   35 ar    
   55   34   52 1     
   56   35   36 ar    
   57   35   53 1     
   58   36   37 ar    
   59   36   54 1     
   60   37   38 ar    
   61   37   55 1     
   62   38   56 1     
   63    1   58 1     
   64    1   59 1     
   65    3   60 1     
   66    7   61 1     
   67   10   62 1     
   68   14   63 1     
   69   14   64 1     
   70   19   65 1     
   71   19   66 1     
@<TRIPOS>SUBSTRUCTURE
      1 S1             1
@<TRIPOS>SET
LONE_PAIRS      STATIC     ATOMS    <user>   **** ""
11 58 59 60 61 62 63 64 65 66 29 30
DONOR_HYDROGENS      STATIC     ATOMS    <user>   **** ""
1 57
ATOM$BLUE        STATIC     ATOMS    COLORGROUP SYSTEM
11 58 59 60 61 62 63 64 65 66 29 30
ATOM$RED        STATIC     ATOMS    COLORGROUP SYSTEM
1 57
