#       Name:                AV-unprocessed.smi:2332
#       Creating user name   scv26
#       Creation time:       Fri Mar 27 12:54:06 2020


#       File generated by GOLD software.
#

@<TRIPOS>MOLECULE
AV-unprocessed.smi:2332
    39    40     1
SMALL
NO_CHARGES


@<TRIPOS>ATOM
      1 ****        -4.2871  -3.1783   0.8659 C.3            1 S1                 0.0000
      2 ****        -2.9045  -2.7370   0.9643 N.am           1 S1                 0.0000
      3 ****        -2.2892  -1.9634   0.0571 C.2            1 S1                 0.0000
      4 ****        -2.8492  -1.5594  -0.9628 O.2            1 S1                 0.0000
      5 ****        -0.8193  -1.6064   0.3270 C.3            1 S1                 0.0000
      6 ****        -0.4487  -0.2117  -0.2277 C.3            1 S1                 0.0000
      7 ****         0.9171   0.1494   0.1458 N.3            1 S1                 0.0000
      8 ****         1.4516   1.2747  -0.5187 C.ar           1 S1                 0.0000
      9 ****         1.4415   1.3376  -1.9331 C.ar           1 S1                 0.0000
     10 ****         1.9761   2.4713  -2.5756 C.ar           1 S1                 0.0000
     11 ****         2.5077   3.5100  -1.7883 C.ar           1 S1                 0.0000
     12 ****         3.0702   4.6998  -2.4036 C.1            1 S1                 0.0000
     13 ****         3.5183   5.6472  -2.8938 N.1            1 S1                 0.0000
     14 ****         2.4828   3.3633  -0.3878 C.ar           1 S1                 0.0000
     15 ****         1.9726   2.2777   0.2321 N.ar           1 S1                 0.0000
     16 ****         1.1865   0.0083   1.5748 C.3            1 S1                 0.0000
     17 ****         0.7833  -1.3933   2.0572 C.3            1 S1                 0.0000
     18 ****        -0.5820  -1.6307   1.7353 O.3            1 S1                 0.0000
     19 ****        -4.5564  -3.7570   1.7492 H              1 S1                 0.0000
     20 ****        -4.4309  -3.8087  -0.0125 H              1 S1                 0.0000
     21 ****        -4.9640  -2.3255   0.7976 H              1 S1                 0.0000
     22 ****        -2.3799  -3.0301   1.7762 H              1 S1                 0.0000
     23 ****        -0.2045  -2.3702  -0.1525 H              1 S1                 0.0000
     24 ****        -0.5723  -0.2132  -1.3100 H              1 S1                 0.0000
     25 ****        -1.1290   0.5447   0.1668 H              1 S1                 0.0000
     26 ****         1.0464   0.5286  -2.5295 H              1 S1                 0.0000
     27 ****         1.9780   2.5339  -3.6543 H              1 S1                 0.0000
     28 ****         2.8814   4.1327   0.2575 H              1 S1                 0.0000
     29 ****         2.2463   0.1686   1.7770 H              1 S1                 0.0000
     30 ****         0.6290   0.7672   2.1254 H              1 S1                 0.0000
     31 ****         1.4154  -2.1593   1.6048 H              1 S1                 0.0000
     32 ****         0.9121  -1.4705   3.1367 H              1 S1                 0.0000
     33 ****        -3.8016  -1.8063  -1.1416 LP             1 S1                 0.0000
     34 ****        -2.3514  -0.9843  -1.6121 LP             1 S1                 0.0000
     35 ****         1.4997  -0.5611  -0.2490 LP             1 S1                 0.0000
     36 ****         3.9056   6.4661  -3.3175 LP             1 S1                 0.0000
     37 ****         1.9787   2.2137   1.2300 LP             1 S1                 0.0000
     38 ****        -0.8447  -2.5280   2.0902 LP             1 S1                 0.0000
     39 ****        -1.1419  -0.9242   2.1679 LP             1 S1                 0.0000
@<TRIPOS>BOND
    1    1    2 1     
    2    1   19 1     
    3    1   20 1     
    4    1   21 1     
    5    2    3 am    
    6    2   22 1     
    7    3    4 2     
    8    3    5 1     
    9    5   18 1     
   10    5    6 1     
   11    5   23 1     
   12    6    7 1     
   13    6   24 1     
   14    6   25 1     
   15    7    8 1     
   16    7   16 1     
   17    8   15 ar    
   18    8    9 ar    
   19    9   10 ar    
   20    9   26 1     
   21   10   11 ar    
   22   10   27 1     
   23   11   12 1     
   24   11   14 ar    
   25   12   13 3     
   26   14   15 ar    
   27   14   28 1     
   28   16   17 1     
   29   16   29 1     
   30   16   30 1     
   31   17   18 1     
   32   17   31 1     
   33   17   32 1     
   34    4   33 1     
   35    4   34 1     
   36    7   35 1     
   37   13   36 1     
   38   15   37 1     
   39   18   38 1     
   40   18   39 1     
@<TRIPOS>SUBSTRUCTURE
      1 S1             1
@<TRIPOS>SET
LONE_PAIRS      STATIC     ATOMS    <user>   **** ""
7 33 34 35 36 37 38 39
DONOR_HYDROGENS      STATIC     ATOMS    <user>   **** ""
1 22
ATOM$BLUE        STATIC     ATOMS    COLORGROUP SYSTEM
7 33 34 35 36 37 38 39
ATOM$RED        STATIC     ATOMS    COLORGROUP SYSTEM
1 22
