AV-unprocessed.smi:992|AV-procd|sdf|4329|dock2
  -GOLD-   22720 2233D 1   1.00000     0.00000
 Structure written by MMmdl.
 32 33  0  0  0  0  0  0  0  0  1 V2000
  151.6909  144.8978  158.8243 C   0  0  0  0  0  0  0  0  0  0  0  0
  152.2848  143.4880  158.7392 C   0  0  2  0  0  0  0  0  0  0  0  0
  151.5957  142.6378  157.6569 C   0  0  0  0  0  0  0  0  0  0  0  0
  152.1204  141.2796  157.6820 N   0  0  0  0  0  0  0  0  0  0  0  0
  151.6631  140.4819  156.6237 C   0  0  0  0  0  0  0  0  0  0  0  0
  150.3791  140.7240  156.0913 C   0  0  0  0  0  0  0  0  0  0  0  0
  149.9220  139.9174  155.0313 C   0  0  0  0  0  0  0  0  0  0  0  0
  150.7643  138.9000  154.5413 C   0  0  0  0  0  0  0  0  0  0  0  0
  150.3546  138.0752  153.4946 N   0  0  0  0  0  0  0  0  0  0  0  0
  152.0319  138.7366  155.1366 C   0  0  0  0  0  0  0  0  0  0  0  0
  152.4765  139.5053  156.1538 N   0  0  0  0  0  0  0  0  0  0  0  0
  151.9678  140.6529  158.9889 C   0  0  0  0  0  0  0  0  0  0  0  0
  152.6128  141.5195  160.0894 C   0  0  1  0  0  0  0  0  0  0  0  0
  154.1509  141.4671  160.0916 C   0  0  0  0  0  0  0  0  0  0  0  0
  152.1211  142.8605  160.0117 O   0  0  0  0  0  0  0  0  0  0  0  0
  151.7954  145.4252  157.8757 H   0  0  0  0  0  0  0  0  0  0  0  0
  152.1954  145.4874  159.5902 H   0  0  0  0  0  0  0  0  0  0  0  0
  150.6301  144.8648  159.0742 H   0  0  0  0  0  0  0  0  0  0  0  0
  153.3465  143.5824  158.5099 H   0  0  0  0  0  0  0  0  0  0  0  0
  150.5181  142.6182  157.8275 H   0  0  0  0  0  0  0  0  0  0  0  0
  151.7589  143.0777  156.6720 H   0  0  0  0  0  0  0  0  0  0  0  0
  149.7543  141.5109  156.4879 H   0  0  0  0  0  0  0  0  0  0  0  0
  148.9425  140.0796  154.6055 H   0  0  0  0  0  0  0  0  0  0  0  0
  149.4483  138.1846  153.0624 H   0  0  0  0  0  0  0  0  0  0  0  0
  150.9787  137.3967  153.0820 H   0  0  0  0  0  0  0  0  0  0  0  0
  152.7086  137.9690  154.7901 H   0  0  0  0  0  0  0  0  0  0  0  0
  150.9054  140.5279  159.2033 H   0  0  0  0  0  0  0  0  0  0  0  0
  152.4099  139.6556  158.9817 H   0  0  0  0  0  0  0  0  0  0  0  0
  152.2835  141.1301  161.0530 H   0  0  0  0  0  0  0  0  0  0  0  0
  154.5018  140.4512  160.2747 H   0  0  0  0  0  0  0  0  0  0  0  0
  154.5595  142.1031  160.8769 H   0  0  0  0  0  0  0  0  0  0  0  0
  154.5780  141.7895  159.1424 H   0  0  0  0  0  0  0  0  0  0  0  0
  1  2  1  0  0  0  0
  1 16  1  0  0  0  0
  1 17  1  0  0  0  0
  1 18  1  0  0  0  0
  2 15  1  0  0  0  0
  2  3  1  0  0  0  0
  2 19  1  0  0  0  0
  3  4  1  0  0  0  0
  3 20  1  0  0  0  0
  3 21  1  0  0  0  0
  4  5  1  0  0  0  0
  4 12  1  0  0  0  0
  5 11  1  0  0  0  0
  5  6  2  0  0  0  0
  6  7  1  0  0  0  0
  6 22  1  0  0  0  0
  7  8  2  0  0  0  0
  7 23  1  0  0  0  0
  8  9  1  0  0  0  0
  8 10  1  0  0  0  0
  9 24  1  0  0  0  0
  9 25  1  0  0  0  0
 10 11  2  0  0  0  0
 10 26  1  0  0  0  0
 12 13  1  0  0  0  0
 12 27  1  0  0  0  0
 12 28  1  0  0  0  0
 13 14  1  0  0  0  0
 13 15  1  0  0  0  0
 13 29  1  0  0  0  0
 14 30  1  0  0  0  0
 14 31  1  0  0  0  0
 14 32  1  0  0  0  0
M  END
> <s_m_source_file>
AV-unprocessed.smi

> <i_m_source_file_index>
992

> <i_lp_mmshare_version>
43012

> <i_f3d_flags>
0

> <s_epik_input>
W0NIM11bQ0BASF0xW0NIMl1OKFtDSDJdW0NASF0oTzEpW0NIM10pYzJbY0hdW2NIXWMoW05IMl0pW2NIXW4y

> <s_epik_cmdline>
J2VwaWtfcHl0aG9uJywgJy1waCcsICc3LjAnLCAnLXRuJywgJzgnLCAnLW1hJywgJzIwMCcsICctbWV0YWxfYmluZGluZycsICctaW1hZScsICc8aW5maWxlLm1hZT4nLCAnLW9tYWUnLCAnPG91dGZpbGUubWFlPic=

> <r_lp_tautomer_probability>
1

> <r_epik_Ionization_Penalty>
0.0126232

> <r_epik_Ionization_Penalty_Charging>
0

> <r_epik_Ionization_Penalty_Neutral>
0.0126232

> <r_epik_State_Penalty>
0.00976577

> <r_epik_Charging_Adjusted_Penalty>
0.00976577

> <i_epik_Tot_Q>
0

> <i_epik_Tot_abs_Q>
0

> <r_epik_Metal_State_Penalty>
9.84661e-06

> <b_epik_Metal_Only>
0

> <s_lp_Force_Field>
OPLS_2005

> <r_lp_Energy>
23.4385

> <b_lp_Chiralities_Consistent>
1

> <s_lp_Variant>
AV-unprocessed.smi:992-1

> <Gold.Version>
5.8.1

> <Gold.Id.Protein>
6NUR|6NUR_protein|mol2

> <Gold.PLP.Fitness>
39.1582

> <Gold.PLP.PLP>
-35.2477

> <Gold.PLP.part.hbond>
-3.8400

> <Gold.PLP.part.metal>
0.0000

> <Gold.PLP.part.buried>
-2.8974

> <Gold.PLP.part.nonpolar>
-28.5900

> <Gold.PLP.part.repulsive>
0.1006

> <Gold.PLP.ligand.clash>
0.0000

> <Gold.PLP.ligand.torsion>
0.6740

> <Gold.PLP.Chemscore.Hbond>
1.7207

> <Gold.PLP.Chemscore.CHOScore>
0.0000

> <Gold.PLP.Chemscore.Metal>
0.0000

> <Gold.Chemscore.Hbonds>
donor molecule, donor type, donor heavy atom, donor atom, acceptor molecule, acceptor atom, score
      L1  H     9    24       P1  7948  0.05
      L1  H     9    25       P1  7949  0.65
      P1  H  7997  8008       L1    11  1.00

> <Gold.PLP.Chemscore.Internal.Correction>
0.0964

> <Gold.Rescore>
     Score         DG    S(hbond)    S(metal)    S(lipo)     H(rot)  DE(clash)    DE(int)     intcor
     17.56     -18.62       1.55        0.00      89.98       1.00       0.38       0.68       ----

> <Gold.Chemscore.Fitness>
17.5644

> <Gold.Chemscore.DG>
-18.6211

> <Gold.Chemscore.ZeroCoef>
-5.4800

> <Gold.Chemscore.Hbond>
1.5489

> <Gold.Chemscore.Metal>
0.0000

> <Gold.Chemscore.Lipo>
89.9819

> <Gold.Chemscore.Internal_Hbond>
0.0000

> <Gold.Chemscore.DEClash>
0.3761

> <Gold.Chemscore.DEInternal>
0.6805

> <Gold.Chemscore.Rot>
1.0000

> <Gold.Chemscore.Internal.Correction>
   9.000000E+99

> <Gold.Chemscore.Hbonds>
donor molecule, donor type, donor heavy atom, donor atom, acceptor molecule, acceptor atom, score
      L1  H     9    24       P1  7948  0.05
      L1  H     9    25       P1  7949  0.16
      P1  H  7997  8008       L1    11  0.70

> <Gold.Chemscore.Hbond.Weighted>
-5.1732

> <Gold.Chemscore.Metal.Weighted>
-0.0000

> <Gold.Chemscore.Lipo.Weighted>
-10.5279

> <Gold.Chemscore.Internal_Hbond.Weighted>
0.0000

> <Gold.Chemscore.DEClash.Weighted>
0.3761

> <Gold.Chemscore.DEInternal.Weighted>
0.6805

> <Gold.Chemscore.Rot.Weighted>
2.5600

> <Gold.Chemscore.Internal.Correction.Weighted>
   9.000000E+99

> <Gold.Protein.RotatedTorsions>
[ 6907 6896 6895 6894 ] final -100.70 input  -60.11 | X-H torsion
[ 7974 7965 7964 7962 ] final -160.82 input  175.53 | X-H torsion
[ 8008 7997 7996 7995 ] final  -30.41 input   59.86 | X-H torsion
[ 10167 10162 10161 10158 ] final   49.59 input  -65.29 | X-H torsion
[ 10718 10713 10712 10709 ] final   67.41 input   66.30 | X-H torsion
[ 10763 10752 10751 10750 ] final -174.31 input  -60.55 | X-H torsion
[ 11005 11000 10999 10996 ] final  -46.68 input  -57.11 | X-H torsion

> <Gold.Protein.ActiveResidues>
 VAL166  LYS551  ARG553  GLY616  TRP617  ASP618  TYR619  PRO620  LYS621  CYS622 
 ASP623  PHE694  ASN695  SER759  ASP760  ASP761  ALA762  ILE779  LEU786  VAL792 
 PHE793  MET794  SER795  GLU796  ALA797  LYS798  CYS799  TRP800  GLU811  SER814 

> <Gold.Protein.RotatedAtoms>
  150.7126  134.0847  159.3910 H   0  0  0  0  0  0  0  0  0  0  0  0  # atno 6907 bound_to 6896
  151.8832  135.0443  160.0500 H   0  0  0  0  0  0  0  0  0  0  0  0  # atno 6908 bound_to 6896
  152.2551  133.5213  159.5385 H   0  0  0  0  0  0  0  0  0  0  0  0  # atno 6909 bound_to 6896
  144.7413  140.3487  143.6120 H   0  0  0  0  0  0  0  0  0  0  0  0  # atno 7974 bound_to 7965
  154.4251  140.1792  156.1403 H   0  0  0  0  0  0  0  0  0  0  0  0  # atno 8008 bound_to 7997
  155.9997  140.3361  155.6809 H   0  0  0  0  0  0  0  0  0  0  0  0  # atno 8009 bound_to 7997
  155.6259  140.0665  157.2654 H   0  0  0  0  0  0  0  0  0  0  0  0  # atno 8010 bound_to 7997
  140.2812  144.3154  150.6264 H   0  0  0  0  0  0  0  0  0  0  0  0  # atno 10167 bound_to 10162
  157.6229  130.9319  150.0239 H   0  0  0  0  0  0  0  0  0  0  0  0  # atno 10718 bound_to 10713
  154.5977  135.2851  155.0569 H   0  0  0  0  0  0  0  0  0  0  0  0  # atno 10763 bound_to 10752
  154.1846  135.6451  153.5047 H   0  0  0  0  0  0  0  0  0  0  0  0  # atno 10764 bound_to 10752
  153.0145  135.5431  154.6684 H   0  0  0  0  0  0  0  0  0  0  0  0  # atno 10765 bound_to 10752
  141.0594  133.6714  156.3190 H   0  0  0  0  0  0  0  0  0  0  0  0  # atno 11005 bound_to 11000
  145.7299  139.1733  143.2436 LP  0  0  0  0  0  0  0  0  0  0  0  0  # atno 17320 bound_to 7965
  146.1214  140.7304  142.9456 LP  0  0  0  0  0  0  0  0  0  0  0  0  # atno 17321 bound_to 7965
  140.5810  143.2173  151.7429 LP  0  0  0  0  0  0  0  0  0  0  0  0  # atno 17342 bound_to 10162
  139.4962  144.4080  152.0111 LP  0  0  0  0  0  0  0  0  0  0  0  0  # atno 17343 bound_to 10162
  156.1384  130.3642  149.9621 LP  0  0  0  0  0  0  0  0  0  0  0  0  # atno 17370 bound_to 10713
  156.7667  130.9171  151.3643 LP  0  0  0  0  0  0  0  0  0  0  0  0  # atno 17371 bound_to 10713
  140.5899  134.5661  157.5497 LP  0  0  0  0  0  0  0  0  0  0  0  0  # atno 17394 bound_to 11000
  139.9419  134.7772  156.0658 LP  0  0  0  0  0  0  0  0  0  0  0  0  # atno 17395 bound_to 11000

$$$$
