AV-unprocessed.smi:2878|AV-procd|sdf|11046|dock7
  -GOLD-   2272015513D 1   1.00000     0.00000
 Structure written by MMmdl.
 42 43  0  0  0  0  0  0  0  0  1 V2000
  144.6506  135.9545  151.9137 C   0  0  0  0  0  0  0  0  0  0  0  0
  143.3433  134.7821  152.3642 S   0  0  0  0  0  0  0  0  0  0  0  0
  143.7718  133.3534  151.3179 C   0  0  1  0  0  0  0  0  0  0  0  0
  144.1650  133.8200  149.9026 C   0  0  0  0  0  0  0  0  0  0  0  0
  144.5039  132.6306  148.9905 C   0  0  0  0  0  0  0  0  0  0  0  0
  145.6113  131.7591  149.6012 C   0  0  0  0  0  0  0  0  0  0  0  0
  145.2296  131.2840  151.0135 C   0  0  0  0  0  0  0  0  0  0  0  0
  144.8680  132.4585  151.9478 C   0  0  1  0  0  0  0  0  0  0  0  0
  146.0603  133.2396  152.2786 N   0  0  0  0  0  0  0  0  0  0  0  0
  146.8642  133.0198  153.3277 C   0  0  0  0  0  0  0  0  0  0  0  0
  146.7033  132.1130  154.1448 O   0  0  0  0  0  0  0  0  0  0  0  0
  147.8661  133.9080  153.3800 N   0  0  0  0  0  0  0  0  0  0  0  0
  148.8973  133.9408  154.4106 C   0  0  0  0  0  0  0  0  0  0  0  0
  149.7959  132.6945  154.3596 C   0  0  0  0  0  0  0  0  0  0  0  0
  150.5294  132.4719  155.6392 C   0  0  0  0  0  0  0  0  0  0  0  0
  151.4062  131.5069  155.9060 N   0  0  0  0  0  0  0  0  0  0  0  0
  151.7797  131.8376  157.1728 C   0  0  0  0  0  0  0  0  0  0  0  0
  152.7696  131.0455  157.9566 C   0  0  0  0  0  0  0  0  0  0  0  0
  151.2161  132.9276  157.6788 N   0  0  0  0  0  0  0  0  0  0  0  0
  150.3778  133.3677  156.6444 O   0  0  0  0  0  0  0  0  0  0  0  0
  144.5745  136.8500  152.5304 H   0  0  0  0  0  0  0  0  0  0  0  0
  144.5622  136.2538  150.8699 H   0  0  0  0  0  0  0  0  0  0  0  0
  145.6336  135.5105  152.0703 H   0  0  0  0  0  0  0  0  0  0  0  0
  142.8631  132.7573  151.2227 H   0  0  0  0  0  0  0  0  0  0  0  0
  143.3500  134.3952  149.4621 H   0  0  0  0  0  0  0  0  0  0  0  0
  145.0207  134.4944  149.9562 H   0  0  0  0  0  0  0  0  0  0  0  0
  143.6098  132.0267  148.8314 H   0  0  0  0  0  0  0  0  0  0  0  0
  144.8125  132.9904  148.0086 H   0  0  0  0  0  0  0  0  0  0  0  0
  145.8019  130.8981  148.9597 H   0  0  0  0  0  0  0  0  0  0  0  0
  146.5431  132.3245  149.6408 H   0  0  0  0  0  0  0  0  0  0  0  0
  144.3745  130.6109  150.9419 H   0  0  0  0  0  0  0  0  0  0  0  0
  146.0416  130.6944  151.4411 H   0  0  0  0  0  0  0  0  0  0  0  0
  144.4664  132.0320  152.8676 H   0  0  0  0  0  0  0  0  0  0  0  0
  146.2774  134.0131  151.6673 H   0  0  0  0  0  0  0  0  0  0  0  0
  147.9132  134.6173  152.6630 H   0  0  0  0  0  0  0  0  0  0  0  0
  149.4985  134.8377  154.2584 H   0  0  0  0  0  0  0  0  0  0  0  0
  148.4357  134.0393  155.3947 H   0  0  0  0  0  0  0  0  0  0  0  0
  149.2037  131.8042  154.1446 H   0  0  0  0  0  0  0  0  0  0  0  0
  150.5234  132.7885  153.5524 H   0  0  0  0  0  0  0  0  0  0  0  0
  152.5327  131.0792  159.0206 H   0  0  0  0  0  0  0  0  0  0  0  0
  153.7723  131.4477  157.8107 H   0  0  0  0  0  0  0  0  0  0  0  0
  152.7640  130.0028  157.6375 H   0  0  0  0  0  0  0  0  0  0  0  0
  1  2  1  0  0  0  0
  1 21  1  0  0  0  0
  1 22  1  0  0  0  0
  1 23  1  0  0  0  0
  2  3  1  0  0  0  0
  3  8  1  0  0  0  0
  3  4  1  0  0  0  0
  3 24  1  0  0  0  0
  4  5  1  0  0  0  0
  4 25  1  0  0  0  0
  4 26  1  0  0  0  0
  5  6  1  0  0  0  0
  5 27  1  0  0  0  0
  5 28  1  0  0  0  0
  6  7  1  0  0  0  0
  6 29  1  0  0  0  0
  6 30  1  0  0  0  0
  7  8  1  0  0  0  0
  7 31  1  0  0  0  0
  7 32  1  0  0  0  0
  8  9  1  0  0  0  0
  8 33  1  0  0  0  0
  9 10  1  0  0  0  0
  9 34  1  0  0  0  0
 10 11  2  0  0  0  0
 10 12  1  0  0  0  0
 12 13  1  0  0  0  0
 12 35  1  0  0  0  0
 13 14  1  0  0  0  0
 13 36  1  0  0  0  0
 13 37  1  0  0  0  0
 14 15  1  0  0  0  0
 14 38  1  0  0  0  0
 14 39  1  0  0  0  0
 15 20  1  0  0  0  0
 15 16  2  0  0  0  0
 16 17  1  0  0  0  0
 17 18  1  0  0  0  0
 17 19  2  0  0  0  0
 18 40  1  0  0  0  0
 18 41  1  0  0  0  0
 18 42  1  0  0  0  0
 19 20  1  0  0  0  0
M  END
> <s_m_source_file>
AV-unprocessed.smi

> <i_m_source_file_index>
2878

> <i_lp_mmshare_version>
43012

> <i_f3d_flags>
0

> <s_epik_input>
W0NIM11TW0NAQEhdMVtDSDJdW0NIMl1bQ0gyXVtDSDJdW0NASF0xW05IXUMoPU8pW05IXVtDSDJdW0NIMl1jMm5jKFtDSDNdKW5vMg==

> <s_epik_cmdline>
J2VwaWtfcHl0aG9uJywgJy1waCcsICc3LjAnLCAnLXRuJywgJzgnLCAnLW1hJywgJzIwMCcsICctbWV0YWxfYmluZGluZycsICctaW1hZScsICc8aW5maWxlLm1hZT4nLCAnLW9tYWUnLCAnPG91dGZpbGUubWFlPic=

> <r_lp_tautomer_probability>
1

> <r_epik_Ionization_Penalty>
4.9299e-05

> <r_epik_Ionization_Penalty_Charging>
0

> <r_epik_Ionization_Penalty_Neutral>
4.9299e-05

> <r_epik_State_Penalty>
-0

> <r_epik_Charging_Adjusted_Penalty>
0

> <i_epik_Tot_Q>
0

> <i_epik_Tot_abs_Q>
0

> <r_epik_Metal_State_Penalty>
-0

> <b_epik_Metal_Only>
0

> <s_lp_Force_Field>
OPLS_2005

> <r_lp_Energy>
0.0435146

> <b_lp_Chiralities_Consistent>
1

> <s_lp_Variant>
AV-unprocessed.smi:2878-2

> <Gold.Version>
5.8.1

> <Gold.Id.Protein>
6NUR|6NUR_protein|mol2

> <Gold.PLP.Fitness>
36.9368

> <Gold.PLP.PLP>
-32.4156

> <Gold.PLP.part.hbond>
-2.0000

> <Gold.PLP.part.metal>
0.0000

> <Gold.PLP.part.buried>
-3.8639

> <Gold.PLP.part.nonpolar>
-26.6319

> <Gold.PLP.part.repulsive>
0.0981

> <Gold.PLP.ligand.clash>
0.0000

> <Gold.PLP.ligand.torsion>
0.6686

> <Gold.PLP.Chemscore.Hbond>
1.9357

> <Gold.PLP.Chemscore.CHOScore>
0.0000

> <Gold.PLP.Chemscore.Metal>
0.0000

> <Gold.Chemscore.Hbonds>
donor molecule, donor type, donor heavy atom, donor atom, acceptor molecule, acceptor atom, score
      L1  H    12    35       P1  7948  0.92
      P1  H  6896  6909       L1    19  1.00

> <Gold.PLP.Chemscore.Internal.Correction>
0.0512

> <Gold.Rescore>
     Score         DG    S(hbond)    S(metal)    S(lipo)     H(rot)  DE(clash)    DE(int)     intcor
     14.53     -15.40       1.70        0.00      81.97       2.09       0.09       0.78       ----

> <Gold.Chemscore.Fitness>
14.5302

> <Gold.Chemscore.DG>
-15.3997

> <Gold.Chemscore.ZeroCoef>
-5.4800

> <Gold.Chemscore.Hbond>
1.7023

> <Gold.Chemscore.Metal>
0.0000

> <Gold.Chemscore.Lipo>
81.9688

> <Gold.Chemscore.Internal_Hbond>
0.0000

> <Gold.Chemscore.DEClash>
0.0931

> <Gold.Chemscore.DEInternal>
0.7765

> <Gold.Chemscore.Rot>
2.0923

> <Gold.Chemscore.Internal.Correction>
   9.000000E+99

> <Gold.Chemscore.Hbonds>
donor molecule, donor type, donor heavy atom, donor atom, acceptor molecule, acceptor atom, score
      L1  H    12    35       P1  7948  0.58
      P1  H  6896  6909       L1    19  0.92

> <Gold.Chemscore.Hbond.Weighted>
-5.6856

> <Gold.Chemscore.Metal.Weighted>
-0.0000

> <Gold.Chemscore.Lipo.Weighted>
-9.5903

> <Gold.Chemscore.Internal_Hbond.Weighted>
0.0000

> <Gold.Chemscore.DEClash.Weighted>
0.0931

> <Gold.Chemscore.DEInternal.Weighted>
0.7765

> <Gold.Chemscore.Rot.Weighted>
5.3562

> <Gold.Chemscore.Internal.Correction.Weighted>
   9.000000E+99

> <Gold.Protein.RotatedTorsions>
[ 6907 6896 6895 6894 ] final  -40.50 input  -60.11 | X-H torsion
[ 7974 7965 7964 7962 ] final -174.39 input  175.53 | X-H torsion
[ 8008 7997 7996 7995 ] final  -27.67 input   59.86 | X-H torsion
[ 10167 10162 10161 10158 ] final   90.71 input  -65.29 | X-H torsion
[ 10718 10713 10712 10709 ] final   37.16 input   66.30 | X-H torsion
[ 10763 10752 10751 10750 ] final   21.94 input  -60.55 | X-H torsion
[ 11005 11000 10999 10996 ] final  104.16 input  -57.11 | X-H torsion

> <Gold.Protein.ActiveResidues>
 VAL166  LYS551  ARG553  GLY616  TRP617  ASP618  TYR619  PRO620  LYS621  CYS622 
 ASP623  PHE694  ASN695  SER759  ASP760  ASP761  ALA762  ILE779  LEU786  VAL792 
 PHE793  MET794  SER795  GLU796  ALA797  LYS798  CYS799  TRP800  GLU811  SER814 

> <Gold.Protein.RotatedAtoms>
  150.9777  134.9138  159.7825 H   0  0  0  0  0  0  0  0  0  0  0  0  # atno 6907 bound_to 6896
  152.5211  134.3453  159.9242 H   0  0  0  0  0  0  0  0  0  0  0  0  # atno 6908 bound_to 6896
  151.3461  133.3902  159.2710 H   0  0  0  0  0  0  0  0  0  0  0  0  # atno 6909 bound_to 6896
  144.7132  140.1479  143.6386 H   0  0  0  0  0  0  0  0  0  0  0  0  # atno 7974 bound_to 7965
  154.4367  140.1866  156.0968 H   0  0  0  0  0  0  0  0  0  0  0  0  # atno 8008 bound_to 7997
  156.0323  140.3329  155.7127 H   0  0  0  0  0  0  0  0  0  0  0  0  # atno 8009 bound_to 7997
  155.5821  140.0622  157.2771 H   0  0  0  0  0  0  0  0  0  0  0  0  # atno 8010 bound_to 7997
  139.8446  144.6624  150.9242 H   0  0  0  0  0  0  0  0  0  0  0  0  # atno 10167 bound_to 10162
  157.3436  130.7561  149.6929 H   0  0  0  0  0  0  0  0  0  0  0  0  # atno 10718 bound_to 10713
  153.0955  135.6658  153.9772 H   0  0  0  0  0  0  0  0  0  0  0  0  # atno 10763 bound_to 10752
  153.9357  135.2999  155.3446 H   0  0  0  0  0  0  0  0  0  0  0  0  # atno 10764 bound_to 10752
  154.7373  135.5096  153.9137 H   0  0  0  0  0  0  0  0  0  0  0  0  # atno 10765 bound_to 10752
  139.8789  134.9290  156.5320 H   0  0  0  0  0  0  0  0  0  0  0  0  # atno 11005 bound_to 11000
  145.9143  139.2506  143.1419 LP  0  0  0  0  0  0  0  0  0  0  0  0  # atno 17320 bound_to 7965
  145.9685  140.8779  143.0175 LP  0  0  0  0  0  0  0  0  0  0  0  0  # atno 17321 bound_to 7965
  140.7794  143.3881  151.1357 LP  0  0  0  0  0  0  0  0  0  0  0  0  # atno 17342 bound_to 10162
  139.7525  143.8757  152.3080 LP  0  0  0  0  0  0  0  0  0  0  0  0  # atno 17343 bound_to 10162
  155.9711  130.4161  150.4212 LP  0  0  0  0  0  0  0  0  0  0  0  0  # atno 17370 bound_to 10713
  157.2264  131.0494  151.2517 LP  0  0  0  0  0  0  0  0  0  0  0  0  # atno 17371 bound_to 10713
  140.8374  133.8232  155.9041 LP  0  0  0  0  0  0  0  0  0  0  0  0  # atno 17394 bound_to 11000
  140.9271  134.2069  157.4889 LP  0  0  0  0  0  0  0  0  0  0  0  0  # atno 17395 bound_to 11000

$$$$
