AV-unprocessed.smi:1154|AV-procd|sdf|4900|dock2
  -GOLD-   22720 3473D 1   1.00000     0.00000
 Structure written by MMmdl.
 42 43  0  0  0  0  0  0  0  0  2 V2000
  152.8889  144.7004  157.9429 C   0  0  0  0  0  0  0  0  0  0  0  0
  151.7679  144.2916  158.9148 C   0  0  2  0  0  0  0  0  0  0  0  0
  152.2891  143.9490  160.3227 C   0  0  0  0  0  0  0  0  0  0  0  0
  152.9988  142.5831  160.3511 C   0  0  1  0  0  0  0  0  0  0  0  0
  153.4555  142.2199  161.7713 C   0  0  0  0  0  0  0  0  0  0  0  0
  152.0853  141.4934  159.7576 C   0  0  0  0  0  0  0  0  0  0  0  0
  151.6428  141.8449  158.3835 N   0  3  1  0  0  0  0  0  0  0  0  0
  150.8990  140.7376  157.7311 C   0  0  0  0  0  0  0  0  0  0  0  0
  150.7331  140.9575  156.2185 C   0  0  0  0  0  0  0  0  0  0  0  0
  149.3251  141.0933  155.8734 N   0  0  0  0  0  0  0  0  0  0  0  0
  148.8521  141.1037  154.6175 C   0  0  0  0  0  0  0  0  0  0  0  0
  149.5762  141.0264  153.6256 O   0  0  0  0  0  0  0  0  0  0  0  0
  147.3354  141.2281  154.4483 C   0  0  0  0  0  0  0  0  0  0  0  0
  146.7566  140.0223  153.8830 N   0  0  0  0  0  0  0  0  0  0  0  0
  146.8989  139.4629  152.6797 C   0  0  0  0  0  0  0  0  0  0  0  0
  146.1748  138.3606  152.5640 N   0  0  0  0  0  0  0  0  0  0  0  0
  145.5597  138.2569  153.8006 N   0  0  0  0  0  0  0  0  0  0  0  0
  145.9020  139.2393  154.5880 N   0  0  0  0  0  0  0  0  0  0  0  0
  150.9079  143.1383  158.3612 C   0  0  0  0  0  0  0  0  0  0  0  0
  153.5809  143.8812  157.7483 H   0  0  0  0  0  0  0  0  0  0  0  0
  153.4667  145.5354  158.3402 H   0  0  0  0  0  0  0  0  0  0  0  0
  152.4775  145.0164  156.9839 H   0  0  0  0  0  0  0  0  0  0  0  0
  151.1189  145.1627  159.0146 H   0  0  0  0  0  0  0  0  0  0  0  0
  152.9585  144.7336  160.6781 H   0  0  0  0  0  0  0  0  0  0  0  0
  151.4479  143.9308  161.0172 H   0  0  0  0  0  0  0  0  0  0  0  0
  153.8945  142.6478  159.7321 H   0  0  0  0  0  0  0  0  0  0  0  0
  152.6079  142.1326  162.4519 H   0  0  0  0  0  0  0  0  0  0  0  0
  154.1279  142.9784  162.1732 H   0  0  0  0  0  0  0  0  0  0  0  0
  153.9893  141.2693  161.7817 H   0  0  0  0  0  0  0  0  0  0  0  0
  152.6294  140.5480  159.7340 H   0  0  0  0  0  0  0  0  0  0  0  0
  151.2110  141.3398  160.3927 H   0  0  0  0  0  0  0  0  0  0  0  0
  151.4451  139.8039  157.8751 H   0  0  0  0  0  0  0  0  0  0  0  0
  149.9302  140.6056  158.2156 H   0  0  0  0  0  0  0  0  0  0  0  0
  151.2545  141.8560  155.8886 H   0  0  0  0  0  0  0  0  0  0  0  0
  151.1638  140.1153  155.6739 H   0  0  0  0  0  0  0  0  0  0  0  0
  148.6659  141.1685  156.6348 H   0  0  0  0  0  0  0  0  0  0  0  0
  146.8739  141.4235  155.4169 H   0  0  0  0  0  0  0  0  0  0  0  0
  147.0957  142.0722  153.7997 H   0  0  0  0  0  0  0  0  0  0  0  0
  147.5213  139.8638  151.8932 H   0  0  0  0  0  0  0  0  0  0  0  0
  149.9980  143.0395  158.9556 H   0  0  0  0  0  0  0  0  0  0  0  0
  150.5885  143.3842  157.3491 H   0  0  0  0  0  0  0  0  0  0  0  0
  152.4869  141.9763  157.8442 H   0  0  0  0  0  0  0  0  0  0  0  0
  1  2  1  0  0  0  0
  1 20  1  0  0  0  0
  1 21  1  0  0  0  0
  1 22  1  0  0  0  0
  2 19  1  0  0  0  0
  2  3  1  0  0  0  0
  2 23  1  0  0  0  0
  3  4  1  0  0  0  0
  3 24  1  0  0  0  0
  3 25  1  0  0  0  0
  4  5  1  0  0  0  0
  4  6  1  0  0  0  0
  4 26  1  0  0  0  0
  5 27  1  0  0  0  0
  5 28  1  0  0  0  0
  5 29  1  0  0  0  0
  6  7  1  0  0  0  0
  6 30  1  0  0  0  0
  6 31  1  0  0  0  0
  7  8  1  0  0  0  0
  7 19  1  0  0  0  0
  7 42  1  0  0  0  0
  8  9  1  0  0  0  0
  8 32  1  0  0  0  0
  8 33  1  0  0  0  0
  9 10  1  0  0  0  0
  9 34  1  0  0  0  0
  9 35  1  0  0  0  0
 10 11  1  0  0  0  0
 10 36  1  0  0  0  0
 11 12  2  0  0  0  0
 11 13  1  0  0  0  0
 13 14  1  0  0  0  0
 13 37  1  0  0  0  0
 13 38  1  0  0  0  0
 14 18  1  0  0  0  0
 14 15  1  0  0  0  0
 15 16  2  0  0  0  0
 15 39  1  0  0  0  0
 16 17  1  0  0  0  0
 17 18  2  0  0  0  0
 19 40  1  0  0  0  0
 19 41  1  0  0  0  0
M  CHG  1   7   1
M  END
> <s_m_source_file>
AV-unprocessed.smi

> <i_m_source_file_index>
1154

> <i_lp_mmshare_version>
43012

> <i_f3d_flags>
0

> <s_epik_input>
W0NIM11bQ0BASF0xW0NIMl1bQ0BASF0oW0NIM10pW0NIMl1OKFtDSDJdMSlbQ0gyXVtDSDJdW05IXUMoPU8pW0NIMl1uMltjSF1ubm4y

> <s_epik_cmdline>
J2VwaWtfcHl0aG9uJywgJy1waCcsICc3LjAnLCAnLXRuJywgJzgnLCAnLW1hJywgJzIwMCcsICctbWV0YWxfYmluZGluZycsICctaW1hZScsICc8aW5maWxlLm1hZT4nLCAnLW9tYWUnLCAnPG91dGZpbGUubWFlPic=

> <r_lp_tautomer_probability>
1

> <r_epik_Ionization_Penalty>
0.00217773

> <r_epik_Ionization_Penalty_Charging>
0.00217329

> <r_epik_Ionization_Penalty_Neutral>
4.43997e-06

> <r_epik_State_Penalty>
0.00149294

> <r_epik_Charging_Adjusted_Penalty>
0.00366623

> <i_epik_Tot_Q>
1

> <i_epik_Tot_abs_Q>
1

> <r_epik_Metal_State_Penalty>
-0

> <b_epik_Metal_Only>
0

> <s_lp_Force_Field>
OPLS_2005

> <r_lp_Energy>
22.5946

> <b_lp_Chiralities_Consistent>
1

> <s_lp_Variant>
AV-unprocessed.smi:1154-1

> <Gold.Version>
5.8.1

> <Gold.Id.Protein>
6NUR|6NUR_protein|mol2

> <Gold.PLP.Fitness>
43.7040

> <Gold.PLP.PLP>
-37.9323

> <Gold.PLP.part.hbond>
-2.0000

> <Gold.PLP.part.metal>
0.0000

> <Gold.PLP.part.buried>
-5.0414

> <Gold.PLP.part.nonpolar>
-34.9666

> <Gold.PLP.part.repulsive>
3.7820

> <Gold.PLP.ligand.clash>
0.0000

> <Gold.PLP.ligand.torsion>
0.5530

> <Gold.PLP.Chemscore.Hbond>
1.2800

> <Gold.PLP.Chemscore.CHOScore>
1.0000

> <Gold.PLP.Chemscore.Metal>
0.0000

> <Gold.Chemscore.Hbonds>
donor molecule, donor type, donor heavy atom, donor atom, acceptor molecule, acceptor atom, score
      P1  H  7989  7998       L1    12  0.30
      P1  H  8011  8017       L1    12  1.00
      L1  C    15    39       P1  7957  1.00

> <Gold.PLP.Chemscore.Internal.Correction>
0.0376

> <Gold.Rescore>
     Score         DG    S(hbond)    S(metal)    S(lipo)     H(rot)  DE(clash)    DE(int)     intcor
     12.48     -14.34       1.23        0.00      98.87       2.67       1.31       0.55       ----

> <Gold.Chemscore.Fitness>
12.4839

> <Gold.Chemscore.DG>
-14.3433

> <Gold.Chemscore.ZeroCoef>
-5.4800

> <Gold.Chemscore.Hbond>
1.2348

> <Gold.Chemscore.Metal>
0.0000

> <Gold.Chemscore.Lipo>
98.8681

> <Gold.Chemscore.Internal_Hbond>
0.0000

> <Gold.Chemscore.DEClash>
1.3111

> <Gold.Chemscore.DEInternal>
0.5482

> <Gold.Chemscore.Rot>
2.6674

> <Gold.Chemscore.Internal.Correction>
   9.000000E+99

> <Gold.Chemscore.Hbonds>
donor molecule, donor type, donor heavy atom, donor atom, acceptor molecule, acceptor atom, score
      P1  H  7989  7998       L1    12  0.28
      P1  H  8011  8017       L1    12  0.94

> <Gold.Chemscore.Hbond.Weighted>
-4.1243

> <Gold.Chemscore.Metal.Weighted>
-0.0000

> <Gold.Chemscore.Lipo.Weighted>
-11.5676

> <Gold.Chemscore.Internal_Hbond.Weighted>
0.0000

> <Gold.Chemscore.DEClash.Weighted>
1.3111

> <Gold.Chemscore.DEInternal.Weighted>
0.5482

> <Gold.Chemscore.Rot.Weighted>
6.8286

> <Gold.Chemscore.Internal.Correction.Weighted>
   9.000000E+99

> <Gold.Protein.RotatedTorsions>
[ 6907 6896 6895 6894 ] final  123.89 input  -60.11 | X-H torsion
[ 7974 7965 7964 7962 ] final -179.67 input  175.53 | X-H torsion
[ 8008 7997 7996 7995 ] final  -87.25 input   59.86 | X-H torsion
[ 10167 10162 10161 10158 ] final -152.57 input  -65.29 | X-H torsion
[ 10718 10713 10712 10709 ] final   40.24 input   66.30 | X-H torsion
[ 10763 10752 10751 10750 ] final -163.23 input  -60.55 | X-H torsion
[ 11005 11000 10999 10996 ] final   -5.35 input  -57.11 | X-H torsion

> <Gold.Protein.ActiveResidues>
 VAL166  LYS551  ARG553  GLY616  TRP617  ASP618  TYR619  PRO620  LYS621  CYS622 
 ASP623  PHE694  ASN695  SER759  ASP760  ASP761  ALA762  ILE779  LEU786  VAL792 
 PHE793  MET794  SER795  GLU796  ALA797  LYS798  CYS799  TRP800  GLU811  SER814 

> <Gold.Protein.RotatedAtoms>
  152.4124  133.6984  159.6408 H   0  0  0  0  0  0  0  0  0  0  0  0  # atno 6907 bound_to 6896
  150.8003  133.8601  159.3238 H   0  0  0  0  0  0  0  0  0  0  0  0  # atno 6908 bound_to 6896
  151.6339  135.1022  160.0179 H   0  0  0  0  0  0  0  0  0  0  0  0  # atno 6909 bound_to 6896
  144.7138  140.0682  143.6430 H   0  0  0  0  0  0  0  0  0  0  0  0  # atno 7974 bound_to 7965
  154.6611  140.0568  157.0063 H   0  0  0  0  0  0  0  0  0  0  0  0  # atno 8008 bound_to 7997
  155.1227  140.3249  155.4475 H   0  0  0  0  0  0  0  0  0  0  0  0  # atno 8009 bound_to 7997
  156.2618  140.1995  156.6348 H   0  0  0  0  0  0  0  0  0  0  0  0  # atno 8010 bound_to 7997
  139.7171  143.9017  152.2490 H   0  0  0  0  0  0  0  0  0  0  0  0  # atno 10167 bound_to 10162
  157.3799  130.7748  149.7184 H   0  0  0  0  0  0  0  0  0  0  0  0  # atno 10718 bound_to 10713
  154.7141  135.3012  154.9150 H   0  0  0  0  0  0  0  0  0  0  0  0  # atno 10763 bound_to 10752
  154.0043  135.6703  153.4765 H   0  0  0  0  0  0  0  0  0  0  0  0  # atno 10764 bound_to 10752
  153.0779  135.5024  154.8357 H   0  0  0  0  0  0  0  0  0  0  0  0  # atno 10765 bound_to 10752
  140.6902  133.9078  155.8613 H   0  0  0  0  0  0  0  0  0  0  0  0  # atno 11005 bound_to 11000
  145.9806  139.2938  143.1044 LP  0  0  0  0  0  0  0  0  0  0  0  0  # atno 17320 bound_to 7965
  145.9015  140.9240  143.0500 LP  0  0  0  0  0  0  0  0  0  0  0  0  # atno 17321 bound_to 7965
  139.8902  144.6970  150.8779 LP  0  0  0  0  0  0  0  0  0  0  0  0  # atno 17342 bound_to 10162
  140.7746  143.3592  151.1861 LP  0  0  0  0  0  0  0  0  0  0  0  0  # atno 17343 bound_to 10162
  155.9773  130.4064  150.3719 LP  0  0  0  0  0  0  0  0  0  0  0  0  # atno 17370 bound_to 10713
  157.1821  131.0395  151.2743 LP  0  0  0  0  0  0  0  0  0  0  0  0  # atno 17371 bound_to 10713
  141.0247  134.0840  157.4081 LP  0  0  0  0  0  0  0  0  0  0  0  0  # atno 17394 bound_to 11000
  139.8926  135.0125  156.6852 LP  0  0  0  0  0  0  0  0  0  0  0  0  # atno 17395 bound_to 11000

$$$$
