AV-unprocessed.smi:1534|AV-procd|sdf|6166|dock3
  -GOLD-   22720 6313D 1   1.00000     0.00000
 Structure written by MMmdl.
 36 37  0  0  0  0  0  0  0  0  1 V2000
  149.5717  134.2810  155.8555 O   0  0  0  0  0  0  0  0  0  0  0  0
  149.3842  134.7699  154.7433 C   0  0  0  0  0  0  0  0  0  0  0  0
  148.5140  134.2683  153.8519 N   0  0  0  0  0  0  0  0  0  0  0  0
  147.7411  133.0432  154.0276 C   0  0  0  0  0  0  0  0  0  0  0  0
  147.8903  132.0696  152.8404 C   0  0  0  0  0  0  0  0  0  0  0  0
  146.6691  132.0206  151.9365 C   0  0  0  0  0  0  0  0  0  0  0  0
  145.8337  130.8827  151.9131 C   0  0  0  0  0  0  0  0  0  0  0  0
  144.7262  130.8803  151.0435 C   0  0  0  0  0  0  0  0  0  0  0  0
  144.4974  132.0100  150.2348 C   0  0  0  0  0  0  0  0  0  0  0  0
  145.3881  133.0974  150.3347 C   0  0  0  0  0  0  0  0  0  0  0  0
  146.4532  133.1097  151.1650 N   0  0  0  0  0  0  0  0  0  0  0  0
  150.0539  135.8578  154.3227 N   0  0  0  0  0  0  0  0  0  0  0  0
  151.0619  136.6342  155.0471 C   0  0  2  0  0  0  0  0  0  0  0  0
  150.5562  137.1136  156.4253 C   0  0  0  0  0  0  0  0  0  0  0  0
  151.4854  138.2198  156.9374 C   0  0  0  0  0  0  0  0  0  0  0  0
  152.1232  139.0787  155.4499 S   0  0  0  0  0  0  0  0  0  0  0  0
  151.4231  140.3610  155.2822 O   0  0  0  0  0  0  0  0  0  0  0  0
  153.5924  139.0129  155.4554 O   0  0  0  0  0  0  0  0  0  0  0  0
  151.4633  137.8746  154.2366 C   0  0  0  0  0  0  0  0  0  0  0  0
  148.4156  134.7427  152.9664 H   0  0  0  0  0  0  0  0  0  0  0  0
  148.0116  132.5513  154.9630 H   0  0  0  0  0  0  0  0  0  0  0  0
  146.6952  133.3354  154.1246 H   0  0  0  0  0  0  0  0  0  0  0  0
  148.7584  132.3529  152.2438 H   0  0  0  0  0  0  0  0  0  0  0  0
  148.0991  131.0656  153.2123 H   0  0  0  0  0  0  0  0  0  0  0  0
  146.0405  130.0276  152.5401 H   0  0  0  0  0  0  0  0  0  0  0  0
  144.0670  130.0264  150.9948 H   0  0  0  0  0  0  0  0  0  0  0  0
  143.6584  132.0435  149.5557 H   0  0  0  0  0  0  0  0  0  0  0  0
  145.2425  133.9802  149.7299 H   0  0  0  0  0  0  0  0  0  0  0  0
  149.8090  136.2054  153.4069 H   0  0  0  0  0  0  0  0  0  0  0  0
  151.9597  136.0309  155.1941 H   0  0  0  0  0  0  0  0  0  0  0  0
  149.5514  137.5242  156.3160 H   0  0  0  0  0  0  0  0  0  0  0  0
  150.4880  136.2971  157.1443 H   0  0  0  0  0  0  0  0  0  0  0  0
  150.9819  138.9272  157.5965 H   0  0  0  0  0  0  0  0  0  0  0  0
  152.3363  137.7937  157.4696 H   0  0  0  0  0  0  0  0  0  0  0  0
  152.2117  137.6617  153.4729 H   0  0  0  0  0  0  0  0  0  0  0  0
  150.5976  138.3324  153.7566 H   0  0  0  0  0  0  0  0  0  0  0  0
  1  2  2  0  0  0  0
  2  3  1  0  0  0  0
  2 12  1  0  0  0  0
  3  4  1  0  0  0  0
  3 20  1  0  0  0  0
  4  5  1  0  0  0  0
  4 21  1  0  0  0  0
  4 22  1  0  0  0  0
  5  6  1  0  0  0  0
  5 23  1  0  0  0  0
  5 24  1  0  0  0  0
  6 11  1  0  0  0  0
  6  7  2  0  0  0  0
  7  8  1  0  0  0  0
  7 25  1  0  0  0  0
  8  9  2  0  0  0  0
  8 26  1  0  0  0  0
  9 10  1  0  0  0  0
  9 27  1  0  0  0  0
 10 11  2  0  0  0  0
 10 28  1  0  0  0  0
 12 13  1  0  0  0  0
 12 29  1  0  0  0  0
 13 19  1  0  0  0  0
 13 14  1  0  0  0  0
 13 30  1  0  0  0  0
 14 15  1  0  0  0  0
 14 31  1  0  0  0  0
 14 32  1  0  0  0  0
 15 16  1  0  0  0  0
 15 33  1  0  0  0  0
 15 34  1  0  0  0  0
 16 17  2  0  0  0  0
 16 18  2  0  0  0  0
 16 19  1  0  0  0  0
 19 35  1  0  0  0  0
 19 36  1  0  0  0  0
M  END
> <s_m_source_file>
AV-unprocessed.smi

> <i_m_source_file_index>
1534

> <i_lp_mmshare_version>
43012

> <i_f3d_flags>
0

> <s_epik_input>
Tz1TMSg9TylbQ0gyXVtDSDJdW0NASF0oW0NIMl0xKVtOSF1DKD1PKVtOSF1bQ0gyXVtDSDJdYzJbY0hdW2NIXVtjSF1bY0hdbjI=

> <s_epik_cmdline>
J2VwaWtfcHl0aG9uJywgJy1waCcsICc3LjAnLCAnLXRuJywgJzgnLCAnLW1hJywgJzIwMCcsICctbWV0YWxfYmluZGluZycsICctaW1hZScsICc8aW5maWxlLm1hZT4nLCAnLW9tYWUnLCAnPG91dGZpbGUubWFlPic=

> <r_epik_Ionization_Penalty>
0.0423605

> <r_epik_Ionization_Penalty_Charging>
0

> <r_epik_Ionization_Penalty_Neutral>
0.0423605

> <r_epik_State_Penalty>
0.0357408

> <r_epik_Charging_Adjusted_Penalty>
0.0357408

> <i_epik_Tot_Q>
0

> <i_epik_Tot_abs_Q>
0

> <r_epik_Metal_State_Penalty>
0.033344

> <b_epik_Metal_Only>
0

> <s_lp_Force_Field>
OPLS_2005

> <r_lp_Energy>
11.0291

> <b_lp_Chiralities_Consistent>
1

> <s_lp_Variant>
AV-unprocessed.smi:1534-1

> <Gold.Version>
5.8.1

> <Gold.Id.Protein>
6NUR|6NUR_protein|mol2

> <Gold.PLP.Fitness>
44.3440

> <Gold.PLP.PLP>
-30.9289

> <Gold.PLP.part.hbond>
-4.4039

> <Gold.PLP.part.metal>
0.0000

> <Gold.PLP.part.buried>
-3.9902

> <Gold.PLP.part.nonpolar>
-23.6035

> <Gold.PLP.part.repulsive>
0.2819

> <Gold.PLP.ligand.clash>
0.0000

> <Gold.PLP.ligand.torsion>
0.4984

> <Gold.PLP.Chemscore.Hbond>
3.7980

> <Gold.PLP.Chemscore.CHOScore>
1.0000

> <Gold.PLP.Chemscore.Metal>
0.0000

> <Gold.Chemscore.Hbonds>
donor molecule, donor type, donor heavy atom, donor atom, acceptor molecule, acceptor atom, score
      L1  H     3    20       P1  7948  0.94
      L1  H    12    29       P1  7948  0.80
      P1  H  7989  7998       L1    17  0.94
      P1  H  7997  8009       L1    18  0.92
      L1  C    10    28       P1  7921  1.00

> <Gold.PLP.Chemscore.Internal.Correction>
0.0179

> <Gold.Rescore>
     Score         DG    S(hbond)    S(metal)    S(lipo)     H(rot)  DE(clash)    DE(int)     intcor
     19.55     -20.02       3.03        0.00      75.81       1.73       0.04       0.44       ----

> <Gold.Chemscore.Fitness>
19.5499

> <Gold.Chemscore.DG>
-20.0213

> <Gold.Chemscore.ZeroCoef>
-5.4800

> <Gold.Chemscore.Hbond>
3.0279

> <Gold.Chemscore.Metal>
0.0000

> <Gold.Chemscore.Lipo>
75.8051

> <Gold.Chemscore.Internal_Hbond>
0.0000

> <Gold.Chemscore.DEClash>
0.0353

> <Gold.Chemscore.DEInternal>
0.4361

> <Gold.Chemscore.Rot>
1.7348

> <Gold.Chemscore.Internal.Correction>
   9.000000E+99

> <Gold.Chemscore.Hbonds>
donor molecule, donor type, donor heavy atom, donor atom, acceptor molecule, acceptor atom, score
      L1  H     3    20       P1  7948  0.45
      L1  H    12    29       P1  7948  0.12
      P1  H  7989  7998       L1    17  0.55
      P1  H  7997  8009       L1    18  0.83

> <Gold.Chemscore.Hbond.Weighted>
-10.1131

> <Gold.Chemscore.Metal.Weighted>
-0.0000

> <Gold.Chemscore.Lipo.Weighted>
-8.8692

> <Gold.Chemscore.Internal_Hbond.Weighted>
0.0000

> <Gold.Chemscore.DEClash.Weighted>
0.0353

> <Gold.Chemscore.DEInternal.Weighted>
0.4361

> <Gold.Chemscore.Rot.Weighted>
4.4410

> <Gold.Chemscore.Internal.Correction.Weighted>
   9.000000E+99

> <Gold.Protein.RotatedTorsions>
[ 6907 6896 6895 6894 ] final -110.55 input  -60.11 | X-H torsion
[ 7974 7965 7964 7962 ] final -151.99 input  175.53 | X-H torsion
[ 8008 7997 7996 7995 ] final -142.56 input   59.86 | X-H torsion
[ 10167 10162 10161 10158 ] final  -22.72 input  -65.29 | X-H torsion
[ 10718 10713 10712 10709 ] final  -19.26 input   66.30 | X-H torsion
[ 10763 10752 10751 10750 ] final   49.95 input  -60.55 | X-H torsion
[ 11005 11000 10999 10996 ] final -169.05 input  -57.11 | X-H torsion

> <Gold.Protein.ActiveResidues>
 VAL166  LYS551  ARG553  GLY616  TRP617  ASP618  TYR619  PRO620  LYS621  CYS622 
 ASP623  PHE694  ASN695  SER759  ASP760  ASP761  ALA762  ILE779  LEU786  VAL792 
 PHE793  MET794  SER795  GLU796  ALA797  LYS798  CYS799  TRP800  GLU811  SER814 

> <Gold.Protein.RotatedAtoms>
  150.7632  133.9365  159.3442 H   0  0  0  0  0  0  0  0  0  0  0  0  # atno 6907 bound_to 6896
  151.7268  135.0881  160.0303 H   0  0  0  0  0  0  0  0  0  0  0  0  # atno 6908 bound_to 6896
  152.3615  133.6265  159.6054 H   0  0  0  0  0  0  0  0  0  0  0  0  # atno 6909 bound_to 6896
  144.7819  140.4723  143.5833 H   0  0  0  0  0  0  0  0  0  0  0  0  # atno 7974 bound_to 7965
  155.4962  140.0572  157.2946 H   0  0  0  0  0  0  0  0  0  0  0  0  # atno 8008 bound_to 7997
  154.4604  140.1993  156.0210 H   0  0  0  0  0  0  0  0  0  0  0  0  # atno 8009 bound_to 7997
  156.0880  140.3237  155.7782 H   0  0  0  0  0  0  0  0  0  0  0  0  # atno 8010 bound_to 7997
  140.7286  143.4509  151.0518 H   0  0  0  0  0  0  0  0  0  0  0  0  # atno 10167 bound_to 10162
  156.5481  130.4695  149.6465 H   0  0  0  0  0  0  0  0  0  0  0  0  # atno 10718 bound_to 10713
  152.9785  135.5895  154.4173 H   0  0  0  0  0  0  0  0  0  0  0  0  # atno 10763 bound_to 10752
  154.3802  135.2767  155.2218 H   0  0  0  0  0  0  0  0  0  0  0  0  # atno 10764 bound_to 10752
  154.4135  135.6076  153.6021 H   0  0  0  0  0  0  0  0  0  0  0  0  # atno 10765 bound_to 10752
  140.5351  134.5578  157.5085 H   0  0  0  0  0  0  0  0  0  0  0  0  # atno 11005 bound_to 11000
  145.6027  139.1505  143.3120 LP  0  0  0  0  0  0  0  0  0  0  0  0  # atno 17320 bound_to 7965
  146.2031  140.6147  142.9093 LP  0  0  0  0  0  0  0  0  0  0  0  0  # atno 17321 bound_to 7965
  139.8185  143.7853  152.3175 LP  0  0  0  0  0  0  0  0  0  0  0  0  # atno 17342 bound_to 10162
  139.7927  144.7404  150.9932 LP  0  0  0  0  0  0  0  0  0  0  0  0  # atno 17343 bound_to 10162
  156.2910  130.7124  151.1972 LP  0  0  0  0  0  0  0  0  0  0  0  0  # atno 17370 bound_to 10713
  157.7393  131.0531  150.5242 LP  0  0  0  0  0  0  0  0  0  0  0  0  # atno 17371 bound_to 10713
  139.9534  134.7578  156.0397 LP  0  0  0  0  0  0  0  0  0  0  0  0  # atno 17394 bound_to 11000
  141.1259  133.6599  156.3336 LP  0  0  0  0  0  0  0  0  0  0  0  0  # atno 17395 bound_to 11000

$$$$
