AV-unprocessed.smi:49|AV-procd|sdf|474|dock8
  -GOLD-   2262016343D 1   1.00000     0.00000
 Structure written by MMmdl.
 27 28  0  0  0  0  0  0  0  0  1 V2000
  153.0600  143.0231  159.3194 C   0  0  0  0  0  0  0  0  0  0  0  0
  152.0250  143.5642  158.3273 C   0  0  0  0  0  0  0  0  0  0  0  0
  151.6012  142.5428  157.3232 C   0  0  0  0  0  0  0  0  0  0  0  0
  152.0819  141.3070  157.2392 N   0  0  0  0  0  0  0  0  0  0  0  0
  151.3629  140.8367  156.1754 C   0  0  0  0  0  0  0  0  0  0  0  0
  151.5044  139.4299  155.6781 C   0  0  1  0  0  0  0  0  0  0  0  0
  150.1815  138.6440  155.7689 C   0  0  0  0  0  0  0  0  0  0  0  0
  149.8307  138.3256  154.3174 C   0  0  2  0  0  0  0  0  0  0  0  0
  149.1197  137.1141  154.1754 O   0  0  0  0  0  0  0  0  0  0  0  0
  151.1974  138.2785  153.6470 C   0  0  0  0  0  0  0  0  0  0  0  0
  151.9465  139.3525  154.2812 N   0  0  0  0  0  0  0  0  0  0  0  0
  150.4804  141.6874  155.6484 N   0  0  0  0  0  0  0  0  0  0  0  0
  150.6612  142.7878  156.4081 N   0  0  0  0  0  0  0  0  0  0  0  0
  152.2391  138.9250  156.3069 H   0  0  0  0  0  0  0  0  0  0  0  0
  149.2432  139.1414  153.8932 H   0  0  0  0  0  0  0  0  0  0  0  0
  150.1407  143.6430  156.2737 H   0  0  0  0  0  0  0  0  0  0  0  0
  153.3496  143.7918  160.0360 H   0  0  0  0  0  0  0  0  0  0  0  0
  153.9622  142.6915  158.8045 H   0  0  0  0  0  0  0  0  0  0  0  0
  152.6631  142.1762  159.8798 H   0  0  0  0  0  0  0  0  0  0  0  0
  151.1458  143.9201  158.8660 H   0  0  0  0  0  0  0  0  0  0  0  0
  152.4341  144.4247  157.7973 H   0  0  0  0  0  0  0  0  0  0  0  0
  150.3530  137.7226  156.3277 H   0  0  0  0  0  0  0  0  0  0  0  0
  149.3828  139.1878  156.2756 H   0  0  0  0  0  0  0  0  0  0  0  0
  149.0155  136.9340  153.2534 H   0  0  0  0  0  0  0  0  0  0  0  0
  151.6817  137.3227  153.8523 H   0  0  0  0  0  0  0  0  0  0  0  0
  151.1423  138.4020  152.5652 H   0  0  0  0  0  0  0  0  0  0  0  0
  152.9348  139.1247  154.2464 H   0  0  0  0  0  0  0  0  0  0  0  0
  1  2  1  0  0  0  0
  1 17  1  0  0  0  0
  1 18  1  0  0  0  0
  1 19  1  0  0  0  0
  2  3  1  0  0  0  0
  2 20  1  0  0  0  0
  2 21  1  0  0  0  0
  3 13  1  0  0  0  0
  3  4  2  0  0  0  0
  4  5  1  0  0  0  0
  5  6  1  0  0  0  0
  5 12  2  0  0  0  0
  6 14  1  0  0  0  0
  6 11  1  0  0  0  0
  6  7  1  0  0  0  0
  7  8  1  0  0  0  0
  7 22  1  0  0  0  0
  7 23  1  0  0  0  0
  8 15  1  0  0  0  0
  8  9  1  0  0  0  0
  8 10  1  0  0  0  0
  9 24  1  0  0  0  0
 10 11  1  0  0  0  0
 10 25  1  0  0  0  0
 10 26  1  0  0  0  0
 11 27  1  0  0  0  0
 12 13  1  0  0  0  0
 13 16  1  0  0  0  0
M  END
> <s_m_source_file>
AV-unprocessed.smi

> <i_m_source_file_index>
49

> <i_lp_mmshare_version>
43012

> <i_f3d_flags>
0

> <s_epik_input>
W0NIM11bQ0gyXWMxbmMobltuSF0xKVtDQEBIXTJbQ0gyXVtDQEBIXShbT0hdKVtDSDJdW05IXTI=

> <s_epik_cmdline>
J2VwaWtfcHl0aG9uJywgJy1waCcsICc3LjAnLCAnLXRuJywgJzgnLCAnLW1hJywgJzIwMCcsICctbWV0YWxfYmluZGluZycsICctaW1hZScsICc8aW5maWxlLm1hZT4nLCAnLW9tYWUnLCAnPG91dGZpbGUubWFlPic=

> <r_lp_tautomer_probability>
0.948284

> <r_epik_Ionization_Penalty>
1.6657

> <r_epik_Ionization_Penalty_Charging>
0

> <r_epik_Ionization_Penalty_Neutral>
1.6657

> <r_epik_State_Penalty>
2.01417

> <r_epik_Charging_Adjusted_Penalty>
2.01417

> <i_epik_Tot_Q>
0

> <i_epik_Tot_abs_Q>
0

> <r_epik_Metal_State_Penalty>
2.28256

> <b_epik_Metal_Only>
0

> <s_lp_Force_Field>
OPLS_2005

> <r_lp_Energy>
18.9317

> <b_lp_Chiralities_Consistent>
1

> <s_lp_Variant>
AV-unprocessed.smi:49-12

> <Gold.Version>
5.8.1

> <Gold.Id.Protein>
6NUR|6NUR_protein|mol2

> <Gold.PLP.Fitness>
33.1526

> <Gold.PLP.PLP>
-24.1964

> <Gold.PLP.part.hbond>
-3.0000

> <Gold.PLP.part.metal>
0.0000

> <Gold.PLP.part.buried>
-4.4976

> <Gold.PLP.part.nonpolar>
-16.9804

> <Gold.PLP.part.repulsive>
0.1744

> <Gold.PLP.ligand.clash>
0.0000

> <Gold.PLP.ligand.torsion>
0.0163

> <Gold.PLP.Chemscore.Hbond>
2.9920

> <Gold.PLP.Chemscore.CHOScore>
0.0000

> <Gold.PLP.Chemscore.Metal>
0.0000

> <Gold.Chemscore.Hbonds>
donor molecule, donor type, donor heavy atom, donor atom, acceptor molecule, acceptor atom, score
      L1  H     9    24       P1  7948  1.00
      L1  H    13    16       P1  8028  1.00
      P1  H  7989  7998       L1    11  0.86

> <Gold.PLP.Chemscore.Internal.Correction>
0.0128

> <Gold.Rescore>
     Score         DG    S(hbond)    S(metal)    S(lipo)     H(rot)  DE(clash)    DE(int)     intcor
     14.05     -14.12       2.33        0.00      47.97       1.86       0.03       0.04       ----

> <Gold.Chemscore.Fitness>
14.0483

> <Gold.Chemscore.DG>
-14.1189

> <Gold.Chemscore.ZeroCoef>
-5.4800

> <Gold.Chemscore.Hbond>
2.3285

> <Gold.Chemscore.Metal>
0.0000

> <Gold.Chemscore.Lipo>
47.9696

> <Gold.Chemscore.Internal_Hbond>
0.0000

> <Gold.Chemscore.DEClash>
0.0347

> <Gold.Chemscore.DEInternal>
0.0359

> <Gold.Chemscore.Rot>
1.8558

> <Gold.Chemscore.Internal.Correction>
   9.000000E+99

> <Gold.Chemscore.Hbonds>
donor molecule, donor type, donor heavy atom, donor atom, acceptor molecule, acceptor atom, score
      L1  H     9    24       P1  7948  0.94
      L1  H    13    16       P1  8028  0.99
      P1  H  7989  7998       L1    11  0.37

> <Gold.Chemscore.Hbond.Weighted>
-7.7772

> <Gold.Chemscore.Metal.Weighted>
-0.0000

> <Gold.Chemscore.Lipo.Weighted>
-5.6124

> <Gold.Chemscore.Internal_Hbond.Weighted>
0.0000

> <Gold.Chemscore.DEClash.Weighted>
0.0347

> <Gold.Chemscore.DEInternal.Weighted>
0.0359

> <Gold.Chemscore.Rot.Weighted>
4.7507

> <Gold.Chemscore.Internal.Correction.Weighted>
   9.000000E+99

> <Gold.Protein.RotatedTorsions>
[ 6907 6896 6895 6894 ] final -123.33 input  -60.11 | X-H torsion
[ 7974 7965 7964 7962 ] final -107.10 input  175.53 | X-H torsion
[ 8008 7997 7996 7995 ] final -166.55 input   59.86 | X-H torsion
[ 10167 10162 10161 10158 ] final -131.04 input  -65.29 | X-H torsion
[ 10718 10713 10712 10709 ] final  111.93 input   66.30 | X-H torsion
[ 10763 10752 10751 10750 ] final -134.79 input  -60.55 | X-H torsion
[ 11005 11000 10999 10996 ] final   -7.50 input  -57.11 | X-H torsion

> <Gold.Protein.ActiveResidues>
 VAL166  LYS551  ARG553  GLY616  TRP617  ASP618  TYR619  PRO620  LYS621  CYS622 
 ASP623  PHE694  ASN695  SER759  ASP760  ASP761  ALA762  ILE779  LEU786  VAL792 
 PHE793  MET794  SER795  GLU796  ALA797  LYS798  CYS799  TRP800  GLU811  SER814 

> <Gold.Protein.RotatedAtoms>
  150.8660  133.7574  159.2976 H   0  0  0  0  0  0  0  0  0  0  0  0  # atno 6907 bound_to 6896
  151.5201  135.1065  159.9886 H   0  0  0  0  0  0  0  0  0  0  0  0  # atno 6908 bound_to 6896
  152.4661  133.7882  159.6943 H   0  0  0  0  0  0  0  0  0  0  0  0  # atno 6909 bound_to 6896
  145.2096  140.9090  143.3322 H   0  0  0  0  0  0  0  0  0  0  0  0  # atno 7974 bound_to 7965
  155.8653  140.0984  157.1586 H   0  0  0  0  0  0  0  0  0  0  0  0  # atno 8008 bound_to 7997
  154.3993  140.1357  156.4074 H   0  0  0  0  0  0  0  0  0  0  0  0  # atno 8009 bound_to 7997
  155.7811  140.3458  155.5300 H   0  0  0  0  0  0  0  0  0  0  0  0  # atno 8010 bound_to 7997
  139.9230  143.6360  152.2549 H   0  0  0  0  0  0  0  0  0  0  0  0  # atno 10167 bound_to 10162
  157.6419  131.0959  150.6820 H   0  0  0  0  0  0  0  0  0  0  0  0  # atno 10718 bound_to 10713
  154.8714  135.3723  154.4792 H   0  0  0  0  0  0  0  0  0  0  0  0  # atno 10763 bound_to 10752
  153.5447  135.7026  153.5625 H   0  0  0  0  0  0  0  0  0  0  0  0  # atno 10764 bound_to 10752
  153.3771  135.4006  155.1794 H   0  0  0  0  0  0  0  0  0  0  0  0  # atno 10765 bound_to 10752
  140.7135  133.8889  155.8768 H   0  0  0  0  0  0  0  0  0  0  0  0  # atno 11005 bound_to 11000
  144.9869  139.3728  143.6234 LP  0  0  0  0  0  0  0  0  0  0  0  0  # atno 17320 bound_to 7965
  146.3400  139.9034  142.8791 LP  0  0  0  0  0  0  0  0  0  0  0  0  # atno 17321 bound_to 7965
  139.6845  144.7653  151.1548 LP  0  0  0  0  0  0  0  0  0  0  0  0  # atno 17342 bound_to 10162
  140.7657  143.5676  150.9030 LP  0  0  0  0  0  0  0  0  0  0  0  0  # atno 17343 bound_to 10162
  156.7143  130.4661  149.5539 LP  0  0  0  0  0  0  0  0  0  0  0  0  # atno 17370 bound_to 10713
  156.1709  130.6436  151.0835 LP  0  0  0  0  0  0  0  0  0  0  0  0  # atno 17371 bound_to 10713
  141.0064  134.1080  157.4265 LP  0  0  0  0  0  0  0  0  0  0  0  0  # atno 17394 bound_to 11000
  139.8866  135.0082  156.6507 LP  0  0  0  0  0  0  0  0  0  0  0  0  # atno 17395 bound_to 11000

$$$$
