#       Name:                AV-unprocessed.smi:701
#       Creating user name   scv26
#       Creation time:       Fri Mar 27 00:39:29 2020


#       File generated by GOLD software.
#

@<TRIPOS>MOLECULE
AV-unprocessed.smi:701
    57    59     1
SMALL
NO_CHARGES


@<TRIPOS>ATOM
      1 ****        -4.6674   2.1128   1.9037 C.3            1 S1                 0.0000
      2 ****        -3.1982   2.3476   1.5467 C.3            1 S1                 0.0000
      3 ****        -2.5651   1.0910   1.3750 O.3            1 S1                 0.0000
      4 ****        -1.1929   1.2002   1.0171 C.3            1 S1                 0.0000
      5 ****        -1.0028   1.3545  -0.4974 C.3            1 S1                 0.0000
      6 ****        -0.9549  -0.1728  -0.5563 C.3            1 S1                 0.0000
      7 ****         0.0370  -0.6625  -1.5038 N.am           1 S1                 0.0000
      8 ****         0.2035  -1.9485  -1.8509 C.2            1 S1                 0.0000
      9 ****        -0.5229  -2.8503  -1.4347 O.2            1 S1                 0.0000
     10 ****         1.3658  -2.2948  -2.7978 C.3            1 S1                 0.0000
     11 ****         2.2614  -1.1651  -3.1087 N.am           1 S1                 0.0000
     12 ****         2.0338  -0.4630  -4.3054 C.2            1 S1                 0.0000
     13 ****         2.7842   0.5970  -4.6611 C.2            1 S1                 0.0000
     14 ****         3.8577   1.0136  -3.7674 C.2            1 S1                 0.0000
     15 ****         4.5502   1.9819  -4.0738 O.2            1 S1                 0.0000
     16 ****         4.0406   0.2988  -2.6189 N.pl3          1 S1                -1.0000
     17 ****         3.2693  -0.7767  -2.2695 C.2            1 S1                 0.0000
     18 ****         3.4446  -1.4005  -1.2227 O.2            1 S1                 0.0000
     19 ****        -0.4876  -0.1799   0.9229 C.3            1 S1                 0.0000
     20 ****        -1.0573  -1.3138   1.7937 C.3            1 S1                 0.0000
     21 ****        -0.7627  -1.1179   3.2900 C.3            1 S1                 0.0000
     22 ****         0.7467  -1.0198   3.5467 C.3            1 S1                 0.0000
     23 ****         1.3933   0.0548   2.6630 C.3            1 S1                 0.0000
     24 ****         1.0384  -0.1535   1.1803 C.3            1 S1                 0.0000
     25 ****        -5.1904   3.0588   2.0453 H              1 S1                 0.0000
     26 ****        -4.7586   1.5381   2.8257 H              1 S1                 0.0000
     27 ****        -5.1781   1.5627   1.1130 H              1 S1                 0.0000
     28 ****        -3.1279   2.9409   0.6343 H              1 S1                 0.0000
     29 ****        -2.7069   2.9079   2.3434 H              1 S1                 0.0000
     30 ****        -0.6489   1.9332   1.6147 H              1 S1                 0.0000
     31 ****        -1.8412   1.8004  -1.0326 H              1 S1                 0.0000
     32 ****        -0.0588   1.8361  -0.7588 H              1 S1                 0.0000
     33 ****        -1.9513  -0.6008  -0.6892 H              1 S1                 0.0000
     34 ****         0.6800   0.0158  -1.8870 H              1 S1                 0.0000
     35 ****         1.9366  -3.1162  -2.3613 H              1 S1                 0.0000
     36 ****         0.9420  -2.7024  -3.7163 H              1 S1                 0.0000
     37 ****         1.2153  -0.8316  -4.9063 H              1 S1                 0.0000
     38 ****         2.5938   1.1276  -5.5822 H              1 S1                 0.0000
     39 ****        -2.1343  -1.4059   1.6517 H              1 S1                 0.0000
     40 ****        -0.6441  -2.2704   1.4710 H              1 S1                 0.0000
     41 ****        -1.2560  -0.2121   3.6445 H              1 S1                 0.0000
     42 ****        -1.1834  -1.9441   3.8635 H              1 S1                 0.0000
     43 ****         0.9363  -0.8049   4.5988 H              1 S1                 0.0000
     44 ****         1.2113  -1.9845   3.3391 H              1 S1                 0.0000
     45 ****         1.0637   1.0418   2.9879 H              1 S1                 0.0000
     46 ****         2.4760   0.0360   2.7909 H              1 S1                 0.0000
     47 ****         1.4902  -1.0879   0.8447 H              1 S1                 0.0000
     48 ****         1.5194   0.6288   0.5922 H              1 S1                 0.0000
     49 ****        -3.0430   0.5901   0.6535 LP             1 S1                 0.0000
     50 ****        -2.6303   0.5821   2.2334 LP             1 S1                 0.0000
     51 ****        -1.2750  -2.6387  -0.8106 LP             1 S1                 0.0000
     52 ****        -0.3611  -3.7948  -1.7205 LP             1 S1                 0.0000
     53 ****         4.3737   2.4729  -4.9268 LP             1 S1                 0.0000
     54 ****         5.2901   2.2786  -3.4699 LP             1 S1                 0.0000
     55 ****         4.7764   0.5753  -2.0006 LP             1 S1                 0.0000
     56 ****         2.8551  -2.1765  -0.9983 LP             1 S1                 0.0000
     57 ****         4.1765  -1.1312  -0.5967 LP             1 S1                 0.0000
@<TRIPOS>BOND
    1    1    2 1     
    2    1   25 1     
    3    1   26 1     
    4    1   27 1     
    5    2    3 1     
    6    2   28 1     
    7    2   29 1     
    8    3    4 1     
    9    4   19 1     
   10    4    5 1     
   11    4   30 1     
   12    5    6 1     
   13    5   31 1     
   14    5   32 1     
   15    6    7 1     
   16    6   19 1     
   17    6   33 1     
   18    7    8 am    
   19    7   34 1     
   20    8    9 2     
   21    8   10 1     
   22   10   11 1     
   23   10   35 1     
   24   10   36 1     
   25   11   17 am    
   26   11   12 1     
   27   12   13 2     
   28   12   37 1     
   29   13   14 1     
   30   13   38 1     
   31   14   15 2     
   32   14   16 1     
   33   16   17 1     
   34   17   18 2     
   35   19   24 1     
   36   19   20 1     
   37   20   21 1     
   38   20   39 1     
   39   20   40 1     
   40   21   22 1     
   41   21   41 1     
   42   21   42 1     
   43   22   23 1     
   44   22   43 1     
   45   22   44 1     
   46   23   24 1     
   47   23   45 1     
   48   23   46 1     
   49   24   47 1     
   50   24   48 1     
   51    3   49 1     
   52    3   50 1     
   53    9   51 1     
   54    9   52 1     
   55   15   53 1     
   56   15   54 1     
   57   16   55 1     
   58   18   56 1     
   59   18   57 1     
@<TRIPOS>SUBSTRUCTURE
      1 S1             1
@<TRIPOS>SET
LONE_PAIRS      STATIC     ATOMS    <user>   **** ""
9 49 50 51 52 53 54 55 56 57
DONOR_HYDROGENS      STATIC     ATOMS    <user>   **** ""
1 34
ATOM$BLUE        STATIC     ATOMS    COLORGROUP SYSTEM
9 49 50 51 52 53 54 55 56 57
ATOM$RED        STATIC     ATOMS    COLORGROUP SYSTEM
1 34
