AV-unprocessed.smi:269|AV-procd|sdf|2043|dock9
  -GOLD-   2262021263D 1   1.00000     0.00000
 Structure written by MMmdl.
 61 64  0  0  0  0  0  0  0  0  1 V2000
  148.4079  126.8704  152.1701 C   0  0  0  0  0  0  0  0  0  0  0  0
  148.0892  128.1375  152.9749 C   0  0  0  0  0  0  0  0  0  0  0  0
  147.3734  129.1159  152.1655 N   0  0  0  0  0  0  0  0  0  0  0  0
  146.0810  129.4447  152.3169 C   0  0  0  0  0  0  0  0  0  0  0  0
  145.3434  128.9291  153.1566 O   0  0  0  0  0  0  0  0  0  0  0  0
  145.5376  130.5377  151.3897 C   0  0  0  0  0  0  0  0  0  0  0  0
  146.0382  131.8973  151.6938 N   0  0  0  0  0  0  0  0  0  0  0  0
  145.5646  132.3054  153.0215 C   0  0  0  0  0  0  0  0  0  0  0  0
  146.1553  133.6769  153.3965 C   0  0  0  0  0  0  0  0  0  0  0  0
  145.7869  134.6714  152.3977 N   0  0  0  0  0  0  0  0  0  0  0  0
  146.1288  135.9331  152.7320 C   0  0  0  0  0  0  0  0  0  0  0  0
  145.6107  136.9314  151.9759 N   0  0  0  0  0  0  0  0  0  0  0  0
  145.9093  138.2037  152.2554 C   0  0  0  0  0  0  0  0  0  0  0  0
  146.6911  138.6848  153.2246 N   0  0  0  0  0  0  0  0  0  0  0  0
  147.2153  137.6809  153.9854 C   0  0  0  0  0  0  0  0  0  0  0  0
  146.9839  136.2871  153.8138 C   0  0  0  0  0  0  0  0  0  0  0  0
  147.6726  135.5697  154.7839 N   0  0  0  0  0  0  0  0  0  0  0  0
  148.2778  136.4868  155.4878 C   0  0  0  0  0  0  0  0  0  0  0  0
  148.0727  137.7826  155.0680 N   0  0  0  0  0  0  0  0  0  0  0  0
  148.6229  138.9917  155.6649 C   0  0  0  0  0  0  0  0  0  0  0  0
  150.1241  139.2565  155.3426 C   0  0  0  0  0  0  0  0  0  0  0  0
  150.3484  139.3754  153.8075 C   0  0  0  0  0  0  0  0  0  0  0  0
  149.9540  140.6365  153.3049 O   0  0  0  0  0  0  0  0  0  0  0  0
  150.5869  140.5636  156.0348 C   0  0  0  0  0  0  0  0  0  0  0  0
  152.1172  140.7354  156.0377 C   0  0  0  0  0  0  0  0  0  0  0  0
  152.7339  139.6074  156.6438 O   0  0  0  0  0  0  0  0  0  0  0  0
  152.4753  138.3956  155.9470 C   0  0  0  0  0  0  0  0  0  0  0  0
  150.9641  138.1034  155.9475 C   0  0  0  0  0  0  0  0  0  0  0  0
  146.1996  134.2765  151.0568 C   0  0  0  0  0  0  0  0  0  0  0  0
  145.6136  132.8975  150.7014 C   0  0  0  0  0  0  0  0  0  0  0  0
  148.9106  126.1312  152.7940 H   0  0  0  0  0  0  0  0  0  0  0  0
  149.0627  127.0903  151.3262 H   0  0  0  0  0  0  0  0  0  0  0  0
  147.4989  126.4129  151.7783 H   0  0  0  0  0  0  0  0  0  0  0  0
  147.4651  127.8817  153.8315 H   0  0  0  0  0  0  0  0  0  0  0  0
  149.0051  128.5735  153.3770 H   0  0  0  0  0  0  0  0  0  0  0  0
  147.9032  129.5935  151.4507 H   0  0  0  0  0  0  0  0  0  0  0  0
  145.7631  130.2845  150.3518 H   0  0  0  0  0  0  0  0  0  0  0  0
  144.4504  130.5255  151.4799 H   0  0  0  0  0  0  0  0  0  0  0  0
  144.4738  132.3453  153.0438 H   0  0  0  0  0  0  0  0  0  0  0  0
  145.8717  131.5704  153.7667 H   0  0  0  0  0  0  0  0  0  0  0  0
  145.7845  133.9846  154.3751 H   0  0  0  0  0  0  0  0  0  0  0  0
  147.2413  133.6066  153.4726 H   0  0  0  0  0  0  0  0  0  0  0  0
  145.4583  138.9424  151.6090 H   0  0  0  0  0  0  0  0  0  0  0  0
  148.9014  136.2402  156.3349 H   0  0  0  0  0  0  0  0  0  0  0  0
  148.0138  139.8333  155.3322 H   0  0  0  0  0  0  0  0  0  0  0  0
  148.4704  138.9323  156.7432 H   0  0  0  0  0  0  0  0  0  0  0  0
  151.3965  139.2166  153.5541 H   0  0  0  0  0  0  0  0  0  0  0  0
  149.7943  138.6165  153.2579 H   0  0  0  0  0  0  0  0  0  0  0  0
  149.8990  140.5806  152.3631 H   0  0  0  0  0  0  0  0  0  0  0  0
  150.1253  141.4330  155.5652 H   0  0  0  0  0  0  0  0  0  0  0  0
  150.2484  140.5636  157.0717 H   0  0  0  0  0  0  0  0  0  0  0  0
  152.5080  140.8839  155.0307 H   0  0  0  0  0  0  0  0  0  0  0  0
  152.3873  141.6252  156.6069 H   0  0  0  0  0  0  0  0  0  0  0  0
  152.8752  138.4476  154.9341 H   0  0  0  0  0  0  0  0  0  0  0  0
  153.0079  137.5879  156.4493 H   0  0  0  0  0  0  0  0  0  0  0  0
  150.6567  137.9371  156.9811 H   0  0  0  0  0  0  0  0  0  0  0  0
  150.7674  137.1657  155.4272 H   0  0  0  0  0  0  0  0  0  0  0  0
  145.8596  135.0204  150.3351 H   0  0  0  0  0  0  0  0  0  0  0  0
  147.2878  134.2418  150.9925 H   0  0  0  0  0  0  0  0  0  0  0  0
  145.9609  132.6300  149.7035 H   0  0  0  0  0  0  0  0  0  0  0  0
  144.5242  132.9475  150.6562 H   0  0  0  0  0  0  0  0  0  0  0  0
  1  2  1  0  0  0  0
  1 31  1  0  0  0  0
  1 32  1  0  0  0  0
  1 33  1  0  0  0  0
  2  3  1  0  0  0  0
  2 34  1  0  0  0  0
  2 35  1  0  0  0  0
  3  4  1  0  0  0  0
  3 36  1  0  0  0  0
  4  5  2  0  0  0  0
  4  6  1  0  0  0  0
  6  7  1  0  0  0  0
  6 37  1  0  0  0  0
  6 38  1  0  0  0  0
  7 30  1  0  0  0  0
  7  8  1  0  0  0  0
  8  9  1  0  0  0  0
  8 39  1  0  0  0  0
  8 40  1  0  0  0  0
  9 10  1  0  0  0  0
  9 41  1  0  0  0  0
  9 42  1  0  0  0  0
 10 11  1  0  0  0  0
 10 29  1  0  0  0  0
 11 16  1  0  0  0  0
 11 12  2  0  0  0  0
 12 13  1  0  0  0  0
 13 14  2  0  0  0  0
 13 43  1  0  0  0  0
 14 15  1  0  0  0  0
 15 19  1  0  0  0  0
 15 16  2  0  0  0  0
 16 17  1  0  0  0  0
 17 18  2  0  0  0  0
 18 19  1  0  0  0  0
 18 44  1  0  0  0  0
 19 20  1  0  0  0  0
 20 21  1  0  0  0  0
 20 45  1  0  0  0  0
 20 46  1  0  0  0  0
 21 28  1  0  0  0  0
 21 22  1  0  0  0  0
 21 24  1  0  0  0  0
 22 23  1  0  0  0  0
 22 47  1  0  0  0  0
 22 48  1  0  0  0  0
 23 49  1  0  0  0  0
 24 25  1  0  0  0  0
 24 50  1  0  0  0  0
 24 51  1  0  0  0  0
 25 26  1  0  0  0  0
 25 52  1  0  0  0  0
 25 53  1  0  0  0  0
 26 27  1  0  0  0  0
 27 28  1  0  0  0  0
 27 54  1  0  0  0  0
 27 55  1  0  0  0  0
 28 56  1  0  0  0  0
 28 57  1  0  0  0  0
 29 30  1  0  0  0  0
 29 58  1  0  0  0  0
 29 59  1  0  0  0  0
 30 60  1  0  0  0  0
 30 61  1  0  0  0  0
M  END
> <s_m_source_file>
AV-unprocessed.smi

> <i_m_source_file_index>
269

> <i_lp_mmshare_version>
43012

> <i_f3d_flags>
0

> <s_epik_input>
W0NIM11bQ0gyXVtOSF1DKD1PKVtDSDJdTjFbQ0gyXVtDSDJdTihbQ0gyXVtDSDJdMSljKG5bY0hdbjIpYyhjMjMpbltjSF1uM1tDSDJdQzQoW0NIMl1bT0hdKVtDSDJdW0NIMl1PW0NIMl1bQ0gyXTQ=

> <s_epik_cmdline>
J2VwaWtfcHl0aG9uJywgJy1waCcsICc3LjAnLCAnLXRuJywgJzgnLCAnLW1hJywgJzIwMCcsICctbWV0YWxfYmluZGluZycsICctaW1hZScsICc8aW5maWxlLm1hZT4nLCAnLW9tYWUnLCAnPG91dGZpbGUubWFlPic=

> <r_lp_tautomer_probability>
1

> <r_epik_Ionization_Penalty>
0.90547

> <r_epik_Ionization_Penalty_Charging>
0

> <r_epik_Ionization_Penalty_Neutral>
0.90547

> <r_epik_State_Penalty>
0.940417

> <r_epik_Charging_Adjusted_Penalty>
0.940417

> <i_epik_Tot_Q>
0

> <i_epik_Tot_abs_Q>
0

> <r_epik_Metal_State_Penalty>
0.947257

> <b_epik_Metal_Only>
0

> <s_lp_Force_Field>
OPLS_2005

> <r_lp_Energy>
47.1209

> <b_lp_Chiralities_Consistent>
1

> <s_lp_Variant>
AV-unprocessed.smi:269-2

> <Gold.Version>
5.8.1

> <Gold.Id.Protein>
6NUR|6NUR_protein|mol2

> <Gold.PLP.Fitness>
49.1298

> <Gold.PLP.PLP>
-35.4499

> <Gold.PLP.part.hbond>
-3.6991

> <Gold.PLP.part.metal>
0.0000

> <Gold.PLP.part.buried>
-2.3430

> <Gold.PLP.part.nonpolar>
-29.2952

> <Gold.PLP.part.repulsive>
0.8850

> <Gold.PLP.ligand.clash>
0.0000

> <Gold.PLP.ligand.torsion>
0.7416

> <Gold.PLP.Chemscore.Hbond>
2.9833

> <Gold.PLP.Chemscore.CHOScore>
2.0000

> <Gold.PLP.Chemscore.Metal>
0.0000

> <Gold.Chemscore.Hbonds>
donor molecule, donor type, donor heavy atom, donor atom, acceptor molecule, acceptor atom, score
      L1  H     3    36       P1 10747  1.00
      L1  H    23    49       P1  7957  0.52
      P1  H  7997  8009       L1    26  0.90
      L1  C    13    43       P1 10171  0.98
      L1  C    13    43       P1 10175  0.83

> <Gold.PLP.Chemscore.Internal.Correction>
0.2133

> <Gold.Rescore>
     Score         DG    S(hbond)    S(metal)    S(lipo)     H(rot)  DE(clash)    DE(int)     intcor
     12.48     -14.59       2.41        0.00      81.86       3.32       0.22       1.89       ----

> <Gold.Chemscore.Fitness>
12.4763

> <Gold.Chemscore.DG>
-14.5901

> <Gold.Chemscore.ZeroCoef>
-5.4800

> <Gold.Chemscore.Hbond>
2.4058

> <Gold.Chemscore.Metal>
0.0000

> <Gold.Chemscore.Lipo>
81.8553

> <Gold.Chemscore.Internal_Hbond>
0.0000

> <Gold.Chemscore.DEClash>
0.2231

> <Gold.Chemscore.DEInternal>
1.8907

> <Gold.Chemscore.Rot>
3.3213

> <Gold.Chemscore.Internal.Correction>
   9.000000E+99

> <Gold.Chemscore.Hbonds>
donor molecule, donor type, donor heavy atom, donor atom, acceptor molecule, acceptor atom, score
      L1  H     3    36       P1 10747  0.82
      L1  H    23    49       P1  7957  0.52
      P1  H  7997  8009       L1    26  0.15

> <Gold.Chemscore.Hbond.Weighted>
-8.0354

> <Gold.Chemscore.Metal.Weighted>
-0.0000

> <Gold.Chemscore.Lipo.Weighted>
-9.5771

> <Gold.Chemscore.Internal_Hbond.Weighted>
0.0000

> <Gold.Chemscore.DEClash.Weighted>
0.2231

> <Gold.Chemscore.DEInternal.Weighted>
1.8907

> <Gold.Chemscore.Rot.Weighted>
8.5024

> <Gold.Chemscore.Internal.Correction.Weighted>
   9.000000E+99

> <Gold.Protein.RotatedTorsions>
[ 6907 6896 6895 6894 ] final  126.14 input  -60.11 | X-H torsion
[ 7974 7965 7964 7962 ] final  -93.59 input  175.53 | X-H torsion
[ 8008 7997 7996 7995 ] final -169.83 input   59.86 | X-H torsion
[ 10167 10162 10161 10158 ] final   84.49 input  -65.29 | X-H torsion
[ 10718 10713 10712 10709 ] final  123.86 input   66.30 | X-H torsion
[ 10763 10752 10751 10750 ] final  -55.92 input  -60.55 | X-H torsion
[ 11005 11000 10999 10996 ] final -111.23 input  -57.11 | X-H torsion

> <Gold.Protein.ActiveResidues>
 VAL166  LYS551  ARG553  GLY616  TRP617  ASP618  TYR619  PRO620  LYS621  CYS622 
 ASP623  PHE694  ASN695  SER759  ASP760  ASP761  ALA762  ILE779  LEU786  VAL792 
 PHE793  MET794  SER795  GLU796  ALA797  LYS798  CYS799  TRP800  GLU811  SER814 

> <Gold.Protein.RotatedAtoms>
  152.3930  133.6705  159.6252 H   0  0  0  0  0  0  0  0  0  0  0  0  # atno 6907 bound_to 6896
  150.7834  133.8922  159.3325 H   0  0  0  0  0  0  0  0  0  0  0  0  # atno 6908 bound_to 6896
  151.6705  135.0978  160.0248 H   0  0  0  0  0  0  0  0  0  0  0  0  # atno 6909 bound_to 6896
  145.3845  140.9521  143.2375 H   0  0  0  0  0  0  0  0  0  0  0  0  # atno 7974 bound_to 7965
  155.9102  140.1056  157.1285 H   0  0  0  0  0  0  0  0  0  0  0  0  # atno 8008 bound_to 7997
  154.4038  140.1276  156.4612 H   0  0  0  0  0  0  0  0  0  0  0  0  # atno 8009 bound_to 7997
  155.7319  140.3468  155.5066 H   0  0  0  0  0  0  0  0  0  0  0  0  # atno 8010 bound_to 7997
  139.9075  144.6292  150.8572 H   0  0  0  0  0  0  0  0  0  0  0  0  # atno 10167 bound_to 10162
  157.5631  131.1088  150.8503 H   0  0  0  0  0  0  0  0  0  0  0  0  # atno 10718 bound_to 10713
  154.1984  135.6415  153.5080 H   0  0  0  0  0  0  0  0  0  0  0  0  # atno 10763 bound_to 10752
  153.0018  135.5445  154.6341 H   0  0  0  0  0  0  0  0  0  0  0  0  # atno 10764 bound_to 10752
  154.5748  135.2920  155.0765 H   0  0  0  0  0  0  0  0  0  0  0  0  # atno 10765 bound_to 10752
  141.0746  133.9322  157.2415 H   0  0  0  0  0  0  0  0  0  0  0  0  # atno 11005 bound_to 11000
  144.8484  139.5361  143.6868 LP  0  0  0  0  0  0  0  0  0  0  0  0  # atno 17320 bound_to 7965
  146.2826  139.6919  142.9218 LP  0  0  0  0  0  0  0  0  0  0  0  0  # atno 17321 bound_to 7965
  140.7693  143.3390  151.2247 LP  0  0  0  0  0  0  0  0  0  0  0  0  # atno 17342 bound_to 10162
  139.6971  143.9594  152.2888 LP  0  0  0  0  0  0  0  0  0  0  0  0  # atno 17343 bound_to 10162
  156.8995  130.5241  149.5283 LP  0  0  0  0  0  0  0  0  0  0  0  0  # atno 17370 bound_to 10713
  156.0682  130.5720  150.9330 LP  0  0  0  0  0  0  0  0  0  0  0  0  # atno 17371 bound_to 10713
  139.9559  135.0165  156.9126 LP  0  0  0  0  0  0  0  0  0  0  0  0  # atno 17394 bound_to 11000
  140.5600  134.0544  155.7396 LP  0  0  0  0  0  0  0  0  0  0  0  0  # atno 17395 bound_to 11000

$$$$
