AV-unprocessed.smi:1682|AV-procd|sdf|6744|dock3
  -GOLD-   22720 7493D 1   1.00000     0.00000
 Structure written by MMmdl.
 38 39  0  0  0  0  0  0  0  0  1 V2000
  150.0722  138.4647  156.3269 O   0  0  0  0  0  0  0  0  0  0  0  0
  150.4046  139.4972  155.7434 C   0  0  0  0  0  0  0  0  0  0  0  0
  151.3170  140.3538  156.2271 N   0  0  0  0  0  0  0  0  0  0  0  0
  152.0321  140.1897  157.4873 C   0  0  0  0  0  0  0  0  0  0  0  0
  151.2954  140.8754  158.6502 C   0  0  0  0  0  0  0  0  0  0  0  0
  151.5516  142.3699  158.6903 C   0  0  0  0  0  0  0  0  0  0  0  0
  152.1517  142.9680  159.8190 C   0  0  0  0  0  0  0  0  0  0  0  0
  152.3732  144.3589  159.8032 C   0  0  0  0  0  0  0  0  0  0  0  0
  151.9895  145.0936  158.6647 C   0  0  0  0  0  0  0  0  0  0  0  0
  151.3981  144.4021  157.5886 C   0  0  0  0  0  0  0  0  0  0  0  0
  151.1806  143.0692  157.5938 N   0  0  0  0  0  0  0  0  0  0  0  0
  149.7646  139.8647  154.3955 C   0  0  1  0  0  0  0  0  0  0  0  0
  148.5915  138.9254  154.0518 C   0  0  0  0  0  0  0  0  0  0  0  0
  147.3672  139.8216  154.1277 C   0  0  0  0  0  0  0  0  0  0  0  0
  146.2197  139.3899  154.0267 O   0  0  0  0  0  0  0  0  0  0  0  0
  147.7158  141.0967  154.3289 N   0  0  0  0  0  0  0  0  0  0  0  0
  146.8059  142.2294  154.4937 C   0  0  0  0  0  0  0  0  0  0  0  0
  145.9948  142.1492  155.7997 C   0  0  0  0  0  0  0  0  0  0  0  0
  145.2182  141.0662  155.8214 F   0  0  0  0  0  0  0  0  0  0  0  0
  146.8379  142.0844  156.8293 F   0  0  0  0  0  0  0  0  0  0  0  0
  145.2355  143.2357  155.9412 F   0  0  0  0  0  0  0  0  0  0  0  0
  149.1559  141.2842  154.4018 C   0  0  0  0  0  0  0  0  0  0  0  0
  151.5314  141.1781  155.6846 H   0  0  0  0  0  0  0  0  0  0  0  0
  152.1784  139.1291  157.6998 H   0  0  0  0  0  0  0  0  0  0  0  0
  153.0259  140.6222  157.3690 H   0  0  0  0  0  0  0  0  0  0  0  0
  150.2214  140.7031  158.5668 H   0  0  0  0  0  0  0  0  0  0  0  0
  151.6020  140.4378  159.6012 H   0  0  0  0  0  0  0  0  0  0  0  0
  152.4377  142.3769  160.6768 H   0  0  0  0  0  0  0  0  0  0  0  0
  152.8294  144.8524  160.6486 H   0  0  0  0  0  0  0  0  0  0  0  0
  152.1448  146.1612  158.6165 H   0  0  0  0  0  0  0  0  0  0  0  0
  151.0923  144.9334  156.6996 H   0  0  0  0  0  0  0  0  0  0  0  0
  150.5235  139.8014  153.6133 H   0  0  0  0  0  0  0  0  0  0  0  0
  148.6890  138.5289  153.0407 H   0  0  0  0  0  0  0  0  0  0  0  0
  148.4890  138.0812  154.7358 H   0  0  0  0  0  0  0  0  0  0  0  0
  147.3746  143.1603  154.4644 H   0  0  0  0  0  0  0  0  0  0  0  0
  146.1247  142.2660  153.6427 H   0  0  0  0  0  0  0  0  0  0  0  0
  149.4240  141.8588  155.2903 H   0  0  0  0  0  0  0  0  0  0  0  0
  149.4912  141.8512  153.5325 H   0  0  0  0  0  0  0  0  0  0  0  0
  1  2  2  0  0  0  0
  2  3  1  0  0  0  0
  2 12  1  0  0  0  0
  3  4  1  0  0  0  0
  3 23  1  0  0  0  0
  4  5  1  0  0  0  0
  4 24  1  0  0  0  0
  4 25  1  0  0  0  0
  5  6  1  0  0  0  0
  5 26  1  0  0  0  0
  5 27  1  0  0  0  0
  6 11  1  0  0  0  0
  6  7  2  0  0  0  0
  7  8  1  0  0  0  0
  7 28  1  0  0  0  0
  8  9  2  0  0  0  0
  8 29  1  0  0  0  0
  9 10  1  0  0  0  0
  9 30  1  0  0  0  0
 10 11  2  0  0  0  0
 10 31  1  0  0  0  0
 12 22  1  0  0  0  0
 12 13  1  0  0  0  0
 12 32  1  0  0  0  0
 13 14  1  0  0  0  0
 13 33  1  0  0  0  0
 13 34  1  0  0  0  0
 14 15  2  0  0  0  0
 14 16  1  0  0  0  0
 16 17  1  0  0  0  0
 16 22  1  0  0  0  0
 17 18  1  0  0  0  0
 17 35  1  0  0  0  0
 17 36  1  0  0  0  0
 18 19  1  0  0  0  0
 18 20  1  0  0  0  0
 18 21  1  0  0  0  0
 22 37  1  0  0  0  0
 22 38  1  0  0  0  0
M  END
> <s_m_source_file>
AV-unprocessed.smi

> <i_m_source_file_index>
1682

> <i_lp_mmshare_version>
43012

> <i_f3d_flags>
0

> <s_epik_input>
RkMoRikoRilbQ0gyXU4oW0NIMl0xKUMoPU8pW0NIMl1bQ0BIXTFDKD1PKVtOSF1bQ0gyXVtDSDJdYzJbY0hdW2NIXVtjSF1bY0hdbjI=

> <s_epik_cmdline>
J2VwaWtfcHl0aG9uJywgJy1waCcsICc3LjAnLCAnLXRuJywgJzgnLCAnLW1hJywgJzIwMCcsICctbWV0YWxfYmluZGluZycsICctaW1hZScsICc8aW5maWxlLm1hZT4nLCAnLW9tYWUnLCAnPG91dGZpbGUubWFlPic=

> <r_epik_Ionization_Penalty>
0.0252359

> <r_epik_Ionization_Penalty_Charging>
0

> <r_epik_Ionization_Penalty_Neutral>
0.0252359

> <r_epik_State_Penalty>
0.020532

> <r_epik_Charging_Adjusted_Penalty>
0.020532

> <i_epik_Tot_Q>
0

> <i_epik_Tot_abs_Q>
0

> <r_epik_Metal_State_Penalty>
0.0196899

> <b_epik_Metal_Only>
0

> <s_lp_Force_Field>
OPLS_2005

> <r_lp_Energy>
9.99714

> <b_lp_Chiralities_Consistent>
1

> <s_lp_Variant>
AV-unprocessed.smi:1682-2

> <Gold.Version>
5.8.1

> <Gold.Id.Protein>
6NUR|6NUR_protein|mol2

> <Gold.PLP.Fitness>
44.2154

> <Gold.PLP.PLP>
-42.2474

> <Gold.PLP.part.hbond>
0.0000

> <Gold.PLP.part.metal>
0.0000

> <Gold.PLP.part.buried>
-3.7976

> <Gold.PLP.part.nonpolar>
-38.3126

> <Gold.PLP.part.repulsive>
0.3715

> <Gold.PLP.ligand.clash>
0.0000

> <Gold.PLP.ligand.torsion>
0.4550

> <Gold.PLP.Chemscore.Hbond>
0.0000

> <Gold.PLP.Chemscore.CHOScore>
0.8934

> <Gold.PLP.Chemscore.Metal>
0.0000

> <Gold.Chemscore.Hbonds>
donor molecule, donor type, donor heavy atom, donor atom, acceptor molecule, acceptor atom, score
      L1  C    10    31       P1  8028  0.91

> <Gold.PLP.Chemscore.Internal.Correction>
0.1977

> <Gold.Rescore>
     Score         DG    S(hbond)    S(metal)    S(lipo)     H(rot)  DE(clash)    DE(int)     intcor
     10.43     -12.33       0.00        0.00     104.26       2.09       0.24       1.66       ----

> <Gold.Chemscore.Fitness>
10.4259

> <Gold.Chemscore.DG>
-12.3324

> <Gold.Chemscore.ZeroCoef>
-5.4800

> <Gold.Chemscore.Hbond>
0.0000

> <Gold.Chemscore.Metal>
0.0000

> <Gold.Chemscore.Lipo>
104.2628

> <Gold.Chemscore.Internal_Hbond>
0.0000

> <Gold.Chemscore.DEClash>
0.2421

> <Gold.Chemscore.DEInternal>
1.6643

> <Gold.Chemscore.Rot>
2.0884

> <Gold.Chemscore.Internal.Correction>
   9.000000E+99

> <Gold.Chemscore.Hbond.Weighted>
-0.0000

> <Gold.Chemscore.Metal.Weighted>
-0.0000

> <Gold.Chemscore.Lipo.Weighted>
-12.1987

> <Gold.Chemscore.Internal_Hbond.Weighted>
0.0000

> <Gold.Chemscore.DEClash.Weighted>
0.2421

> <Gold.Chemscore.DEInternal.Weighted>
1.6643

> <Gold.Chemscore.Rot.Weighted>
5.3464

> <Gold.Chemscore.Internal.Correction.Weighted>
   9.000000E+99

> <Gold.Protein.RotatedTorsions>
[ 6907 6896 6895 6894 ] final  -21.52 input  -60.11 | X-H torsion
[ 7974 7965 7964 7962 ] final -157.50 input  175.53 | X-H torsion
[ 8008 7997 7996 7995 ] final -156.24 input   59.86 | X-H torsion
[ 10167 10162 10161 10158 ] final  103.80 input  -65.29 | X-H torsion
[ 10718 10713 10712 10709 ] final  -43.83 input   66.30 | X-H torsion
[ 10763 10752 10751 10750 ] final   22.56 input  -60.55 | X-H torsion
[ 11005 11000 10999 10996 ] final   81.70 input  -57.11 | X-H torsion

> <Gold.Protein.ActiveResidues>
 VAL166  LYS551  ARG553  GLY616  TRP617  ASP618  TYR619  PRO620  LYS621  CYS622 
 ASP623  PHE694  ASN695  SER759  ASP760  ASP761  ALA762  ILE779  LEU786  VAL792 
 PHE793  MET794  SER795  GLU796  ALA797  LYS798  CYS799  TRP800  GLU811  SER814 

> <Gold.Protein.RotatedAtoms>
  151.2321  135.0558  159.8991 H   0  0  0  0  0  0  0  0  0  0  0  0  # atno 6907 bound_to 6896
  152.5403  134.0526  159.8127 H   0  0  0  0  0  0  0  0  0  0  0  0  # atno 6908 bound_to 6896
  151.0707  133.5420  159.2659 H   0  0  0  0  0  0  0  0  0  0  0  0  # atno 6909 bound_to 6896
  144.7545  140.3960  143.6022 H   0  0  0  0  0  0  0  0  0  0  0  0  # atno 7974 bound_to 7965
  155.7141  140.0782  157.2358 H   0  0  0  0  0  0  0  0  0  0  0  0  # atno 8008 bound_to 7997
  154.4054  140.1624  156.2383 H   0  0  0  0  0  0  0  0  0  0  0  0  # atno 8009 bound_to 7997
  155.9256  140.3395  155.6210 H   0  0  0  0  0  0  0  0  0  0  0  0  # atno 8010 bound_to 7997
  139.7232  144.7053  151.0839 H   0  0  0  0  0  0  0  0  0  0  0  0  # atno 10167 bound_to 10162
  156.2448  130.4183  149.8718 H   0  0  0  0  0  0  0  0  0  0  0  0  # atno 10718 bound_to 10713
  153.0906  135.6645  153.9861 H   0  0  0  0  0  0  0  0  0  0  0  0  # atno 10763 bound_to 10752
  153.9459  135.2989  155.3442 H   0  0  0  0  0  0  0  0  0  0  0  0  # atno 10764 bound_to 10752
  154.7320  135.5118  153.9053 H   0  0  0  0  0  0  0  0  0  0  0  0  # atno 10765 bound_to 10752
  139.9089  134.8016  156.2077 H   0  0  0  0  0  0  0  0  0  0  0  0  # atno 11005 bound_to 11000
  145.6826  139.1621  143.2692 LP  0  0  0  0  0  0  0  0  0  0  0  0  # atno 17320 bound_to 7965
  146.1539  140.6886  142.9309 LP  0  0  0  0  0  0  0  0  0  0  0  0  # atno 17321 bound_to 7965
  140.7758  143.5139  150.9619 LP  0  0  0  0  0  0  0  0  0  0  0  0  # atno 17342 bound_to 10162
  139.8826  143.7053  152.3155 LP  0  0  0  0  0  0  0  0  0  0  0  0  # atno 17343 bound_to 10162
  156.6287  130.8656  151.3490 LP  0  0  0  0  0  0  0  0  0  0  0  0  # atno 17370 bound_to 10713
  157.7190  130.9534  150.1366 LP  0  0  0  0  0  0  0  0  0  0  0  0  # atno 17371 bound_to 10713
  141.0485  133.6901  156.1728 LP  0  0  0  0  0  0  0  0  0  0  0  0  # atno 17394 bound_to 11000
  140.6847  134.4730  157.5589 LP  0  0  0  0  0  0  0  0  0  0  0  0  # atno 17395 bound_to 11000

$$$$
