AV-unprocessed.smi:102|AV-procd|sdf|974|dock3
  -GOLD-   2262017533D 1   1.00000     0.00000
 Structure written by MMmdl.
 43 44  0  0  0  0  0  0  0  0  2 V2000
  147.3541  134.7314  162.1601 C   0  0  0  0  0  0  0  0  0  0  0  0
  147.6695  136.0172  161.4056 C   0  0  0  0  0  0  0  0  0  0  0  0
  148.3626  136.9019  161.9082 O   0  0  0  0  0  0  0  0  0  0  0  0
  147.1136  136.0483  160.1860 O   0  0  0  0  0  0  0  0  0  0  0  0
  147.4471  137.0922  159.2843 C   0  0  0  0  0  0  0  0  0  0  0  0
  148.9700  137.2845  159.2131 C   0  0  1  0  0  0  0  0  0  0  0  0
  149.5636  136.1290  158.6230 O   0  0  0  0  0  0  0  0  0  0  0  0
  150.3219  136.5046  157.5173 C   0  0  1  0  0  0  0  0  0  0  0  0
  150.2054  135.4166  156.4699 N   0  0  0  0  0  0  0  0  0  0  0  0
  149.0714  135.3325  155.6782 C   0  0  0  0  0  0  0  0  0  0  0  0
  148.9019  134.3308  154.7922 C   0  0  0  0  0  0  0  0  0  0  0  0
  147.7874  134.2821  154.0421 F   0  0  0  0  0  0  0  0  0  0  0  0
  149.9235  133.2941  154.6714 C   0  0  0  0  0  0  0  0  0  0  0  0
  149.7804  132.3989  153.8402 O   0  0  0  0  0  0  0  0  0  0  0  0
  151.0013  133.3649  155.5042 N   0  5  0  0  0  0  0  0  0  0  0  0
  151.1682  134.3686  156.4153 C   0  0  0  0  0  0  0  0  0  0  0  0
  152.1239  134.4071  157.1898 O   0  0  0  0  0  0  0  0  0  0  0  0
  149.8155  137.8704  157.0493 C   0  0  2  0  0  0  0  0  0  0  0  0
  150.8310  138.5838  156.3546 O   0  0  0  0  0  0  0  0  0  0  0  0
  151.3603  138.0743  155.2304 C   0  0  0  0  0  0  0  0  0  0  0  0
  152.3910  139.0024  154.6020 C   0  0  0  0  0  0  0  0  0  0  0  0
  151.0736  136.9912  154.7199 O   0  0  0  0  0  0  0  0  0  0  0  0
  149.4130  138.4998  158.3769 C   0  0  2  0  0  0  0  0  0  0  0  0
  150.5343  139.1267  158.9948 O   0  0  0  0  0  0  0  0  0  0  0  0
  150.9965  140.3016  158.5336 C   0  0  0  0  0  0  0  0  0  0  0  0
  152.0860  140.8846  159.4232 C   0  0  0  0  0  0  0  0  0  0  0  0
  150.6131  140.8844  157.5192 O   0  0  0  0  0  0  0  0  0  0  0  0
  146.9408  133.9760  161.4914 H   0  0  0  0  0  0  0  0  0  0  0  0
  146.6285  134.9274  162.9492 H   0  0  0  0  0  0  0  0  0  0  0  0
  148.2593  134.3285  162.6145 H   0  0  0  0  0  0  0  0  0  0  0  0
  147.0606  136.8439  158.2950 H   0  0  0  0  0  0  0  0  0  0  0  0
  146.9705  138.0231  159.5950 H   0  0  0  0  0  0  0  0  0  0  0  0
  149.3431  137.3673  160.2345 H   0  0  0  0  0  0  0  0  0  0  0  0
  151.3653  136.5754  157.8242 H   0  0  0  0  0  0  0  0  0  0  0  0
  148.2869  136.0653  155.7716 H   0  0  0  0  0  0  0  0  0  0  0  0
  148.9294  137.7469  156.4302 H   0  0  0  0  0  0  0  0  0  0  0  0
  153.0749  139.3816  155.3617 H   0  0  0  0  0  0  0  0  0  0  0  0
  151.8949  139.8490  154.1277 H   0  0  0  0  0  0  0  0  0  0  0  0
  152.9727  138.4738  153.8466 H   0  0  0  0  0  0  0  0  0  0  0  0
  148.6078  139.2215  158.2296 H   0  0  0  0  0  0  0  0  0  0  0  0
  152.8574  140.1387  159.6165 H   0  0  0  0  0  0  0  0  0  0  0  0
  151.6641  141.2030  160.3766 H   0  0  0  0  0  0  0  0  0  0  0  0
  152.5515  141.7468  158.9452 H   0  0  0  0  0  0  0  0  0  0  0  0
  1  2  1  0  0  0  0
  1 28  1  0  0  0  0
  1 29  1  0  0  0  0
  1 30  1  0  0  0  0
  2  3  2  0  0  0  0
  2  4  1  0  0  0  0
  4  5  1  0  0  0  0
  5  6  1  0  0  0  0
  5 31  1  0  0  0  0
  5 32  1  0  0  0  0
  6 23  1  0  0  0  0
  6  7  1  0  0  0  0
  6 33  1  0  0  0  0
  7  8  1  0  0  0  0
  8  9  1  0  0  0  0
  8 18  1  0  0  0  0
  8 34  1  0  0  0  0
  9 16  1  0  0  0  0
  9 10  1  0  0  0  0
 10 11  2  0  0  0  0
 10 35  1  0  0  0  0
 11 12  1  0  0  0  0
 11 13  1  0  0  0  0
 13 14  2  0  0  0  0
 13 15  1  0  0  0  0
 15 16  1  0  0  0  0
 16 17  2  0  0  0  0
 18 19  1  0  0  0  0
 18 23  1  0  0  0  0
 18 36  1  0  0  0  0
 19 20  1  0  0  0  0
 20 21  1  0  0  0  0
 20 22  2  0  0  0  0
 21 37  1  0  0  0  0
 21 38  1  0  0  0  0
 21 39  1  0  0  0  0
 23 24  1  0  0  0  0
 23 40  1  0  0  0  0
 24 25  1  0  0  0  0
 25 26  1  0  0  0  0
 25 27  2  0  0  0  0
 26 41  1  0  0  0  0
 26 42  1  0  0  0  0
 26 43  1  0  0  0  0
M  CHG  1  15  -1
M  END
> <s_m_source_file>
AV-unprocessed.smi

> <i_m_source_file_index>
102

> <i_lp_mmshare_version>
43012

> <i_f3d_flags>
0

> <s_epik_input>
W0NIM11DKD1PKU9bQ0gyXVtDQEBIXTFPW0NASF0oW0NAQEhdKE9DKD1PKVtDSDNdKVtDQEhdMU9DKD1PKVtDSDNdKW4yW2NIXWMoRiljKD1PKVtuSF1jMj1P

> <s_epik_cmdline>
J2VwaWtfcHl0aG9uJywgJy1waCcsICc3LjAnLCAnLXRuJywgJzgnLCAnLW1hJywgJzIwMCcsICctbWV0YWxfYmluZGluZycsICctaW1hZScsICc8aW5maWxlLm1hZT4nLCAnLW9tYWUnLCAnPG91dGZpbGUubWFlPic=

> <r_epik_Ionization_Penalty>
1.40304

> <r_epik_Ionization_Penalty_Charging>
1.43915e-08

> <r_epik_Ionization_Penalty_Neutral>
1.40304

> <r_epik_State_Penalty>
1.48536

> <r_epik_Charging_Adjusted_Penalty>
1.48536

> <i_epik_Tot_Q>
-1

> <i_epik_Tot_abs_Q>
1

> <r_epik_Metal_State_Penalty>
0.00663881

> <b_epik_Metal_Only>
0

> <s_epik_Chemistry_Notes>
This compound has an ester and may undergo hydrolysis at high or low pH. This compound contains an acetal/aminal-like group ( X-CH(R)-Y where X, Y are N, S, or O) that may be acid/base labile, releasing an aldehyde.

> <s_lp_Force_Field>
OPLS_2005

> <r_lp_Energy>
27.5776

> <b_lp_Chiralities_Consistent>
1

> <s_lp_Variant>
AV-unprocessed.smi:102-30

> <Gold.Version>
5.8.1

> <Gold.Id.Protein>
6NUR|6NUR_protein|mol2

> <Gold.PLP.Fitness>
43.3569

> <Gold.PLP.PLP>
-35.3415

> <Gold.PLP.part.hbond>
-4.1898

> <Gold.PLP.part.metal>
0.0000

> <Gold.PLP.part.buried>
-7.3400

> <Gold.PLP.part.nonpolar>
-25.2583

> <Gold.PLP.part.repulsive>
0.2418

> <Gold.PLP.ligand.clash>
0.0000

> <Gold.PLP.ligand.torsion>
0.8718

> <Gold.PLP.Chemscore.Hbond>
3.1747

> <Gold.PLP.Chemscore.CHOScore>
0.0000

> <Gold.PLP.Chemscore.Metal>
0.0000

> <Gold.Chemscore.Hbonds>
donor molecule, donor type, donor heavy atom, donor atom, acceptor molecule, acceptor atom, score
      P1  H  6896  6908       L1    17  0.01
      P1  H  6896  6909       L1     7  0.71
      P1  H  6931  6943       L1     3  0.93
      P1  H 10752 10764       L1    22  0.29

> <Gold.PLP.Chemscore.Internal.Correction>
0.2350

> <Gold.Rescore>
     Score         DG    S(hbond)    S(metal)    S(lipo)     H(rot)  DE(clash)    DE(int)     intcor
     -3.33      -6.86       1.93        0.00      44.23       4.00       0.15      10.03       ----

> <Gold.Chemscore.Fitness>
-3.3254

> <Gold.Chemscore.DG>
-6.8602

> <Gold.Chemscore.ZeroCoef>
-5.4800

> <Gold.Chemscore.Hbond>
1.9261

> <Gold.Chemscore.Metal>
0.0000

> <Gold.Chemscore.Lipo>
44.2274

> <Gold.Chemscore.Internal_Hbond>
0.0000

> <Gold.Chemscore.DEClash>
0.1507

> <Gold.Chemscore.DEInternal>
10.0349

> <Gold.Chemscore.Rot>
3.9951

> <Gold.Chemscore.Internal.Correction>
   9.000000E+99

> <Gold.Chemscore.Hbonds>
donor molecule, donor type, donor heavy atom, donor atom, acceptor molecule, acceptor atom, score
      P1  H  6896  6908       L1    17  0.01
      P1  H  6896  6909       L1     7  0.34
      P1  H  6931  6943       L1     3  0.89
      P1  H 10752 10764       L1    22  0.24

> <Gold.Chemscore.Hbond.Weighted>
-6.4330

> <Gold.Chemscore.Metal.Weighted>
-0.0000

> <Gold.Chemscore.Lipo.Weighted>
-5.1746

> <Gold.Chemscore.Internal_Hbond.Weighted>
0.0000

> <Gold.Chemscore.DEClash.Weighted>
0.1507

> <Gold.Chemscore.DEInternal.Weighted>
10.0349

> <Gold.Chemscore.Rot.Weighted>
10.2274

> <Gold.Chemscore.Internal.Correction.Weighted>
   9.000000E+99

> <Gold.Protein.RotatedTorsions>
[ 6907 6896 6895 6894 ] final   44.45 input  -60.11 | X-H torsion
[ 7974 7965 7964 7962 ] final   62.25 input  175.53 | X-H torsion
[ 8008 7997 7996 7995 ] final  -77.47 input   59.86 | X-H torsion
[ 10167 10162 10161 10158 ] final  154.72 input  -65.29 | X-H torsion
[ 10718 10713 10712 10709 ] final   30.36 input   66.30 | X-H torsion
[ 10763 10752 10751 10750 ] final  -64.91 input  -60.55 | X-H torsion
[ 11005 11000 10999 10996 ] final  156.86 input  -57.11 | X-H torsion

> <Gold.Protein.ActiveResidues>
 VAL166  LYS551  ARG553  GLY616  TRP617  ASP618  TYR619  PRO620  LYS621  CYS622 
 ASP623  PHE694  ASN695  SER759  ASP760  ASP761  ALA762  ILE779  LEU786  VAL792 
 PHE793  MET794  SER795  GLU796  ALA797  LYS798  CYS799  TRP800  GLU811  SER814 

> <Gold.Protein.RotatedAtoms>
  152.2326  134.8307  160.0471 H   0  0  0  0  0  0  0  0  0  0  0  0  # atno 6907 bound_to 6896
  151.9050  133.3542  159.3852 H   0  0  0  0  0  0  0  0  0  0  0  0  # atno 6908 bound_to 6896
  150.7030  134.4716  159.5472 H   0  0  0  0  0  0  0  0  0  0  0  0  # atno 6909 bound_to 6896
  145.8755  139.3407  143.0737 H   0  0  0  0  0  0  0  0  0  0  0  0  # atno 7974 bound_to 7965
  154.5599  140.0710  156.8802 H   0  0  0  0  0  0  0  0  0  0  0  0  # atno 8008 bound_to 7997
  155.2831  140.3373  155.4239 H   0  0  0  0  0  0  0  0  0  0  0  0  # atno 8009 bound_to 7997
  156.2033  140.1730  156.7838 H   0  0  0  0  0  0  0  0  0  0  0  0  # atno 8010 bound_to 7997
  139.4822  144.5162  151.7948 H   0  0  0  0  0  0  0  0  0  0  0  0  # atno 10167 bound_to 10162
  157.2586  130.7150  149.6442 H   0  0  0  0  0  0  0  0  0  0  0  0  # atno 10718 bound_to 10713
  154.3371  135.6164  153.5578 H   0  0  0  0  0  0  0  0  0  0  0  0  # atno 10763 bound_to 10752
  152.9807  135.5760  154.4895 H   0  0  0  0  0  0  0  0  0  0  0  0  # atno 10764 bound_to 10752
  154.4593  135.2855  155.1702 H   0  0  0  0  0  0  0  0  0  0  0  0  # atno 10765 bound_to 10752
  140.1715  134.8540  157.2695 H   0  0  0  0  0  0  0  0  0  0  0  0  # atno 11005 bound_to 11000
  145.9086  140.9195  143.0466 LP  0  0  0  0  0  0  0  0  0  0  0  0  # atno 17320 bound_to 7965
  144.6726  140.1129  143.7454 LP  0  0  0  0  0  0  0  0  0  0  0  0  # atno 17321 bound_to 7965
  140.4671  144.1640  150.5913 LP  0  0  0  0  0  0  0  0  0  0  0  0  # atno 17342 bound_to 10162
  140.4423  143.2521  151.9457 LP  0  0  0  0  0  0  0  0  0  0  0  0  # atno 17343 bound_to 10162
  155.9664  130.4405  150.5301 LP  0  0  0  0  0  0  0  0  0  0  0  0  # atno 17370 bound_to 10713
  157.3200  131.0680  151.1938 LP  0  0  0  0  0  0  0  0  0  0  0  0  # atno 17371 bound_to 10713
  140.2372  134.3838  155.7496 LP  0  0  0  0  0  0  0  0  0  0  0  0  # atno 17394 bound_to 11000
  141.2217  133.7246  156.8733 LP  0  0  0  0  0  0  0  0  0  0  0  0  # atno 17395 bound_to 11000

$$$$
