#       Name:                AV-unprocessed.smi:508
#       Creating user name   scv26
#       Creation time:       Thu Mar 26 23:22:21 2020


#       File generated by GOLD software.
#

@<TRIPOS>MOLECULE
AV-unprocessed.smi:508
    56    58     1
SMALL
NO_CHARGES


@<TRIPOS>ATOM
      1 ****        -4.2103   3.9307  -0.8468 C.3            1 S1                 0.0000
      2 ****        -3.7071   2.5335  -1.2162 C.3            1 S1                 0.0000
      3 ****        -2.3265   2.4469  -0.9073 O.3            1 S1                 0.0000
      4 ****        -1.7727   1.1787  -1.2137 C.3            1 S1                 0.0000
      5 ****        -0.2853   1.1919  -0.8254 C.3            1 S1                 0.0000
      6 ****         0.3423  -0.1192  -0.9590 N.pl3          1 S1                 0.0000
      7 ****         0.6884  -1.0293   0.0020 C.2            1 S1                 0.0000
      8 ****         0.4493  -0.8591   1.3775 N.pl3          1 S1                 0.0000
      9 ****        -0.7326  -0.2715   2.0110 C.3            1 S1                 0.0000
     10 ****        -0.4420   0.9575   2.8980 C.3            1 S1                 0.0000
     11 ****         0.1678   0.5901   4.2587 C.3            1 S1                 0.0000
     12 ****         1.6892   0.3584   4.2441 C.3            1 S1                 0.0000
     13 ****         2.2552  -0.3776   3.0157 C.3            1 S1                 0.0000
     14 ****         1.3245  -1.4361   2.4015 C.3            1 S1                 0.0000
     15 ****         1.3138  -2.1092  -0.4811 N.2            1 S1                 0.0000
     16 ****         1.3579  -1.8852  -1.8455 C.2            1 S1                 0.0000
     17 ****         0.7856  -0.6958  -2.1529 C.2            1 S1                 0.0000
     18 ****         0.7194  -0.1923  -3.5334 C.2            1 S1                 0.0000
     19 ****         0.2262   0.8910  -3.8392 O.2            1 S1                 0.0000
     20 ****         1.2596  -1.0443  -4.4383 N.am           1 S1                 0.0000
     21 ****         1.8415  -2.2576  -4.1937 C.2            1 S1                 0.0000
     22 ****         2.2856  -2.9265  -5.1267 O.2            1 S1                 0.0000
     23 ****         1.9052  -2.6815  -2.8914 N.am           1 S1                 0.0000
     24 ****         2.5246  -3.9683  -2.5679 C.3            1 S1                 0.0000
     25 ****         1.2315  -0.7486  -5.4032 H              1 S1                 0.0000
     26 ****        -5.2719   4.0346  -1.0709 H              1 S1                 0.0000
     27 ****        -3.6737   4.6994  -1.4036 H              1 S1                 0.0000
     28 ****        -4.0721   4.1279   0.2166 H              1 S1                 0.0000
     29 ****        -4.2655   1.7790  -0.6603 H              1 S1                 0.0000
     30 ****        -3.8672   2.3482  -2.2793 H              1 S1                 0.0000
     31 ****        -2.3109   0.3975  -0.6772 H              1 S1                 0.0000
     32 ****        -1.8911   0.9690  -2.2769 H              1 S1                 0.0000
     33 ****         0.2560   1.9034  -1.4486 H              1 S1                 0.0000
     34 ****        -0.1531   1.5602   0.1868 H              1 S1                 0.0000
     35 ****        -1.4535   0.0007   1.2470 H              1 S1                 0.0000
     36 ****        -1.2393  -1.0385   2.5982 H              1 S1                 0.0000
     37 ****         0.1809   1.6909   2.3866 H              1 S1                 0.0000
     38 ****        -1.3937   1.4553   3.0851 H              1 S1                 0.0000
     39 ****        -0.0466   1.3857   4.9729 H              1 S1                 0.0000
     40 ****        -0.3353  -0.2942   4.6521 H              1 S1                 0.0000
     41 ****         2.2000   1.3182   4.3303 H              1 S1                 0.0000
     42 ****         1.9546  -0.1944   5.1461 H              1 S1                 0.0000
     43 ****         2.5386   0.3447   2.2484 H              1 S1                 0.0000
     44 ****         3.1880  -0.8570   3.3143 H              1 S1                 0.0000
     45 ****         0.7483  -1.9463   3.1746 H              1 S1                 0.0000
     46 ****         1.9425  -2.2124   1.9509 H              1 S1                 0.0000
     47 ****         1.9169  -4.7873  -2.9541 H              1 S1                 0.0000
     48 ****         2.6384  -4.1197  -1.4944 H              1 S1                 0.0000
     49 ****         3.5196  -4.0439  -3.0091 H              1 S1                 0.0000
     50 ****        -2.2065   2.6201   0.0702 LP             1 S1                 0.0000
     51 ****        -1.8376   3.1441  -1.4318 LP             1 S1                 0.0000
     52 ****         1.6671  -2.8952   0.0261 LP             1 S1                 0.0000
     53 ****        -0.1586   1.4830  -3.1311 LP             1 S1                 0.0000
     54 ****         0.2096   1.1806  -4.7963 LP             1 S1                 0.0000
     55 ****         2.2209  -2.5827  -6.0636 LP             1 S1                 0.0000
     56 ****         2.7110  -3.8136  -4.9479 LP             1 S1                 0.0000
@<TRIPOS>BOND
    1    1    2 1     
    2    1   26 1     
    3    1   27 1     
    4    1   28 1     
    5    2    3 1     
    6    2   29 1     
    7    2   30 1     
    8    3    4 1     
    9    4    5 1     
   10    4   31 1     
   11    4   32 1     
   12    5    6 1     
   13    5   33 1     
   14    5   34 1     
   15    6   17 1     
   16    6    7 1     
   17    7    8 1     
   18    7   15 2     
   19    8   14 1     
   20    8    9 1     
   21    9   10 1     
   22    9   35 1     
   23    9   36 1     
   24   10   11 1     
   25   10   37 1     
   26   10   38 1     
   27   11   12 1     
   28   11   39 1     
   29   11   40 1     
   30   12   13 1     
   31   12   41 1     
   32   12   42 1     
   33   13   14 1     
   34   13   43 1     
   35   13   44 1     
   36   14   45 1     
   37   14   46 1     
   38   15   16 1     
   39   16   23 1     
   40   16   17 2     
   41   17   18 1     
   42   18   19 2     
   43   18   20 1     
   44   20   25 1     
   45   20   21 1     
   46   21   22 2     
   47   21   23 1     
   48   23   24 1     
   49   24   47 1     
   50   24   48 1     
   51   24   49 1     
   52    3   50 1     
   53    3   51 1     
   54   15   52 1     
   55   19   53 1     
   56   19   54 1     
   57   22   55 1     
   58   22   56 1     
@<TRIPOS>SUBSTRUCTURE
      1 S1             1
@<TRIPOS>SET
LONE_PAIRS      STATIC     ATOMS    <user>   **** ""
7 50 51 52 53 54 55 56
DONOR_HYDROGENS      STATIC     ATOMS    <user>   **** ""
1 25
ATOM$BLUE        STATIC     ATOMS    COLORGROUP SYSTEM
7 50 51 52 53 54 55 56
ATOM$RED        STATIC     ATOMS    COLORGROUP SYSTEM
1 25
