#       Name:                AV-unprocessed.smi:1882
#       Creating user name   scv26
#       Creation time:       Fri Mar 27 09:37:01 2020


#       File generated by GOLD software.
#

@<TRIPOS>MOLECULE
AV-unprocessed.smi:1882
    28    29     1
SMALL
NO_CHARGES


@<TRIPOS>ATOM
      1 ****        -3.9925   2.5184   1.5334 C.3            1 S1                 0.0000
      2 ****        -2.9202   1.4898   1.4190 C.2            1 S1                 0.0000
      3 ****        -1.6170   1.7804   1.4003 N.2            1 S1                 0.0000
      4 ****        -0.8111   0.6429   1.2842 C.2            1 S1                 0.0000
      5 ****         0.6831   0.7851   1.2501 C.3            1 S1                 0.0000
      6 ****         1.1971   0.6289  -0.1820 C.2            1 S1                 0.0000
      7 ****         1.2216   1.6016  -0.9363 O.2            1 S1                 0.0000
      8 ****         1.6027  -0.5990  -0.5398 N.am           1 S1                 0.0000
      9 ****         2.1079  -0.9647  -1.8233 C.3            1 S1                 0.0000
     10 ****         1.8146  -2.3641  -2.3199 C.3            1 S1                 0.0000
     11 ****         3.2059  -2.0050  -1.8763 C.3            1 S1                 0.0000
     12 ****        -1.5326  -0.5245   1.2235 C.2            1 S1                 0.0000
     13 ****        -3.2488  -0.2339   1.2974 S.3            1 S1                 0.0000
     14 ****        -3.5618   3.5193   1.5791 H              1 S1                 0.0000
     15 ****        -4.5772   2.3478   2.4373 H              1 S1                 0.0000
     16 ****        -4.6557   2.4626   0.6702 H              1 S1                 0.0000
     17 ****         0.9907   1.7600   1.6313 H              1 S1                 0.0000
     18 ****         1.1538   0.0427   1.8960 H              1 S1                 0.0000
     19 ****         1.5456  -1.3336   0.1504 H              1 S1                 0.0000
     20 ****         2.1484  -0.1872  -2.5852 H              1 S1                 0.0000
     21 ****         1.2368  -3.0238  -1.6752 H              1 S1                 0.0000
     22 ****         1.6456  -2.4925  -3.3871 H              1 S1                 0.0000
     23 ****         3.9660  -1.8920  -2.6469 H              1 S1                 0.0000
     24 ****         3.5564  -2.4254  -0.9356 H              1 S1                 0.0000
     25 ****        -1.1599  -1.5341   1.1355 H              1 S1                 0.0000
     26 ****        -1.2560   2.7109   1.4626 LP             1 S1                 0.0000
     27 ****         0.9055   2.4934  -0.6126 LP             1 S1                 0.0000
     28 ****         1.5576   1.4999  -1.8727 LP             1 S1                 0.0000
@<TRIPOS>BOND
    1    1    2 1     
    2    1   14 1     
    3    1   15 1     
    4    1   16 1     
    5    2   13 1     
    6    2    3 2     
    7    3    4 1     
    8    4    5 1     
    9    4   12 2     
   10    5    6 1     
   11    5   17 1     
   12    5   18 1     
   13    6    7 2     
   14    6    8 am    
   15    8    9 1     
   16    8   19 1     
   17    9   11 1     
   18    9   10 1     
   19    9   20 1     
   20   10   11 1     
   21   10   21 1     
   22   10   22 1     
   23   11   23 1     
   24   11   24 1     
   25   12   13 1     
   26   12   25 1     
   27    3   26 1     
   28    7   27 1     
   29    7   28 1     
@<TRIPOS>SUBSTRUCTURE
      1 S1             1
@<TRIPOS>SET
LONE_PAIRS      STATIC     ATOMS    <user>   **** ""
3 26 27 28
DONOR_HYDROGENS      STATIC     ATOMS    <user>   **** ""
1 19
ATOM$BLUE        STATIC     ATOMS    COLORGROUP SYSTEM
3 26 27 28
ATOM$RED        STATIC     ATOMS    COLORGROUP SYSTEM
1 19
