AV-unprocessed.smi:2579|AV-procd|sdf|10125|dock4
  -GOLD-   2272014143D 1   1.00000     0.00000
 Structure written by MMmdl.
 38 40  0  0  0  0  0  0  0  0  1 V2000
  149.5030  141.4112  153.0147 O   0  0  0  0  0  0  0  0  0  0  0  0
  149.5715  141.3006  154.4204 C   0  0  0  0  0  0  0  0  0  0  0  0
  150.3486  140.0377  154.8131 C   0  0  0  0  0  0  0  0  0  0  0  0
  150.7705  140.0768  156.2003 N   0  0  0  0  0  0  0  0  0  0  0  0
  151.1389  141.1261  157.0323 C   0  0  0  0  0  0  0  0  0  0  0  0
  151.1700  142.4019  156.6518 N   0  0  0  0  0  0  0  0  0  0  0  0
  151.5965  143.0394  157.8022 C   0  0  0  0  0  0  0  0  0  0  0  0
  151.8370  144.4088  158.0567 C   0  0  0  0  0  0  0  0  0  0  0  0
  152.2781  144.8322  159.3278 C   0  0  0  0  0  0  0  0  0  0  0  0
  152.4860  143.8950  160.3604 C   0  0  0  0  0  0  0  0  0  0  0  0
  152.2522  142.5258  160.1293 C   0  0  0  0  0  0  0  0  0  0  0  0
  151.8100  142.1077  158.8598 C   0  0  0  0  0  0  0  0  0  0  0  0
  151.4951  140.8676  158.3124 N   0  0  0  0  0  0  0  0  0  0  0  0
  151.5558  139.5799  158.9882 C   0  0  0  0  0  0  0  0  0  0  0  0
  152.6371  138.6702  158.3842 C   0  0  2  0  0  0  0  0  0  0  0  0
  152.6144  137.2398  158.9233 C   0  0  0  0  0  0  0  0  0  0  0  0
  154.0599  136.8267  158.7662 C   0  0  0  0  0  0  0  0  0  0  0  0
  154.7842  138.1168  159.1332 C   0  0  0  0  0  0  0  0  0  0  0  0
  153.9433  139.1690  158.6714 O   0  0  0  0  0  0  0  0  0  0  0  0
  149.8602  140.6240  152.6331 H   0  0  0  0  0  0  0  0  0  0  0  0
  150.0929  142.1819  154.7949 H   0  0  0  0  0  0  0  0  0  0  0  0
  148.5708  141.3108  154.8544 H   0  0  0  0  0  0  0  0  0  0  0  0
  149.7633  139.1374  154.6230 H   0  0  0  0  0  0  0  0  0  0  0  0
  151.2483  139.9638  154.2015 H   0  0  0  0  0  0  0  0  0  0  0  0
  150.8285  139.1638  156.6271 H   0  0  0  0  0  0  0  0  0  0  0  0
  151.6829  145.1344  157.2719 H   0  0  0  0  0  0  0  0  0  0  0  0
  152.4596  145.8811  159.5106 H   0  0  0  0  0  0  0  0  0  0  0  0
  152.8265  144.2277  161.3302 H   0  0  0  0  0  0  0  0  0  0  0  0
  152.4140  141.8052  160.9173 H   0  0  0  0  0  0  0  0  0  0  0  0
  151.7567  139.7548  160.0456 H   0  0  0  0  0  0  0  0  0  0  0  0
  150.5779  139.0997  158.9382 H   0  0  0  0  0  0  0  0  0  0  0  0
  152.5341  138.6404  157.2983 H   0  0  0  0  0  0  0  0  0  0  0  0
  152.3402  137.2282  159.9792 H   0  0  0  0  0  0  0  0  0  0  0  0
  151.9221  136.5928  158.3840 H   0  0  0  0  0  0  0  0  0  0  0  0
  154.3391  135.9847  159.4003 H   0  0  0  0  0  0  0  0  0  0  0  0
  154.2656  136.5607  157.7285 H   0  0  0  0  0  0  0  0  0  0  0  0
  154.8824  138.2021  160.2161 H   0  0  0  0  0  0  0  0  0  0  0  0
  155.7805  138.1789  158.6952 H   0  0  0  0  0  0  0  0  0  0  0  0
  1  2  1  0  0  0  0
  1 20  1  0  0  0  0
  2  3  1  0  0  0  0
  2 21  1  0  0  0  0
  2 22  1  0  0  0  0
  3  4  1  0  0  0  0
  3 23  1  0  0  0  0
  3 24  1  0  0  0  0
  4  5  1  0  0  0  0
  4 25  1  0  0  0  0
  5 13  1  0  0  0  0
  5  6  2  0  0  0  0
  6  7  1  0  0  0  0
  7 12  2  0  0  0  0
  7  8  1  0  0  0  0
  8  9  2  0  0  0  0
  8 26  1  0  0  0  0
  9 10  1  0  0  0  0
  9 27  1  0  0  0  0
 10 11  2  0  0  0  0
 10 28  1  0  0  0  0
 11 12  1  0  0  0  0
 11 29  1  0  0  0  0
 12 13  1  0  0  0  0
 13 14  1  0  0  0  0
 14 15  1  0  0  0  0
 14 30  1  0  0  0  0
 14 31  1  0  0  0  0
 15 19  1  0  0  0  0
 15 16  1  0  0  0  0
 15 32  1  0  0  0  0
 16 17  1  0  0  0  0
 16 33  1  0  0  0  0
 16 34  1  0  0  0  0
 17 18  1  0  0  0  0
 17 35  1  0  0  0  0
 17 36  1  0  0  0  0
 18 19  1  0  0  0  0
 18 37  1  0  0  0  0
 18 38  1  0  0  0  0
M  END
> <s_m_source_file>
AV-unprocessed.smi

> <i_m_source_file_index>
2579

> <i_lp_mmshare_version>
43012

> <i_f3d_flags>
0

> <s_epik_input>
W09IXVtDSDJdW0NIMl1bTkhdYyhuMSluKGMoYzEyKVtjSF1bY0hdW2NIXVtjSF0yKVtDSDJdW0NAQEhdM1tDSDJdW0NIMl1bQ0gyXU8z

> <s_epik_cmdline>
J2VwaWtfcHl0aG9uJywgJy1waCcsICc3LjAnLCAnLXRuJywgJzgnLCAnLW1hJywgJzIwMCcsICctbWV0YWxfYmluZGluZycsICctaW1hZScsICc8aW5maWxlLm1hZT4nLCAnLW9tYWUnLCAnPG91dGZpbGUubWFlPic=

> <r_epik_Ionization_Penalty>
1.27244

> <r_epik_Ionization_Penalty_Charging>
0

> <r_epik_Ionization_Penalty_Neutral>
1.27244

> <r_epik_State_Penalty>
1.34401

> <r_epik_Charging_Adjusted_Penalty>
1.34401

> <i_epik_Tot_Q>
0

> <i_epik_Tot_abs_Q>
0

> <r_epik_Metal_State_Penalty>
0.00511131

> <b_epik_Metal_Only>
0

> <s_lp_Force_Field>
OPLS_2005

> <r_lp_Energy>
20.4938

> <b_lp_Chiralities_Consistent>
1

> <s_lp_Variant>
AV-unprocessed.smi:2579-3

> <Gold.Version>
5.8.1

> <Gold.Id.Protein>
6NUR|6NUR_protein|mol2

> <Gold.PLP.Fitness>
47.4296

> <Gold.PLP.PLP>
-40.3636

> <Gold.PLP.part.hbond>
-3.5126

> <Gold.PLP.part.metal>
0.0000

> <Gold.PLP.part.buried>
-4.1705

> <Gold.PLP.part.nonpolar>
-32.1786

> <Gold.PLP.part.repulsive>
0.1687

> <Gold.PLP.ligand.clash>
0.0000

> <Gold.PLP.ligand.torsion>
0.3189

> <Gold.PLP.Chemscore.Hbond>
2.5600

> <Gold.PLP.Chemscore.CHOScore>
0.0000

> <Gold.PLP.Chemscore.Metal>
0.0000

> <Gold.Chemscore.Hbonds>
donor molecule, donor type, donor heavy atom, donor atom, acceptor molecule, acceptor atom, score
      L1  H     1    20       P1  7957  0.56
      P1  H  7997  8008       L1    19  1.00
      P1  H  8011  8017       L1     1  0.29

> <Gold.PLP.Chemscore.Internal.Correction>
0.0237

> <Gold.Rescore>
     Score         DG    S(hbond)    S(metal)    S(lipo)     H(rot)  DE(clash)    DE(int)     intcor
     17.50     -19.44       2.08        0.00     107.44       2.17       0.07       1.87       ----

> <Gold.Chemscore.Fitness>
17.4970

> <Gold.Chemscore.DG>
-19.4425

> <Gold.Chemscore.ZeroCoef>
-5.4800

> <Gold.Chemscore.Hbond>
2.0790

> <Gold.Chemscore.Metal>
0.0000

> <Gold.Chemscore.Lipo>
107.4432

> <Gold.Chemscore.Internal_Hbond>
0.0000

> <Gold.Chemscore.DEClash>
0.0741

> <Gold.Chemscore.DEInternal>
1.8715

> <Gold.Chemscore.Rot>
2.1688

> <Gold.Chemscore.Internal.Correction>
   9.000000E+99

> <Gold.Chemscore.Hbonds>
donor molecule, donor type, donor heavy atom, donor atom, acceptor molecule, acceptor atom, score
      L1  H     1    20       P1  7957  0.55
      P1  H  7997  8008       L1    19  0.62
      P1  H  8011  8017       L1     1  0.21

> <Gold.Chemscore.Hbond.Weighted>
-6.9439

> <Gold.Chemscore.Metal.Weighted>
-0.0000

> <Gold.Chemscore.Lipo.Weighted>
-12.5709

> <Gold.Chemscore.Internal_Hbond.Weighted>
0.0000

> <Gold.Chemscore.DEClash.Weighted>
0.0741

> <Gold.Chemscore.DEInternal.Weighted>
1.8715

> <Gold.Chemscore.Rot.Weighted>
5.5522

> <Gold.Chemscore.Internal.Correction.Weighted>
   9.000000E+99

> <Gold.Protein.RotatedTorsions>
[ 6907 6896 6895 6894 ] final   15.89 input  -60.11 | X-H torsion
[ 7974 7965 7964 7962 ] final  -53.87 input  175.53 | X-H torsion
[ 8008 7997 7996 7995 ] final  -99.26 input   59.86 | X-H torsion
[ 10167 10162 10161 10158 ] final  -42.83 input  -65.29 | X-H torsion
[ 10718 10713 10712 10709 ] final  -43.37 input   66.30 | X-H torsion
[ 10763 10752 10751 10750 ] final -136.65 input  -60.55 | X-H torsion
[ 11005 11000 10999 10996 ] final  142.31 input  -57.11 | X-H torsion

> <Gold.Protein.ActiveResidues>
 VAL166  LYS551  ARG553  GLY616  TRP617  ASP618  TYR619  PRO620  LYS621  CYS622 
 ASP623  PHE694  ASN695  SER759  ASP760  ASP761  ALA762  ILE779  LEU786  VAL792 
 PHE793  MET794  SER795  GLU796  ALA797  LYS798  CYS799  TRP800  GLU811  SER814 

> <Gold.Protein.RotatedAtoms>
  151.8252  135.0639  160.0429 H   0  0  0  0  0  0  0  0  0  0  0  0  # atno 6907 bound_to 6896
  152.2921  133.5567  159.5572 H   0  0  0  0  0  0  0  0  0  0  0  0  # atno 6908 bound_to 6896
  150.7235  134.0329  159.3782 H   0  0  0  0  0  0  0  0  0  0  0  0  # atno 6909 bound_to 6896
  145.8920  140.8063  142.9786 H   0  0  0  0  0  0  0  0  0  0  0  0  # atno 7974 bound_to 7965
  154.8124  140.0449  157.1352 H   0  0  0  0  0  0  0  0  0  0  0  0  # atno 8008 bound_to 7997
  154.9353  140.3045  155.5127 H   0  0  0  0  0  0  0  0  0  0  0  0  # atno 8009 bound_to 7997
  156.2973  140.2315  156.4417 H   0  0  0  0  0  0  0  0  0  0  0  0  # atno 8010 bound_to 7997
  140.6955  143.3016  151.3266 H   0  0  0  0  0  0  0  0  0  0  0  0  # atno 10167 bound_to 10162
  156.2497  130.4187  149.8664 H   0  0  0  0  0  0  0  0  0  0  0  0  # atno 10718 bound_to 10713
  154.8679  135.3666  154.5095 H   0  0  0  0  0  0  0  0  0  0  0  0  # atno 10763 bound_to 10752
  153.5731  135.7020  153.5500 H   0  0  0  0  0  0  0  0  0  0  0  0  # atno 10764 bound_to 10752
  153.3524  135.4068  155.1619 H   0  0  0  0  0  0  0  0  0  0  0  0  # atno 10765 bound_to 10752
  140.0467  134.9277  157.0942 H   0  0  0  0  0  0  0  0  0  0  0  0  # atno 11005 bound_to 11000
  144.6731  140.1544  143.7427 LP  0  0  0  0  0  0  0  0  0  0  0  0  # atno 17320 bound_to 7965
  145.8896  139.2368  143.1557 LP  0  0  0  0  0  0  0  0  0  0  0  0  # atno 17321 bound_to 7965
  139.6406  144.0547  152.2551 LP  0  0  0  0  0  0  0  0  0  0  0  0  # atno 17342 bound_to 10162
  140.0051  144.6265  150.7696 LP  0  0  0  0  0  0  0  0  0  0  0  0  # atno 17343 bound_to 10162
  156.6217  130.8629  151.3477 LP  0  0  0  0  0  0  0  0  0  0  0  0  # atno 17370 bound_to 10713
  157.7209  130.9558  150.1436 LP  0  0  0  0  0  0  0  0  0  0  0  0  # atno 17371 bound_to 10713
  140.3982  134.2111  155.7164 LP  0  0  0  0  0  0  0  0  0  0  0  0  # atno 17394 bound_to 11000
  141.1910  133.8204  157.0895 LP  0  0  0  0  0  0  0  0  0  0  0  0  # atno 17395 bound_to 11000

$$$$
