AV-unprocessed.smi:234|AV-procd|sdf|1792|dock4
  -GOLD-   2262020353D 1   1.00000     0.00000
 Structure written by MMmdl.
 59 62  0  0  0  0  0  0  0  0  1 V2000
  142.2280  134.7412  162.5813 C   0  0  0  0  0  0  0  0  0  0  0  0
  143.7043  134.7392  162.9990 C   0  0  0  0  0  0  0  0  0  0  0  0
  144.5202  134.1513  161.9955 O   0  0  0  0  0  0  0  0  0  0  0  0
  145.9117  134.1482  162.3004 C   0  0  1  0  0  0  0  0  0  0  0  0
  146.7342  133.4720  161.1978 C   0  0  0  0  0  0  0  0  0  0  0  0
  146.7962  134.8540  160.5352 C   0  0  2  0  0  0  0  0  0  0  0  0
  148.0731  135.1612  159.8887 N   0  0  0  0  0  0  0  0  0  0  0  0
  148.4716  136.5623  159.8820 C   0  0  0  0  0  0  0  0  0  0  0  0
  148.2212  134.6102  158.6641 C   0  0  0  0  0  0  0  0  0  0  0  0
  149.0407  133.5353  158.5621 N   0  0  0  0  0  0  0  0  0  0  0  0
  149.2127  132.9386  157.3785 C   0  0  0  0  0  0  0  0  0  0  0  0
  148.6722  133.2514  156.1985 N   0  0  0  0  0  0  0  0  0  0  0  0
  147.8528  134.3375  156.2986 C   0  0  0  0  0  0  0  0  0  0  0  0
  147.5783  135.0768  157.4829 C   0  0  0  0  0  0  0  0  0  0  0  0
  146.7126  136.1256  157.1984 N   0  0  0  0  0  0  0  0  0  0  0  0
  146.4827  136.0090  155.9196 C   0  0  0  0  0  0  0  0  0  0  0  0
  147.1132  134.9516  155.3025 N   0  0  0  0  0  0  0  0  0  0  0  0
  147.0183  134.5801  153.8988 C   0  0  0  0  0  0  0  0  0  0  0  0
  145.5929  134.1557  153.4648 C   0  0  2  0  0  0  0  0  0  0  0  0
  145.1241  133.1736  154.3731 O   0  0  0  0  0  0  0  0  0  0  0  0
  145.5777  133.5490  152.0579 C   0  0  0  0  0  0  0  0  0  0  0  0
  144.8662  134.5979  151.2119 C   0  0  0  0  0  0  0  0  0  0  0  0
  143.9259  135.1450  152.1186 O   0  0  0  0  0  0  0  0  0  0  0  0
  144.6036  135.3463  153.3506 C   0  0  1  0  0  0  0  0  0  0  0  0
  143.5947  135.5318  154.4965 C   0  0  0  0  0  0  0  0  0  0  0  0
  146.6048  135.4878  161.9387 C   0  0  0  0  0  0  0  0  0  0  0  0
  145.7287  136.7411  162.0083 C   0  0  0  0  0  0  0  0  0  0  0  0
  147.8654  135.7817  162.7691 C   0  0  0  0  0  0  0  0  0  0  0  0
  141.6015  135.1344  163.3819 H   0  0  0  0  0  0  0  0  0  0  0  0
  141.8859  133.7307  162.3578 H   0  0  0  0  0  0  0  0  0  0  0  0
  142.0558  135.3562  161.6987 H   0  0  0  0  0  0  0  0  0  0  0  0
  144.0430  135.7457  163.2479 H   0  0  0  0  0  0  0  0  0  0  0  0
  143.8133  134.1423  163.9044 H   0  0  0  0  0  0  0  0  0  0  0  0
  146.1426  133.8025  163.3086 H   0  0  0  0  0  0  0  0  0  0  0  0
  147.6988  133.1049  161.5521 H   0  0  0  0  0  0  0  0  0  0  0  0
  146.2069  132.7167  160.6149 H   0  0  0  0  0  0  0  0  0  0  0  0
  145.9285  135.0301  159.8966 H   0  0  0  0  0  0  0  0  0  0  0  0
  149.4439  136.6912  159.4047 H   0  0  0  0  0  0  0  0  0  0  0  0
  148.5489  136.9470  160.8979 H   0  0  0  0  0  0  0  0  0  0  0  0
  147.7420  137.1700  159.3455 H   0  0  0  0  0  0  0  0  0  0  0  0
  149.8758  132.0864  157.3770 H   0  0  0  0  0  0  0  0  0  0  0  0
  145.8340  136.6920  155.3907 H   0  0  0  0  0  0  0  0  0  0  0  0
  147.3528  135.4298  153.3021 H   0  0  0  0  0  0  0  0  0  0  0  0
  147.7297  133.7754  153.7070 H   0  0  0  0  0  0  0  0  0  0  0  0
  144.2208  132.9852  154.1695 H   0  0  0  0  0  0  0  0  0  0  0  0
  146.5712  133.3144  151.6738 H   0  0  0  0  0  0  0  0  0  0  0  0
  144.9957  132.6260  152.0344 H   0  0  0  0  0  0  0  0  0  0  0  0
  145.5594  135.3743  150.8843 H   0  0  0  0  0  0  0  0  0  0  0  0
  144.3808  134.1738  150.3328 H   0  0  0  0  0  0  0  0  0  0  0  0
  145.1673  136.2727  153.2320 H   0  0  0  0  0  0  0  0  0  0  0  0
  144.1019  135.6576  155.4536 H   0  0  0  0  0  0  0  0  0  0  0  0
  142.9211  134.6789  154.5810 H   0  0  0  0  0  0  0  0  0  0  0  0
  142.9815  136.4175  154.3294 H   0  0  0  0  0  0  0  0  0  0  0  0
  146.2714  137.6319  161.6915 H   0  0  0  0  0  0  0  0  0  0  0  0
  145.3685  136.9180  163.0221 H   0  0  0  0  0  0  0  0  0  0  0  0
  144.8535  136.6575  161.3638 H   0  0  0  0  0  0  0  0  0  0  0  0
  148.3975  136.6605  162.4047 H   0  0  0  0  0  0  0  0  0  0  0  0
  148.5717  134.9516  162.7530 H   0  0  0  0  0  0  0  0  0  0  0  0
  147.6152  135.9664  163.8142 H   0  0  0  0  0  0  0  0  0  0  0  0
  1  2  1  0  0  0  0
  1 29  1  0  0  0  0
  1 30  1  0  0  0  0
  1 31  1  0  0  0  0
  2  3  1  0  0  0  0
  2 32  1  0  0  0  0
  2 33  1  0  0  0  0
  3  4  1  0  0  0  0
  4 26  1  0  0  0  0
  4  5  1  0  0  0  0
  4 34  1  0  0  0  0
  5  6  1  0  0  0  0
  5 35  1  0  0  0  0
  5 36  1  0  0  0  0
  6  7  1  0  0  0  0
  6 26  1  0  0  0  0
  6 37  1  0  0  0  0
  7  8  1  0  0  0  0
  7  9  1  0  0  0  0
  8 38  1  0  0  0  0
  8 39  1  0  0  0  0
  8 40  1  0  0  0  0
  9 14  1  0  0  0  0
  9 10  2  0  0  0  0
 10 11  1  0  0  0  0
 11 12  2  0  0  0  0
 11 41  1  0  0  0  0
 12 13  1  0  0  0  0
 13 17  1  0  0  0  0
 13 14  2  0  0  0  0
 14 15  1  0  0  0  0
 15 16  2  0  0  0  0
 16 17  1  0  0  0  0
 16 42  1  0  0  0  0
 17 18  1  0  0  0  0
 18 19  1  0  0  0  0
 18 43  1  0  0  0  0
 18 44  1  0  0  0  0
 19 24  1  0  0  0  0
 19 20  1  0  0  0  0
 19 21  1  0  0  0  0
 20 45  1  0  0  0  0
 21 22  1  0  0  0  0
 21 46  1  0  0  0  0
 21 47  1  0  0  0  0
 22 23  1  0  0  0  0
 22 48  1  0  0  0  0
 22 49  1  0  0  0  0
 23 24  1  0  0  0  0
 24 25  1  0  0  0  0
 24 50  1  0  0  0  0
 25 51  1  0  0  0  0
 25 52  1  0  0  0  0
 25 53  1  0  0  0  0
 26 27  1  0  0  0  0
 26 28  1  0  0  0  0
 27 54  1  0  0  0  0
 27 55  1  0  0  0  0
 27 56  1  0  0  0  0
 28 57  1  0  0  0  0
 28 58  1  0  0  0  0
 28 59  1  0  0  0  0
M  END
> <s_m_source_file>
AV-unprocessed.smi

> <i_m_source_file_index>
234

> <i_lp_mmshare_version>
43012

> <i_f3d_flags>
0

> <s_epik_input>
W0NIM11bQ0gyXU9bQ0BASF0oQzEoW0NIM10pW0NIM10pW0NIMl1bQ0BIXTFOKFtDSDNdKWMobltjSF1uMiljKGMyMyluW2NIXW4zW0NIMl1bQ0BAXTQoW09IXSlbQ0gyXVtDSDJdT1tDQEhdNFtDSDNd

> <s_epik_cmdline>
J2VwaWtfcHl0aG9uJywgJy1waCcsICc3LjAnLCAnLXRuJywgJzgnLCAnLW1hJywgJzIwMCcsICctbWV0YWxfYmluZGluZycsICctaW1hZScsICc8aW5maWxlLm1hZT4nLCAnLW9tYWUnLCAnPG91dGZpbGUubWFlPic=

> <r_lp_tautomer_probability>
1

> <r_epik_Ionization_Penalty>
0.00349132

> <r_epik_Ionization_Penalty_Charging>
0

> <r_epik_Ionization_Penalty_Neutral>
0.00349132

> <r_epik_State_Penalty>
0.00242418

> <r_epik_Charging_Adjusted_Penalty>
0.00242418

> <i_epik_Tot_Q>
0

> <i_epik_Tot_abs_Q>
0

> <r_epik_Metal_State_Penalty>
-0

> <b_epik_Metal_Only>
0

> <s_lp_Force_Field>
OPLS_2005

> <r_lp_Energy>
49.6192

> <b_lp_Chiralities_Consistent>
1

> <s_lp_Variant>
AV-unprocessed.smi:234-8

> <Gold.Version>
5.8.1

> <Gold.Id.Protein>
6NUR|6NUR_protein|mol2

> <Gold.PLP.Fitness>
39.5900

> <Gold.PLP.PLP>
-34.2536

> <Gold.PLP.part.hbond>
-2.0000

> <Gold.PLP.part.metal>
0.0000

> <Gold.PLP.part.buried>
-6.0877

> <Gold.PLP.part.nonpolar>
-26.5787

> <Gold.PLP.part.repulsive>
0.1920

> <Gold.PLP.ligand.clash>
0.0000

> <Gold.PLP.ligand.torsion>
0.7525

> <Gold.PLP.Chemscore.Hbond>
2.0000

> <Gold.PLP.Chemscore.CHOScore>
0.0000

> <Gold.PLP.Chemscore.Metal>
0.0000

> <Gold.Chemscore.Hbonds>
donor molecule, donor type, donor heavy atom, donor atom, acceptor molecule, acceptor atom, score
      L1  H    20    45       P1 10957  0.73
      P1  H  6896  6907       L1    10  1.00

> <Gold.PLP.Chemscore.Internal.Correction>
0.8415

> <Gold.Rescore>
     Score         DG    S(hbond)    S(metal)    S(lipo)     H(rot)  DE(clash)    DE(int)     intcor
     14.16     -14.94       1.86        0.00      85.18       2.62       0.05       0.73       ----

> <Gold.Chemscore.Fitness>
14.1647

> <Gold.Chemscore.DG>
-14.9382

> <Gold.Chemscore.ZeroCoef>
-5.4800

> <Gold.Chemscore.Hbond>
1.8576

> <Gold.Chemscore.Metal>
0.0000

> <Gold.Chemscore.Lipo>
85.1801

> <Gold.Chemscore.Internal_Hbond>
0.0000

> <Gold.Chemscore.DEClash>
0.0451

> <Gold.Chemscore.DEInternal>
0.7284

> <Gold.Chemscore.Rot>
2.6219

> <Gold.Chemscore.Internal.Correction>
   9.000000E+99

> <Gold.Chemscore.Hbonds>
donor molecule, donor type, donor heavy atom, donor atom, acceptor molecule, acceptor atom, score
      L1  H    20    45       P1 10957  0.69
      P1  H  6896  6907       L1    10  0.55

> <Gold.Chemscore.Hbond.Weighted>
-6.2042

> <Gold.Chemscore.Metal.Weighted>
-0.0000

> <Gold.Chemscore.Lipo.Weighted>
-9.9661

> <Gold.Chemscore.Internal_Hbond.Weighted>
0.0000

> <Gold.Chemscore.DEClash.Weighted>
0.0451

> <Gold.Chemscore.DEInternal.Weighted>
0.7284

> <Gold.Chemscore.Rot.Weighted>
6.7121

> <Gold.Chemscore.Internal.Correction.Weighted>
   9.000000E+99

> <Gold.Protein.RotatedTorsions>
[ 6907 6896 6895 6894 ] final -107.88 input  -60.11 | X-H torsion
[ 7974 7965 7964 7962 ] final  145.32 input  175.53 | X-H torsion
[ 8008 7997 7996 7995 ] final  -62.12 input   59.86 | X-H torsion
[ 10167 10162 10161 10158 ] final   68.92 input  -65.29 | X-H torsion
[ 10718 10713 10712 10709 ] final -126.39 input   66.30 | X-H torsion
[ 10763 10752 10751 10750 ] final  -18.39 input  -60.55 | X-H torsion
[ 11005 11000 10999 10996 ] final  148.81 input  -57.11 | X-H torsion

> <Gold.Protein.ActiveResidues>
 VAL166  LYS551  ARG553  GLY616  TRP617  ASP618  TYR619  PRO620  LYS621  CYS622 
 ASP623  PHE694  ASN695  SER759  ASP760  ASP761  ALA762  ILE779  LEU786  VAL792 
 PHE793  MET794  SER795  GLU796  ALA797  LYS798  CYS799  TRP800  GLU811  SER814 

> <Gold.Protein.RotatedAtoms>
  150.7469  133.9760  159.3560 H   0  0  0  0  0  0  0  0  0  0  0  0  # atno 6907 bound_to 6896
  151.7697  135.0787  160.0367 H   0  0  0  0  0  0  0  0  0  0  0  0  # atno 6908 bound_to 6896
  152.3347  133.5961  159.5870 H   0  0  0  0  0  0  0  0  0  0  0  0  # atno 6909 bound_to 6896
  144.8762  139.5768  143.5864 H   0  0  0  0  0  0  0  0  0  0  0  0  # atno 7974 bound_to 7965
  154.4483  140.1003  156.6537 H   0  0  0  0  0  0  0  0  0  0  0  0  # atno 8008 bound_to 7997
  155.5370  140.3482  155.4420 H   0  0  0  0  0  0  0  0  0  0  0  0  # atno 8009 bound_to 7997
  156.0624  140.1329  156.9914 H   0  0  0  0  0  0  0  0  0  0  0  0  # atno 8010 bound_to 7997
  140.0735  144.5133  150.7211 H   0  0  0  0  0  0  0  0  0  0  0  0  # atno 10167 bound_to 10162
  156.1761  130.6700  151.0243 H   0  0  0  0  0  0  0  0  0  0  0  0  # atno 10718 bound_to 10713
  153.5885  135.7003  153.5433 H   0  0  0  0  0  0  0  0  0  0  0  0  # atno 10763 bound_to 10752
  153.3199  135.4077  155.1407 H   0  0  0  0  0  0  0  0  0  0  0  0  # atno 10764 bound_to 10752
  154.8605  135.3693  154.5416 H   0  0  0  0  0  0  0  0  0  0  0  0  # atno 10765 bound_to 10752
  140.0991  134.8994  157.1769 H   0  0  0  0  0  0  0  0  0  0  0  0  # atno 11005 bound_to 11000
  146.2964  139.7292  142.9123 LP  0  0  0  0  0  0  0  0  0  0  0  0  # atno 17320 bound_to 7965
  145.4038  141.0388  143.3056 LP  0  0  0  0  0  0  0  0  0  0  0  0  # atno 17321 bound_to 7965
  140.7114  143.2508  151.4570 LP  0  0  0  0  0  0  0  0  0  0  0  0  # atno 17342 bound_to 10162
  139.5822  144.1684  152.1983 LP  0  0  0  0  0  0  0  0  0  0  0  0  # atno 17343 bound_to 10162
  157.6836  131.0831  150.7303 LP  0  0  0  0  0  0  0  0  0  0  0  0  # atno 17370 bound_to 10713
  156.7361  130.4724  149.5488 LP  0  0  0  0  0  0  0  0  0  0  0  0  # atno 17371 bound_to 10713
  140.3245  134.2879  155.7240 LP  0  0  0  0  0  0  0  0  0  0  0  0  # atno 17394 bound_to 11000
  141.2100  133.7731  156.9957 LP  0  0  0  0  0  0  0  0  0  0  0  0  # atno 17395 bound_to 11000

$$$$
