#       Name:                AV-unprocessed.smi:2601
#       Creating user name   scv26
#       Creation time:       Fri Mar 27 14:19:42 2020


#       File generated by GOLD software.
#

@<TRIPOS>MOLECULE
AV-unprocessed.smi:2601
    52    53     1
SMALL
NO_CHARGES


@<TRIPOS>ATOM
      1 ****        -1.8571   0.2537   3.0267 C.3            1 S1                 0.0000
      2 ****        -1.7162  -1.0600   2.4278 N.pl3          1 S1                 0.0000
      3 ****        -0.8285  -1.9298   2.9562 N.2            1 S1                 0.0000
      4 ****        -0.9363  -3.0136   2.2083 C.2            1 S1                 0.0000
      5 ****        -1.8994  -2.8679   1.1727 C.2            1 S1                 0.0000
      6 ****        -2.3824  -1.5996   1.3404 C.2            1 S1                 0.0000
      7 ****        -3.4264  -0.8553   0.5608 C.3            1 S1                 0.0000
      8 ****        -3.1915  -0.8401  -0.9626 C.3            1 S1                 0.0000
      9 ****        -1.8366  -0.4351  -1.3257 N.am           1 S1                 0.0000
     10 ****        -1.3363   0.8067  -1.2159 C.2            1 S1                 0.0000
     11 ****        -2.0057   1.7489  -0.7906 O.2            1 S1                 0.0000
     12 ****        -0.0369   0.9259  -1.5838 N.am           1 S1                 0.0000
     13 ****         0.8410  -0.1235  -2.1127 C.3            1 S1                 0.0000
     14 ****         1.9536  -0.4301  -1.0843 C.3            1 S1                 0.0000
     15 ****         1.4289  -1.2332   0.1227 C.3            1 S1                 0.0000
     16 ****         3.0672  -1.2463  -1.7608 C.3            1 S1                 0.0000
     17 ****         2.6004   0.7831  -0.6616 O.3            1 S1                 0.0000
     18 ****         1.8308   1.9643  -0.3750 C.3            1 S1                 0.0000
     19 ****         1.2654   1.9279   1.0600 C.3            1 S1                 0.0000
     20 ****         2.8444   3.1167  -0.4649 C.3            1 S1                 0.0000
     21 ****         0.7257   2.1646  -1.4378 C.3            1 S1                 0.0000
     22 ****        -2.8662   0.3681   3.4230 H              1 S1                 0.0000
     23 ****        -1.6806   1.0232   2.2751 H              1 S1                 0.0000
     24 ****        -1.1410   0.3868   3.8389 H              1 S1                 0.0000
     25 ****        -0.3157  -3.8678   2.4353 H              1 S1                 0.0000
     26 ****        -2.1910  -3.5850   0.4198 H              1 S1                 0.0000
     27 ****        -4.4015  -1.2982   0.7639 H              1 S1                 0.0000
     28 ****        -3.5002   0.1728   0.9138 H              1 S1                 0.0000
     29 ****        -3.3457  -1.8426  -1.3622 H              1 S1                 0.0000
     30 ****        -3.9213  -0.1960  -1.4550 H              1 S1                 0.0000
     31 ****        -1.2244  -1.1586  -1.6737 H              1 S1                 0.0000
     32 ****         0.3183  -1.0405  -2.3858 H              1 S1                 0.0000
     33 ****         1.2817   0.2348  -3.0445 H              1 S1                 0.0000
     34 ****         1.1403  -2.2406  -0.1778 H              1 S1                 0.0000
     35 ****         0.5464  -0.7909   0.5744 H              1 S1                 0.0000
     36 ****         2.1906  -1.3270   0.8971 H              1 S1                 0.0000
     37 ****         2.6880  -2.1924  -2.1486 H              1 S1                 0.0000
     38 ****         3.8714  -1.4734  -1.0601 H              1 S1                 0.0000
     39 ****         3.5069  -0.6997  -2.5957 H              1 S1                 0.0000
     40 ****         0.8734   2.9043   1.3462 H              1 S1                 0.0000
     41 ****         2.0375   1.6598   1.7815 H              1 S1                 0.0000
     42 ****         0.4433   1.2286   1.1763 H              1 S1                 0.0000
     43 ****         2.3693   4.0805  -0.2783 H              1 S1                 0.0000
     44 ****         3.3064   3.1615  -1.4517 H              1 S1                 0.0000
     45 ****         3.6452   2.9958   0.2653 H              1 S1                 0.0000
     46 ****         1.1676   2.4202  -2.4023 H              1 S1                 0.0000
     47 ****         0.0991   3.0176  -1.1725 H              1 S1                 0.0000
     48 ****        -0.2239  -1.7856   3.7395 LP             1 S1                 0.0000
     49 ****        -2.9553   1.6026  -0.5132 LP             1 S1                 0.0000
     50 ****        -1.5997   2.6603  -0.7227 LP             1 S1                 0.0000
     51 ****         3.2445   1.0305  -1.3855 LP             1 S1                 0.0000
     52 ****         3.1054   0.5619   0.1726 LP             1 S1                 0.0000
@<TRIPOS>BOND
    1    1    2 1     
    2    1   22 1     
    3    1   23 1     
    4    1   24 1     
    5    2    6 1     
    6    2    3 1     
    7    3    4 2     
    8    4    5 1     
    9    4   25 1     
   10    5    6 2     
   11    5   26 1     
   12    6    7 1     
   13    7    8 1     
   14    7   27 1     
   15    7   28 1     
   16    8    9 1     
   17    8   29 1     
   18    8   30 1     
   19    9   10 am    
   20    9   31 1     
   21   10   11 2     
   22   10   12 am    
   23   12   21 1     
   24   12   13 1     
   25   13   14 1     
   26   13   32 1     
   27   13   33 1     
   28   14   15 1     
   29   14   16 1     
   30   14   17 1     
   31   15   34 1     
   32   15   35 1     
   33   15   36 1     
   34   16   37 1     
   35   16   38 1     
   36   16   39 1     
   37   17   18 1     
   38   18   19 1     
   39   18   20 1     
   40   18   21 1     
   41   19   40 1     
   42   19   41 1     
   43   19   42 1     
   44   20   43 1     
   45   20   44 1     
   46   20   45 1     
   47   21   46 1     
   48   21   47 1     
   49    3   48 1     
   50   11   49 1     
   51   11   50 1     
   52   17   51 1     
   53   17   52 1     
@<TRIPOS>SUBSTRUCTURE
      1 S1             1
@<TRIPOS>SET
LONE_PAIRS      STATIC     ATOMS    <user>   **** ""
5 48 49 50 51 52
DONOR_HYDROGENS      STATIC     ATOMS    <user>   **** ""
1 31
ATOM$BLUE        STATIC     ATOMS    COLORGROUP SYSTEM
5 48 49 50 51 52
ATOM$RED        STATIC     ATOMS    COLORGROUP SYSTEM
1 31
