#       Name:                AV-unprocessed.smi:3334
#       Creating user name   scv26
#       Creation time:       Fri Mar 27 19:21:46 2020


#       File generated by GOLD software.
#

@<TRIPOS>MOLECULE
AV-unprocessed.smi:3334
    44    45     1
SMALL
NO_CHARGES


@<TRIPOS>ATOM
      1 ****        -2.3000   1.1630   0.3065 C.3            1 S1                 0.0000
      2 ****        -2.3497   1.0962   1.8394 C.3            1 S1                 0.0000
      3 ****        -2.2040   2.4705   2.5086 C.3            1 S1                 0.0000
      4 ****        -1.3812   0.0960   2.3873 C.2            1 S1                 0.0000
      5 ****        -0.0542   0.2251   2.2996 N.2            1 S1                 0.0000
      6 ****         0.6352  -0.8534   2.8637 C.2            1 S1                 0.0000
      7 ****         2.1372  -0.8855   2.8424 C.3            1 S1                 0.0000
      8 ****         2.7222  -1.3623   1.5014 C.3            1 S1                 0.0000
      9 ****         2.3180  -0.4947   0.4019 N.am           1 S1                 0.0000
     10 ****         2.4095  -0.8058  -0.8979 C.2            1 S1                 0.0000
     11 ****         2.8863  -1.8638  -1.3084 O.2            1 S1                 0.0000
     12 ****         1.8787   0.2402  -1.8832 C.3            1 S1                 0.0000
     13 ****         0.9539  -0.3583  -2.9625 C.3            1 S1                 0.0000
     14 ****         0.4595   0.6847  -3.9311 C.2            1 S1                 0.0000
     15 ****        -0.8624   0.6584  -4.0864 C.2            1 S1                 0.0000
     16 ****        -1.5176  -0.4077  -3.2534 C.3            1 S1                 0.0000
     17 ****        -0.3564  -0.9833  -2.4126 C.3            1 S1                 0.0000
     18 ****        -0.1981  -1.8069   3.3931 C.2            1 S1                 0.0000
     19 ****        -1.8772  -1.3862   3.1965 S.3            1 S1                 0.0000
     20 ****        -2.5073   0.1859  -0.1307 H              1 S1                 0.0000
     21 ****        -1.3206   1.4864  -0.0476 H              1 S1                 0.0000
     22 ****        -3.0415   1.8618  -0.0818 H              1 S1                 0.0000
     23 ****        -3.3449   0.7335   2.0994 H              1 S1                 0.0000
     24 ****        -2.3236   2.3953   3.5897 H              1 S1                 0.0000
     25 ****        -2.9567   3.1680   2.1405 H              1 S1                 0.0000
     26 ****        -1.2238   2.9056   2.3107 H              1 S1                 0.0000
     27 ****         2.5315   0.1049   3.0736 H              1 S1                 0.0000
     28 ****         2.5029  -1.5371   3.6366 H              1 S1                 0.0000
     29 ****         3.8113  -1.3803   1.5553 H              1 S1                 0.0000
     30 ****         2.3956  -2.3850   1.3052 H              1 S1                 0.0000
     31 ****         1.9064   0.3937   0.6503 H              1 S1                 0.0000
     32 ****         1.3507   1.0256  -1.3391 H              1 S1                 0.0000
     33 ****         2.7367   0.7181  -2.3570 H              1 S1                 0.0000
     34 ****         1.4986  -1.1005  -3.5480 H              1 S1                 0.0000
     35 ****         1.1313   1.3576  -4.4434 H              1 S1                 0.0000
     36 ****        -1.4259   1.3055  -4.7425 H              1 S1                 0.0000
     37 ****        -2.3046   0.0158  -2.6290 H              1 S1                 0.0000
     38 ****        -1.9569  -1.1643  -3.9041 H              1 S1                 0.0000
     39 ****        -0.3289  -2.0726  -2.4583 H              1 S1                 0.0000
     40 ****        -0.5021  -0.7133  -1.3659 H              1 S1                 0.0000
     41 ****         0.0731  -2.7305   3.8825 H              1 S1                 0.0000
     42 ****         0.3982   1.0097   1.8756 LP             1 S1                 0.0000
     43 ****         3.2298  -2.5425  -0.6594 LP             1 S1                 0.0000
     44 ****         2.9301  -2.0446  -2.2910 LP             1 S1                 0.0000
@<TRIPOS>BOND
    1    1    2 1     
    2    1   20 1     
    3    1   21 1     
    4    1   22 1     
    5    2    3 1     
    6    2    4 1     
    7    2   23 1     
    8    3   24 1     
    9    3   25 1     
   10    3   26 1     
   11    4   19 1     
   12    4    5 2     
   13    5    6 1     
   14    6    7 1     
   15    6   18 2     
   16    7    8 1     
   17    7   27 1     
   18    7   28 1     
   19    8    9 1     
   20    8   29 1     
   21    8   30 1     
   22    9   10 am    
   23    9   31 1     
   24   10   11 2     
   25   10   12 1     
   26   12   13 1     
   27   12   32 1     
   28   12   33 1     
   29   13   17 1     
   30   13   14 1     
   31   13   34 1     
   32   14   15 2     
   33   14   35 1     
   34   15   16 1     
   35   15   36 1     
   36   16   17 1     
   37   16   37 1     
   38   16   38 1     
   39   17   39 1     
   40   17   40 1     
   41   18   19 1     
   42   18   41 1     
   43    5   42 1     
   44   11   43 1     
   45   11   44 1     
@<TRIPOS>SUBSTRUCTURE
      1 S1             1
@<TRIPOS>SET
LONE_PAIRS      STATIC     ATOMS    <user>   **** ""
3 42 43 44
DONOR_HYDROGENS      STATIC     ATOMS    <user>   **** ""
1 31
ATOM$BLUE        STATIC     ATOMS    COLORGROUP SYSTEM
3 42 43 44
ATOM$RED        STATIC     ATOMS    COLORGROUP SYSTEM
1 31
