#       Name:                AV-unprocessed.smi:1493
#       Creating user name   scv26
#       Creation time:       Fri Mar 27 06:16:25 2020


#       File generated by GOLD software.
#

@<TRIPOS>MOLECULE
AV-unprocessed.smi:1493
    40    40     1
SMALL
NO_CHARGES


@<TRIPOS>ATOM
      1 ****        -4.8261   0.3965  -1.3843 C.3            1 S1                 0.0000
      2 ****        -3.2948   0.4128  -1.3238 C.3            1 S1                 0.0000
      3 ****        -2.6891  -1.0006  -1.3735 C.3            1 S1                 0.0000
      4 ****        -1.1487  -1.0183  -1.3878 C.3            1 S1                 0.0000
      5 ****        -0.6051  -2.4480  -1.5403 C.3            1 S1                 0.0000
      6 ****        -0.6233  -0.4114  -0.1670 N.am           1 S1                 0.0000
      7 ****         0.5707   0.1898  -0.0467 C.2            1 S1                 0.0000
      8 ****         1.3633   0.3076  -0.9827 O.2            1 S1                 0.0000
      9 ****         0.8996   0.7513   1.3455 C.3            1 S1                 0.0000
     10 ****         2.3399   0.8934   1.6052 N.am           1 S1                 0.0000
     11 ****         2.8089   2.2765   1.5947 N.pl3          1 S1                -1.0000
     12 ****         4.1283   2.5303   1.8021 C.2            1 S1                 0.0000
     13 ****         4.5986   3.6655   1.7896 O.2            1 S1                 0.0000
     14 ****         5.0106   1.4030   2.0540 C.2            1 S1                 0.0000
     15 ****         4.5453   0.1387   2.0856 C.2            1 S1                 0.0000
     16 ****         3.1399  -0.1802   1.8656 C.2            1 S1                 0.0000
     17 ****         2.7056  -1.3316   1.9081 O.2            1 S1                 0.0000
     18 ****        -5.2263   1.4099  -1.3483 H              1 S1                 0.0000
     19 ****        -5.2481  -0.1579  -0.5456 H              1 S1                 0.0000
     20 ****        -5.1785  -0.0681  -2.3055 H              1 S1                 0.0000
     21 ****        -2.9095   1.0047  -2.1546 H              1 S1                 0.0000
     22 ****        -2.9820   0.9227  -0.4121 H              1 S1                 0.0000
     23 ****        -3.0548  -1.5824  -0.5261 H              1 S1                 0.0000
     24 ****        -3.0548  -1.5074  -2.2674 H              1 S1                 0.0000
     25 ****        -0.8163  -0.4335  -2.2476 H              1 S1                 0.0000
     26 ****        -0.9738  -2.9118  -2.4555 H              1 S1                 0.0000
     27 ****        -0.9061  -3.0782  -0.7026 H              1 S1                 0.0000
     28 ****         0.4845  -2.4545  -1.5869 H              1 S1                 0.0000
     29 ****        -1.2115  -0.4561   0.6524 H              1 S1                 0.0000
     30 ****         0.3945   1.7135   1.4461 H              1 S1                 0.0000
     31 ****         0.4591   0.1079   2.1094 H              1 S1                 0.0000
     32 ****         6.0621   1.5833   2.2218 H              1 S1                 0.0000
     33 ****         5.2368  -0.6677   2.2782 H              1 S1                 0.0000
     34 ****         1.1287  -0.0539  -1.8851 LP             1 S1                 0.0000
     35 ****         2.2412   0.7647  -0.8400 LP             1 S1                 0.0000
     36 ****         2.1676   3.0274   1.4369 LP             1 S1                 0.0000
     37 ****         4.0036   4.4514   1.6216 LP             1 S1                 0.0000
     38 ****         5.5764   3.8034   1.9475 LP             1 S1                 0.0000
     39 ****         1.7339  -1.5057   1.7485 LP             1 S1                 0.0000
     40 ****         3.3246  -2.0926   2.1022 LP             1 S1                 0.0000
@<TRIPOS>BOND
    1    1    2 1     
    2    1   18 1     
    3    1   19 1     
    4    1   20 1     
    5    2    3 1     
    6    2   21 1     
    7    2   22 1     
    8    3    4 1     
    9    3   23 1     
   10    3   24 1     
   11    4    5 1     
   12    4    6 1     
   13    4   25 1     
   14    5   26 1     
   15    5   27 1     
   16    5   28 1     
   17    6    7 am    
   18    6   29 1     
   19    7    8 2     
   20    7    9 1     
   21    9   30 1     
   22    9   31 1     
   23    9   10 1     
   24   10   11 1     
   25   10   16 am    
   26   11   12 1     
   27   12   13 2     
   28   12   14 1     
   29   14   32 1     
   30   14   15 2     
   31   15   33 1     
   32   15   16 1     
   33   16   17 2     
   34    8   34 1     
   35    8   35 1     
   36   11   36 1     
   37   13   37 1     
   38   13   38 1     
   39   17   39 1     
   40   17   40 1     
@<TRIPOS>SUBSTRUCTURE
      1 S1             1
@<TRIPOS>SET
LONE_PAIRS      STATIC     ATOMS    <user>   **** ""
7 34 35 36 37 38 39 40
DONOR_HYDROGENS      STATIC     ATOMS    <user>   **** ""
1 29
ATOM$BLUE        STATIC     ATOMS    COLORGROUP SYSTEM
7 34 35 36 37 38 39 40
ATOM$RED        STATIC     ATOMS    COLORGROUP SYSTEM
1 29
