#       Name:                AV-unprocessed.smi:49
#       Creating user name   scv26
#       Creation time:       Thu Mar 26 16:34:40 2020


#       File generated by GOLD software.
#

@<TRIPOS>MOLECULE
AV-unprocessed.smi:49
    32    33     1
SMALL
NO_CHARGES


@<TRIPOS>ATOM
      1 ****        -4.0913   1.3059  -1.4089 C.3            1 S1                 0.0000
      2 ****        -3.7363  -0.0722  -0.8406 C.3            1 S1                 0.0000
      3 ****        -2.2635  -0.3189  -0.8105 C.2            1 S1                 0.0000
      4 ****        -1.5287  -0.1011   0.2896 N.pl3          1 S1                 0.0000
      5 ****        -0.2880  -0.4203  -0.1072 C.2            1 S1                 0.0000
      6 ****         0.8830  -0.3137   0.8239 C.3            1 S1                 0.0000
      7 ****         1.8100   0.8760   0.5642 C.3            1 S1                 0.0000
      8 ****         3.1663   0.3282   0.9980 C.3            1 S1                 0.0000
      9 ****         4.2379   1.0318   0.4066 O.3            1 S1                 0.0000
     10 ****         3.1148  -1.1356   0.5450 C.3            1 S1                 0.0000
     11 ****         1.6913  -1.5278   0.5826 N.4            1 S1                 1.0000
     12 ****        -0.2357  -0.8098  -1.3873 N.2            1 S1                 0.0000
     13 ****        -1.5382  -0.7426  -1.8496 N.2            1 S1                 0.0000
     14 ****         0.5481  -0.3189   1.8623 H              1 S1                 0.0000
     15 ****         3.2531   0.3768   2.0845 H              1 S1                 0.0000
     16 ****        -1.8375   0.2281   1.1931 H              1 S1                 0.0000
     17 ****        -5.1710   1.4558  -1.4183 H              1 S1                 0.0000
     18 ****        -3.7314   1.4137  -2.4325 H              1 S1                 0.0000
     19 ****        -3.6489   2.1037  -0.8121 H              1 S1                 0.0000
     20 ****        -4.1357  -0.1718   0.1693 H              1 S1                 0.0000
     21 ****        -4.2085  -0.8519  -1.4394 H              1 S1                 0.0000
     22 ****         1.8348   1.1053  -0.5029 H              1 S1                 0.0000
     23 ****         1.5089   1.7795   1.0951 H              1 S1                 0.0000
     24 ****         4.2178   1.9275   0.7088 H              1 S1                 0.0000
     25 ****         3.4583  -1.2329  -0.4860 H              1 S1                 0.0000
     26 ****         3.7289  -1.7873   1.1672 H              1 S1                 0.0000
     27 ****         1.5244  -2.2022   1.3155 H              1 S1                 0.0000
     28 ****         1.4380  -1.9250  -0.3115 H              1 S1                 0.0000
     29 ****         4.1451   1.0107  -0.5888 LP             1 S1                 0.0000
     30 ****         5.1044   0.6076   0.6697 LP             1 S1                 0.0000
     31 ****         0.5748  -1.0904  -1.9014 LP             1 S1                 0.0000
     32 ****        -1.8672  -0.9643  -2.7675 LP             1 S1                 0.0000
@<TRIPOS>BOND
    1    1    2 1     
    2    1   17 1     
    3    1   18 1     
    4    1   19 1     
    5    2   20 1     
    6    2   21 1     
    7    2    3 1     
    8    3    4 1     
    9    3   13 2     
   10    4   16 1     
   11    4    5 1     
   12    5   12 2     
   13    5    6 1     
   14    6   14 1     
   15    6   11 1     
   16    6    7 1     
   17    7    8 1     
   18    7   22 1     
   19    7   23 1     
   20    8   15 1     
   21    8    9 1     
   22    8   10 1     
   23    9   24 1     
   24   10   11 1     
   25   10   25 1     
   26   10   26 1     
   27   11   27 1     
   28   11   28 1     
   29   12   13 1     
   30    9   29 1     
   31    9   30 1     
   32   12   31 1     
   33   13   32 1     
@<TRIPOS>SUBSTRUCTURE
      1 S1             1
@<TRIPOS>SET
LONE_PAIRS      STATIC     ATOMS    <user>   **** ""
4 29 30 31 32
DONOR_HYDROGENS      STATIC     ATOMS    <user>   **** ""
4 16 24 27 28
ATOM$BLUE        STATIC     ATOMS    COLORGROUP SYSTEM
4 29 30 31 32
ATOM$RED        STATIC     ATOMS    COLORGROUP SYSTEM
4 16 24 27 28
