AV-unprocessed.smi:2453|AV-procd|sdf|9693|dock7
  -GOLD-   2272013333D 1   1.00000     0.00000
 Structure written by MMmdl.
 41 42  0  0  0  0  0  0  0  0  2 V2000
  150.3454  138.8070  154.1270 C   0  0  0  0  0  0  0  0  0  0  0  0
  149.2071  139.7992  154.2902 C   0  0  0  0  0  0  0  0  0  0  0  0
  149.4944  141.1297  154.6658 C   0  0  0  0  0  0  0  0  0  0  0  0
  148.4951  142.0247  154.8109 N   0  3  0  0  0  0  0  0  0  0  0  0
  147.1996  141.7103  154.6046 C   0  0  0  0  0  0  0  0  0  0  0  0
  146.8457  140.3999  154.2268 C   0  0  0  0  0  0  0  0  0  0  0  0
  147.8575  139.4161  154.0778 C   0  0  0  0  0  0  0  0  0  0  0  0
  147.5879  138.0729  153.6870 N   0  0  0  0  0  0  0  0  0  0  0  0
  146.4886  137.3323  153.9115 C   0  0  0  0  0  0  0  0  0  0  0  0
  145.4850  137.7110  154.5147 O   0  0  0  0  0  0  0  0  0  0  0  0
  146.6254  136.0987  153.4045 N   0  0  0  0  0  0  0  0  0  0  0  0
  145.6168  135.0387  153.4616 C   0  0  2  0  0  0  0  0  0  0  0  0
  146.1076  133.8526  154.3209 C   0  0  0  0  0  0  0  0  0  0  0  0
  147.2483  133.0761  153.6427 C   0  0  0  0  0  0  0  0  0  0  0  0
  146.8394  132.6087  152.2386 C   0  0  0  0  0  0  0  0  0  0  0  0
  146.3694  133.7873  151.3712 C   0  0  0  0  0  0  0  0  0  0  0  0
  145.2148  134.5657  152.0386 C   0  0  2  0  0  0  0  0  0  0  0  0
  144.7138  135.7038  151.1237 C   0  0  0  0  0  0  0  0  0  0  0  0
  144.0482  135.1860  149.9913 O   0  0  0  0  0  0  0  0  0  0  0  0
  151.3083  139.2688  154.3477 H   0  0  0  0  0  0  0  0  0  0  0  0
  150.3789  138.4311  153.1039 H   0  0  0  0  0  0  0  0  0  0  0  0
  150.2147  137.9611  154.8028 H   0  0  0  0  0  0  0  0  0  0  0  0
  150.4902  141.5053  154.8525 H   0  0  0  0  0  0  0  0  0  0  0  0
  146.4888  142.5124  154.7406 H   0  0  0  0  0  0  0  0  0  0  0  0
  145.8045  140.1818  154.0475 H   0  0  0  0  0  0  0  0  0  0  0  0
  148.3563  137.5931  153.2417 H   0  0  0  0  0  0  0  0  0  0  0  0
  147.4894  135.8703  152.9354 H   0  0  0  0  0  0  0  0  0  0  0  0
  144.7259  135.4490  153.9407 H   0  0  0  0  0  0  0  0  0  0  0  0
  146.4246  134.1967  155.3061 H   0  0  0  0  0  0  0  0  0  0  0  0
  145.2728  133.1729  154.4966 H   0  0  0  0  0  0  0  0  0  0  0  0
  148.1368  133.7051  153.5768 H   0  0  0  0  0  0  0  0  0  0  0  0
  147.5256  132.2165  154.2535 H   0  0  0  0  0  0  0  0  0  0  0  0
  147.6766  132.1031  151.7570 H   0  0  0  0  0  0  0  0  0  0  0  0
  146.0385  131.8725  152.3183 H   0  0  0  0  0  0  0  0  0  0  0  0
  147.2087  134.4567  151.1793 H   0  0  0  0  0  0  0  0  0  0  0  0
  146.0506  133.4117  150.3983 H   0  0  0  0  0  0  0  0  0  0  0  0
  144.3874  133.8631  152.1539 H   0  0  0  0  0  0  0  0  0  0  0  0
  144.0478  136.3826  151.6569 H   0  0  0  0  0  0  0  0  0  0  0  0
  145.5556  136.3010  150.7721 H   0  0  0  0  0  0  0  0  0  0  0  0
  144.6919  134.9853  149.3291 H   0  0  0  0  0  0  0  0  0  0  0  0
  148.7294  142.9802  155.0824 H   0  0  0  0  0  0  0  0  0  0  0  0
  1  2  1  0  0  0  0
  1 20  1  0  0  0  0
  1 21  1  0  0  0  0
  1 22  1  0  0  0  0
  2  7  1  0  0  0  0
  2  3  2  0  0  0  0
  3  4  1  0  0  0  0
  3 23  1  0  0  0  0
  4  5  2  0  0  0  0
  4 41  1  0  0  0  0
  5  6  1  0  0  0  0
  5 24  1  0  0  0  0
  6  7  2  0  0  0  0
  6 25  1  0  0  0  0
  7  8  1  0  0  0  0
  8  9  1  0  0  0  0
  8 26  1  0  0  0  0
  9 10  2  0  0  0  0
  9 11  1  0  0  0  0
 11 12  1  0  0  0  0
 11 27  1  0  0  0  0
 12 17  1  0  0  0  0
 12 13  1  0  0  0  0
 12 28  1  0  0  0  0
 13 14  1  0  0  0  0
 13 29  1  0  0  0  0
 13 30  1  0  0  0  0
 14 15  1  0  0  0  0
 14 31  1  0  0  0  0
 14 32  1  0  0  0  0
 15 16  1  0  0  0  0
 15 33  1  0  0  0  0
 15 34  1  0  0  0  0
 16 17  1  0  0  0  0
 16 35  1  0  0  0  0
 16 36  1  0  0  0  0
 17 18  1  0  0  0  0
 17 37  1  0  0  0  0
 18 19  1  0  0  0  0
 18 38  1  0  0  0  0
 18 39  1  0  0  0  0
 19 40  1  0  0  0  0
M  CHG  1   4   1
M  END
> <s_m_source_file>
AV-unprocessed.smi

> <i_m_source_file_index>
2453

> <i_lp_mmshare_version>
43012

> <i_f3d_flags>
0

> <s_epik_input>
W0NIM11jMVtjSF1uW2NIXVtjSF1jMVtOSF1DKD1PKVtOSF1bQ0BASF0yW0NIMl1bQ0gyXVtDSDJdW0NIMl1bQ0BIXTJbQ0gyXVtPSF0=

> <s_epik_cmdline>
J2VwaWtfcHl0aG9uJywgJy1waCcsICc3LjAnLCAnLXRuJywgJzgnLCAnLW1hJywgJzIwMCcsICctbWV0YWxfYmluZGluZycsICctaW1hZScsICc8aW5maWxlLm1hZT4nLCAnLW9tYWUnLCAnPG91dGZpbGUubWFlPic=

> <r_epik_Ionization_Penalty>
0.71493

> <r_epik_Ionization_Penalty_Charging>
0.714909

> <r_epik_Ionization_Penalty_Neutral>
2.10174e-05

> <r_epik_State_Penalty>
0.738815

> <r_epik_Charging_Adjusted_Penalty>
1.45372

> <i_epik_Tot_Q>
1

> <i_epik_Tot_abs_Q>
1

> <r_epik_Metal_State_Penalty>
0.896004

> <b_epik_Metal_Only>
0

> <s_lp_Force_Field>
OPLS_2005

> <r_lp_Energy>
23.4008

> <b_lp_Chiralities_Consistent>
1

> <s_lp_Variant>
AV-unprocessed.smi:2453-7

> <Gold.Version>
5.8.1

> <Gold.Id.Protein>
6NUR|6NUR_protein|mol2

> <Gold.PLP.Fitness>
45.8917

> <Gold.PLP.PLP>
-31.8180

> <Gold.PLP.part.hbond>
-3.8266

> <Gold.PLP.part.metal>
0.0000

> <Gold.PLP.part.buried>
-4.0105

> <Gold.PLP.part.nonpolar>
-25.1960

> <Gold.PLP.part.repulsive>
0.3639

> <Gold.PLP.ligand.clash>
0.0000

> <Gold.PLP.ligand.torsion>
0.2688

> <Gold.PLP.Chemscore.Hbond>
4.8640

> <Gold.PLP.Chemscore.CHOScore>
0.0000

> <Gold.PLP.Chemscore.Metal>
0.0000

> <Gold.Chemscore.Hbonds>
donor molecule, donor type, donor heavy atom, donor atom, acceptor molecule, acceptor atom, score
      L1  H     4    41       P1  8028  2.00
      L1  H     8    26       P1  7948  0.96
      L1  H    11    27       P1  7948  1.00
      L1  H    19    40       P1  7921  0.50

> <Gold.PLP.Chemscore.Internal.Correction>
0.0192

> <Gold.Rescore>
     Score         DG    S(hbond)    S(metal)    S(lipo)     H(rot)  DE(clash)    DE(int)     intcor
     20.63     -21.97       3.86        0.00      69.47       1.77       0.03       1.31       ----

> <Gold.Chemscore.Fitness>
20.6311

> <Gold.Chemscore.DG>
-21.9681

> <Gold.Chemscore.ZeroCoef>
-5.4800

> <Gold.Chemscore.Hbond>
3.8629

> <Gold.Chemscore.Metal>
0.0000

> <Gold.Chemscore.Lipo>
69.4691

> <Gold.Chemscore.Internal_Hbond>
0.0000

> <Gold.Chemscore.DEClash>
0.0310

> <Gold.Chemscore.DEInternal>
1.3060

> <Gold.Chemscore.Rot>
1.7742

> <Gold.Chemscore.Internal.Correction>
   9.000000E+99

> <Gold.Chemscore.Hbonds>
donor molecule, donor type, donor heavy atom, donor atom, acceptor molecule, acceptor atom, score
      L1  H     4    41       P1  8028  1.00
      L1  H     8    26       P1  7948  0.87
      L1  H    11    27       P1  7948  0.98
      L1  H    19    40       P1  7921  0.50

> <Gold.Chemscore.Hbond.Weighted>
-12.9022

> <Gold.Chemscore.Metal.Weighted>
-0.0000

> <Gold.Chemscore.Lipo.Weighted>
-8.1279

> <Gold.Chemscore.Internal_Hbond.Weighted>
0.0000

> <Gold.Chemscore.DEClash.Weighted>
0.0310

> <Gold.Chemscore.DEInternal.Weighted>
1.3060

> <Gold.Chemscore.Rot.Weighted>
4.5419

> <Gold.Chemscore.Internal.Correction.Weighted>
   9.000000E+99

> <Gold.Protein.RotatedTorsions>
[ 6907 6896 6895 6894 ] final  -56.22 input  -60.11 | X-H torsion
[ 7974 7965 7964 7962 ] final  158.71 input  175.53 | X-H torsion
[ 8008 7997 7996 7995 ] final    8.92 input   59.86 | X-H torsion
[ 10167 10162 10161 10158 ] final -109.22 input  -65.29 | X-H torsion
[ 10718 10713 10712 10709 ] final  -54.73 input   66.30 | X-H torsion
[ 10763 10752 10751 10750 ] final   43.78 input  -60.55 | X-H torsion
[ 11005 11000 10999 10996 ] final  -13.40 input  -57.11 | X-H torsion

> <Gold.Protein.ActiveResidues>
 VAL166  LYS551  ARG553  GLY616  TRP617  ASP618  TYR619  PRO620  LYS621  CYS622 
 ASP623  PHE694  ASN695  SER759  ASP760  ASP761  ALA762  ILE779  LEU786  VAL792 
 PHE793  MET794  SER795  GLU796  ALA797  LYS798  CYS799  TRP800  GLU811  SER814 

> <Gold.Protein.RotatedAtoms>
  150.8185  134.7381  159.6751 H   0  0  0  0  0  0  0  0  0  0  0  0  # atno 6907 bound_to 6896
  152.4303  134.5788  159.9951 H   0  0  0  0  0  0  0  0  0  0  0  0  # atno 6908 bound_to 6896
  151.5978  133.3322  159.3077 H   0  0  0  0  0  0  0  0  0  0  0  0  # atno 6909 bound_to 6896
  144.7830  139.7516  143.6252 H   0  0  0  0  0  0  0  0  0  0  0  0  # atno 7974 bound_to 7965
  154.7732  140.2806  155.6121 H   0  0  0  0  0  0  0  0  0  0  0  0  # atno 8008 bound_to 7997
  156.2937  140.2637  156.2468 H   0  0  0  0  0  0  0  0  0  0  0  0  # atno 8009 bound_to 7997
  154.9874  140.0374  157.2294 H   0  0  0  0  0  0  0  0  0  0  0  0  # atno 8010 bound_to 7997
  140.1577  143.4146  152.1449 H   0  0  0  0  0  0  0  0  0  0  0  0  # atno 10167 bound_to 10162
  156.1426  130.4154  150.0077 H   0  0  0  0  0  0  0  0  0  0  0  0  # atno 10718 bound_to 10713
  152.9854  135.6091  154.3167 H   0  0  0  0  0  0  0  0  0  0  0  0  # atno 10763 bound_to 10752
  154.2879  135.2775  155.2670 H   0  0  0  0  0  0  0  0  0  0  0  0  # atno 10764 bound_to 10752
  154.4979  135.5875  153.6565 H   0  0  0  0  0  0  0  0  0  0  0  0  # atno 10765 bound_to 10752
  140.7757  133.8403  155.9246 H   0  0  0  0  0  0  0  0  0  0  0  0  # atno 11005 bound_to 11000
  146.2049  139.5366  142.9719 LP  0  0  0  0  0  0  0  0  0  0  0  0  # atno 17320 bound_to 7965
  145.5997  141.0357  143.2025 LP  0  0  0  0  0  0  0  0  0  0  0  0  # atno 17321 bound_to 7965
  139.5396  144.7243  151.4778 LP  0  0  0  0  0  0  0  0  0  0  0  0  # atno 17342 bound_to 10162
  140.6663  143.8391  150.6946 LP  0  0  0  0  0  0  0  0  0  0  0  0  # atno 17343 bound_to 10162
  156.7957  130.9272  151.3646 LP  0  0  0  0  0  0  0  0  0  0  0  0  # atno 17370 bound_to 10713
  157.6589  130.8949  149.9788 LP  0  0  0  0  0  0  0  0  0  0  0  0  # atno 17371 bound_to 10713
  140.9531  134.1753  157.4712 LP  0  0  0  0  0  0  0  0  0  0  0  0  # atno 17394 bound_to 11000
  139.8749  134.9917  156.5560 LP  0  0  0  0  0  0  0  0  0  0  0  0  # atno 17395 bound_to 11000

$$$$
