AV-unprocessed.smi:104|AV-procd|sdf|1001|dock1
  -GOLD-   2262017583D 1   1.00000     0.00000
 Structure written by MMmdl.
 47 49  0  0  0  0  0  0  0  0  1 V2000
  151.7013  143.2372  160.0432 C   0  0  0  0  0  0  0  0  0  0  0  0
  152.4466  141.9195  159.8786 C   0  0  0  0  0  0  0  0  0  0  0  0
  153.4505  141.6624  160.5429 O   0  0  0  0  0  0  0  0  0  0  0  0
  151.8837  141.1263  158.9503 O   0  0  0  0  0  0  0  0  0  0  0  0
  152.4427  139.8541  158.6407 C   0  0  0  0  0  0  0  0  0  0  0  0
  151.4518  138.9149  157.9196 C   0  0  2  0  0  0  0  0  0  0  0  0
  150.3791  138.5414  158.7723 O   0  0  0  0  0  0  0  0  0  0  0  0
  149.8475  137.3253  158.3592 C   0  0  1  0  0  0  0  0  0  0  0  0
  148.6424  137.5958  157.4851 N   0  0  0  0  0  0  0  0  0  0  0  0
  147.3330  137.2488  157.7461 C   0  0  0  0  0  0  0  0  0  0  0  0
  146.8115  136.3013  159.3148 Br  0  0  0  0  0  0  0  0  0  0  0  0
  146.4308  137.5921  156.8724 N   0  0  0  0  0  0  0  0  0  0  0  0
  147.1744  138.2633  155.9145 C   0  0  0  0  0  0  0  0  0  0  0  0
  146.8434  138.9052  154.6944 C   0  0  0  0  0  0  0  0  0  0  0  0
  145.5927  138.9667  154.2163 N   0  0  0  0  0  0  0  0  0  0  0  0
  147.8331  139.4844  153.9775 N   0  0  0  0  0  0  0  0  0  0  0  0
  149.0872  139.4389  154.4343 C   0  0  0  0  0  0  0  0  0  0  0  0
  149.5463  138.8769  155.5548 N   0  0  0  0  0  0  0  0  0  0  0  0
  148.5529  138.2868  156.2837 C   0  0  0  0  0  0  0  0  0  0  0  0
  150.9905  136.5359  157.6906 C   0  0  1  0  0  0  0  0  0  0  0  0
  150.5759  135.7756  156.5613 O   0  0  0  0  0  0  0  0  0  0  0  0
  151.4337  134.9382  155.9560 C   0  0  0  0  0  0  0  0  0  0  0  0
  150.8232  134.2714  154.7313 C   0  0  0  0  0  0  0  0  0  0  0  0
  152.5840  134.6923  156.3190 O   0  0  0  0  0  0  0  0  0  0  0  0
  152.0063  137.6120  157.3015 C   0  0  2  0  0  0  0  0  0  0  0  0
  153.2932  137.2598  157.7977 O   0  0  0  0  0  0  0  0  0  0  0  0
  153.4794  137.0201  159.1074 C   0  0  0  0  0  0  0  0  0  0  0  0
  154.8847  137.3833  159.5681 C   0  0  0  0  0  0  0  0  0  0  0  0
  152.6431  136.5667  159.8886 O   0  0  0  0  0  0  0  0  0  0  0  0
  150.6249  143.0820  159.9638 H   0  0  0  0  0  0  0  0  0  0  0  0
  152.0082  143.9408  159.2692 H   0  0  0  0  0  0  0  0  0  0  0  0
  151.9152  143.6783  161.0169 H   0  0  0  0  0  0  0  0  0  0  0  0
  153.3517  139.9702  158.0486 H   0  0  0  0  0  0  0  0  0  0  0  0
  152.7510  139.3917  159.5785 H   0  0  0  0  0  0  0  0  0  0  0  0
  151.0083  139.5005  157.1161 H   0  0  0  0  0  0  0  0  0  0  0  0
  149.4451  136.7863  159.2147 H   0  0  0  0  0  0  0  0  0  0  0  0
  144.8350  138.5429  154.7325 H   0  0  0  0  0  0  0  0  0  0  0  0
  145.4100  139.4351  153.3407 H   0  0  0  0  0  0  0  0  0  0  0  0
  149.8289  139.9208  153.8145 H   0  0  0  0  0  0  0  0  0  0  0  0
  151.4317  135.8906  158.4522 H   0  0  0  0  0  0  0  0  0  0  0  0
  150.4304  135.0230  154.0458 H   0  0  0  0  0  0  0  0  0  0  0  0
  150.0065  133.6134  155.0294 H   0  0  0  0  0  0  0  0  0  0  0  0
  151.5710  133.6786  154.2041 H   0  0  0  0  0  0  0  0  0  0  0  0
  152.0532  137.7371  156.2185 H   0  0  0  0  0  0  0  0  0  0  0  0
  155.6261  137.0114  158.8607 H   0  0  0  0  0  0  0  0  0  0  0  0
  155.0915  136.9467  160.5457 H   0  0  0  0  0  0  0  0  0  0  0  0
  154.9891  138.4658  159.6431 H   0  0  0  0  0  0  0  0  0  0  0  0
  1  2  1  0  0  0  0
  1 30  1  0  0  0  0
  1 31  1  0  0  0  0
  1 32  1  0  0  0  0
  2  3  2  0  0  0  0
  2  4  1  0  0  0  0
  4  5  1  0  0  0  0
  5  6  1  0  0  0  0
  5 33  1  0  0  0  0
  5 34  1  0  0  0  0
  6 25  1  0  0  0  0
  6  7  1  0  0  0  0
  6 35  1  0  0  0  0
  7  8  1  0  0  0  0
  8  9  1  0  0  0  0
  8 20  1  0  0  0  0
  8 36  1  0  0  0  0
  9 19  1  0  0  0  0
  9 10  1  0  0  0  0
 10 11  1  0  0  0  0
 10 12  2  0  0  0  0
 12 13  1  0  0  0  0
 13 19  2  0  0  0  0
 13 14  1  0  0  0  0
 14 15  1  0  0  0  0
 14 16  2  0  0  0  0
 15 37  1  0  0  0  0
 15 38  1  0  0  0  0
 16 17  1  0  0  0  0
 17 18  2  0  0  0  0
 17 39  1  0  0  0  0
 18 19  1  0  0  0  0
 20 21  1  0  0  0  0
 20 25  1  0  0  0  0
 20 40  1  0  0  0  0
 21 22  1  0  0  0  0
 22 23  1  0  0  0  0
 22 24  2  0  0  0  0
 23 41  1  0  0  0  0
 23 42  1  0  0  0  0
 23 43  1  0  0  0  0
 25 26  1  0  0  0  0
 25 44  1  0  0  0  0
 26 27  1  0  0  0  0
 27 28  1  0  0  0  0
 27 29  2  0  0  0  0
 28 45  1  0  0  0  0
 28 46  1  0  0  0  0
 28 47  1  0  0  0  0
M  END
> <s_m_source_file>
AV-unprocessed.smi

> <i_m_source_file_index>
104

> <i_lp_mmshare_version>
43012

> <i_f3d_flags>
0

> <s_epik_input>
W0NIM11DKD1PKU9bQ0gyXVtDQEBIXTFPW0NASF0oW0NAQEhdKE9DKD1PKVtDSDNdKVtDQEhdMU9DKD1PKVtDSDNdKW4oYyhCciluMiljKGMyMyluW2NIXW5jM1tOSDJd

> <s_epik_cmdline>
J2VwaWtfcHl0aG9uJywgJy1waCcsICc3LjAnLCAnLXRuJywgJzgnLCAnLW1hJywgJzIwMCcsICctbWV0YWxfYmluZGluZycsICctaW1hZScsICc8aW5maWxlLm1hZT4nLCAnLW9tYWUnLCAnPG91dGZpbGUubWFlPic=

> <r_lp_tautomer_probability>
1

> <r_epik_Ionization_Penalty>
7.36622e-05

> <r_epik_Ionization_Penalty_Charging>
0

> <r_epik_Ionization_Penalty_Neutral>
7.36622e-05

> <r_epik_State_Penalty>
-0

> <r_epik_Charging_Adjusted_Penalty>
0

> <i_epik_Tot_Q>
0

> <i_epik_Tot_abs_Q>
0

> <r_epik_Metal_State_Penalty>
-0

> <b_epik_Metal_Only>
0

> <s_epik_Chemistry_Notes>
This compound has an ester and may undergo hydrolysis at high or low pH. This compound contains an acetal/aminal-like group ( X-CH(R)-Y where X, Y are N, S, or O) that may be acid/base labile, releasing an aldehyde.

> <s_lp_Force_Field>
OPLS_2005

> <r_lp_Energy>
20.7491

> <b_lp_Chiralities_Consistent>
1

> <s_lp_Variant>
AV-unprocessed.smi:104-9

> <Gold.Version>
5.8.1

> <Gold.Id.Protein>
6NUR|6NUR_protein|mol2

> <Gold.PLP.Fitness>
37.8860

> <Gold.PLP.PLP>
-27.9492

> <Gold.PLP.part.hbond>
-3.3163

> <Gold.PLP.part.metal>
0.0000

> <Gold.PLP.part.buried>
-5.6500

> <Gold.PLP.part.nonpolar>
-18.8413

> <Gold.PLP.part.repulsive>
0.1970

> <Gold.PLP.ligand.clash>
0.0000

> <Gold.PLP.ligand.torsion>
0.5571

> <Gold.PLP.Chemscore.Hbond>
2.6228

> <Gold.PLP.Chemscore.CHOScore>
0.9372

> <Gold.PLP.Chemscore.Metal>
0.0000

> <Gold.Chemscore.Hbonds>
donor molecule, donor type, donor heavy atom, donor atom, acceptor molecule, acceptor atom, score
      L1  H    15    38       P1 10175  0.41
      P1  H  6896  6907       L1    29  1.00
      P1  H 10752 10763       L1    24  0.59
      L1  C    17    39       P1  7957  0.57

> <Gold.PLP.Chemscore.Internal.Correction>
0.3713

> <Gold.Rescore>
     Score         DG    S(hbond)    S(metal)    S(lipo)     H(rot)  DE(clash)    DE(int)     intcor
      6.51      -8.84       2.91        0.00      39.74       4.31       0.11       2.22       ----

> <Gold.Chemscore.Fitness>
6.5082

> <Gold.Chemscore.DG>
-8.8370

> <Gold.Chemscore.ZeroCoef>
-5.4800

> <Gold.Chemscore.Hbond>
2.9140

> <Gold.Chemscore.Metal>
0.0000

> <Gold.Chemscore.Lipo>
39.7445

> <Gold.Chemscore.Internal_Hbond>
0.0000

> <Gold.Chemscore.DEClash>
0.1103

> <Gold.Chemscore.DEInternal>
2.2185

> <Gold.Chemscore.Rot>
4.3070

> <Gold.Chemscore.Internal.Correction>
   9.000000E+99

> <Gold.Chemscore.Hbonds>
donor molecule, donor type, donor heavy atom, donor atom, acceptor molecule, acceptor atom, score
      L1  H    15    38       P1 10175  0.41
      P1  H  6896  6907       L1    29  0.99
      P1  H 10752 10763       L1    24  0.10

> <Gold.Chemscore.Hbond.Weighted>
-9.7327

> <Gold.Chemscore.Metal.Weighted>
-0.0000

> <Gold.Chemscore.Lipo.Weighted>
-4.6501

> <Gold.Chemscore.Internal_Hbond.Weighted>
0.0000

> <Gold.Chemscore.DEClash.Weighted>
0.1103

> <Gold.Chemscore.DEInternal.Weighted>
2.2185

> <Gold.Chemscore.Rot.Weighted>
11.0259

> <Gold.Chemscore.Internal.Correction.Weighted>
   9.000000E+99

> <Gold.Protein.RotatedTorsions>
[ 6907 6896 6895 6894 ] final   10.04 input  -60.11 | X-H torsion
[ 7974 7965 7964 7962 ] final   12.13 input  175.53 | X-H torsion
[ 8008 7997 7996 7995 ] final   -7.92 input   59.86 | X-H torsion
[ 10167 10162 10161 10158 ] final  -69.86 input  -65.29 | X-H torsion
[ 10718 10713 10712 10709 ] final -126.63 input   66.30 | X-H torsion
[ 10763 10752 10751 10750 ] final  100.49 input  -60.55 | X-H torsion
[ 11005 11000 10999 10996 ] final  -26.85 input  -57.11 | X-H torsion

> <Gold.Protein.ActiveResidues>
 VAL166  LYS551  ARG553  GLY616  TRP617  ASP618  TYR619  PRO620  LYS621  CYS622 
 ASP623  PHE694  ASN695  SER759  ASP760  ASP761  ALA762  ILE779  LEU786  VAL792 
 PHE793  MET794  SER795  GLU796  ALA797  LYS798  CYS799  TRP800  GLU811  SER814 

> <Gold.Protein.RotatedAtoms>
  151.7318  135.0873  160.0301 H   0  0  0  0  0  0  0  0  0  0  0  0  # atno 6907 bound_to 6896
  152.3536  133.6205  159.5971 H   0  0  0  0  0  0  0  0  0  0  0  0  # atno 6908 bound_to 6896
  150.7556  133.9452  159.3510 H   0  0  0  0  0  0  0  0  0  0  0  0  # atno 6909 bound_to 6896
  146.2357  139.9383  142.8487 H   0  0  0  0  0  0  0  0  0  0  0  0  # atno 7974 bound_to 7965
  154.5791  140.2394  155.8080 H   0  0  0  0  0  0  0  0  0  0  0  0  # atno 8008 bound_to 7997
  156.2165  140.3010  155.9809 H   0  0  0  0  0  0  0  0  0  0  0  0  # atno 8009 bound_to 7997
  155.2573  140.0413  157.2984 H   0  0  0  0  0  0  0  0  0  0  0  0  # atno 8010 bound_to 7997
  140.5397  143.2315  151.7111 H   0  0  0  0  0  0  0  0  0  0  0  0  # atno 10167 bound_to 10162
  156.1783  130.6714  151.0271 H   0  0  0  0  0  0  0  0  0  0  0  0  # atno 10718 bound_to 10713
  153.3146  135.4077  155.1365 H   0  0  0  0  0  0  0  0  0  0  0  0  # atno 10763 bound_to 10752
  154.8585  135.3573  154.5678 H   0  0  0  0  0  0  0  0  0  0  0  0  # atno 10764 bound_to 10752
  153.6108  135.7068  153.5406 H   0  0  0  0  0  0  0  0  0  0  0  0  # atno 10765 bound_to 10752
  140.9067  133.7488  156.0615 H   0  0  0  0  0  0  0  0  0  0  0  0  # atno 11005 bound_to 11000
  145.1978  140.9841  143.4173 LP  0  0  0  0  0  0  0  0  0  0  0  0  # atno 17320 bound_to 7965
  144.9800  139.3792  143.6266 LP  0  0  0  0  0  0  0  0  0  0  0  0  # atno 17321 bound_to 7965
  139.4984  144.3987  152.0204 LP  0  0  0  0  0  0  0  0  0  0  0  0  # atno 17342 bound_to 10162
  140.3095  144.3554  150.6038 LP  0  0  0  0  0  0  0  0  0  0  0  0  # atno 17343 bound_to 10162
  157.6851  131.0827  150.7266 LP  0  0  0  0  0  0  0  0  0  0  0  0  # atno 17370 bound_to 10713
  156.7323  130.4713  149.5496 LP  0  0  0  0  0  0  0  0  0  0  0  0  # atno 17371 bound_to 10713
  140.8162  134.3342  157.5396 LP  0  0  0  0  0  0  0  0  0  0  0  0  # atno 17394 bound_to 11000
  139.8750  134.9283  156.3447 LP  0  0  0  0  0  0  0  0  0  0  0  0  # atno 17395 bound_to 11000

$$$$
