AV-unprocessed.smi:1|AV-procd|sdf|20|dock1
  -GOLD-   2262015123D 1   1.00000     0.00000
 Structure written by MMmdl.
 56 61  0  0  0  0  0  0  0  0  2 V2000
  152.8579  139.8951  158.4322 O   0  0  0  0  0  0  0  0  0  0  0  0
  152.2547  140.9103  158.0776 C   0  0  0  0  0  0  0  0  0  0  0  0
  151.7033  141.1703  156.8649 N   0  5  0  0  0  0  0  0  0  0  0  0
  150.8839  140.2700  156.3000 C   0  0  0  0  0  0  0  0  0  0  0  0
  150.4247  140.4584  155.0367 N   0  0  0  0  0  0  0  0  0  0  0  0
  149.6133  139.5577  154.4712 C   0  0  0  0  0  0  0  0  0  0  0  0
  149.1419  138.4157  154.9805 N   0  0  0  0  0  0  0  0  0  0  0  0
  149.5852  138.2187  156.2561 C   0  0  0  0  0  0  0  0  0  0  0  0
  150.4457  139.0981  156.9764 C   0  0  0  0  0  0  0  0  0  0  0  0
  150.6991  138.6070  158.2479 N   0  0  0  0  0  0  0  0  0  0  0  0
  150.0015  137.4738  158.2417 C   0  0  0  0  0  0  0  0  0  0  0  0
  149.3281  137.1619  157.1164 N   0  0  0  0  0  0  0  0  0  0  0  0
  148.4827  135.9510  156.8830 C   0  0  1  0  0  0  0  0  0  0  0  0
  148.9817  135.2454  155.7854 O   0  0  0  0  0  0  0  0  0  0  0  0
  149.4472  133.9587  156.1841 C   0  0  2  0  0  0  0  0  0  0  0  0
  149.2954  132.9419  155.0474 C   0  0  0  0  0  0  0  0  0  0  0  0
  148.1084  133.2361  154.3303 O   0  0  0  0  0  0  0  0  0  0  0  0
  147.6708  132.3994  153.3712 C   0  0  0  0  0  0  0  0  0  0  0  0
  148.0240  131.2219  153.2798 O   0  0  0  0  0  0  0  0  0  0  0  0
  146.7135  133.0491  152.4301 C   0  0  0  0  0  0  0  0  0  0  0  0
  146.1325  132.2827  151.3930 C   0  0  0  0  0  0  0  0  0  0  0  0
  145.2237  132.8688  150.4907 C   0  0  0  0  0  0  0  0  0  0  0  0
  144.8847  134.2286  150.6142 C   0  0  0  0  0  0  0  0  0  0  0  0
  145.4562  135.0021  151.6412 C   0  0  0  0  0  0  0  0  0  0  0  0
  146.3651  134.4178  152.5447 C   0  0  0  0  0  0  0  0  0  0  0  0
  148.6327  133.6408  157.4362 C   0  0  2  0  0  0  0  0  0  0  0  0
  147.3378  133.1665  157.1049 O   0  0  0  0  0  0  0  0  0  0  0  0
  146.2310  133.9132  158.1091 S   0  0  0  0  0  0  0  0  0  0  0  0
  145.2417  134.6055  157.2692 O   0  0  0  0  0  0  0  0  0  0  0  0
  145.8496  132.9629  159.1648 O   0  0  0  0  0  0  0  0  0  0  0  0
  147.2451  135.0595  158.7806 O   0  0  0  0  0  0  0  0  0  0  0  0
  148.4864  135.0129  158.1000 C   0  0  2  0  0  0  0  0  0  0  0  0
  152.1374  142.0587  159.0435 C   0  0  0  0  0  0  0  0  0  0  0  0
  151.7545  143.3347  158.5708 C   0  0  0  0  0  0  0  0  0  0  0  0
  151.6657  144.4287  159.4537 C   0  0  0  0  0  0  0  0  0  0  0  0
  151.9688  144.2605  160.8178 C   0  0  0  0  0  0  0  0  0  0  0  0
  152.3641  142.9979  161.2976 C   0  0  0  0  0  0  0  0  0  0  0  0
  152.4527  141.9032  160.4155 C   0  0  0  0  0  0  0  0  0  0  0  0
  149.2986  139.7833  153.4633 H   0  0  0  0  0  0  0  0  0  0  0  0
  149.9833  136.8287  159.1077 H   0  0  0  0  0  0  0  0  0  0  0  0
  147.4937  136.3417  156.6397 H   0  0  0  0  0  0  0  0  0  0  0  0
  150.4969  134.0324  156.4668 H   0  0  0  0  0  0  0  0  0  0  0  0
  150.1465  133.0149  154.3690 H   0  0  0  0  0  0  0  0  0  0  0  0
  149.2689  131.9240  155.4389 H   0  0  0  0  0  0  0  0  0  0  0  0
  146.3774  131.2367  151.2789 H   0  0  0  0  0  0  0  0  0  0  0  0
  144.7866  132.2734  149.7028 H   0  0  0  0  0  0  0  0  0  0  0  0
  144.1876  134.6776  149.9222 H   0  0  0  0  0  0  0  0  0  0  0  0
  145.1968  136.0461  151.7382 H   0  0  0  0  0  0  0  0  0  0  0  0
  146.7842  135.0399  153.3220 H   0  0  0  0  0  0  0  0  0  0  0  0
  149.1252  132.9139  158.0827 H   0  0  0  0  0  0  0  0  0  0  0  0
  149.3243  135.2270  158.7642 H   0  0  0  0  0  0  0  0  0  0  0  0
  151.5209  143.4810  157.5261 H   0  0  0  0  0  0  0  0  0  0  0  0
  151.3664  145.3977  159.0826 H   0  0  0  0  0  0  0  0  0  0  0  0
  151.9019  145.0993  161.4944 H   0  0  0  0  0  0  0  0  0  0  0  0
  152.6039  142.8682  162.3426 H   0  0  0  0  0  0  0  0  0  0  0  0
  152.7690  140.9450  160.8019 H   0  0  0  0  0  0  0  0  0  0  0  0
  1  2  2  0  0  0  0
  2  3  1  0  0  0  0
  2 33  1  0  0  0  0
  3  4  1  0  0  0  0
  4  9  1  0  0  0  0
  4  5  2  0  0  0  0
  5  6  1  0  0  0  0
  6  7  2  0  0  0  0
  6 39  1  0  0  0  0
  7  8  1  0  0  0  0
  8 12  1  0  0  0  0
  8  9  2  0  0  0  0
  9 10  1  0  0  0  0
 10 11  2  0  0  0  0
 11 12  1  0  0  0  0
 11 40  1  0  0  0  0
 12 13  1  0  0  0  0
 13 32  1  0  0  0  0
 13 14  1  0  0  0  0
 13 41  1  0  0  0  0
 14 15  1  0  0  0  0
 15 16  1  0  0  0  0
 15 26  1  0  0  0  0
 15 42  1  0  0  0  0
 16 17  1  0  0  0  0
 16 43  1  0  0  0  0
 16 44  1  0  0  0  0
 17 18  1  0  0  0  0
 18 19  2  0  0  0  0
 18 20  1  0  0  0  0
 20 25  1  0  0  0  0
 20 21  2  0  0  0  0
 21 22  1  0  0  0  0
 21 45  1  0  0  0  0
 22 23  2  0  0  0  0
 22 46  1  0  0  0  0
 23 24  1  0  0  0  0
 23 47  1  0  0  0  0
 24 25  2  0  0  0  0
 24 48  1  0  0  0  0
 25 49  1  0  0  0  0
 26 32  1  0  0  0  0
 26 27  1  0  0  0  0
 26 50  1  0  0  0  0
 27 28  1  0  0  0  0
 28 29  2  0  0  0  0
 28 30  2  0  0  0  0
 28 31  1  0  0  0  0
 31 32  1  0  0  0  0
 32 51  1  0  0  0  0
 33 38  1  0  0  0  0
 33 34  2  0  0  0  0
 34 35  1  0  0  0  0
 34 52  1  0  0  0  0
 35 36  2  0  0  0  0
 35 53  1  0  0  0  0
 36 37  1  0  0  0  0
 36 54  1  0  0  0  0
 37 38  2  0  0  0  0
 37 55  1  0  0  0  0
 38 56  1  0  0  0  0
M  CHG  1   3  -1
M  END
> <s_m_source_file>
AV-unprocessed.smi

> <i_m_source_file_index>
1

> <i_lp_mmshare_version>
43012

> <i_f3d_flags>
0

> <s_epik_input>
W2NIXTFbY0hdW2NIXVtjSF1bY0hdYzFDKD1PKVtOSF1jKG5bY0hdbjIpYyhjMjMpbltjSF1uM1tDQEBIXShbQ0BIXShbQ0BIXTQ1KU9TKE81KSg9Tyk9TylPW0NASF00W0NIMl1PQyg9TyljNltjSF1bY0hdW2NIXVtjSF1bY0hdNg==

> <s_epik_cmdline>
J2VwaWtfcHl0aG9uJywgJy1waCcsICc3LjAnLCAnLXRuJywgJzgnLCAnLW1hJywgJzIwMCcsICctbWV0YWxfYmluZGluZycsICctaW1hZScsICc8aW5maWxlLm1hZT4nLCAnLW9tYWUnLCAnPG91dGZpbGUubWFlPic=

> <r_lp_tautomer_probability>
1

> <r_epik_Ionization_Penalty>
4.39121

> <r_epik_Ionization_Penalty_Charging>
3.39398

> <r_epik_Ionization_Penalty_Neutral>
0.997232

> <r_epik_State_Penalty>
3.39839

> <r_epik_Charging_Adjusted_Penalty>
6.79237

> <i_epik_Tot_Q>
-1

> <i_epik_Tot_abs_Q>
1

> <r_epik_Metal_State_Penalty>
0.497663

> <b_epik_Metal_Only>
1

> <s_epik_Chemistry_Notes>
This compound has an ester and may undergo hydrolysis at high or low pH. This compound contains an acetal/aminal-like group ( X-CH(R)-Y where X, Y are N, S, or O) that may be acid/base labile, releasing an aldehyde.

> <s_lp_Force_Field>
OPLS_2005

> <r_lp_Energy>
42.8802

> <b_lp_Chiralities_Consistent>
1

> <s_lp_Variant>
AV-unprocessed.smi:1-20

> <Gold.Version>
5.8.1

> <Gold.Id.Protein>
6NUR|6NUR_protein|mol2

> <Gold.PLP.Fitness>
57.4278

> <Gold.PLP.PLP>
-49.9014

> <Gold.PLP.part.hbond>
-2.0000

> <Gold.PLP.part.metal>
0.0000

> <Gold.PLP.part.buried>
-5.3669

> <Gold.PLP.part.nonpolar>
-42.4250

> <Gold.PLP.part.repulsive>
0.8667

> <Gold.PLP.ligand.clash>
0.0000

> <Gold.PLP.ligand.torsion>
1.0427

> <Gold.PLP.Chemscore.Hbond>
1.9920

> <Gold.PLP.Chemscore.CHOScore>
1.0000

> <Gold.PLP.Chemscore.Metal>
0.0000

> <Gold.Chemscore.Hbonds>
donor molecule, donor type, donor heavy atom, donor atom, acceptor molecule, acceptor atom, score
      P1  H  7989  7998       L1     5  1.00
      P1  H  7997  8010       L1     1  0.44
      L1  C     6    39       P1  7957  1.00

> <Gold.PLP.Chemscore.Internal.Correction>
0.6358

> <Gold.Rescore>
     Score         DG    S(hbond)    S(metal)    S(lipo)     H(rot)  DE(clash)    DE(int)     intcor
     12.06     -18.75       1.42        0.00     119.13       2.11       0.13       6.57       ----

> <Gold.Chemscore.Fitness>
12.0567

> <Gold.Chemscore.DG>
-18.7513

> <Gold.Chemscore.ZeroCoef>
-5.4800

> <Gold.Chemscore.Hbond>
1.4204

> <Gold.Chemscore.Metal>
0.0000

> <Gold.Chemscore.Lipo>
119.1284

> <Gold.Chemscore.Internal_Hbond>
0.0000

> <Gold.Chemscore.DEClash>
0.1271

> <Gold.Chemscore.DEInternal>
6.5675

> <Gold.Chemscore.Rot>
2.1136

> <Gold.Chemscore.Internal.Correction>
   9.000000E+99

> <Gold.Chemscore.Hbonds>
donor molecule, donor type, donor heavy atom, donor atom, acceptor molecule, acceptor atom, score
      P1  H  7989  7998       L1     5  0.27
      P1  H  7997  8010       L1     1  0.09

> <Gold.Chemscore.Hbond.Weighted>
-4.7440

> <Gold.Chemscore.Metal.Weighted>
-0.0000

> <Gold.Chemscore.Lipo.Weighted>
-13.9380

> <Gold.Chemscore.Internal_Hbond.Weighted>
0.0000

> <Gold.Chemscore.DEClash.Weighted>
0.1271

> <Gold.Chemscore.DEInternal.Weighted>
6.5675

> <Gold.Chemscore.Rot.Weighted>
5.4107

> <Gold.Chemscore.Internal.Correction.Weighted>
   9.000000E+99

> <Gold.Protein.RotatedTorsions>
[ 6907 6896 6895 6894 ] final   69.92 input  -60.11 | X-H torsion
[ 7974 7965 7964 7962 ] final -174.03 input  175.53 | X-H torsion
[ 8008 7997 7996 7995 ] final   35.88 input   59.86 | X-H torsion
[ 10167 10162 10161 10158 ] final  -98.62 input  -65.29 | X-H torsion
[ 10718 10713 10712 10709 ] final  129.16 input   66.30 | X-H torsion
[ 10763 10752 10751 10750 ] final  -84.85 input  -60.55 | X-H torsion
[ 11005 11000 10999 10996 ] final  161.47 input  -57.11 | X-H torsion

> <Gold.Protein.ActiveResidues>
 VAL166  LYS551  ARG553  GLY616  TRP617  ASP618  TYR619  PRO620  LYS621  CYS622 
 ASP623  PHE694  ASN695  SER759  ASP760  ASP761  ALA762  ILE779  LEU786  VAL792 
 PHE793  MET794  SER795  GLU796  ALA797  LYS798  CYS799  TRP800  GLU811  SER814 

> <Gold.Protein.RotatedAtoms>
  152.4717  134.4945  159.9705 H   0  0  0  0  0  0  0  0  0  0  0  0  # atno 6907 bound_to 6896
  151.4970  133.3506  159.2870 H   0  0  0  0  0  0  0  0  0  0  0  0  # atno 6908 bound_to 6896
  150.8730  134.8135  159.7231 H   0  0  0  0  0  0  0  0  0  0  0  0  # atno 6909 bound_to 6896
  144.7134  140.1533  143.6382 H   0  0  0  0  0  0  0  0  0  0  0  0  # atno 7974 bound_to 7965
  155.1782  140.3297  155.4380 H   0  0  0  0  0  0  0  0  0  0  0  0  # atno 8008 bound_to 7997
  156.2486  140.1931  156.6832 H   0  0  0  0  0  0  0  0  0  0  0  0  # atno 8009 bound_to 7997
  154.6289  140.0585  156.9694 H   0  0  0  0  0  0  0  0  0  0  0  0  # atno 8010 bound_to 7997
  140.2711  143.3344  152.0534 H   0  0  0  0  0  0  0  0  0  0  0  0  # atno 10167 bound_to 10162
  157.5179  131.1098  150.9197 H   0  0  0  0  0  0  0  0  0  0  0  0  # atno 10718 bound_to 10713
  154.6042  135.5506  153.7406 H   0  0  0  0  0  0  0  0  0  0  0  0  # atno 10763 bound_to 10752
  153.0167  135.6374  154.1670 H   0  0  0  0  0  0  0  0  0  0  0  0  # atno 10764 bound_to 10752
  154.1610  135.2897  155.3089 H   0  0  0  0  0  0  0  0  0  0  0  0  # atno 10765 bound_to 10752
  140.2161  134.8231  157.3172 H   0  0  0  0  0  0  0  0  0  0  0  0  # atno 11005 bound_to 11000
  145.9096  139.2479  143.1445 LP  0  0  0  0  0  0  0  0  0  0  0  0  # atno 17320 bound_to 7965
  145.9729  140.8745  143.0153 LP  0  0  0  0  0  0  0  0  0  0  0  0  # atno 17321 bound_to 7965
  139.4989  144.6656  151.6364 LP  0  0  0  0  0  0  0  0  0  0  0  0  # atno 17342 bound_to 10162
  140.5889  143.9815  150.6312 LP  0  0  0  0  0  0  0  0  0  0  0  0  # atno 17343 bound_to 10162
  156.9817  130.5529  149.5297 LP  0  0  0  0  0  0  0  0  0  0  0  0  # atno 17370 bound_to 10713
  156.0333  130.5423  150.8590 LP  0  0  0  0  0  0  0  0  0  0  0  0  # atno 17371 bound_to 10713
  140.1899  134.4385  155.7722 LP  0  0  0  0  0  0  0  0  0  0  0  0  # atno 17394 bound_to 11000
  141.2225  133.7022  156.8009 LP  0  0  0  0  0  0  0  0  0  0  0  0  # atno 17395 bound_to 11000

$$$$
