#       Name:                AV-unprocessed.smi:526
#       Creating user name   scv26
#       Creation time:       Thu Mar 26 23:29:08 2020


#       File generated by GOLD software.
#

@<TRIPOS>MOLECULE
AV-unprocessed.smi:526
    37    37     1
SMALL
NO_CHARGES


@<TRIPOS>ATOM
      1 ****        -3.8038   3.2547  -1.0405 C.2            1 S1                 0.0000
      2 ****        -3.6325   1.9702  -0.6865 C.2            1 S1                 0.0000
      3 ****        -4.7852   0.9844  -0.6560 C.3            1 S1                 0.0000
      4 ****        -2.2748   1.4178  -0.2939 C.3            1 S1                 0.0000
      5 ****        -1.6021   0.2768  -1.5358 S.3            1 S1                 0.0000
      6 ****        -0.0193  -0.1838  -0.7739 C.2            1 S1                 0.0000
      7 ****         0.4925   0.2058   0.3494 N.2            1 S1                 0.0000
      8 ****         1.7403  -0.2814   0.7581 C.2            1 S1                 0.0000
      9 ****         2.2429   0.2359   2.0946 C.3            1 S1                 0.0000
     10 ****         2.4441  -1.1640  -0.0057 C.2            1 S1                 0.0000
     11 ****         3.8070  -1.7221   0.4086 C.3            1 S1                 0.0000
     12 ****         3.7474  -2.9063   1.3811 C.2            1 S1                 0.0000
     13 ****         4.8224  -3.2290   1.9317 O.co2          1 S1                 0.0000
     14 ****         2.6466  -3.4736   1.5613 O.co2          1 S1                -1.0000
     15 ****         1.8746  -1.6091  -1.2889 C.2            1 S1                 0.0000
     16 ****         2.4186  -2.3971  -2.0612 O.2            1 S1                 0.0000
     17 ****         0.6660  -1.0846  -1.5900 N.am           1 S1                 0.0000
     18 ****         0.2391  -1.3674  -2.4599 H              1 S1                 0.0000
     19 ****        -4.7759   3.6351  -1.3180 H              1 S1                 0.0000
     20 ****        -2.9743   3.9464  -1.0592 H              1 S1                 0.0000
     21 ****        -4.9014   0.5696   0.3455 H              1 S1                 0.0000
     22 ****        -4.6071   0.1626  -1.3496 H              1 S1                 0.0000
     23 ****        -5.7247   1.4630  -0.9350 H              1 S1                 0.0000
     24 ****        -1.5674   2.2367  -0.1566 H              1 S1                 0.0000
     25 ****        -2.3590   0.9052   0.6649 H              1 S1                 0.0000
     26 ****         3.1599   0.8102   1.9616 H              1 S1                 0.0000
     27 ****         2.4464  -0.5916   2.7746 H              1 S1                 0.0000
     28 ****         1.5072   0.8851   2.5708 H              1 S1                 0.0000
     29 ****         4.3839  -2.0216  -0.4669 H              1 S1                 0.0000
     30 ****         4.3900  -0.9276   0.8743 H              1 S1                 0.0000
     31 ****        -0.0035   0.8552   0.9259 LP             1 S1                 0.0000
     32 ****         4.8451  -3.9958   2.5732 LP             1 S1                 0.0000
     33 ****         5.6595  -2.7203   1.7307 LP             1 S1                 0.0000
     34 ****         2.5810  -4.2503   2.1878 LP             1 S1                 0.0000
     35 ****         1.8325  -3.1502   1.0789 LP             1 S1                 0.0000
     36 ****         3.3125  -2.7834  -1.8338 LP             1 S1                 0.0000
     37 ****         1.9668  -2.6514  -2.9163 LP             1 S1                 0.0000
@<TRIPOS>BOND
    1    1    2 2     
    2    1   19 1     
    3    1   20 1     
    4    2    3 1     
    5    2    4 1     
    6    3   21 1     
    7    3   22 1     
    8    3   23 1     
    9    4    5 1     
   10    4   24 1     
   11    4   25 1     
   12    5    6 1     
   13    6   17 1     
   14    6    7 2     
   15    7    8 1     
   16    8    9 1     
   17    8   10 2     
   18    9   26 1     
   19    9   27 1     
   20    9   28 1     
   21   10   11 1     
   22   10   15 1     
   23   11   12 1     
   24   11   29 1     
   25   11   30 1     
   26   12   13 ar    
   27   12   14 ar    
   28   15   16 2     
   29   15   17 am    
   30   17   18 1     
   31    7   31 1     
   32   13   32 1     
   33   13   33 1     
   34   14   34 1     
   35   14   35 1     
   36   16   36 1     
   37   16   37 1     
@<TRIPOS>SUBSTRUCTURE
      1 S1             1
@<TRIPOS>SET
LONE_PAIRS      STATIC     ATOMS    <user>   **** ""
7 31 32 33 34 35 36 37
DONOR_HYDROGENS      STATIC     ATOMS    <user>   **** ""
1 18
ATOM$BLUE        STATIC     ATOMS    COLORGROUP SYSTEM
7 31 32 33 34 35 36 37
ATOM$RED        STATIC     ATOMS    COLORGROUP SYSTEM
1 18
