AV-unprocessed.smi:2353|AV-procd|sdf|9383|dock1
  -GOLD-   2272013 13D 1   1.00000     0.00000
 Structure written by MMmdl.
 46 48  0  0  0  0  0  0  0  0  2 V2000
  149.0875  142.3418  157.3877 C   0  0  0  0  0  0  0  0  0  0  0  0
  150.2097  141.3449  157.5930 C   0  0  0  0  0  0  0  0  0  0  0  0
  151.3054  141.6698  158.4155 C   0  0  0  0  0  0  0  0  0  0  0  0
  152.3449  140.7407  158.5999 C   0  0  0  0  0  0  0  0  0  0  0  0
  152.2962  139.4829  157.9639 C   0  0  0  0  0  0  0  0  0  0  0  0
  153.4263  138.4929  158.1760 C   0  0  0  0  0  0  0  0  0  0  0  0
  151.2019  139.1434  157.1348 C   0  0  0  0  0  0  0  0  0  0  0  0
  151.2165  137.8968  156.5435 O   0  0  0  0  0  0  0  0  0  0  0  0
  150.0413  137.4402  155.8869 C   0  0  0  0  0  0  0  0  0  0  0  0
  150.3370  136.0731  155.2458 C   0  0  1  0  0  0  0  0  0  0  0  0
  151.3036  136.2930  154.2372 O   0  0  0  0  0  0  0  0  0  0  0  0
  150.9236  135.0681  156.2626 C   0  0  0  0  0  0  0  0  0  0  0  0
  150.4895  133.6936  155.9826 N   0  0  0  0  0  0  0  0  0  0  0  0
  149.5076  133.5986  155.0116 N   0  0  0  0  0  0  0  0  0  0  0  0
  149.0370  132.4503  154.6477 C   0  0  0  0  0  0  0  0  0  0  0  0
  148.0070  132.3597  153.6244 N   0  0  0  0  0  0  0  0  0  0  0  0
  147.5536  133.3703  152.8125 C   0  0  0  0  0  0  0  0  0  0  0  0
  146.5864  132.8192  152.0123 C   0  0  0  0  0  0  0  0  0  0  0  0
  146.4905  131.5001  152.3686 N   0  3  0  0  0  0  0  0  0  0  0  0
  147.3547  131.2171  153.3501 C   0  0  0  0  0  0  0  0  0  0  0  0
  149.5465  131.2331  155.2704 C   0  0  0  0  0  0  0  0  0  0  0  0
  150.5067  131.3375  156.2143 C   0  0  0  0  0  0  0  0  0  0  0  0
  151.0495  132.6296  156.6283 C   0  0  0  0  0  0  0  0  0  0  0  0
  151.9337  132.7477  157.4753 O   0  0  0  0  0  0  0  0  0  0  0  0
  150.1599  140.0889  156.9551 C   0  0  0  0  0  0  0  0  0  0  0  0
  149.0956  143.1102  158.1614 H   0  0  0  0  0  0  0  0  0  0  0  0
  148.1195  141.8410  157.4198 H   0  0  0  0  0  0  0  0  0  0  0  0
  149.1909  142.8295  156.4182 H   0  0  0  0  0  0  0  0  0  0  0  0
  151.3534  142.6306  158.9069 H   0  0  0  0  0  0  0  0  0  0  0  0
  153.1809  140.9988  159.2332 H   0  0  0  0  0  0  0  0  0  0  0  0
  153.0618  137.6139  158.7078 H   0  0  0  0  0  0  0  0  0  0  0  0
  154.2369  138.9309  158.7586 H   0  0  0  0  0  0  0  0  0  0  0  0
  153.8350  138.1707  157.2180 H   0  0  0  0  0  0  0  0  0  0  0  0
  149.1930  137.3754  156.5709 H   0  0  0  0  0  0  0  0  0  0  0  0
  149.7891  138.1627  155.1090 H   0  0  0  0  0  0  0  0  0  0  0  0
  149.4215  135.6731  154.8070 H   0  0  0  0  0  0  0  0  0  0  0  0
  150.9419  136.0207  153.4074 H   0  0  0  0  0  0  0  0  0  0  0  0
  152.0107  135.1521  156.3209 H   0  0  0  0  0  0  0  0  0  0  0  0
  150.5759  135.3212  157.2659 H   0  0  0  0  0  0  0  0  0  0  0  0
  147.9391  134.3790  152.8592 H   0  0  0  0  0  0  0  0  0  0  0  0
  145.9750  133.2554  151.2357 H   0  0  0  0  0  0  0  0  0  0  0  0
  147.4710  130.2500  153.8024 H   0  0  0  0  0  0  0  0  0  0  0  0
  149.1875  130.2522  155.0064 H   0  0  0  0  0  0  0  0  0  0  0  0
  150.8884  130.4398  156.6784 H   0  0  0  0  0  0  0  0  0  0  0  0
  149.3074  139.8722  156.3294 H   0  0  0  0  0  0  0  0  0  0  0  0
  145.8561  130.8313  151.9499 H   0  0  0  0  0  0  0  0  0  0  0  0
  1  2  1  0  0  0  0
  1 26  1  0  0  0  0
  1 27  1  0  0  0  0
  1 28  1  0  0  0  0
  2 25  1  0  0  0  0
  2  3  2  0  0  0  0
  3  4  1  0  0  0  0
  3 29  1  0  0  0  0
  4  5  2  0  0  0  0
  4 30  1  0  0  0  0
  5  6  1  0  0  0  0
  5  7  1  0  0  0  0
  6 31  1  0  0  0  0
  6 32  1  0  0  0  0
  6 33  1  0  0  0  0
  7  8  1  0  0  0  0
  7 25  2  0  0  0  0
  8  9  1  0  0  0  0
  9 10  1  0  0  0  0
  9 34  1  0  0  0  0
  9 35  1  0  0  0  0
 10 11  1  0  0  0  0
 10 12  1  0  0  0  0
 10 36  1  0  0  0  0
 11 37  1  0  0  0  0
 12 13  1  0  0  0  0
 12 38  1  0  0  0  0
 12 39  1  0  0  0  0
 13 23  1  0  0  0  0
 13 14  1  0  0  0  0
 14 15  2  0  0  0  0
 15 16  1  0  0  0  0
 15 21  1  0  0  0  0
 16 20  1  0  0  0  0
 16 17  1  0  0  0  0
 17 18  2  0  0  0  0
 17 40  1  0  0  0  0
 18 19  1  0  0  0  0
 18 41  1  0  0  0  0
 19 20  2  0  0  0  0
 19 46  1  0  0  0  0
 20 42  1  0  0  0  0
 21 22  2  0  0  0  0
 21 43  1  0  0  0  0
 22 23  1  0  0  0  0
 22 44  1  0  0  0  0
 23 24  2  0  0  0  0
 25 45  1  0  0  0  0
M  CHG  1  19   1
M  END
> <s_m_source_file>
AV-unprocessed.smi

> <i_m_source_file_index>
2353

> <i_lp_mmshare_version>
43012

> <i_f3d_flags>
0

> <s_epik_input>
W0NIM11jMVtjSF1bY0hdYyhbQ0gzXSljKFtjSF0xKU9bQ0gyXVtDQEhdKFtPSF0pW0NIMl1uMm5jKFtjSF1bY0hdYzI9TyktbjNbY0hdW2NIXW5bY0hdMw==

> <s_epik_cmdline>
J2VwaWtfcHl0aG9uJywgJy1waCcsICc3LjAnLCAnLXRuJywgJzgnLCAnLW1hJywgJzIwMCcsICctbWV0YWxfYmluZGluZycsICctaW1hZScsICc8aW5maWxlLm1hZT4nLCAnLW9tYWUnLCAnPG91dGZpbGUubWFlPic=

> <r_lp_tautomer_probability>
1

> <r_epik_Ionization_Penalty>
1.66053

> <r_epik_Ionization_Penalty_Charging>
2.43903e-09

> <r_epik_Ionization_Penalty_Neutral>
1.66053

> <r_epik_State_Penalty>
1.76336

> <r_epik_Charging_Adjusted_Penalty>
1.76336

> <i_epik_Tot_Q>
1

> <i_epik_Tot_abs_Q>
1

> <r_epik_Metal_State_Penalty>
1.79856

> <b_epik_Metal_Only>
0

> <s_lp_Force_Field>
OPLS_2005

> <r_lp_Energy>
39.4345

> <b_lp_Chiralities_Consistent>
1

> <s_lp_Variant>
AV-unprocessed.smi:2353-4

> <Gold.Version>
5.8.1

> <Gold.Id.Protein>
6NUR|6NUR_protein|mol2

> <Gold.PLP.Fitness>
47.7045

> <Gold.PLP.PLP>
-37.1723

> <Gold.PLP.part.hbond>
-4.0000

> <Gold.PLP.part.metal>
0.0000

> <Gold.PLP.part.buried>
-3.3052

> <Gold.PLP.part.nonpolar>
-29.2944

> <Gold.PLP.part.repulsive>
0.0753

> <Gold.PLP.ligand.clash>
0.0000

> <Gold.PLP.ligand.torsion>
0.7227

> <Gold.PLP.Chemscore.Hbond>
2.8960

> <Gold.PLP.Chemscore.CHOScore>
1.0000

> <Gold.PLP.Chemscore.Metal>
0.0000

> <Gold.Chemscore.Hbonds>
donor molecule, donor type, donor heavy atom, donor atom, acceptor molecule, acceptor atom, score
      L1  H    11    37       P1  7949  0.76
      P1  H  6896  6907       L1    24  0.93
      P1  H 10752 10765       L1    11  1.00
      L1  C    17    40       P1  7948  1.00

> <Gold.PLP.Chemscore.Internal.Correction>
0.2896

> <Gold.Rescore>
     Score         DG    S(hbond)    S(metal)    S(lipo)     H(rot)  DE(clash)    DE(int)     intcor
     13.74     -14.54       2.10        0.00      75.61       2.65       0.09       0.71       ----

> <Gold.Chemscore.Fitness>
13.7388

> <Gold.Chemscore.DG>
-14.5372

> <Gold.Chemscore.ZeroCoef>
-5.4800

> <Gold.Chemscore.Hbond>
2.0970

> <Gold.Chemscore.Metal>
0.0000

> <Gold.Chemscore.Lipo>
75.6145

> <Gold.Chemscore.Internal_Hbond>
0.0000

> <Gold.Chemscore.DEClash>
0.0918

> <Gold.Chemscore.DEInternal>
0.7067

> <Gold.Chemscore.Rot>
2.6537

> <Gold.Chemscore.Internal.Correction>
   9.000000E+99

> <Gold.Chemscore.Hbonds>
donor molecule, donor type, donor heavy atom, donor atom, acceptor molecule, acceptor atom, score
      L1  H    11    37       P1  7949  0.11
      P1  H  6896  6907       L1    24  0.89
      P1  H 10752 10765       L1    11  0.74

> <Gold.Chemscore.Hbond.Weighted>
-7.0039

> <Gold.Chemscore.Metal.Weighted>
-0.0000

> <Gold.Chemscore.Lipo.Weighted>
-8.8469

> <Gold.Chemscore.Internal_Hbond.Weighted>
0.0000

> <Gold.Chemscore.DEClash.Weighted>
0.0918

> <Gold.Chemscore.DEInternal.Weighted>
0.7067

> <Gold.Chemscore.Rot.Weighted>
6.7935

> <Gold.Chemscore.Internal.Correction.Weighted>
   9.000000E+99

> <Gold.Protein.RotatedTorsions>
[ 6907 6896 6895 6894 ] final  174.37 input  -60.11 | X-H torsion
[ 7974 7965 7964 7962 ] final   82.35 input  175.53 | X-H torsion
[ 8008 7997 7996 7995 ] final   -6.27 input   59.86 | X-H torsion
[ 10167 10162 10161 10158 ] final -121.20 input  -65.29 | X-H torsion
[ 10718 10713 10712 10709 ] final  178.05 input   66.30 | X-H torsion
[ 10763 10752 10751 10750 ] final  175.58 input  -60.55 | X-H torsion
[ 11005 11000 10999 10996 ] final -104.18 input  -57.11 | X-H torsion

> <Gold.Protein.ActiveResidues>
 VAL166  LYS551  ARG553  GLY616  TRP617  ASP618  TYR619  PRO620  LYS621  CYS622 
 ASP623  PHE694  ASN695  SER759  ASP760  ASP761  ALA762  ILE779  LEU786  VAL792 
 PHE793  MET794  SER795  GLU796  ALA797  LYS798  CYS799  TRP800  GLU811  SER814 

> <Gold.Protein.RotatedAtoms>
  151.7534  133.3329  159.3397 H   0  0  0  0  0  0  0  0  0  0  0  0  # atno 6907 bound_to 6896
  150.7526  134.6171  159.6126 H   0  0  0  0  0  0  0  0  0  0  0  0  # atno 6908 bound_to 6896
  152.3453  134.7081  160.0303 H   0  0  0  0  0  0  0  0  0  0  0  0  # atno 6909 bound_to 6896
  145.6262  139.2395  143.2110 H   0  0  0  0  0  0  0  0  0  0  0  0  # atno 7974 bound_to 7965
  154.5954  140.2437  155.7864 H   0  0  0  0  0  0  0  0  0  0  0  0  # atno 8008 bound_to 7997
  156.2276  140.2977  156.0059 H   0  0  0  0  0  0  0  0  0  0  0  0  # atno 8009 bound_to 7997
  155.2302  140.0403  157.2951 H   0  0  0  0  0  0  0  0  0  0  0  0  # atno 8010 bound_to 7997
  140.0276  143.5281  152.2192 H   0  0  0  0  0  0  0  0  0  0  0  0  # atno 10167 bound_to 10162
  156.8964  130.9864  151.3042 H   0  0  0  0  0  0  0  0  0  0  0  0  # atno 10718 bound_to 10713
  154.4696  135.2770  155.1653 H   0  0  0  0  0  0  0  0  0  0  0  0  # atno 10763 bound_to 10752
  154.3407  135.6170  153.5599 H   0  0  0  0  0  0  0  0  0  0  0  0  # atno 10764 bound_to 10752
  152.9863  135.5788  154.5074 H   0  0  0  0  0  0  0  0  0  0  0  0  # atno 10765 bound_to 10752
  141.1112  133.8702  157.1579 H   0  0  0  0  0  0  0  0  0  0  0  0  # atno 11005 bound_to 11000
  146.1392  140.7081  142.9375 LP  0  0  0  0  0  0  0  0  0  0  0  0  # atno 17320 bound_to 7965
  144.7211  140.4376  143.7007 LP  0  0  0  0  0  0  0  0  0  0  0  0  # atno 17321 bound_to 7965
  139.6098  144.7605  151.2979 LP  0  0  0  0  0  0  0  0  0  0  0  0  # atno 17342 bound_to 10162
  140.7316  143.6847  150.7971 LP  0  0  0  0  0  0  0  0  0  0  0  0  # atno 17343 bound_to 10162
  157.6053  130.8542  149.8865 LP  0  0  0  0  0  0  0  0  0  0  0  0  # atno 17370 bound_to 10713
  156.0604  130.3701  150.0996 LP  0  0  0  0  0  0  0  0  0  0  0  0  # atno 17371 bound_to 10713
  140.0007  135.0029  157.0183 LP  0  0  0  0  0  0  0  0  0  0  0  0  # atno 17394 bound_to 11000
  140.4770  134.1328  155.7211 LP  0  0  0  0  0  0  0  0  0  0  0  0  # atno 17395 bound_to 11000

$$$$
