AV-unprocessed.smi:1244|AV-procd|sdf|5236|dock4
  -GOLD-   22720 4343D 1   1.00000     0.00000
 Structure written by MMmdl.
 55 57  0  0  0  0  0  0  0  0  4 V2000
  147.4093  134.8518  162.4461 C   0  0  0  0  0  0  0  0  0  0  0  0
  147.3129  136.0192  161.4577 C   0  0  1  0  0  0  0  0  0  0  0  0
  148.5084  136.0590  160.4889 C   0  0  0  0  0  0  0  0  0  0  0  0
  148.3440  137.1646  159.5091 N   0  3  1  0  0  0  0  0  0  0  0  0
  149.4986  137.3271  158.5860 C   0  0  0  0  0  0  0  0  0  0  0  0
  150.8481  137.2292  159.3286 C   0  0  0  0  0  0  0  0  0  0  0  0
  151.8661  138.0348  158.6550 N   0  5  0  0  0  0  0  0  0  0  0  0
  152.1105  139.3475  158.9144 C   0  0  0  0  0  0  0  0  0  0  0  0
  152.6027  139.8380  159.9376 O   0  0  0  0  0  0  0  0  0  0  0  0
  151.7358  140.1435  157.8991 N   0  0  0  0  0  0  0  0  0  0  0  0
  151.7607  141.5636  157.8482 C   0  0  0  0  0  0  0  0  0  0  0  0
  152.6013  142.2996  158.7199 C   0  0  0  0  0  0  0  0  0  0  0  0
  152.6061  143.7061  158.6685 C   0  0  0  0  0  0  0  0  0  0  0  0
  151.7722  144.3541  157.7411 C   0  0  0  0  0  0  0  0  0  0  0  0
  150.9980  143.6235  156.9119 N   0  3  0  0  0  0  0  0  0  0  0  0
  150.9596  142.2671  156.9028 C   0  0  0  0  0  0  0  0  0  0  0  0
  150.1000  141.6408  155.9711 N   0  0  0  0  0  0  0  0  0  0  0  0
  150.5687  140.5222  155.1623 C   0  0  0  0  0  0  0  0  0  0  0  0
  149.3086  139.9373  154.5294 C   0  0  0  0  0  0  0  0  0  0  0  0
  148.2631  140.1458  155.6215 C   0  0  0  0  0  0  0  0  0  0  0  0
  148.6861  141.4616  156.2834 C   0  0  0  0  0  0  0  0  0  0  0  0
  147.0489  137.0275  158.8008 C   0  0  0  0  0  0  0  0  0  0  0  0
  145.8874  136.9522  159.8106 C   0  0  1  0  0  0  0  0  0  0  0  0
  144.5365  136.7294  159.1222 C   0  0  0  0  0  0  0  0  0  0  0  0
  146.1138  135.8680  160.7052 O   0  0  0  0  0  0  0  0  0  0  0  0
  148.3113  134.9261  163.0545 H   0  0  0  0  0  0  0  0  0  0  0  0
  147.4350  133.8945  161.9250 H   0  0  0  0  0  0  0  0  0  0  0  0
  146.5536  134.8409  163.1213 H   0  0  0  0  0  0  0  0  0  0  0  0
  147.2678  136.9508  162.0249 H   0  0  0  0  0  0  0  0  0  0  0  0
  149.4324  136.1881  161.0538 H   0  0  0  0  0  0  0  0  0  0  0  0
  148.5924  135.1104  159.9559 H   0  0  0  0  0  0  0  0  0  0  0  0
  149.4333  136.5932  157.7810 H   0  0  0  0  0  0  0  0  0  0  0  0
  149.4507  138.3054  158.1049 H   0  0  0  0  0  0  0  0  0  0  0  0
  150.7043  137.5600  160.3574 H   0  0  0  0  0  0  0  0  0  0  0  0
  151.1441  136.1818  159.4030 H   0  0  0  0  0  0  0  0  0  0  0  0
  151.2466  139.6832  157.1457 H   0  0  0  0  0  0  0  0  0  0  0  0
  153.2440  141.7969  159.4276 H   0  0  0  0  0  0  0  0  0  0  0  0
  153.2381  144.2770  159.3330 H   0  0  0  0  0  0  0  0  0  0  0  0
  151.7052  145.4269  157.6328 H   0  0  0  0  0  0  0  0  0  0  0  0
  151.2863  140.8479  154.4082 H   0  0  0  0  0  0  0  0  0  0  0  0
  151.0466  139.7725  155.7945 H   0  0  0  0  0  0  0  0  0  0  0  0
  149.0371  140.5099  153.6410 H   0  0  0  0  0  0  0  0  0  0  0  0
  149.4232  138.8927  154.2392 H   0  0  0  0  0  0  0  0  0  0  0  0
  147.2434  140.1751  155.2362 H   0  0  0  0  0  0  0  0  0  0  0  0
  148.3252  139.3331  156.3467 H   0  0  0  0  0  0  0  0  0  0  0  0
  148.5015  141.4415  157.3582 H   0  0  0  0  0  0  0  0  0  0  0  0
  148.1240  142.2921  155.8548 H   0  0  0  0  0  0  0  0  0  0  0  0
  146.9011  137.8809  158.1376 H   0  0  0  0  0  0  0  0  0  0  0  0
  147.0695  136.1333  158.1756 H   0  0  0  0  0  0  0  0  0  0  0  0
  145.8362  137.8812  160.3813 H   0  0  0  0  0  0  0  0  0  0  0  0
  144.3059  137.5455  158.4369 H   0  0  0  0  0  0  0  0  0  0  0  0
  143.7303  136.6734  159.8542 H   0  0  0  0  0  0  0  0  0  0  0  0
  144.5323  135.8006  158.5509 H   0  0  0  0  0  0  0  0  0  0  0  0
  148.2866  138.0244  160.0362 H   0  0  0  0  0  0  0  0  0  0  0  0
  150.4088  144.1227  156.2456 H   0  0  0  0  0  0  0  0  0  0  0  0
  1  2  1  0  0  0  0
  1 26  1  0  0  0  0
  1 27  1  0  0  0  0
  1 28  1  0  0  0  0
  2 25  1  0  0  0  0
  2  3  1  0  0  0  0
  2 29  1  0  0  0  0
  3  4  1  0  0  0  0
  3 30  1  0  0  0  0
  3 31  1  0  0  0  0
  4  5  1  0  0  0  0
  4 22  1  0  0  0  0
  4 54  1  0  0  0  0
  5  6  1  0  0  0  0
  5 32  1  0  0  0  0
  5 33  1  0  0  0  0
  6  7  1  0  0  0  0
  6 34  1  0  0  0  0
  6 35  1  0  0  0  0
  7  8  1  0  0  0  0
  8  9  2  0  0  0  0
  8 10  1  0  0  0  0
 10 11  1  0  0  0  0
 10 36  1  0  0  0  0
 11 16  1  0  0  0  0
 11 12  2  0  0  0  0
 12 13  1  0  0  0  0
 12 37  1  0  0  0  0
 13 14  2  0  0  0  0
 13 38  1  0  0  0  0
 14 15  1  0  0  0  0
 14 39  1  0  0  0  0
 15 16  2  0  0  0  0
 15 55  1  0  0  0  0
 16 17  1  0  0  0  0
 17 21  1  0  0  0  0
 17 18  1  0  0  0  0
 18 19  1  0  0  0  0
 18 40  1  0  0  0  0
 18 41  1  0  0  0  0
 19 20  1  0  0  0  0
 19 42  1  0  0  0  0
 19 43  1  0  0  0  0
 20 21  1  0  0  0  0
 20 44  1  0  0  0  0
 20 45  1  0  0  0  0
 21 46  1  0  0  0  0
 21 47  1  0  0  0  0
 22 23  1  0  0  0  0
 22 48  1  0  0  0  0
 22 49  1  0  0  0  0
 23 24  1  0  0  0  0
 23 25  1  0  0  0  0
 23 50  1  0  0  0  0
 24 51  1  0  0  0  0
 24 52  1  0  0  0  0
 24 53  1  0  0  0  0
M  CHG  1   4   1
M  CHG  1   7  -1
M  CHG  1  15   1
M  END
> <s_m_source_file>
AV-unprocessed.smi

> <i_m_source_file_index>
1244

> <i_lp_mmshare_version>
43012

> <i_f3d_flags>
0

> <s_epik_input>
W0NIM11bQ0BASF0xW0NIMl1OKFtDSDJdW0NASF0oTzEpW0NIM10pW0NIMl1bQ0gyXVtOSF1DKD1PKVtOSF1jMltjSF1bY0hdW2NIXW5jMk4zW0NIMl1bQ0gyXVtDSDJdW0NIMl0z

> <s_epik_cmdline>
J2VwaWtfcHl0aG9uJywgJy1waCcsICc3LjAnLCAnLXRuJywgJzgnLCAnLW1hJywgJzIwMCcsICctbWV0YWxfYmluZGluZycsICctaW1hZScsICc8aW5maWxlLm1hZT4nLCAnLW9tYWUnLCAnPG91dGZpbGUubWFlPic=

> <r_lp_tautomer_probability>
0.999994

> <r_epik_Ionization_Penalty>
8.60539

> <r_epik_Ionization_Penalty_Charging>
8.60539

> <r_epik_Ionization_Penalty_Neutral>
3.60441e-06

> <r_epik_State_Penalty>
8.59967

> <r_epik_Charging_Adjusted_Penalty>
17.2051

> <i_epik_Tot_Q>
1

> <i_epik_Tot_abs_Q>
3

> <r_epik_Metal_State_Penalty>
4.59489

> <b_epik_Metal_Only>
1

> <s_lp_Force_Field>
OPLS_2005

> <r_lp_Energy>
44.1273

> <b_lp_Chiralities_Consistent>
1

> <s_lp_Variant>
AV-unprocessed.smi:1244-16

> <Gold.Version>
5.8.1

> <Gold.Id.Protein>
6NUR|6NUR_protein|mol2

> <Gold.PLP.Fitness>
41.4947

> <Gold.PLP.PLP>
-39.1505

> <Gold.PLP.part.hbond>
-1.0000

> <Gold.PLP.part.metal>
0.0000

> <Gold.PLP.part.buried>
-3.5747

> <Gold.PLP.part.nonpolar>
-36.1059

> <Gold.PLP.part.repulsive>
0.3205

> <Gold.PLP.ligand.clash>
0.1576

> <Gold.PLP.ligand.torsion>
2.3523

> <Gold.PLP.Chemscore.Hbond>
2.0000

> <Gold.PLP.Chemscore.CHOScore>
0.0000

> <Gold.PLP.Chemscore.Metal>
0.0000

> <Gold.Chemscore.Hbonds>
donor molecule, donor type, donor heavy atom, donor atom, acceptor molecule, acceptor atom, score
      L1  H    15    55       P1  8028  2.00

> <Gold.PLP.Chemscore.Internal.Correction>
1.2064

> <Gold.Rescore>
     Score         DG    S(hbond)    S(metal)    S(lipo)     H(rot)  DE(clash)    DE(int)     intcor
     12.40     -17.16       0.99        0.00     102.53       1.42       0.29       4.47       ----

> <Gold.Chemscore.Fitness>
12.3961

> <Gold.Chemscore.DG>
-17.1578

> <Gold.Chemscore.ZeroCoef>
-5.4800

> <Gold.Chemscore.Hbond>
0.9918

> <Gold.Chemscore.Metal>
0.0000

> <Gold.Chemscore.Lipo>
102.5333

> <Gold.Chemscore.Internal_Hbond>
0.0000

> <Gold.Chemscore.DEClash>
0.2881

> <Gold.Chemscore.DEInternal>
4.4736

> <Gold.Chemscore.Rot>
1.4185

> <Gold.Chemscore.Internal.Correction>
   9.000000E+99

> <Gold.Chemscore.Hbonds>
donor molecule, donor type, donor heavy atom, donor atom, acceptor molecule, acceptor atom, score
      L1  H    15    55       P1  8028  0.98

> <Gold.Chemscore.Hbond.Weighted>
-3.3127

> <Gold.Chemscore.Metal.Weighted>
-0.0000

> <Gold.Chemscore.Lipo.Weighted>
-11.9964

> <Gold.Chemscore.Internal_Hbond.Weighted>
0.0000

> <Gold.Chemscore.DEClash.Weighted>
0.2881

> <Gold.Chemscore.DEInternal.Weighted>
4.4736

> <Gold.Chemscore.Rot.Weighted>
3.6313

> <Gold.Chemscore.Internal.Correction.Weighted>
   9.000000E+99

> <Gold.Protein.RotatedTorsions>
[ 6907 6896 6895 6894 ] final  -56.79 input  -60.11 | X-H torsion
[ 7974 7965 7964 7962 ] final  115.44 input  175.53 | X-H torsion
[ 8008 7997 7996 7995 ] final  -93.57 input   59.86 | X-H torsion
[ 10167 10162 10161 10158 ] final   49.84 input  -65.29 | X-H torsion
[ 10718 10713 10712 10709 ] final  110.89 input   66.30 | X-H torsion
[ 10763 10752 10751 10750 ] final  -55.27 input  -60.55 | X-H torsion
[ 11005 11000 10999 10996 ] final  161.00 input  -57.11 | X-H torsion

> <Gold.Protein.ActiveResidues>
 VAL166  LYS551  ARG553  GLY616  TRP617  ASP618  TYR619  PRO620  LYS621  CYS622 
 ASP623  PHE694  ASN695  SER759  ASP760  ASP761  ALA762  ILE779  LEU786  VAL792 
 PHE793  MET794  SER795  GLU796  ALA797  LYS798  CYS799  TRP800  GLU811  SER814 

> <Gold.Protein.RotatedAtoms>
  150.8139  134.7310  159.6712 H   0  0  0  0  0  0  0  0  0  0  0  0  # atno 6907 bound_to 6896
  152.4258  134.5867  159.9972 H   0  0  0  0  0  0  0  0  0  0  0  0  # atno 6908 bound_to 6896
  151.6069  133.3313  159.3095 H   0  0  0  0  0  0  0  0  0  0  0  0  # atno 6909 bound_to 6896
  145.1919  139.2996  143.4363 H   0  0  0  0  0  0  0  0  0  0  0  0  # atno 7974 bound_to 7965
  154.7374  140.0497  157.0780 H   0  0  0  0  0  0  0  0  0  0  0  0  # atno 8008 bound_to 7997
  155.0223  140.3148  155.4769 H   0  0  0  0  0  0  0  0  0  0  0  0  # atno 8009 bound_to 7997
  156.2856  140.2165  156.5342 H   0  0  0  0  0  0  0  0  0  0  0  0  # atno 8010 bound_to 7997
  140.2787  144.3182  150.6270 H   0  0  0  0  0  0  0  0  0  0  0  0  # atno 10167 bound_to 10162
  157.6472  131.0941  150.6668 H   0  0  0  0  0  0  0  0  0  0  0  0  # atno 10718 bound_to 10713
  154.1881  135.6432  153.5052 H   0  0  0  0  0  0  0  0  0  0  0  0  # atno 10763 bound_to 10752
  153.0042  135.5422  154.6443 H   0  0  0  0  0  0  0  0  0  0  0  0  # atno 10764 bound_to 10752
  154.5825  135.2926  155.0691 H   0  0  0  0  0  0  0  0  0  0  0  0  # atno 10765 bound_to 10752
  140.2115  134.8264  157.3125 H   0  0  0  0  0  0  0  0  0  0  0  0  # atno 11005 bound_to 11000
  146.3434  140.2135  142.8590 LP  0  0  0  0  0  0  0  0  0  0  0  0  # atno 17320 bound_to 7965
  145.0033  140.8650  143.5269 LP  0  0  0  0  0  0  0  0  0  0  0  0  # atno 17321 bound_to 7965
  140.5830  143.2171  151.7394 LP  0  0  0  0  0  0  0  0  0  0  0  0  # atno 17342 bound_to 10162
  139.4968  144.4053  152.0139 LP  0  0  0  0  0  0  0  0  0  0  0  0  # atno 17343 bound_to 10162
  156.6984  130.4616  149.5580 LP  0  0  0  0  0  0  0  0  0  0  0  0  # atno 17370 bound_to 10713
  156.1812  130.6500  151.0954 LP  0  0  0  0  0  0  0  0  0  0  0  0  # atno 17371 bound_to 10713
  140.1946  134.4329  155.7696 LP  0  0  0  0  0  0  0  0  0  0  0  0  # atno 17394 bound_to 11000
  141.2226  133.7043  156.8083 LP  0  0  0  0  0  0  0  0  0  0  0  0  # atno 17395 bound_to 11000

$$$$
