#       Name:                AV-unprocessed.smi:1682
#       Creating user name   scv26
#       Creation time:       Fri Mar 27 07:49:41 2020


#       File generated by GOLD software.
#

@<TRIPOS>MOLECULE
AV-unprocessed.smi:1682
    43    44     1
SMALL
NO_CHARGES


@<TRIPOS>ATOM
      1 ****         0.3005   0.7409  -0.2469 O.2            1 S1                 0.0000
      2 ****         0.7778  -0.3940  -0.2813 C.2            1 S1                 0.0000
      3 ****         0.0276  -1.5047  -0.3440 N.am           1 S1                 0.0000
      4 ****        -1.4305  -1.5263  -0.3532 C.3            1 S1                 0.0000
      5 ****        -2.0049  -1.3478   1.0623 C.3            1 S1                 0.0000
      6 ****        -3.5214  -1.3640   1.0751 C.ar           1 S1                 0.0000
      7 ****        -4.2526  -0.1585   1.1340 C.ar           1 S1                 0.0000
      8 ****        -5.6591  -0.2269   1.1407 C.ar           1 S1                 0.0000
      9 ****        -6.2769  -1.4910   1.0873 C.ar           1 S1                 0.0000
     10 ****        -5.4570  -2.6355   1.0284 C.ar           1 S1                 0.0000
     11 ****        -4.1074  -2.5812   1.0210 N.ar           1 S1                 0.0000
     12 ****         2.3012  -0.5934  -0.2451 C.3            1 S1                 0.0000
     13 ****         2.9068  -0.0451   1.0625 C.3            1 S1                 0.0000
     14 ****         3.6841   1.1833   0.6188 C.2            1 S1                 0.0000
     15 ****         4.2232   1.9528   1.4122 O.2            1 S1                 0.0000
     16 ****         3.6807   1.2966  -0.7135 N.am           1 S1                 0.0000
     17 ****         4.3076   2.3584  -1.4976 C.3            1 S1                 0.0000
     18 ****         3.4198   3.6120  -1.5967 C.3            1 S1                 0.0000
     19 ****         4.0307   4.5170  -2.3599 F              1 S1                 0.0000
     20 ****         2.2485   3.3068  -2.1552 F              1 S1                 0.0000
     21 ****         3.2058   4.1473  -0.3952 F              1 S1                 0.0000
     22 ****         3.0219   0.1796  -1.3702 C.3            1 S1                 0.0000
     23 ****         0.4984  -2.3974  -0.3729 H              1 S1                 0.0000
     24 ****        -1.8119  -0.7516  -1.0208 H              1 S1                 0.0000
     25 ****        -1.7531  -2.4811  -0.7696 H              1 S1                 0.0000
     26 ****        -1.6366  -2.1385   1.7176 H              1 S1                 0.0000
     27 ****        -1.6589  -0.4080   1.4944 H              1 S1                 0.0000
     28 ****        -3.7494   0.7965   1.1725 H              1 S1                 0.0000
     29 ****        -6.2531   0.6740   1.1859 H              1 S1                 0.0000
     30 ****        -7.3529  -1.5815   1.0914 H              1 S1                 0.0000
     31 ****        -5.8972  -3.6207   0.9857 H              1 S1                 0.0000
     32 ****         2.5217  -1.6584  -0.3370 H              1 S1                 0.0000
     33 ****         2.1620   0.2237   1.8137 H              1 S1                 0.0000
     34 ****         3.5921  -0.7650   1.5108 H              1 S1                 0.0000
     35 ****         5.2722   2.6176  -1.0582 H              1 S1                 0.0000
     36 ****         4.5221   1.9805  -2.4982 H              1 S1                 0.0000
     37 ****         3.7728  -0.4493  -1.8502 H              1 S1                 0.0000
     38 ****         2.3440   0.5336  -2.1487 H              1 S1                 0.0000
     39 ****        -0.6913   0.8669  -0.2655 LP             1 S1                 0.0000
     40 ****         0.9049   1.5363  -0.2004 LP             1 S1                 0.0000
     41 ****        -3.5584  -3.4159   0.9769 LP             1 S1                 0.0000
     42 ****         4.1602   1.7822   2.3955 LP             1 S1                 0.0000
     43 ****         4.7247   2.7491   1.0741 LP             1 S1                 0.0000
@<TRIPOS>BOND
    1    1    2 2     
    2    2    3 am    
    3    2   12 1     
    4    3    4 1     
    5    3   23 1     
    6    4    5 1     
    7    4   24 1     
    8    4   25 1     
    9    5    6 1     
   10    5   26 1     
   11    5   27 1     
   12    6   11 ar    
   13    6    7 ar    
   14    7    8 ar    
   15    7   28 1     
   16    8    9 ar    
   17    8   29 1     
   18    9   10 ar    
   19    9   30 1     
   20   10   11 ar    
   21   10   31 1     
   22   12   22 1     
   23   12   13 1     
   24   12   32 1     
   25   13   14 1     
   26   13   33 1     
   27   13   34 1     
   28   14   15 2     
   29   14   16 am    
   30   16   17 1     
   31   16   22 1     
   32   17   18 1     
   33   17   35 1     
   34   17   36 1     
   35   18   19 1     
   36   18   20 1     
   37   18   21 1     
   38   22   37 1     
   39   22   38 1     
   40    1   39 1     
   41    1   40 1     
   42   11   41 1     
   43   15   42 1     
   44   15   43 1     
@<TRIPOS>SUBSTRUCTURE
      1 S1             1
@<TRIPOS>SET
LONE_PAIRS      STATIC     ATOMS    <user>   **** ""
5 39 40 41 42 43
DONOR_HYDROGENS      STATIC     ATOMS    <user>   **** ""
1 23
ATOM$BLUE        STATIC     ATOMS    COLORGROUP SYSTEM
5 39 40 41 42 43
ATOM$RED        STATIC     ATOMS    COLORGROUP SYSTEM
1 23
