AV-unprocessed.smi:1503|AV-procd|sdf|6070|dock5
  -GOLD-   22720 6193D 1   1.00000     0.00000
 Structure written by MMmdl.
 43 44  0  0  0  0  0  0  0  0  2 V2000
  148.1947  132.2871  153.7030 C   0  0  0  0  0  0  0  0  0  0  0  0
  149.0996  133.2536  153.9331 C   0  0  0  0  0  0  0  0  0  0  0  0
  149.0147  134.3527  154.9830 C   0  0  0  0  0  0  0  0  0  0  0  0
  148.9308  135.7046  154.4353 N   0  0  0  0  0  0  0  0  0  0  0  0
  148.8525  136.8309  155.1614 C   0  0  0  0  0  0  0  0  0  0  0  0
  148.8242  136.8377  156.3926 O   0  0  0  0  0  0  0  0  0  0  0  0
  148.8028  138.1395  154.3666 C   0  0  0  0  0  0  0  0  0  0  0  0
  150.1932  138.7478  154.0993 C   0  0  0  0  0  0  0  0  0  0  0  0
  150.6284  139.6971  155.2140 C   0  0  0  0  0  0  0  0  0  0  0  0
  151.7243  139.4823  155.9945 C   0  0  0  0  0  0  0  0  0  0  0  0
  152.6175  138.2628  155.8517 C   0  0  0  0  0  0  0  0  0  0  0  0
  152.0890  140.3954  156.9956 N   0  0  0  0  0  0  0  0  0  0  0  0
  151.3830  141.4684  157.1920 C   0  0  0  0  0  0  0  0  0  0  0  0
  151.7183  142.4063  158.1743 N   0  0  0  0  0  0  0  0  0  0  0  0
  152.6408  142.0759  159.2643 C   0  0  0  0  0  0  0  0  0  0  0  0
  152.4116  142.9811  160.4859 C   0  0  0  0  0  0  0  0  0  0  0  0
  152.5204  144.3445  160.0999 O   0  0  0  0  0  0  0  0  0  0  0  0
  151.5367  144.6865  159.1332 C   0  0  0  0  0  0  0  0  0  0  0  0
  151.7343  143.8371  157.8666 C   0  0  0  0  0  0  0  0  0  0  0  0
  150.2588  141.7641  156.4368 N   0  5  0  0  0  0  0  0  0  0  0  0
  149.8412  140.9192  155.4522 C   0  0  0  0  0  0  0  0  0  0  0  0
  148.8388  141.1499  154.7768 O   0  0  0  0  0  0  0  0  0  0  0  0
  147.2831  132.2052  154.2764 H   0  0  0  0  0  0  0  0  0  0  0  0
  148.3594  131.5557  152.9255 H   0  0  0  0  0  0  0  0  0  0  0  0
  149.9884  133.2753  153.3195 H   0  0  0  0  0  0  0  0  0  0  0  0
  148.1631  134.1540  155.6356 H   0  0  0  0  0  0  0  0  0  0  0  0
  149.9037  134.2952  155.6109 H   0  0  0  0  0  0  0  0  0  0  0  0
  148.9471  135.7913  153.4292 H   0  0  0  0  0  0  0  0  0  0  0  0
  148.2928  137.9445  153.4225 H   0  0  0  0  0  0  0  0  0  0  0  0
  148.1897  138.8609  154.9089 H   0  0  0  0  0  0  0  0  0  0  0  0
  150.9273  137.9504  153.9816 H   0  0  0  0  0  0  0  0  0  0  0  0
  150.2012  139.2826  153.1482 H   0  0  0  0  0  0  0  0  0  0  0  0
  152.0251  137.3476  155.8584 H   0  0  0  0  0  0  0  0  0  0  0  0
  153.3353  138.2008  156.6702 H   0  0  0  0  0  0  0  0  0  0  0  0
  153.1754  138.3096  154.9164 H   0  0  0  0  0  0  0  0  0  0  0  0
  152.5422  141.0363  159.5771 H   0  0  0  0  0  0  0  0  0  0  0  0
  153.6626  142.1949  158.9019 H   0  0  0  0  0  0  0  0  0  0  0  0
  151.4336  142.7914  160.9314 H   0  0  0  0  0  0  0  0  0  0  0  0
  153.1568  142.7701  161.2528 H   0  0  0  0  0  0  0  0  0  0  0  0
  150.5371  144.5411  159.5464 H   0  0  0  0  0  0  0  0  0  0  0  0
  151.6300  145.7454  158.8918 H   0  0  0  0  0  0  0  0  0  0  0  0
  152.6853  144.0855  157.3940 H   0  0  0  0  0  0  0  0  0  0  0  0
  150.9486  144.0835  157.1512 H   0  0  0  0  0  0  0  0  0  0  0  0
  1  2  2  0  0  0  0
  1 23  1  0  0  0  0
  1 24  1  0  0  0  0
  2  3  1  0  0  0  0
  2 25  1  0  0  0  0
  3  4  1  0  0  0  0
  3 26  1  0  0  0  0
  3 27  1  0  0  0  0
  4  5  1  0  0  0  0
  4 28  1  0  0  0  0
  5  6  2  0  0  0  0
  5  7  1  0  0  0  0
  7  8  1  0  0  0  0
  7 29  1  0  0  0  0
  7 30  1  0  0  0  0
  8  9  1  0  0  0  0
  8 31  1  0  0  0  0
  8 32  1  0  0  0  0
  9 21  1  0  0  0  0
  9 10  2  0  0  0  0
 10 11  1  0  0  0  0
 10 12  1  0  0  0  0
 11 33  1  0  0  0  0
 11 34  1  0  0  0  0
 11 35  1  0  0  0  0
 12 13  2  0  0  0  0
 13 14  1  0  0  0  0
 13 20  1  0  0  0  0
 14 19  1  0  0  0  0
 14 15  1  0  0  0  0
 15 16  1  0  0  0  0
 15 36  1  0  0  0  0
 15 37  1  0  0  0  0
 16 17  1  0  0  0  0
 16 38  1  0  0  0  0
 16 39  1  0  0  0  0
 17 18  1  0  0  0  0
 18 19  1  0  0  0  0
 18 40  1  0  0  0  0
 18 41  1  0  0  0  0
 19 42  1  0  0  0  0
 19 43  1  0  0  0  0
 20 21  1  0  0  0  0
 21 22  2  0  0  0  0
M  CHG  1  20  -1
M  END
> <s_m_source_file>
AV-unprocessed.smi

> <i_m_source_file_index>
1503

> <i_lp_mmshare_version>
43012

> <i_f3d_flags>
0

> <s_epik_input>
W0NIMl09W0NIXVtDSDJdW05IXUMoPU8pW0NIMl1bQ0gyXWMxYyhbQ0gzXSluYyhbbkhdYzE9TylOMltDSDJdW0NIMl1PW0NIMl1bQ0gyXTI=

> <s_epik_cmdline>
J2VwaWtfcHl0aG9uJywgJy1waCcsICc3LjAnLCAnLXRuJywgJzgnLCAnLW1hJywgJzIwMCcsICctbWV0YWxfYmluZGluZycsICctaW1hZScsICc8aW5maWxlLm1hZT4nLCAnLW9tYWUnLCAnPG91dGZpbGUubWFlPic=

> <r_lp_tautomer_probability>
1

> <r_epik_Ionization_Penalty>
5.02457

> <r_epik_Ionization_Penalty_Charging>
9.64055e-08

> <r_epik_Ionization_Penalty_Neutral>
5.02457

> <r_epik_State_Penalty>
2.56428

> <r_epik_Charging_Adjusted_Penalty>
2.56428

> <i_epik_Tot_Q>
-1

> <i_epik_Tot_abs_Q>
1

> <r_epik_Metal_State_Penalty>
0.122481

> <b_epik_Metal_Only>
0

> <s_lp_Force_Field>
OPLS_2005

> <r_lp_Energy>
26.3767

> <b_lp_Chiralities_Consistent>
1

> <s_lp_Variant>
AV-unprocessed.smi:1503-3

> <Gold.Version>
5.8.1

> <Gold.Id.Protein>
6NUR|6NUR_protein|mol2

> <Gold.PLP.Fitness>
44.1584

> <Gold.PLP.PLP>
-42.1165

> <Gold.PLP.part.hbond>
-1.6068

> <Gold.PLP.part.metal>
0.0000

> <Gold.PLP.part.buried>
-3.0146

> <Gold.PLP.part.nonpolar>
-38.0922

> <Gold.PLP.part.repulsive>
0.2777

> <Gold.PLP.ligand.clash>
0.0000

> <Gold.PLP.ligand.torsion>
1.0341

> <Gold.PLP.Chemscore.Hbond>
1.2850

> <Gold.PLP.Chemscore.CHOScore>
0.0000

> <Gold.PLP.Chemscore.Metal>
0.0000

> <Gold.Chemscore.Hbonds>
donor molecule, donor type, donor heavy atom, donor atom, acceptor molecule, acceptor atom, score
      L1  H     4    28       P1  7948  1.00
      P1  H  7997  8009       L1    12  0.18

> <Gold.PLP.Chemscore.Internal.Correction>
0.2551

> <Gold.Rescore>
     Score         DG    S(hbond)    S(metal)    S(lipo)     H(rot)  DE(clash)    DE(int)     intcor
     13.33     -15.37       1.05        0.00      95.62       1.87       0.12       1.93       ----

> <Gold.Chemscore.Fitness>
13.3266

> <Gold.Chemscore.DG>
-15.3703

> <Gold.Chemscore.ZeroCoef>
-5.4800

> <Gold.Chemscore.Hbond>
1.0469

> <Gold.Chemscore.Metal>
0.0000

> <Gold.Chemscore.Lipo>
95.6226

> <Gold.Chemscore.Internal_Hbond>
0.0000

> <Gold.Chemscore.DEClash>
0.1184

> <Gold.Chemscore.DEInternal>
1.9253

> <Gold.Chemscore.Rot>
1.8727

> <Gold.Chemscore.Internal.Correction>
   9.000000E+99

> <Gold.Chemscore.Hbonds>
donor molecule, donor type, donor heavy atom, donor atom, acceptor molecule, acceptor atom, score
      L1  H     4    28       P1  7948  0.91
      P1  H  7997  8009       L1    12  0.01

> <Gold.Chemscore.Hbond.Weighted>
-3.4966

> <Gold.Chemscore.Metal.Weighted>
-0.0000

> <Gold.Chemscore.Lipo.Weighted>
-11.1878

> <Gold.Chemscore.Internal_Hbond.Weighted>
0.0000

> <Gold.Chemscore.DEClash.Weighted>
0.1184

> <Gold.Chemscore.DEInternal.Weighted>
1.9253

> <Gold.Chemscore.Rot.Weighted>
4.7942

> <Gold.Chemscore.Internal.Correction.Weighted>
   9.000000E+99

> <Gold.Protein.RotatedTorsions>
[ 6907 6896 6895 6894 ] final  -98.40 input  -60.11 | X-H torsion
[ 7974 7965 7964 7962 ] final -168.29 input  175.53 | X-H torsion
[ 8008 7997 7996 7995 ] final -177.82 input   59.86 | X-H torsion
[ 10167 10162 10161 10158 ] final   90.88 input  -65.29 | X-H torsion
[ 10718 10713 10712 10709 ] final -109.11 input   66.30 | X-H torsion
[ 10763 10752 10751 10750 ] final -138.00 input  -60.55 | X-H torsion
[ 11005 11000 10999 10996 ] final -133.46 input  -57.11 | X-H torsion

> <Gold.Protein.ActiveResidues>
 VAL166  LYS551  ARG553  GLY616  TRP617  ASP618  TYR619  PRO620  LYS621  CYS622 
 ASP623  PHE694  ASN695  SER759  ASP760  ASP761  ALA762  ILE779  LEU786  VAL792 
 PHE793  MET794  SER795  GLU796  ALA797  LYS798  CYS799  TRP800  GLU811  SER814 

> <Gold.Protein.RotatedAtoms>
  150.7046  134.1200  159.4030 H   0  0  0  0  0  0  0  0  0  0  0  0  # atno 6907 bound_to 6896
  151.9186  135.0306  160.0529 H   0  0  0  0  0  0  0  0  0  0  0  0  # atno 6908 bound_to 6896
  152.2275  133.4997  159.5234 H   0  0  0  0  0  0  0  0  0  0  0  0  # atno 6909 bound_to 6896
  144.7206  140.2392  143.6294 H   0  0  0  0  0  0  0  0  0  0  0  0  # atno 7974 bound_to 7965
  156.0115  140.1241  157.0449 H   0  0  0  0  0  0  0  0  0  0  0  0  # atno 8008 bound_to 7997
  154.4277  140.1087  156.5906 H   0  0  0  0  0  0  0  0  0  0  0  0  # atno 8009 bound_to 7997
  155.6073  140.3471  155.4614 H   0  0  0  0  0  0  0  0  0  0  0  0  # atno 8010 bound_to 7997
  139.8429  144.6632  150.9261 H   0  0  0  0  0  0  0  0  0  0  0  0  # atno 10167 bound_to 10162
  156.0520  130.5747  150.8054 H   0  0  0  0  0  0  0  0  0  0  0  0  # atno 10718 bound_to 10713
  154.8648  135.3625  154.5314 H   0  0  0  0  0  0  0  0  0  0  0  0  # atno 10763 bound_to 10752
  153.5940  135.7014  153.5416 H   0  0  0  0  0  0  0  0  0  0  0  0  # atno 10764 bound_to 10752
  153.3349  135.4114  155.1487 H   0  0  0  0  0  0  0  0  0  0  0  0  # atno 10765 bound_to 10752
  140.9078  134.1607  157.4412 H   0  0  0  0  0  0  0  0  0  0  0  0  # atno 11005 bound_to 11000
  145.8336  139.2097  143.1868 LP  0  0  0  0  0  0  0  0  0  0  0  0  # atno 17320 bound_to 7965
  146.0409  140.8166  142.9829 LP  0  0  0  0  0  0  0  0  0  0  0  0  # atno 17321 bound_to 7965
  140.7796  143.3896  151.1333 LP  0  0  0  0  0  0  0  0  0  0  0  0  # atno 17342 bound_to 10162
  139.7541  143.8735  152.3084 LP  0  0  0  0  0  0  0  0  0  0  0  0  # atno 17343 bound_to 10162
  157.5455  131.0942  150.9768 LP  0  0  0  0  0  0  0  0  0  0  0  0  # atno 17370 bound_to 10713
  157.0041  130.5611  149.5314 LP  0  0  0  0  0  0  0  0  0  0  0  0  # atno 17371 bound_to 10713
  139.8752  134.9924  156.5593 LP  0  0  0  0  0  0  0  0  0  0  0  0  # atno 17394 bound_to 11000
  140.8148  133.8400  155.8842 LP  0  0  0  0  0  0  0  0  0  0  0  0  # atno 17395 bound_to 11000

$$$$
