AV-unprocessed.smi:2860|AV-procd|sdf|11006|dock6
  -GOLD-   2272015463D 1   1.00000     0.00000
 Structure written by MMmdl.
 45 46  0  0  0  0  0  0  0  0  1 V2000
  149.5271  132.8334  154.7537 C   0  0  0  0  0  0  0  0  0  0  0  0
  149.7675  134.3268  154.4955 C   0  0  0  0  0  0  0  0  0  0  0  0
  149.5492  135.1164  155.7012 N   0  0  0  0  0  0  0  0  0  0  0  0
  150.5201  135.6285  156.4739 C   0  0  0  0  0  0  0  0  0  0  0  0
  151.7195  135.5103  156.2249 O   0  0  0  0  0  0  0  0  0  0  0  0
  150.0691  136.3823  157.7255 C   0  0  0  0  0  0  0  0  0  0  0  0
  150.2446  137.8141  157.5601 N   0  0  0  0  0  0  0  0  0  0  0  0
  150.1933  138.5559  156.3958 C   0  0  0  0  0  0  0  0  0  0  0  0
  150.4012  139.8636  156.7312 C   0  0  0  0  0  0  0  0  0  0  0  0
  150.5746  139.8154  158.1417 C   0  0  0  0  0  0  0  0  0  0  0  0
  150.8111  141.0018  158.8810 N   0  0  0  0  0  0  0  0  0  0  0  0
  151.0493  142.2367  158.4030 C   0  0  0  0  0  0  0  0  0  0  0  0
  150.9894  142.5456  157.2129 O   0  0  0  0  0  0  0  0  0  0  0  0
  151.2988  143.2491  159.4742 C   0  0  0  0  0  0  0  0  0  0  0  0
  152.3356  144.3503  159.2553 C   0  0  0  0  0  0  0  0  0  0  0  0
  153.1817  144.4674  157.9872 C   0  0  0  0  0  0  0  0  0  0  0  0
  151.9931  145.7573  159.7273 C   0  0  0  0  0  0  0  0  0  0  0  0
  152.6057  143.2319  160.2625 C   0  0  0  0  0  0  0  0  0  0  0  0
  152.5399  143.4999  161.7601 C   0  0  0  0  0  0  0  0  0  0  0  0
  153.7095  142.2046  160.0084 C   0  0  0  0  0  0  0  0  0  0  0  0
  150.4813  138.5905  158.6401 N   0  0  0  0  0  0  0  0  0  0  0  0
  149.6647  132.2553  153.8400 H   0  0  0  0  0  0  0  0  0  0  0  0
  148.5129  132.6538  155.1115 H   0  0  0  0  0  0  0  0  0  0  0  0
  150.2199  132.4424  155.4997 H   0  0  0  0  0  0  0  0  0  0  0  0
  150.7759  134.4896  154.1116 H   0  0  0  0  0  0  0  0  0  0  0  0
  149.0812  134.6821  153.7267 H   0  0  0  0  0  0  0  0  0  0  0  0
  148.5906  135.2680  155.9801 H   0  0  0  0  0  0  0  0  0  0  0  0
  149.0201  136.1660  157.9347 H   0  0  0  0  0  0  0  0  0  0  0  0
  150.6436  136.0536  158.5926 H   0  0  0  0  0  0  0  0  0  0  0  0
  150.0099  138.0955  155.4361 H   0  0  0  0  0  0  0  0  0  0  0  0
  150.4236  140.7183  156.0715 H   0  0  0  0  0  0  0  0  0  0  0  0
  150.8344  140.8961  159.8845 H   0  0  0  0  0  0  0  0  0  0  0  0
  150.3977  143.5588  160.0008 H   0  0  0  0  0  0  0  0  0  0  0  0
  154.1176  144.9813  158.2076 H   0  0  0  0  0  0  0  0  0  0  0  0
  152.6472  145.0390  157.2278 H   0  0  0  0  0  0  0  0  0  0  0  0
  153.4257  143.5003  157.5522 H   0  0  0  0  0  0  0  0  0  0  0  0
  152.8910  146.2676  160.0768 H   0  0  0  0  0  0  0  0  0  0  0  0
  151.2667  145.7435  160.5389 H   0  0  0  0  0  0  0  0  0  0  0  0
  151.5593  146.3379  158.9126 H   0  0  0  0  0  0  0  0  0  0  0  0
  153.4442  144.0106  162.0921 H   0  0  0  0  0  0  0  0  0  0  0  0
  152.4484  142.5638  162.3121 H   0  0  0  0  0  0  0  0  0  0  0  0
  151.6801  144.1158  162.0208 H   0  0  0  0  0  0  0  0  0  0  0  0
  154.6799  142.6237  160.2759 H   0  0  0  0  0  0  0  0  0  0  0  0
  153.7559  141.8848  158.9690 H   0  0  0  0  0  0  0  0  0  0  0  0
  153.5434  141.3126  160.6130 H   0  0  0  0  0  0  0  0  0  0  0  0
  1  2  1  0  0  0  0
  1 22  1  0  0  0  0
  1 23  1  0  0  0  0
  1 24  1  0  0  0  0
  2  3  1  0  0  0  0
  2 25  1  0  0  0  0
  2 26  1  0  0  0  0
  3  4  1  0  0  0  0
  3 27  1  0  0  0  0
  4  5  2  0  0  0  0
  4  6  1  0  0  0  0
  6  7  1  0  0  0  0
  6 28  1  0  0  0  0
  6 29  1  0  0  0  0
  7 21  1  0  0  0  0
  7  8  1  0  0  0  0
  8  9  2  0  0  0  0
  8 30  1  0  0  0  0
  9 10  1  0  0  0  0
  9 31  1  0  0  0  0
 10 11  1  0  0  0  0
 10 21  2  0  0  0  0
 11 12  1  0  0  0  0
 11 32  1  0  0  0  0
 12 13  2  0  0  0  0
 12 14  1  0  0  0  0
 14 18  1  0  0  0  0
 14 15  1  0  0  0  0
 14 33  1  0  0  0  0
 15 16  1  0  0  0  0
 15 17  1  0  0  0  0
 15 18  1  0  0  0  0
 16 34  1  0  0  0  0
 16 35  1  0  0  0  0
 16 36  1  0  0  0  0
 17 37  1  0  0  0  0
 17 38  1  0  0  0  0
 17 39  1  0  0  0  0
 18 19  1  0  0  0  0
 18 20  1  0  0  0  0
 19 40  1  0  0  0  0
 19 41  1  0  0  0  0
 19 42  1  0  0  0  0
 20 43  1  0  0  0  0
 20 44  1  0  0  0  0
 20 45  1  0  0  0  0
M  END
> <s_m_source_file>
AV-unprocessed.smi

> <i_m_source_file_index>
2860

> <i_lp_mmshare_version>
43012

> <i_f3d_flags>
0

> <s_epik_input>
W0NIM11bQ0gyXVtOSF1DKD1PKVtDSDJdbjFbY0hdW2NIXWMobjEpW05IXUMoPU8pW0NIXShDMihbQ0gzXSlbQ0gzXSlDMihbQ0gzXSlbQ0gzXQ==

> <s_epik_cmdline>
J2VwaWtfcHl0aG9uJywgJy1waCcsICc3LjAnLCAnLXRuJywgJzgnLCAnLW1hJywgJzIwMCcsICctbWV0YWxfYmluZGluZycsICctaW1hZScsICc8aW5maWxlLm1hZT4nLCAnLW9tYWUnLCAnPG91dGZpbGUubWFlPic=

> <r_lp_tautomer_probability>
1

> <r_epik_Ionization_Penalty>
1.3586e-05

> <r_epik_Ionization_Penalty_Charging>
0

> <r_epik_Ionization_Penalty_Neutral>
1.3586e-05

> <r_epik_State_Penalty>
-0

> <r_epik_Charging_Adjusted_Penalty>
0

> <i_epik_Tot_Q>
0

> <i_epik_Tot_abs_Q>
0

> <r_epik_Metal_State_Penalty>
-0

> <b_epik_Metal_Only>
0

> <s_lp_Force_Field>
OPLS_2005

> <r_lp_Energy>
28.3378

> <b_lp_Chiralities_Consistent>
1

> <s_lp_Variant>
AV-unprocessed.smi:2860-1

> <Gold.Version>
5.8.1

> <Gold.Id.Protein>
6NUR|6NUR_protein|mol2

> <Gold.PLP.Fitness>
40.0049

> <Gold.PLP.PLP>
-38.9505

> <Gold.PLP.part.hbond>
-1.0000

> <Gold.PLP.part.metal>
0.0000

> <Gold.PLP.part.buried>
-4.9871

> <Gold.PLP.part.nonpolar>
-33.1235

> <Gold.PLP.part.repulsive>
0.3651

> <Gold.PLP.ligand.clash>
0.0000

> <Gold.PLP.ligand.torsion>
1.0422

> <Gold.PLP.Chemscore.Hbond>
1.0000

> <Gold.PLP.Chemscore.CHOScore>
0.0000

> <Gold.PLP.Chemscore.Metal>
0.0000

> <Gold.Chemscore.Hbonds>
donor molecule, donor type, donor heavy atom, donor atom, acceptor molecule, acceptor atom, score
      P1  H 10752 10763       L1     5  1.00

> <Gold.PLP.Chemscore.Internal.Correction>
0.1389

> <Gold.Rescore>
     Score         DG    S(hbond)    S(metal)    S(lipo)     H(rot)  DE(clash)    DE(int)     intcor
     13.49     -17.19       1.00        0.00     108.28       1.68       0.08       3.62       ----

> <Gold.Chemscore.Fitness>
13.4943

> <Gold.Chemscore.DG>
-17.1905

> <Gold.Chemscore.ZeroCoef>
-5.4800

> <Gold.Chemscore.Hbond>
1.0000

> <Gold.Chemscore.Metal>
0.0000

> <Gold.Chemscore.Lipo>
108.2793

> <Gold.Chemscore.Internal_Hbond>
0.0000

> <Gold.Chemscore.DEClash>
0.0765

> <Gold.Chemscore.DEInternal>
3.6198

> <Gold.Chemscore.Rot>
1.6789

> <Gold.Chemscore.Internal.Correction>
   9.000000E+99

> <Gold.Chemscore.Hbonds>
donor molecule, donor type, donor heavy atom, donor atom, acceptor molecule, acceptor atom, score
      P1  H 10752 10763       L1     5  1.00

> <Gold.Chemscore.Hbond.Weighted>
-3.3399

> <Gold.Chemscore.Metal.Weighted>
-0.0000

> <Gold.Chemscore.Lipo.Weighted>
-12.6687

> <Gold.Chemscore.Internal_Hbond.Weighted>
0.0000

> <Gold.Chemscore.DEClash.Weighted>
0.0765

> <Gold.Chemscore.DEInternal.Weighted>
3.6198

> <Gold.Chemscore.Rot.Weighted>
4.2981

> <Gold.Chemscore.Internal.Correction.Weighted>
   9.000000E+99

> <Gold.Protein.RotatedTorsions>
[ 6907 6896 6895 6894 ] final -146.55 input  -60.11 | X-H torsion
[ 7974 7965 7964 7962 ] final -179.90 input  175.53 | X-H torsion
[ 8008 7997 7996 7995 ] final -130.91 input   59.86 | X-H torsion
[ 10167 10162 10161 10158 ] final  -16.14 input  -65.29 | X-H torsion
[ 10718 10713 10712 10709 ] final  -56.65 input   66.30 | X-H torsion
[ 10763 10752 10751 10750 ] final   86.78 input  -60.55 | X-H torsion
[ 11005 11000 10999 10996 ] final  -21.48 input  -57.11 | X-H torsion

> <Gold.Protein.ActiveResidues>
 VAL166  LYS551  ARG553  GLY616  TRP617  ASP618  TYR619  PRO620  LYS621  CYS622 
 ASP623  PHE694  ASN695  SER759  ASP760  ASP761  ALA762  ILE779  LEU786  VAL792 
 PHE793  MET794  SER795  GLU796  ALA797  LYS798  CYS799  TRP800  GLU811  SER814 

> <Gold.Protein.RotatedAtoms>
  151.1432  133.4957  159.2596 H   0  0  0  0  0  0  0  0  0  0  0  0  # atno 6907 bound_to 6896
  151.1633  135.0283  159.8730 H   0  0  0  0  0  0  0  0  0  0  0  0  # atno 6908 bound_to 6896
  152.5462  134.1303  159.8489 H   0  0  0  0  0  0  0  0  0  0  0  0  # atno 6909 bound_to 6896
  144.7140  140.0649  143.6431 H   0  0  0  0  0  0  0  0  0  0  0  0  # atno 7974 bound_to 7965
  155.3036  140.0454  157.3031 H   0  0  0  0  0  0  0  0  0  0  0  0  # atno 8008 bound_to 7997
  154.5472  140.2306  155.8510 H   0  0  0  0  0  0  0  0  0  0  0  0  # atno 8009 bound_to 7997
  156.1935  140.3044  155.9386 H   0  0  0  0  0  0  0  0  0  0  0  0  # atno 8010 bound_to 7997
  140.7229  143.5147  150.9707 H   0  0  0  0  0  0  0  0  0  0  0  0  # atno 10167 bound_to 10162
  156.1272  130.4162  150.0334 H   0  0  0  0  0  0  0  0  0  0  0  0  # atno 10718 bound_to 10713
  153.1603  135.4568  154.9763 H   0  0  0  0  0  0  0  0  0  0  0  0  # atno 10763 bound_to 10752
  154.7893  135.3215  154.7817 H   0  0  0  0  0  0  0  0  0  0  0  0  # atno 10764 bound_to 10752
  153.8308  135.6938  153.4869 H   0  0  0  0  0  0  0  0  0  0  0  0  # atno 10765 bound_to 10752
  140.8565  133.7819  156.0025 H   0  0  0  0  0  0  0  0  0  0  0  0  # atno 11005 bound_to 11000
  145.9833  139.2958  143.1029 LP  0  0  0  0  0  0  0  0  0  0  0  0  # atno 17320 bound_to 7965
  145.8986  140.9257  143.0515 LP  0  0  0  0  0  0  0  0  0  0  0  0  # atno 17321 bound_to 7965
  139.8862  143.7010  152.3151 LP  0  0  0  0  0  0  0  0  0  0  0  0  # atno 17342 bound_to 10162
  139.7310  144.7582  151.0802 LP  0  0  0  0  0  0  0  0  0  0  0  0  # atno 17343 bound_to 10162
  156.8256  130.9374  151.3639 LP  0  0  0  0  0  0  0  0  0  0  0  0  # atno 17370 bound_to 10713
  157.6453  130.8839  149.9526 LP  0  0  0  0  0  0  0  0  0  0  0  0  # atno 17371 bound_to 10713
  140.8731  134.2702  157.5181 LP  0  0  0  0  0  0  0  0  0  0  0  0  # atno 17394 bound_to 11000
  139.8705  134.9577  156.4278 LP  0  0  0  0  0  0  0  0  0  0  0  0  # atno 17395 bound_to 11000

$$$$
