AV-unprocessed.smi:33|AV-procd|sdf|209|dock7
  -GOLD-   2262015503D 1   1.00000     0.00000
 Structure written by MMmdl.
 67 72  0  0  0  0  0  0  0  0  1 V2000
  153.4414  140.1826  158.5659 O   0  0  0  0  0  0  0  0  0  0  0  0
  152.6157  141.0697  158.7918 C   0  0  0  0  0  0  0  0  0  0  0  0
  151.5505  141.3160  158.0041 O   0  0  0  0  0  0  0  0  0  0  0  0
  151.3881  140.6075  156.7862 C   0  0  0  0  0  0  0  0  0  0  0  0
  149.9238  140.6978  156.3342 C   0  0  2  0  0  0  0  0  0  0  0  0
  149.1312  139.7521  157.0617 O   0  0  0  0  0  0  0  0  0  0  0  0
  148.6631  138.7437  156.2152 C   0  0  2  0  0  0  0  0  0  0  0  0
  148.8149  137.4205  156.8958 N   0  0  0  0  0  0  0  0  0  0  0  0
  149.9751  136.8910  157.4159 C   0  0  0  0  0  0  0  0  0  0  0  0
  149.8560  135.7204  157.9807 N   0  0  0  0  0  0  0  0  0  0  0  0
  148.5101  135.4141  157.8331 C   0  0  0  0  0  0  0  0  0  0  0  0
  147.7032  134.3075  158.2131 C   0  0  0  0  0  0  0  0  0  0  0  0
  148.1963  133.2320  158.8719 N   0  0  0  0  0  0  0  0  0  0  0  0
  147.8734  133.1085  160.3016 C   0  0  0  0  0  0  0  0  0  0  0  0
  147.8967  131.9976  160.8356 O   0  0  0  0  0  0  0  0  0  0  0  0
  147.4576  134.3128  161.0987 C   0  0  0  0  0  0  0  0  0  0  0  0
  146.4561  134.1929  162.0871 C   0  0  0  0  0  0  0  0  0  0  0  0
  146.0686  135.3144  162.8457 C   0  0  0  0  0  0  0  0  0  0  0  0
  146.6924  136.5586  162.6338 C   0  0  0  0  0  0  0  0  0  0  0  0
  147.7118  136.6786  161.6704 C   0  0  0  0  0  0  0  0  0  0  0  0
  148.0998  135.5577  160.9110 C   0  0  0  0  0  0  0  0  0  0  0  0
  149.0199  132.2935  158.0958 C   0  0  0  0  0  0  0  0  0  0  0  0
  149.8653  131.6068  158.6723 O   0  0  0  0  0  0  0  0  0  0  0  0
  148.8678  132.1998  156.6039 C   0  0  0  0  0  0  0  0  0  0  0  0
  150.0079  132.0483  155.7841 C   0  0  0  0  0  0  0  0  0  0  0  0
  149.8687  131.9431  154.3866 C   0  0  0  0  0  0  0  0  0  0  0  0
  148.5885  131.9707  153.8014 C   0  0  0  0  0  0  0  0  0  0  0  0
  147.4460  132.0925  154.6150 C   0  0  0  0  0  0  0  0  0  0  0  0
  147.5843  132.1976  156.0124 C   0  0  0  0  0  0  0  0  0  0  0  0
  146.3816  134.3449  157.9021 N   0  0  0  0  0  0  0  0  0  0  0  0
  145.8821  135.4039  157.2588 C   0  0  0  0  0  0  0  0  0  0  0  0
  146.5156  136.5043  156.8477 N   0  0  0  0  0  0  0  0  0  0  0  0
  147.8440  136.4725  157.1552 C   0  0  0  0  0  0  0  0  0  0  0  0
  149.5123  138.8077  154.9496 C   0  0  1  0  0  0  0  0  0  0  0  0
  148.8496  138.3425  153.7908 O   0  0  0  0  0  0  0  0  0  0  0  0
  149.7521  140.3055  154.8647 C   0  0  1  0  0  0  0  0  0  0  0  0
  148.6704  140.9366  154.3986 F   0  0  0  0  0  0  0  0  0  0  0  0
  152.6908  141.9822  159.9687 C   0  0  0  0  0  0  0  0  0  0  0  0
  153.3852  141.5618  161.1271 C   0  0  0  0  0  0  0  0  0  0  0  0
  153.4745  142.4016  162.2543 C   0  0  0  0  0  0  0  0  0  0  0  0
  152.8697  143.6718  162.2371 C   0  0  0  0  0  0  0  0  0  0  0  0
  152.1750  144.1011  161.0912 C   0  0  0  0  0  0  0  0  0  0  0  0
  152.0847  143.2628  159.9628 C   0  0  0  0  0  0  0  0  0  0  0  0
  152.0381  141.0572  156.0349 H   0  0  0  0  0  0  0  0  0  0  0  0
  151.6925  139.5661  156.8889 H   0  0  0  0  0  0  0  0  0  0  0  0
  149.5540  141.7090  156.5092 H   0  0  0  0  0  0  0  0  0  0  0  0
  147.5936  138.8681  156.0383 H   0  0  0  0  0  0  0  0  0  0  0  0
  150.9215  137.4099  157.3687 H   0  0  0  0  0  0  0  0  0  0  0  0
  145.9693  133.2434  162.2578 H   0  0  0  0  0  0  0  0  0  0  0  0
  145.2921  135.2197  163.5904 H   0  0  0  0  0  0  0  0  0  0  0  0
  146.3938  137.4188  163.2148 H   0  0  0  0  0  0  0  0  0  0  0  0
  148.1972  137.6305  161.5138 H   0  0  0  0  0  0  0  0  0  0  0  0
  148.8866  135.6610  160.1777 H   0  0  0  0  0  0  0  0  0  0  0  0
  150.9952  132.0246  156.2224 H   0  0  0  0  0  0  0  0  0  0  0  0
  150.7447  131.8394  153.7636 H   0  0  0  0  0  0  0  0  0  0  0  0
  148.4825  131.8902  152.7296 H   0  0  0  0  0  0  0  0  0  0  0  0
  146.4628  132.1034  154.1678 H   0  0  0  0  0  0  0  0  0  0  0  0
  146.7000  132.2849  156.6273 H   0  0  0  0  0  0  0  0  0  0  0  0
  144.8241  135.3663  157.0435 H   0  0  0  0  0  0  0  0  0  0  0  0
  150.4523  138.2750  155.1033 H   0  0  0  0  0  0  0  0  0  0  0  0
  149.4031  137.7058  153.3648 H   0  0  0  0  0  0  0  0  0  0  0  0
  150.5947  140.5810  154.2295 H   0  0  0  0  0  0  0  0  0  0  0  0
  153.8582  140.5910  161.1638 H   0  0  0  0  0  0  0  0  0  0  0  0
  154.0083  142.0700  163.1327 H   0  0  0  0  0  0  0  0  0  0  0  0
  152.9384  144.3156  163.1015 H   0  0  0  0  0  0  0  0  0  0  0  0
  151.7100  145.0761  161.0768 H   0  0  0  0  0  0  0  0  0  0  0  0
  151.5438  143.6232  159.1000 H   0  0  0  0  0  0  0  0  0  0  0  0
  1  2  2  0  0  0  0
  2  3  1  0  0  0  0
  2 38  1  0  0  0  0
  3  4  1  0  0  0  0
  4  5  1  0  0  0  0
  4 44  1  0  0  0  0
  4 45  1  0  0  0  0
  5 36  1  0  0  0  0
  5  6  1  0  0  0  0
  5 46  1  0  0  0  0
  6  7  1  0  0  0  0
  7  8  1  0  0  0  0
  7 34  1  0  0  0  0
  7 47  1  0  0  0  0
  8 33  1  0  0  0  0
  8  9  1  0  0  0  0
  9 10  2  0  0  0  0
  9 48  1  0  0  0  0
 10 11  1  0  0  0  0
 11 33  2  0  0  0  0
 11 12  1  0  0  0  0
 12 13  1  0  0  0  0
 12 30  2  0  0  0  0
 13 14  1  0  0  0  0
 13 22  1  0  0  0  0
 14 15  2  0  0  0  0
 14 16  1  0  0  0  0
 16 21  1  0  0  0  0
 16 17  2  0  0  0  0
 17 18  1  0  0  0  0
 17 49  1  0  0  0  0
 18 19  2  0  0  0  0
 18 50  1  0  0  0  0
 19 20  1  0  0  0  0
 19 51  1  0  0  0  0
 20 21  2  0  0  0  0
 20 52  1  0  0  0  0
 21 53  1  0  0  0  0
 22 23  2  0  0  0  0
 22 24  1  0  0  0  0
 24 29  1  0  0  0  0
 24 25  2  0  0  0  0
 25 26  1  0  0  0  0
 25 54  1  0  0  0  0
 26 27  2  0  0  0  0
 26 55  1  0  0  0  0
 27 28  1  0  0  0  0
 27 56  1  0  0  0  0
 28 29  2  0  0  0  0
 28 57  1  0  0  0  0
 29 58  1  0  0  0  0
 30 31  1  0  0  0  0
 31 32  2  0  0  0  0
 31 59  1  0  0  0  0
 32 33  1  0  0  0  0
 34 35  1  0  0  0  0
 34 36  1  0  0  0  0
 34 60  1  0  0  0  0
 35 61  1  0  0  0  0
 36 37  1  0  0  0  0
 36 62  1  0  0  0  0
 38 43  1  0  0  0  0
 38 39  2  0  0  0  0
 39 40  1  0  0  0  0
 39 63  1  0  0  0  0
 40 41  2  0  0  0  0
 40 64  1  0  0  0  0
 41 42  1  0  0  0  0
 41 65  1  0  0  0  0
 42 43  2  0  0  0  0
 42 66  1  0  0  0  0
 43 67  1  0  0  0  0
M  END
> <s_m_source_file>
AV-unprocessed.smi

> <i_m_source_file_index>
33

> <i_lp_mmshare_version>
43012

> <i_f3d_flags>
0

> <s_epik_input>
W2NIXTFbY0hdW2NIXVtjSF1bY0hdYzFDKD1PKU9bQ0gyXVtDQEBIXTJPW0NASF0oW0NAQEhdKFtPSF0pW0NAQEhdMkYpbihbY0hdbjMpYyhjMzQpbltjSF1uYzROKEMoPU8pYzVbY0hdW2NIXVtjSF1bY0hdW2NIXTUpQyg9TyljNltjSF1bY0hdW2NIXVtjSF1bY0hdNg==

> <s_epik_cmdline>
J2VwaWtfcHl0aG9uJywgJy1waCcsICc3LjAnLCAnLXRuJywgJzgnLCAnLW1hJywgJzIwMCcsICctbWV0YWxfYmluZGluZycsICctaW1hZScsICc8aW5maWxlLm1hZT4nLCAnLW9tYWUnLCAnPG91dGZpbGUubWFlPic=

> <r_lp_tautomer_probability>
1

> <r_epik_Ionization_Penalty>
0.00067664

> <r_epik_Ionization_Penalty_Charging>
0

> <r_epik_Ionization_Penalty_Neutral>
0.00067664

> <r_epik_State_Penalty>
0.000428095

> <r_epik_Charging_Adjusted_Penalty>
0.000428095

> <i_epik_Tot_Q>
0

> <i_epik_Tot_abs_Q>
0

> <r_epik_Metal_State_Penalty>
-0

> <b_epik_Metal_Only>
0

> <s_epik_Chemistry_Notes>
This compound has an ester and may undergo hydrolysis at high or low pH. This compound contains an acetal/aminal-like group ( X-CH(R)-Y where X, Y are N, S, or O) that may be acid/base labile, releasing an aldehyde.

> <s_lp_Force_Field>
OPLS_2005

> <r_lp_Energy>
71.9351

> <b_lp_Chiralities_Consistent>
1

> <s_lp_Variant>
AV-unprocessed.smi:33-11

> <Gold.Version>
5.8.1

> <Gold.Id.Protein>
6NUR|6NUR_protein|mol2

> <Gold.PLP.Fitness>
69.1371

> <Gold.PLP.PLP>
-64.0729

> <Gold.PLP.part.hbond>
-3.3872

> <Gold.PLP.part.metal>
0.0000

> <Gold.PLP.part.buried>
-7.7519

> <Gold.PLP.part.nonpolar>
-53.2223

> <Gold.PLP.part.repulsive>
0.0000

> <Gold.PLP.ligand.clash>
0.0052

> <Gold.PLP.ligand.torsion>
3.6172

> <Gold.PLP.Chemscore.Hbond>
2.5200

> <Gold.PLP.Chemscore.CHOScore>
0.0000

> <Gold.PLP.Chemscore.Metal>
0.0000

> <Gold.Chemscore.Hbonds>
donor molecule, donor type, donor heavy atom, donor atom, acceptor molecule, acceptor atom, score
      L1  H    35    61       P1  7948  0.49
      P1  H  6896  6908       L1    10  0.77
      P1  H  7997  8010       L1     1  0.94

> <Gold.PLP.Chemscore.Internal.Correction>
4.7439

> <Gold.Rescore>
     Score         DG    S(hbond)    S(metal)    S(lipo)     H(rot)  DE(clash)    DE(int)     intcor
     20.59     -26.34       2.87        0.00     151.75       2.52       0.10       5.65       ----

> <Gold.Chemscore.Fitness>
20.5889

> <Gold.Chemscore.DG>
-26.3436

> <Gold.Chemscore.ZeroCoef>
-5.4800

> <Gold.Chemscore.Hbond>
2.8658

> <Gold.Chemscore.Metal>
0.0000

> <Gold.Chemscore.Lipo>
151.7528

> <Gold.Chemscore.Internal_Hbond>
0.0000

> <Gold.Chemscore.DEClash>
0.1004

> <Gold.Chemscore.DEInternal>
5.6543

> <Gold.Chemscore.Rot>
2.5247

> <Gold.Chemscore.Internal.Correction>
   9.000000E+99

> <Gold.Chemscore.Hbonds>
donor molecule, donor type, donor heavy atom, donor atom, acceptor molecule, acceptor atom, score
      L1  H    35    61       P1  7948  0.47
      P1  H  6896  6908       L1    10  0.51
      P1  H  7997  8010       L1     1  0.92

> <Gold.Chemscore.Hbond.Weighted>
-9.5717

> <Gold.Chemscore.Metal.Weighted>
-0.0000

> <Gold.Chemscore.Lipo.Weighted>
-17.7551

> <Gold.Chemscore.Internal_Hbond.Weighted>
0.0000

> <Gold.Chemscore.DEClash.Weighted>
0.1004

> <Gold.Chemscore.DEInternal.Weighted>
5.6543

> <Gold.Chemscore.Rot.Weighted>
6.4633

> <Gold.Chemscore.Internal.Correction.Weighted>
   9.000000E+99

> <Gold.Protein.RotatedTorsions>
[ 6907 6896 6895 6894 ] final  164.26 input  -60.11 | X-H torsion
[ 7974 7965 7964 7962 ] final  128.69 input  175.53 | X-H torsion
[ 8008 7997 7996 7995 ] final   30.46 input   59.86 | X-H torsion
[ 10167 10162 10161 10158 ] final   40.13 input  -65.29 | X-H torsion
[ 10718 10713 10712 10709 ] final -140.65 input   66.30 | X-H torsion
[ 10763 10752 10751 10750 ] final -168.37 input  -60.55 | X-H torsion
[ 11005 11000 10999 10996 ] final  135.37 input  -57.11 | X-H torsion

> <Gold.Protein.ActiveResidues>
 VAL166  LYS551  ARG553  GLY616  TRP617  ASP618  TYR619  PRO620  LYS621  CYS622 
 ASP623  PHE694  ASN695  SER759  ASP760  ASP761  ALA762  ILE779  LEU786  VAL792 
 PHE793  MET794  SER795  GLU796  ALA797  LYS798  CYS799  TRP800  GLU811  SER814 

> <Gold.Protein.RotatedAtoms>
  151.9125  133.3565  159.3868 H   0  0  0  0  0  0  0  0  0  0  0  0  # atno 6907 bound_to 6896
  150.7055  134.4717  159.5438 H   0  0  0  0  0  0  0  0  0  0  0  0  # atno 6908 bound_to 6896
  152.2326  134.8307  160.0522 H   0  0  0  0  0  0  0  0  0  0  0  0  # atno 6909 bound_to 6896
  145.0368  139.3998  143.5122 H   0  0  0  0  0  0  0  0  0  0  0  0  # atno 7974 bound_to 7965
  155.0908  140.3220  155.4574 H   0  0  0  0  0  0  0  0  0  0  0  0  # atno 8008 bound_to 7997
  156.2743  140.2078  156.5982 H   0  0  0  0  0  0  0  0  0  0  0  0  # atno 8009 bound_to 7997
  154.6904  140.0517  157.0345 H   0  0  0  0  0  0  0  0  0  0  0  0  # atno 8010 bound_to 7997
  140.3772  144.2028  150.6131 H   0  0  0  0  0  0  0  0  0  0  0  0  # atno 10167 bound_to 10162
  156.3248  130.7554  151.1660 H   0  0  0  0  0  0  0  0  0  0  0  0  # atno 10718 bound_to 10713
  154.6636  135.2928  154.9835 H   0  0  0  0  0  0  0  0  0  0  0  0  # atno 10763 bound_to 10752
  154.0886  135.6594  153.4853 H   0  0  0  0  0  0  0  0  0  0  0  0  # atno 10764 bound_to 10752
  153.0444  135.5214  154.7598 H   0  0  0  0  0  0  0  0  0  0  0  0  # atno 10765 bound_to 10752
  139.9975  134.9491  156.9997 H   0  0  0  0  0  0  0  0  0  0  0  0  # atno 11005 bound_to 11000
  146.3505  139.9947  142.8682 LP  0  0  0  0  0  0  0  0  0  0  0  0  # atno 17320 bound_to 7965
  145.1699  140.9715  143.4328 LP  0  0  0  0  0  0  0  0  0  0  0  0  # atno 17321 bound_to 7965
  140.4974  143.2328  151.8729 LP  0  0  0  0  0  0  0  0  0  0  0  0  # atno 17342 bound_to 10162
  139.4798  144.5098  151.8949 LP  0  0  0  0  0  0  0  0  0  0  0  0  # atno 17343 bound_to 10162
  157.7419  131.0497  150.5063 LP  0  0  0  0  0  0  0  0  0  0  0  0  # atno 17370 bound_to 10713
  156.5220  130.4164  149.6245 LP  0  0  0  0  0  0  0  0  0  0  0  0  # atno 17371 bound_to 10713
  140.4790  134.1308  155.7214 LP  0  0  0  0  0  0  0  0  0  0  0  0  # atno 17394 bound_to 11000
  141.1616  133.8782  157.1832 LP  0  0  0  0  0  0  0  0  0  0  0  0  # atno 17395 bound_to 11000

$$$$
