AV-unprocessed.smi:3255|AV-procd|sdf|12457|dock6
  -GOLD-   2272018353D 1   1.00000     0.00000
 Structure written by MMmdl.
 39 40  0  0  0  0  0  0  0  0  2 V2000
  146.7568  141.6728  154.5514 C   0  0  0  0  0  0  0  0  0  0  0  0
  148.1661  141.2826  154.0794 C   0  0  2  0  0  0  0  0  0  0  0  0
  148.0380  140.3650  152.9501 N   0  0  0  0  0  0  0  0  0  0  0  0
  147.1658  139.3509  152.8711 C   0  0  0  0  0  0  0  0  0  0  0  0
  146.3837  139.0382  153.7694 O   0  0  0  0  0  0  0  0  0  0  0  0
  147.2207  138.7393  151.6796 N   0  0  0  0  0  0  0  0  0  0  0  0
  146.3371  137.6590  151.2499 C   0  0  0  0  0  0  0  0  0  0  0  0
  146.1530  136.5905  152.3456 C   0  0  0  0  0  0  0  0  0  0  0  0
  145.2086  135.5350  151.9643 N   0  0  0  0  0  0  0  0  0  0  0  0
  144.9596  134.3605  152.6277 C   0  0  0  0  0  0  0  0  0  0  0  0
  144.0192  133.6878  151.8911 C   0  0  0  0  0  0  0  0  0  0  0  0
  143.7313  134.4807  150.8129 N   0  3  0  0  0  0  0  0  0  0  0  0
  144.4525  135.6052  150.8612 C   0  0  0  0  0  0  0  0  0  0  0  0
  148.9968  140.6240  155.2024 C   0  0  2  0  0  0  0  0  0  0  0  0
  149.1839  141.4900  156.4504 C   0  0  0  0  0  0  0  0  0  0  0  0
  150.4865  140.9877  157.0553 C   0  0  0  0  0  0  0  0  0  0  0  0
  151.0969  140.1147  155.9574 C   0  0  0  0  0  0  0  0  0  0  0  0
  150.3403  140.4103  154.7934 O   0  0  0  0  0  0  0  0  0  0  0  0
  146.7953  142.4079  155.3554 H   0  0  0  0  0  0  0  0  0  0  0  0
  146.2064  140.8061  154.9189 H   0  0  0  0  0  0  0  0  0  0  0  0
  146.1790  142.1136  153.7381 H   0  0  0  0  0  0  0  0  0  0  0  0
  148.6700  142.1938  153.7518 H   0  0  0  0  0  0  0  0  0  0  0  0
  148.6359  140.5402  152.1559 H   0  0  0  0  0  0  0  0  0  0  0  0
  147.9018  139.0651  151.0091 H   0  0  0  0  0  0  0  0  0  0  0  0
  145.3693  138.1025  151.0159 H   0  0  0  0  0  0  0  0  0  0  0  0
  146.6933  137.2064  150.3229 H   0  0  0  0  0  0  0  0  0  0  0  0
  147.1069  136.1223  152.5927 H   0  0  0  0  0  0  0  0  0  0  0  0
  145.7806  137.0512  153.2615 H   0  0  0  0  0  0  0  0  0  0  0  0
  145.4643  134.0924  153.5443 H   0  0  0  0  0  0  0  0  0  0  0  0
  143.5488  132.7279  152.0473 H   0  0  0  0  0  0  0  0  0  0  0  0
  144.4361  136.4063  150.1437 H   0  0  0  0  0  0  0  0  0  0  0  0
  148.5607  139.6627  155.4822 H   0  0  0  0  0  0  0  0  0  0  0  0
  149.2945  142.5385  156.1707 H   0  0  0  0  0  0  0  0  0  0  0  0
  148.3432  141.4150  157.1408 H   0  0  0  0  0  0  0  0  0  0  0  0
  151.1389  141.8235  157.3108 H   0  0  0  0  0  0  0  0  0  0  0  0
  150.3142  140.4064  157.9617 H   0  0  0  0  0  0  0  0  0  0  0  0
  152.1566  140.3163  155.8013 H   0  0  0  0  0  0  0  0  0  0  0  0
  150.9830  139.0568  156.1987 H   0  0  0  0  0  0  0  0  0  0  0  0
  143.0720  134.2495  150.0802 H   0  0  0  0  0  0  0  0  0  0  0  0
  1  2  1  0  0  0  0
  1 19  1  0  0  0  0
  1 20  1  0  0  0  0
  1 21  1  0  0  0  0
  2  3  1  0  0  0  0
  2 14  1  0  0  0  0
  2 22  1  0  0  0  0
  3  4  1  0  0  0  0
  3 23  1  0  0  0  0
  4  5  2  0  0  0  0
  4  6  1  0  0  0  0
  6  7  1  0  0  0  0
  6 24  1  0  0  0  0
  7  8  1  0  0  0  0
  7 25  1  0  0  0  0
  7 26  1  0  0  0  0
  8  9  1  0  0  0  0
  8 27  1  0  0  0  0
  8 28  1  0  0  0  0
  9 13  1  0  0  0  0
  9 10  1  0  0  0  0
 10 11  2  0  0  0  0
 10 29  1  0  0  0  0
 11 12  1  0  0  0  0
 11 30  1  0  0  0  0
 12 13  2  0  0  0  0
 12 39  1  0  0  0  0
 13 31  1  0  0  0  0
 14 18  1  0  0  0  0
 14 15  1  0  0  0  0
 14 32  1  0  0  0  0
 15 16  1  0  0  0  0
 15 33  1  0  0  0  0
 15 34  1  0  0  0  0
 16 17  1  0  0  0  0
 16 35  1  0  0  0  0
 16 36  1  0  0  0  0
 17 18  1  0  0  0  0
 17 37  1  0  0  0  0
 17 38  1  0  0  0  0
M  CHG  1  12   1
M  END
> <s_m_source_file>
AV-unprocessed.smi

> <i_m_source_file_index>
3255

> <i_lp_mmshare_version>
43012

> <i_f3d_flags>
0

> <s_epik_input>
TzFbQ0gyXVtDSDJdW0NIMl1bQ0BIXTFbQ0BIXShbQ0gzXSlbTkhdQyg9TylbTkhdW0NIMl1bQ0gyXW4yW2NIXVtjSF1uW2NIXTI=

> <s_epik_cmdline>
J2VwaWtfcHl0aG9uJywgJy1waCcsICc3LjAnLCAnLXRuJywgJzgnLCAnLW1hJywgJzIwMCcsICctbWV0YWxfYmluZGluZycsICctaW1hZScsICc8aW5maWxlLm1hZT4nLCAnLW9tYWUnLCAnPG91dGZpbGUubWFlPic=

> <r_lp_tautomer_probability>
1

> <r_epik_Ionization_Penalty>
0.256241

> <r_epik_Ionization_Penalty_Charging>
0

> <r_epik_Ionization_Penalty_Neutral>
0.256241

> <r_epik_State_Penalty>
0.247735

> <r_epik_Charging_Adjusted_Penalty>
0.247735

> <i_epik_Tot_Q>
1

> <i_epik_Tot_abs_Q>
1

> <r_epik_Metal_State_Penalty>
0.537184

> <b_epik_Metal_Only>
0

> <s_lp_Force_Field>
OPLS_2005

> <r_lp_Energy>
16.926

> <b_lp_Chiralities_Consistent>
1

> <s_lp_Variant>
AV-unprocessed.smi:3255-1

> <Gold.Version>
5.8.1

> <Gold.Id.Protein>
6NUR|6NUR_protein|mol2

> <Gold.PLP.Fitness>
46.8230

> <Gold.PLP.PLP>
-30.8477

> <Gold.PLP.part.hbond>
-4.2796

> <Gold.PLP.part.metal>
0.0000

> <Gold.PLP.part.buried>
-0.3282

> <Gold.PLP.part.nonpolar>
-27.1069

> <Gold.PLP.part.repulsive>
0.4936

> <Gold.PLP.ligand.clash>
0.0000

> <Gold.PLP.ligand.torsion>
0.4595

> <Gold.PLP.Chemscore.Hbond>
4.6077

> <Gold.PLP.Chemscore.CHOScore>
1.0000

> <Gold.PLP.Chemscore.Metal>
0.0000

> <Gold.Chemscore.Hbonds>
donor molecule, donor type, donor heavy atom, donor atom, acceptor molecule, acceptor atom, score
      L1  H     3    23       P1  7957  0.83
      L1  H     6    24       P1  7957  0.72
      L1  H    12    39       P1 10186  1.24
      P1  H  7989  7998       L1    18  1.00
      L1  C    13    31       P1 10171  1.00

> <Gold.PLP.Chemscore.Internal.Correction>
0.0711

> <Gold.Rescore>
     Score         DG    S(hbond)    S(metal)    S(lipo)     H(rot)  DE(clash)    DE(int)     intcor
     11.30     -15.33       2.79        0.00      54.17       2.26       0.77       3.25       ----

> <Gold.Chemscore.Fitness>
11.3013

> <Gold.Chemscore.DG>
-15.3260

> <Gold.Chemscore.ZeroCoef>
-5.4800

> <Gold.Chemscore.Hbond>
2.7855

> <Gold.Chemscore.Metal>
0.0000

> <Gold.Chemscore.Lipo>
54.1735

> <Gold.Chemscore.Internal_Hbond>
0.0000

> <Gold.Chemscore.DEClash>
0.7716

> <Gold.Chemscore.DEInternal>
3.2530

> <Gold.Chemscore.Rot>
2.2640

> <Gold.Chemscore.Internal.Correction>
   9.000000E+99

> <Gold.Chemscore.Hbonds>
donor molecule, donor type, donor heavy atom, donor atom, acceptor molecule, acceptor atom, score
      L1  H     3    23       P1  7957  0.78
      L1  H     6    24       P1  7957  0.25
      L1  H    12    39       P1 10186  0.58
      P1  H  7989  7998       L1    18  0.48

> <Gold.Chemscore.Hbond.Weighted>
-9.3035

> <Gold.Chemscore.Metal.Weighted>
-0.0000

> <Gold.Chemscore.Lipo.Weighted>
-6.3383

> <Gold.Chemscore.Internal_Hbond.Weighted>
0.0000

> <Gold.Chemscore.DEClash.Weighted>
0.7716

> <Gold.Chemscore.DEInternal.Weighted>
3.2530

> <Gold.Chemscore.Rot.Weighted>
5.7958

> <Gold.Chemscore.Internal.Correction.Weighted>
   9.000000E+99

> <Gold.Protein.RotatedTorsions>
[ 6907 6896 6895 6894 ] final   81.33 input  -60.11 | X-H torsion
[ 7974 7965 7964 7962 ] final -105.09 input  175.53 | X-H torsion
[ 8008 7997 7996 7995 ] final  -33.41 input   59.86 | X-H torsion
[ 10167 10162 10161 10158 ] final  127.98 input  -65.29 | X-H torsion
[ 10718 10713 10712 10709 ] final   82.63 input   66.30 | X-H torsion
[ 10763 10752 10751 10750 ] final  -50.90 input  -60.55 | X-H torsion
[ 11005 11000 10999 10996 ] final   60.79 input  -57.11 | X-H torsion

> <Gold.Protein.ActiveResidues>
 VAL166  LYS551  ARG553  GLY616  TRP617  ASP618  TYR619  PRO620  LYS621  CYS622 
 ASP623  PHE694  ASN695  SER759  ASP760  ASP761  ALA762  ILE779  LEU786  VAL792 
 PHE793  MET794  SER795  GLU796  ALA797  LYS798  CYS799  TRP800  GLU811  SER814 

> <Gold.Protein.RotatedAtoms>
  152.5265  134.3221  159.9151 H   0  0  0  0  0  0  0  0  0  0  0  0  # atno 6907 bound_to 6896
  151.3170  133.4050  159.2659 H   0  0  0  0  0  0  0  0  0  0  0  0  # atno 6908 bound_to 6896
  150.9991  134.9324  159.8001 H   0  0  0  0  0  0  0  0  0  0  0  0  # atno 6909 bound_to 6896
  145.2349  140.9184  143.3183 H   0  0  0  0  0  0  0  0  0  0  0  0  # atno 7974 bound_to 7965
  154.4150  140.1711  156.1883 H   0  0  0  0  0  0  0  0  0  0  0  0  # atno 8008 bound_to 7997
  155.9625  140.3392  155.6479 H   0  0  0  0  0  0  0  0  0  0  0  0  # atno 8009 bound_to 7997
  155.6730  140.0714  157.2503 H   0  0  0  0  0  0  0  0  0  0  0  0  # atno 8010 bound_to 7997
  139.5550  144.6842  151.4209 H   0  0  0  0  0  0  0  0  0  0  0  0  # atno 10167 bound_to 10162
  157.6861  131.0056  150.2404 H   0  0  0  0  0  0  0  0  0  0  0  0  # atno 10718 bound_to 10713
  154.1179  135.6539  153.4897 H   0  0  0  0  0  0  0  0  0  0  0  0  # atno 10763 bound_to 10752
  153.0235  135.5263  154.7127 H   0  0  0  0  0  0  0  0  0  0  0  0  # atno 10764 bound_to 10752
  154.6326  135.2978  155.0169 H   0  0  0  0  0  0  0  0  0  0  0  0  # atno 10765 bound_to 10752
  140.0206  134.6158  155.9645 H   0  0  0  0  0  0  0  0  0  0  0  0  # atno 11005 bound_to 11000
  144.9642  139.3947  143.6340 LP  0  0  0  0  0  0  0  0  0  0  0  0  # atno 17320 bound_to 7965
  146.3343  139.8710  142.8840 LP  0  0  0  0  0  0  0  0  0  0  0  0  # atno 17321 bound_to 7965
  140.6821  143.8058  150.7136 LP  0  0  0  0  0  0  0  0  0  0  0  0  # atno 17342 bound_to 10162
  140.1514  143.4354  152.2128 LP  0  0  0  0  0  0  0  0  0  0  0  0  # atno 17343 bound_to 10162
  156.3019  130.3759  149.7742 LP  0  0  0  0  0  0  0  0  0  0  0  0  # atno 17370 bound_to 10713
  156.5369  130.8283  151.3256 LP  0  0  0  0  0  0  0  0  0  0  0  0  # atno 17371 bound_to 10713
  141.1771  133.6541  156.4873 LP  0  0  0  0  0  0  0  0  0  0  0  0  # atno 17394 bound_to 11000
  140.4393  134.7030  157.4983 LP  0  0  0  0  0  0  0  0  0  0  0  0  # atno 17395 bound_to 11000

$$$$
