AV-unprocessed.smi:70|AV-procd|sdf|659|dock2
  -GOLD-   2262016563D 1   1.00000     0.00000
 Structure written by MMmdl.
 25 26  0  0  0  0  0  0  0  0  2 V2000
  149.4778  141.1640  153.2570 O   0  0  0  0  0  0  0  0  0  0  0  0
  148.5190  140.7644  154.2216 C   0  0  1  0  0  0  0  0  0  0  0  0
  149.2492  140.1187  155.4231 C   0  0  0  0  0  0  0  0  0  0  0  0
  150.5546  139.5747  155.0842 N   0  0  0  0  0  0  0  0  0  0  0  0
  150.8564  138.5422  154.2200 C   0  0  0  0  0  0  0  0  0  0  0  0
  152.2176  138.4584  154.2874 C   0  0  0  0  0  0  0  0  0  0  0  0
  152.6805  139.4248  155.1780 N   0  0  0  0  0  0  0  0  0  0  0  0
  151.6726  140.0853  155.6541 N   0  0  0  0  0  0  0  0  0  0  0  0
  147.6719  141.9808  154.6030 C   0  0  0  0  0  0  0  0  0  0  0  0
  146.6485  142.0930  153.4693 C   0  0  0  0  0  0  0  0  0  0  0  0
  146.4858  140.7331  152.9179 N   0  3  0  0  0  0  0  0  0  0  0  0
  147.4961  139.8483  153.5318 C   0  0  0  0  0  0  0  0  0  0  0  0
  149.5303  140.4985  152.5875 H   0  0  0  0  0  0  0  0  0  0  0  0
  149.3666  140.8390  156.2345 H   0  0  0  0  0  0  0  0  0  0  0  0
  148.6484  139.3026  155.8266 H   0  0  0  0  0  0  0  0  0  0  0  0
  150.1169  137.9867  153.6624 H   0  0  0  0  0  0  0  0  0  0  0  0
  152.8954  137.7900  153.7765 H   0  0  0  0  0  0  0  0  0  0  0  0
  147.1445  141.7868  155.5384 H   0  0  0  0  0  0  0  0  0  0  0  0
  148.2562  142.8917  154.7404 H   0  0  0  0  0  0  0  0  0  0  0  0
  145.6969  142.5023  153.8087 H   0  0  0  0  0  0  0  0  0  0  0  0
  147.0298  142.7400  152.6786 H   0  0  0  0  0  0  0  0  0  0  0  0
  145.5597  140.3806  153.1130 H   0  0  0  0  0  0  0  0  0  0  0  0
  147.9426  139.1729  152.8005 H   0  0  0  0  0  0  0  0  0  0  0  0
  146.9830  139.2356  154.2740 H   0  0  0  0  0  0  0  0  0  0  0  0
  146.6322  140.7683  151.9190 H   0  0  0  0  0  0  0  0  0  0  0  0
  1  2  1  0  0  0  0
  1 13  1  0  0  0  0
  2 12  1  0  0  0  0
  2  3  1  0  0  0  0
  2  9  1  0  0  0  0
  3  4  1  0  0  0  0
  3 14  1  0  0  0  0
  3 15  1  0  0  0  0
  4  8  1  0  0  0  0
  4  5  1  0  0  0  0
  5  6  2  0  0  0  0
  5 16  1  0  0  0  0
  6  7  1  0  0  0  0
  6 17  1  0  0  0  0
  7  8  2  0  0  0  0
  9 10  1  0  0  0  0
  9 18  1  0  0  0  0
  9 19  1  0  0  0  0
 10 11  1  0  0  0  0
 10 20  1  0  0  0  0
 10 21  1  0  0  0  0
 11 12  1  0  0  0  0
 11 22  1  0  0  0  0
 11 25  1  0  0  0  0
 12 23  1  0  0  0  0
 12 24  1  0  0  0  0
M  CHG  1  11   1
M  END
> <s_m_source_file>
AV-unprocessed.smi

> <i_m_source_file_index>
70

> <i_lp_mmshare_version>
43012

> <i_f3d_flags>
0

> <s_epik_input>
W0NIMl0xW05IXVtDSDJdW0NIMl1bQ0BAXTEoW09IXSlbQ0gyXW4yW2NIXVtjSF1ubjI=

> <s_epik_cmdline>
J2VwaWtfcHl0aG9uJywgJy1waCcsICc3LjAnLCAnLXRuJywgJzgnLCAnLW1hJywgJzIwMCcsICctbWV0YWxfYmluZGluZycsICctaW1hZScsICc8aW5maWxlLm1hZT4nLCAnLW9tYWUnLCAnPG91dGZpbGUubWFlPic=

> <r_lp_tautomer_probability>
1

> <r_epik_Ionization_Penalty>
0.00649776

> <r_epik_Ionization_Penalty_Charging>
0.00648305

> <r_epik_Ionization_Penalty_Neutral>
1.4704e-05

> <r_epik_State_Penalty>
0.00479756

> <r_epik_Charging_Adjusted_Penalty>
0.0112806

> <i_epik_Tot_Q>
1

> <i_epik_Tot_abs_Q>
1

> <r_epik_Metal_State_Penalty>
-0

> <b_epik_Metal_Only>
0

> <s_lp_Force_Field>
OPLS_2005

> <r_lp_Energy>
25.0563

> <b_lp_Chiralities_Consistent>
1

> <s_lp_Variant>
AV-unprocessed.smi:70-1

> <Gold.Version>
5.8.1

> <Gold.Id.Protein>
6NUR|6NUR_protein|mol2

> <Gold.PLP.Fitness>
39.1460

> <Gold.PLP.PLP>
-25.7071

> <Gold.PLP.part.hbond>
-5.1067

> <Gold.PLP.part.metal>
0.0000

> <Gold.PLP.part.buried>
-3.3931

> <Gold.PLP.part.nonpolar>
-16.2933

> <Gold.PLP.part.repulsive>
0.0262

> <Gold.PLP.ligand.clash>
0.0000

> <Gold.PLP.ligand.torsion>
0.7436

> <Gold.PLP.Chemscore.Hbond>
4.5961

> <Gold.PLP.Chemscore.CHOScore>
0.3785

> <Gold.PLP.Chemscore.Metal>
0.0000

> <Gold.Chemscore.Hbonds>
donor molecule, donor type, donor heavy atom, donor atom, acceptor molecule, acceptor atom, score
      L1  H     1    13       P1  7957  0.91
      L1  H    11    22       P1 10175  1.66
      P1  H  7989  7998       L1     1  0.02
      P1  H  7997  8009       L1     7  0.89
      P1  H  8011  8017       L1     1  0.85
      L1  C     5    16       P1  7948  0.51

> <Gold.PLP.Chemscore.Internal.Correction>
0.0024

> <Gold.Rescore>
     Score         DG    S(hbond)    S(metal)    S(lipo)     H(rot)  DE(clash)    DE(int)     intcor
     14.71     -15.85       2.77        0.00      50.43       1.87       0.41       0.73       ----

> <Gold.Chemscore.Fitness>
14.7095

> <Gold.Chemscore.DG>
-15.8548

> <Gold.Chemscore.ZeroCoef>
-5.4800

> <Gold.Chemscore.Hbond>
2.7706

> <Gold.Chemscore.Metal>
0.0000

> <Gold.Chemscore.Lipo>
50.4284

> <Gold.Chemscore.Internal_Hbond>
0.0000

> <Gold.Chemscore.DEClash>
0.4128

> <Gold.Chemscore.DEInternal>
0.7325

> <Gold.Chemscore.Rot>
1.8669

> <Gold.Chemscore.Internal.Correction>
   9.000000E+99

> <Gold.Chemscore.Hbonds>
donor molecule, donor type, donor heavy atom, donor atom, acceptor molecule, acceptor atom, score
      L1  H     1    13       P1  7957  0.85
      L1  H    11    22       P1 10175  0.75
      P1  H  7997  8009       L1     7  0.48
      P1  H  8011  8017       L1     1  0.14

> <Gold.Chemscore.Hbond.Weighted>
-9.2538

> <Gold.Chemscore.Metal.Weighted>
-0.0000

> <Gold.Chemscore.Lipo.Weighted>
-5.9001

> <Gold.Chemscore.Internal_Hbond.Weighted>
0.0000

> <Gold.Chemscore.DEClash.Weighted>
0.4128

> <Gold.Chemscore.DEInternal.Weighted>
0.7325

> <Gold.Chemscore.Rot.Weighted>
4.7791

> <Gold.Chemscore.Internal.Correction.Weighted>
   9.000000E+99

> <Gold.Protein.RotatedTorsions>
[ 6907 6896 6895 6894 ] final  166.73 input  -60.11 | X-H torsion
[ 7974 7965 7964 7962 ] final   62.86 input  175.53 | X-H torsion
[ 8008 7997 7996 7995 ] final -153.65 input   59.86 | X-H torsion
[ 10167 10162 10161 10158 ] final  -77.01 input  -65.29 | X-H torsion
[ 10718 10713 10712 10709 ] final  164.98 input   66.30 | X-H torsion
[ 10763 10752 10751 10750 ] final  171.17 input  -60.55 | X-H torsion
[ 11005 11000 10999 10996 ] final   73.52 input  -57.11 | X-H torsion

> <Gold.Protein.ActiveResidues>
 VAL166  LYS551  ARG553  GLY616  TRP617  ASP618  TYR619  PRO620  LYS621  CYS622 
 ASP623  PHE694  ASN695  SER759  ASP760  ASP761  ALA762  ILE779  LEU786  VAL792 
 PHE793  MET794  SER795  GLU796  ALA797  LYS798  CYS799  TRP800  GLU811  SER814 

> <Gold.Protein.RotatedAtoms>
  151.8743  133.3482  159.3744 H   0  0  0  0  0  0  0  0  0  0  0  0  # atno 6907 bound_to 6896
  150.7144  134.5081  159.5603 H   0  0  0  0  0  0  0  0  0  0  0  0  # atno 6908 bound_to 6896
  152.2620  134.8024  160.0480 H   0  0  0  0  0  0  0  0  0  0  0  0  # atno 6909 bound_to 6896
  145.8685  139.3362  143.0777 H   0  0  0  0  0  0  0  0  0  0  0  0  # atno 7974 bound_to 7965
  155.6742  140.0737  157.2509 H   0  0  0  0  0  0  0  0  0  0  0  0  # atno 8008 bound_to 7997
  154.4117  140.1693  156.1963 H   0  0  0  0  0  0  0  0  0  0  0  0  # atno 8009 bound_to 7997
  155.9591  140.3371  155.6477 H   0  0  0  0  0  0  0  0  0  0  0  0  # atno 8010 bound_to 7997
  140.4807  143.2403  151.8062 H   0  0  0  0  0  0  0  0  0  0  0  0  # atno 10167 bound_to 10162
  157.0866  131.0406  151.2554 H   0  0  0  0  0  0  0  0  0  0  0  0  # atno 10718 bound_to 10713
  154.4081  135.2756  155.2054 H   0  0  0  0  0  0  0  0  0  0  0  0  # atno 10763 bound_to 10752
  154.4051  135.6035  153.5923 H   0  0  0  0  0  0  0  0  0  0  0  0  # atno 10764 bound_to 10752
  152.9831  135.5936  154.4359 H   0  0  0  0  0  0  0  0  0  0  0  0  # atno 10765 bound_to 10752
  139.9436  134.7354  156.1036 H   0  0  0  0  0  0  0  0  0  0  0  0  # atno 11005 bound_to 11000
  145.9165  140.9145  143.0427 LP  0  0  0  0  0  0  0  0  0  0  0  0  # atno 17320 bound_to 7965
  144.6726  140.1231  143.7448 LP  0  0  0  0  0  0  0  0  0  0  0  0  # atno 17321 bound_to 7965
  139.4833  144.4776  151.9348 LP  0  0  0  0  0  0  0  0  0  0  0  0  # atno 17342 bound_to 10162
  140.3861  144.2675  150.5904 LP  0  0  0  0  0  0  0  0  0  0  0  0  # atno 17343 bound_to 10162
  157.4756  130.7734  149.7364 LP  0  0  0  0  0  0  0  0  0  0  0  0  # atno 17370 bound_to 10713
  155.9909  130.3941  150.3008 LP  0  0  0  0  0  0  0  0  0  0  0  0  # atno 17371 bound_to 10713
  141.1079  133.6653  156.2907 LP  0  0  0  0  0  0  0  0  0  0  0  0  # atno 17394 bound_to 11000
  140.5890  134.5669  157.5495 LP  0  0  0  0  0  0  0  0  0  0  0  0  # atno 17395 bound_to 11000

$$$$
