AV-unprocessed.smi:2184|AV-procd|sdf|8873|dock1
  -GOLD-   2272012 73D 1   1.00000     0.00000
 Structure written by MMmdl.
 47 48  0  0  0  0  0  0  0  0  1 V2000
  153.8100  133.4461  165.1783 C   0  0  0  0  0  0  0  0  0  0  0  0
  154.6428  133.9305  163.6415 S   0  0  0  0  0  0  0  0  0  0  0  0
  154.9760  135.6878  163.9673 C   0  0  2  0  0  0  0  0  0  0  0  0
  153.7073  136.3815  164.4883 C   0  0  0  0  0  0  0  0  0  0  0  0
  155.5316  136.4033  162.7295 C   0  0  0  0  0  0  0  0  0  0  0  0
  155.6304  135.8077  161.6564 O   0  0  0  0  0  0  0  0  0  0  0  0
  155.9019  137.6815  162.8942 N   0  0  0  0  0  0  0  0  0  0  0  0
  156.4683  138.5187  161.8435 C   0  0  0  0  0  0  0  0  0  0  0  0
  155.4842  139.4892  161.2051 C   0  0  0  0  0  0  0  0  0  0  0  0
  154.8083  140.4922  161.9340 C   0  0  0  0  0  0  0  0  0  0  0  0
  153.9130  141.3431  161.2581 C   0  0  0  0  0  0  0  0  0  0  0  0
  153.7136  141.1748  159.8675 C   0  0  0  0  0  0  0  0  0  0  0  0
  152.8226  142.0192  159.1700 N   0  0  0  0  0  0  0  0  0  0  0  0
  152.2815  143.1793  159.8754 C   0  0  0  0  0  0  0  0  0  0  0  0
  151.5857  144.1483  158.8994 C   0  0  1  0  0  0  0  0  0  0  0  0
  152.5684  144.9780  158.0539 C   0  0  0  0  0  0  0  0  0  0  0  0
  150.6418  143.4421  158.0914 O   0  0  0  0  0  0  0  0  0  0  0  0
  151.1851  142.3442  157.3596 C   0  0  2  0  0  0  0  0  0  0  0  0
  150.0493  141.7020  156.5563 C   0  0  0  0  0  0  0  0  0  0  0  0
  151.8346  141.3452  158.3337 C   0  0  0  0  0  0  0  0  0  0  0  0
  154.3585  140.2056  159.1729 N   0  0  0  0  0  0  0  0  0  0  0  0
  155.2158  139.3929  159.8252 C   0  0  0  0  0  0  0  0  0  0  0  0
  153.5038  132.4015  165.1229 H   0  0  0  0  0  0  0  0  0  0  0  0
  152.9226  134.0576  165.3410 H   0  0  0  0  0  0  0  0  0  0  0  0
  154.4762  133.5619  166.0330 H   0  0  0  0  0  0  0  0  0  0  0  0
  155.7229  135.7325  164.7614 H   0  0  0  0  0  0  0  0  0  0  0  0
  153.8837  137.4406  164.6808 H   0  0  0  0  0  0  0  0  0  0  0  0
  153.3756  135.9308  165.4241 H   0  0  0  0  0  0  0  0  0  0  0  0
  152.8846  136.3030  163.7763 H   0  0  0  0  0  0  0  0  0  0  0  0
  155.7919  138.0984  163.8069 H   0  0  0  0  0  0  0  0  0  0  0  0
  157.2994  139.0918  162.2573 H   0  0  0  0  0  0  0  0  0  0  0  0
  156.8797  137.8810  161.0595 H   0  0  0  0  0  0  0  0  0  0  0  0
  154.9587  140.6188  162.9955 H   0  0  0  0  0  0  0  0  0  0  0  0
  153.3818  142.1010  161.8142 H   0  0  0  0  0  0  0  0  0  0  0  0
  151.5631  142.8316  160.6194 H   0  0  0  0  0  0  0  0  0  0  0  0
  153.0715  143.7057  160.4127 H   0  0  0  0  0  0  0  0  0  0  0  0
  151.0067  144.8563  159.4927 H   0  0  0  0  0  0  0  0  0  0  0  0
  153.1834  145.6134  158.6915 H   0  0  0  0  0  0  0  0  0  0  0  0
  152.0329  145.6268  157.3607 H   0  0  0  0  0  0  0  0  0  0  0  0
  153.2458  144.3523  157.4734 H   0  0  0  0  0  0  0  0  0  0  0  0
  151.9331  142.7060  156.6536 H   0  0  0  0  0  0  0  0  0  0  0  0
  150.4127  140.8602  155.9665 H   0  0  0  0  0  0  0  0  0  0  0  0
  149.6037  142.4214  155.8692 H   0  0  0  0  0  0  0  0  0  0  0  0
  149.2598  141.3353  157.2129 H   0  0  0  0  0  0  0  0  0  0  0  0
  152.2759  140.5289  157.7635 H   0  0  0  0  0  0  0  0  0  0  0  0
  151.0749  140.9037  158.9803 H   0  0  0  0  0  0  0  0  0  0  0  0
  155.7032  138.6394  159.2242 H   0  0  0  0  0  0  0  0  0  0  0  0
  1  2  1  0  0  0  0
  1 23  1  0  0  0  0
  1 24  1  0  0  0  0
  1 25  1  0  0  0  0
  2  3  1  0  0  0  0
  3  4  1  0  0  0  0
  3  5  1  0  0  0  0
  3 26  1  0  0  0  0
  4 27  1  0  0  0  0
  4 28  1  0  0  0  0
  4 29  1  0  0  0  0
  5  6  2  0  0  0  0
  5  7  1  0  0  0  0
  7  8  1  0  0  0  0
  7 30  1  0  0  0  0
  8  9  1  0  0  0  0
  8 31  1  0  0  0  0
  8 32  1  0  0  0  0
  9 22  1  0  0  0  0
  9 10  2  0  0  0  0
 10 11  1  0  0  0  0
 10 33  1  0  0  0  0
 11 12  2  0  0  0  0
 11 34  1  0  0  0  0
 12 13  1  0  0  0  0
 12 21  1  0  0  0  0
 13 20  1  0  0  0  0
 13 14  1  0  0  0  0
 14 15  1  0  0  0  0
 14 35  1  0  0  0  0
 14 36  1  0  0  0  0
 15 16  1  0  0  0  0
 15 17  1  0  0  0  0
 15 37  1  0  0  0  0
 16 38  1  0  0  0  0
 16 39  1  0  0  0  0
 16 40  1  0  0  0  0
 17 18  1  0  0  0  0
 18 19  1  0  0  0  0
 18 20  1  0  0  0  0
 18 41  1  0  0  0  0
 19 42  1  0  0  0  0
 19 43  1  0  0  0  0
 19 44  1  0  0  0  0
 20 45  1  0  0  0  0
 20 46  1  0  0  0  0
 21 22  2  0  0  0  0
 22 47  1  0  0  0  0
M  END
> <s_m_source_file>
AV-unprocessed.smi

> <i_m_source_file_index>
2184

> <i_lp_mmshare_version>
43012

> <i_f3d_flags>
0

> <s_epik_input>
W0NIM11TW0NASF0oW0NIM10pQyg9TylbTkhdW0NIMl1jMVtjSF1bY0hdYyhuW2NIXTEpTjJbQ0gyXVtDQEBIXShbQ0gzXSlPW0NAQEhdKFtDSDNdKVtDSDJdMg==

> <s_epik_cmdline>
J2VwaWtfcHl0aG9uJywgJy1waCcsICc3LjAnLCAnLXRuJywgJzgnLCAnLW1hJywgJzIwMCcsICctbWV0YWxfYmluZGluZycsICctaW1hZScsICc8aW5maWxlLm1hZT4nLCAnLW9tYWUnLCAnPG91dGZpbGUubWFlPic=

> <r_lp_tautomer_probability>
1

> <r_epik_Ionization_Penalty>
0.00551702

> <r_epik_Ionization_Penalty_Charging>
0

> <r_epik_Ionization_Penalty_Neutral>
0.00551702

> <r_epik_State_Penalty>
0.00403758

> <r_epik_Charging_Adjusted_Penalty>
0.00403758

> <i_epik_Tot_Q>
0

> <i_epik_Tot_abs_Q>
0

> <r_epik_Metal_State_Penalty>
-0

> <b_epik_Metal_Only>
0

> <s_lp_Force_Field>
OPLS_2005

> <r_lp_Energy>
19.1656

> <b_lp_Chiralities_Consistent>
1

> <s_lp_Variant>
AV-unprocessed.smi:2184-5

> <Gold.Version>
5.8.1

> <Gold.Id.Protein>
6NUR|6NUR_protein|mol2

> <Gold.PLP.Fitness>
46.9878

> <Gold.PLP.PLP>
-44.4698

> <Gold.PLP.part.hbond>
-1.0000

> <Gold.PLP.part.metal>
0.0000

> <Gold.PLP.part.buried>
-3.3660

> <Gold.PLP.part.nonpolar>
-39.9980

> <Gold.PLP.part.repulsive>
0.1568

> <Gold.PLP.ligand.clash>
0.0000

> <Gold.PLP.ligand.torsion>
0.3660

> <Gold.PLP.Chemscore.Hbond>
0.9600

> <Gold.PLP.Chemscore.CHOScore>
0.0000

> <Gold.PLP.Chemscore.Metal>
0.0000

> <Gold.Chemscore.Hbonds>
donor molecule, donor type, donor heavy atom, donor atom, acceptor molecule, acceptor atom, score
      P1  H  7997  8009       L1    21  0.93

> <Gold.PLP.Chemscore.Internal.Correction>
0.3701

> <Gold.Rescore>
     Score         DG    S(hbond)    S(metal)    S(lipo)     H(rot)  DE(clash)    DE(int)     intcor
     18.86     -19.27       0.76        0.00     131.07       1.59       0.09       0.33       ----

> <Gold.Chemscore.Fitness>
18.8566

> <Gold.Chemscore.DG>
-19.2744

> <Gold.Chemscore.ZeroCoef>
-5.4800

> <Gold.Chemscore.Hbond>
0.7610

> <Gold.Chemscore.Metal>
0.0000

> <Gold.Chemscore.Lipo>
131.0681

> <Gold.Chemscore.Internal_Hbond>
0.0000

> <Gold.Chemscore.DEClash>
0.0901

> <Gold.Chemscore.DEInternal>
0.3278

> <Gold.Chemscore.Rot>
1.5947

> <Gold.Chemscore.Internal.Correction>
   9.000000E+99

> <Gold.Chemscore.Hbonds>
donor molecule, donor type, donor heavy atom, donor atom, acceptor molecule, acceptor atom, score
      P1  H  7997  8009       L1    21  0.30

> <Gold.Chemscore.Hbond.Weighted>
-2.5419

> <Gold.Chemscore.Metal.Weighted>
-0.0000

> <Gold.Chemscore.Lipo.Weighted>
-15.3350

> <Gold.Chemscore.Internal_Hbond.Weighted>
0.0000

> <Gold.Chemscore.DEClash.Weighted>
0.0901

> <Gold.Chemscore.DEInternal.Weighted>
0.3278

> <Gold.Chemscore.Rot.Weighted>
4.0824

> <Gold.Chemscore.Internal.Correction.Weighted>
   9.000000E+99

> <Gold.Protein.RotatedTorsions>
[ 6907 6896 6895 6894 ] final   18.31 input  -60.11 | X-H torsion
[ 7974 7965 7964 7962 ] final   38.24 input  175.53 | X-H torsion
[ 8008 7997 7996 7995 ] final  127.45 input   59.86 | X-H torsion
[ 10167 10162 10161 10158 ] final   82.65 input  -65.29 | X-H torsion
[ 10718 10713 10712 10709 ] final  163.37 input   66.30 | X-H torsion
[ 10763 10752 10751 10750 ] final  -66.48 input  -60.55 | X-H torsion
[ 11005 11000 10999 10996 ] final  -51.41 input  -57.11 | X-H torsion

> <Gold.Protein.ActiveResidues>
 VAL166  LYS551  ARG553  GLY616  TRP617  ASP618  TYR619  PRO620  LYS621  CYS622 
 ASP623  PHE694  ASN695  SER759  ASP760  ASP761  ALA762  ILE779  LEU786  VAL792 
 PHE793  MET794  SER795  GLU796  ALA797  LYS798  CYS799  TRP800  GLU811  SER814 

> <Gold.Protein.RotatedAtoms>
  151.8633  135.0516  160.0471 H   0  0  0  0  0  0  0  0  0  0  0  0  # atno 6907 bound_to 6896
  152.2646  133.5323  159.5410 H   0  0  0  0  0  0  0  0  0  0  0  0  # atno 6908 bound_to 6896
  150.7129  134.0699  159.3903 H   0  0  0  0  0  0  0  0  0  0  0  0  # atno 6909 bound_to 6896
  146.1077  139.5796  142.9373 H   0  0  0  0  0  0  0  0  0  0  0  0  # atno 7974 bound_to 7965
  156.2891  140.2668  156.2276 H   0  0  0  0  0  0  0  0  0  0  0  0  # atno 8008 bound_to 7997
  155.0105  140.0387  157.2415 H   0  0  0  0  0  0  0  0  0  0  0  0  # atno 8009 bound_to 7997
  154.7522  140.2745  155.6288 H   0  0  0  0  0  0  0  0  0  0  0  0  # atno 8010 bound_to 7997
  139.9266  144.6179  150.8386 H   0  0  0  0  0  0  0  0  0  0  0  0  # atno 10167 bound_to 10162
  157.1094  131.0464  151.2463 H   0  0  0  0  0  0  0  0  0  0  0  0  # atno 10718 bound_to 10713
  154.3605  135.6117  153.5688 H   0  0  0  0  0  0  0  0  0  0  0  0  # atno 10763 bound_to 10752
  152.9794  135.5814  154.4638 H   0  0  0  0  0  0  0  0  0  0  0  0  # atno 10764 bound_to 10752
  154.4375  135.2849  155.1848 H   0  0  0  0  0  0  0  0  0  0  0  0  # atno 10765 bound_to 10752
  141.0869  133.6640  156.3873 H   0  0  0  0  0  0  0  0  0  0  0  0  # atno 11005 bound_to 11000
  145.5728  141.0392  143.2165 LP  0  0  0  0  0  0  0  0  0  0  0  0  # atno 17320 bound_to 7965
  144.7484  139.7258  143.7283 LP  0  0  0  0  0  0  0  0  0  0  0  0  # atno 17321 bound_to 7965
  140.7648  143.3259  151.2516 LP  0  0  0  0  0  0  0  0  0  0  0  0  # atno 17342 bound_to 10162
  139.6817  143.9843  152.2812 LP  0  0  0  0  0  0  0  0  0  0  0  0  # atno 17343 bound_to 10162
  157.4572  130.7632  149.7203 LP  0  0  0  0  0  0  0  0  0  0  0  0  # atno 17370 bound_to 10713
  155.9854  130.3983  150.3263 LP  0  0  0  0  0  0  0  0  0  0  0  0  # atno 17371 bound_to 10713
  140.5341  134.6184  157.5359 LP  0  0  0  0  0  0  0  0  0  0  0  0  # atno 17394 bound_to 11000
  139.9689  134.7326  156.0081 LP  0  0  0  0  0  0  0  0  0  0  0  0  # atno 17395 bound_to 11000

$$$$
