AV-unprocessed.smi:1803|AV-procd|sdf|7292|dock5
  -GOLD-   22720 8543D 1   1.00000     0.00000
 Structure written by MMmdl.
 35 37  0  0  0  0  0  0  0  0  3 V2000
  150.1406  133.4053  155.1541 O   0  0  0  0  0  0  0  0  0  0  0  0
  149.3011  134.2751  154.9251 C   0  0  0  0  0  0  0  0  0  0  0  0
  149.2473  135.4573  155.5921 N   0  5  0  0  0  0  0  0  0  0  0  0
  150.1867  136.4116  155.4538 C   0  0  0  0  0  0  0  0  0  0  0  0
  151.4847  136.1898  155.7174 N   0  0  0  0  0  0  0  0  0  0  0  0
  152.2808  137.3095  155.5177 N   0  0  0  0  0  0  0  0  0  0  0  0
  151.5611  138.3489  155.0958 C   0  0  0  0  0  0  0  0  0  0  0  0
  149.8446  138.0564  154.9114 S   0  0  0  0  0  0  0  0  0  0  0  0
  148.3818  134.0539  153.9670 N   0  0  0  0  0  0  0  0  0  0  0  0
  148.2781  132.8568  153.1422 C   0  0  1  0  0  0  0  0  0  0  0  0
  148.3911  131.5382  153.9312 C   0  0  0  0  0  0  0  0  0  0  0  0
  147.3736  130.5832  153.2763 C   0  0  0  0  0  0  0  0  0  0  0  0
  146.8233  131.3282  152.1275 N   0  3  1  0  0  0  0  0  0  0  0  0
  145.4826  130.9325  151.6437 C   0  0  0  0  0  0  0  0  0  0  0  0
  145.1214  131.7720  150.4011 C   0  0  0  0  0  0  0  0  0  0  0  0
  145.2582  133.2849  150.6709 C   0  0  0  0  0  0  0  0  0  0  0  0
  146.6423  133.6219  151.2586 C   0  0  0  0  0  0  0  0  0  0  0  0
  146.8988  132.7488  152.4972 C   0  0  2  0  0  0  0  0  0  0  0  0
  152.0435  139.2932  154.8921 H   0  0  0  0  0  0  0  0  0  0  0  0
  147.7008  134.7812  153.8041 H   0  0  0  0  0  0  0  0  0  0  0  0
  149.0389  132.8779  152.3591 H   0  0  0  0  0  0  0  0  0  0  0  0
  149.4065  131.1428  153.8893 H   0  0  0  0  0  0  0  0  0  0  0  0
  148.1391  131.6814  154.9832 H   0  0  0  0  0  0  0  0  0  0  0  0
  147.8302  129.6491  152.9488 H   0  0  0  0  0  0  0  0  0  0  0  0
  146.5788  130.3425  153.9843 H   0  0  0  0  0  0  0  0  0  0  0  0
  145.4813  129.8708  151.3952 H   0  0  0  0  0  0  0  0  0  0  0  0
  144.7439  131.0813  152.4330 H   0  0  0  0  0  0  0  0  0  0  0  0
  145.7790  131.4950  149.5759 H   0  0  0  0  0  0  0  0  0  0  0  0
  144.1067  131.5408  150.0759 H   0  0  0  0  0  0  0  0  0  0  0  0
  145.0932  133.8477  149.7516 H   0  0  0  0  0  0  0  0  0  0  0  0
  144.4817  133.5997  151.3695 H   0  0  0  0  0  0  0  0  0  0  0  0
  147.4157  133.4494  150.5090 H   0  0  0  0  0  0  0  0  0  0  0  0
  146.6916  134.6787  151.5235 H   0  0  0  0  0  0  0  0  0  0  0  0
  146.1337  132.9528  153.2505 H   0  0  0  0  0  0  0  0  0  0  0  0
  147.4719  131.1985  151.3642 H   0  0  0  0  0  0  0  0  0  0  0  0
  1  2  2  0  0  0  0
  2  3  1  0  0  0  0
  2  9  1  0  0  0  0
  3  4  1  0  0  0  0
  4  8  1  0  0  0  0
  4  5  2  0  0  0  0
  5  6  1  0  0  0  0
  6  7  2  0  0  0  0
  7  8  1  0  0  0  0
  7 19  1  0  0  0  0
  9 10  1  0  0  0  0
  9 20  1  0  0  0  0
 10 18  1  0  0  0  0
 10 11  1  0  0  0  0
 10 21  1  0  0  0  0
 11 12  1  0  0  0  0
 11 22  1  0  0  0  0
 11 23  1  0  0  0  0
 12 13  1  0  0  0  0
 12 24  1  0  0  0  0
 12 25  1  0  0  0  0
 13 18  1  0  0  0  0
 13 14  1  0  0  0  0
 13 35  1  0  0  0  0
 14 15  1  0  0  0  0
 14 26  1  0  0  0  0
 14 27  1  0  0  0  0
 15 16  1  0  0  0  0
 15 28  1  0  0  0  0
 15 29  1  0  0  0  0
 16 17  1  0  0  0  0
 16 30  1  0  0  0  0
 16 31  1  0  0  0  0
 17 18  1  0  0  0  0
 17 32  1  0  0  0  0
 17 33  1  0  0  0  0
 18 34  1  0  0  0  0
M  CHG  1   3  -1
M  CHG  1  13   1
M  END
> <s_m_source_file>
AV-unprocessed.smi

> <i_m_source_file_index>
1803

> <i_lp_mmshare_version>
43012

> <i_f3d_flags>
0

> <s_epik_input>
czFbY0hdbm5jMVtOSF1DKD1PKVtOSF1bQ0BIXShbQ0gyXVtDSDJdMilbQ0BASF0oTjIzKVtDSDJdW0NIMl1bQ0gyXVtDSDJdMw==

> <s_epik_cmdline>
J2VwaWtfcHl0aG9uJywgJy1waCcsICc3LjAnLCAnLXRuJywgJzgnLCAnLW1hJywgJzIwMCcsICctbWV0YWxfYmluZGluZycsICctaW1hZScsICc8aW5maWxlLm1hZT4nLCAnLW9tYWUnLCAnPG91dGZpbGUubWFlPic=

> <r_lp_tautomer_probability>
1

> <r_epik_Ionization_Penalty>
3.78828

> <r_epik_Ionization_Penalty_Charging>
3.7591

> <r_epik_Ionization_Penalty_Neutral>
0.0291838

> <r_epik_State_Penalty>
3.757

> <r_epik_Charging_Adjusted_Penalty>
7.51609

> <i_epik_Tot_Q>
0

> <i_epik_Tot_abs_Q>
2

> <r_epik_Metal_State_Penalty>
0.558016

> <b_epik_Metal_Only>
1

> <s_lp_Force_Field>
OPLS_2005

> <r_lp_Energy>
28.5802

> <b_lp_Chiralities_Consistent>
1

> <s_lp_Variant>
AV-unprocessed.smi:1803-14

> <Gold.Version>
5.8.1

> <Gold.Id.Protein>
6NUR|6NUR_protein|mol2

> <Gold.PLP.Fitness>
34.7437

> <Gold.PLP.PLP>
-33.7761

> <Gold.PLP.part.hbond>
-4.0000

> <Gold.PLP.part.metal>
0.0000

> <Gold.PLP.part.buried>
-5.2342

> <Gold.PLP.part.nonpolar>
-25.0981

> <Gold.PLP.part.repulsive>
0.3707

> <Gold.PLP.ligand.clash>
0.0000

> <Gold.PLP.ligand.torsion>
1.4015

> <Gold.PLP.Chemscore.Hbond>
1.2500

> <Gold.PLP.Chemscore.CHOScore>
0.0000

> <Gold.PLP.Chemscore.Metal>
0.0000

> <Gold.Chemscore.Hbonds>
donor molecule, donor type, donor heavy atom, donor atom, acceptor molecule, acceptor atom, score
      L1  H    13    35       P1 10747  1.00

> <Gold.PLP.Chemscore.Internal.Correction>
0.0205

> <Gold.Rescore>
     Score         DG    S(hbond)    S(metal)    S(lipo)     H(rot)  DE(clash)    DE(int)     intcor
     13.33     -16.56       1.41        0.00      76.33       1.00       0.02       3.21       ----

> <Gold.Chemscore.Fitness>
13.3318

> <Gold.Chemscore.DG>
-16.5554

> <Gold.Chemscore.ZeroCoef>
-5.4800

> <Gold.Chemscore.Hbond>
1.4088

> <Gold.Chemscore.Metal>
0.0000

> <Gold.Chemscore.Lipo>
76.3261

> <Gold.Chemscore.Internal_Hbond>
0.0000

> <Gold.Chemscore.DEClash>
0.0176

> <Gold.Chemscore.DEInternal>
3.2060

> <Gold.Chemscore.Rot>
1.0000

> <Gold.Chemscore.Internal.Correction>
   9.000000E+99

> <Gold.Chemscore.Hbonds>
donor molecule, donor type, donor heavy atom, donor atom, acceptor molecule, acceptor atom, score
      L1  H    13    35       P1 10747  1.00

> <Gold.Chemscore.Hbond.Weighted>
-4.7053

> <Gold.Chemscore.Metal.Weighted>
-0.0000

> <Gold.Chemscore.Lipo.Weighted>
-8.9302

> <Gold.Chemscore.Internal_Hbond.Weighted>
0.0000

> <Gold.Chemscore.DEClash.Weighted>
0.0176

> <Gold.Chemscore.DEInternal.Weighted>
3.2060

> <Gold.Chemscore.Rot.Weighted>
2.5600

> <Gold.Chemscore.Internal.Correction.Weighted>
   9.000000E+99

> <Gold.Protein.RotatedTorsions>
[ 6907 6896 6895 6894 ] final -113.81 input  -60.11 | X-H torsion
[ 7974 7965 7964 7962 ] final   41.29 input  175.53 | X-H torsion
[ 8008 7997 7996 7995 ] final -133.33 input   59.86 | X-H torsion
[ 10167 10162 10161 10158 ] final  100.63 input  -65.29 | X-H torsion
[ 10718 10713 10712 10709 ] final -127.13 input   66.30 | X-H torsion
[ 10763 10752 10751 10750 ] final   72.64 input  -60.55 | X-H torsion
[ 11005 11000 10999 10996 ] final   15.01 input  -57.11 | X-H torsion

> <Gold.Protein.ActiveResidues>
 VAL166  LYS551  ARG553  GLY616  TRP617  ASP618  TYR619  PRO620  LYS621  CYS622 
 ASP623  PHE694  ASN695  SER759  ASP760  ASP761  ALA762  ILE779  LEU786  VAL792 
 PHE793  MET794  SER795  GLU796  ALA797  LYS798  CYS799  TRP800  GLU811  SER814 

> <Gold.Protein.RotatedAtoms>
  150.7856  133.8891  159.3307 H   0  0  0  0  0  0  0  0  0  0  0  0  # atno 6907 bound_to 6896
  151.6743  135.0969  160.0213 H   0  0  0  0  0  0  0  0  0  0  0  0  # atno 6908 bound_to 6896
  152.3919  133.6652  159.6280 H   0  0  0  0  0  0  0  0  0  0  0  0  # atno 6909 bound_to 6896
  146.0836  139.5433  142.9521 H   0  0  0  0  0  0  0  0  0  0  0  0  # atno 7974 bound_to 7965
  155.3437  140.0473  157.3045 H   0  0  0  0  0  0  0  0  0  0  0  0  # atno 8008 bound_to 7997
  154.5264  140.2242  155.8848 H   0  0  0  0  0  0  0  0  0  0  0  0  # atno 8009 bound_to 7997
  156.1743  140.3088  155.9037 H   0  0  0  0  0  0  0  0  0  0  0  0  # atno 8010 bound_to 7997
  139.7510  144.6984  151.0432 H   0  0  0  0  0  0  0  0  0  0  0  0  # atno 10167 bound_to 10162
  156.1829  130.6744  151.0327 H   0  0  0  0  0  0  0  0  0  0  0  0  # atno 10718 bound_to 10713
  153.0471  135.5092  154.7773 H   0  0  0  0  0  0  0  0  0  0  0  0  # atno 10763 bound_to 10752
  154.6665  135.2946  154.9801 H   0  0  0  0  0  0  0  0  0  0  0  0  # atno 10764 bound_to 10752
  154.0634  135.6687  153.4867 H   0  0  0  0  0  0  0  0  0  0  0  0  # atno 10765 bound_to 10752
  140.4631  134.1107  155.7720 H   0  0  0  0  0  0  0  0  0  0  0  0  # atno 11005 bound_to 11000
  145.6172  141.0329  143.1934 LP  0  0  0  0  0  0  0  0  0  0  0  0  # atno 17320 bound_to 7965
  144.7310  139.7726  143.7347 LP  0  0  0  0  0  0  0  0  0  0  0  0  # atno 17321 bound_to 7965
  140.7798  143.4809  151.0019 LP  0  0  0  0  0  0  0  0  0  0  0  0  # atno 17342 bound_to 10162
  139.8497  143.7455  152.3178 LP  0  0  0  0  0  0  0  0  0  0  0  0  # atno 17343 bound_to 10162
  157.6880  131.0819  150.7189 LP  0  0  0  0  0  0  0  0  0  0  0  0  # atno 17370 bound_to 10713
  156.7246  130.4691  149.5514 LP  0  0  0  0  0  0  0  0  0  0  0  0  # atno 17371 bound_to 10713
  141.1612  133.8789  157.1843 LP  0  0  0  0  0  0  0  0  0  0  0  0  # atno 17394 bound_to 11000
  139.9932  135.0056  157.0024 LP  0  0  0  0  0  0  0  0  0  0  0  0  # atno 17395 bound_to 11000

$$$$
