#       Name:                AV-unprocessed.smi:1033
#       Creating user name   scv26
#       Creation time:       Fri Mar 27 02:51:38 2020


#       File generated by GOLD software.
#

@<TRIPOS>MOLECULE
AV-unprocessed.smi:1033
    62    64     1
SMALL
NO_CHARGES


@<TRIPOS>ATOM
      1 ****        -7.1818   0.8529  -1.5805 C.3            1 S1                 0.0000
      2 ****        -5.9112   1.2562  -0.8532 C.ar           1 S1                 0.0000
      3 ****        -6.0001   1.7260   0.4767 C.ar           1 S1                 0.0000
      4 ****        -4.8424   2.1101   1.1881 C.ar           1 S1                 0.0000
      5 ****        -4.6960   2.5906   2.4783 N.2            1 S1                 0.0000
      6 ****        -3.3791   2.7601   2.5548 C.2            1 S1                 0.0000
      7 ****        -2.6528   2.4375   1.4669 N.pl3          1 S1                 0.0000
      8 ****        -1.2121   2.5220   1.3113 C.3            1 S1                 0.0000
      9 ****        -0.5402   1.1380   1.3882 C.3            1 S1                 0.0000
     10 ****        -0.7579   0.5854   2.6721 O.3            1 S1                 0.0000
     11 ****         0.9778   1.2179   1.1334 C.3            1 S1                 0.0000
     12 ****         1.6277  -0.1186   1.1237 N.4            1 S1                 1.0000
     13 ****         3.0802  -0.0429   1.4197 C.3            1 S1                 0.0000
     14 ****         3.7162  -1.4468   1.4913 C.3            1 S1                 0.0000
     15 ****         3.4424  -2.2543   0.2732 N.4            1 S1                 1.0000
     16 ****         4.2739  -1.9015  -0.9099 C.3            1 S1                 0.0000
     17 ****         5.7059  -2.4631  -0.8088 C.3            1 S1                 0.0000
     18 ****         6.5894  -2.0097  -1.9781 C.3            1 S1                 0.0000
     19 ****         5.6513  -3.8752  -0.8193 O.3            1 S1                 0.0000
     20 ****         1.9875  -2.3062  -0.0167 C.3            1 S1                 0.0000
     21 ****         1.3731  -0.8974  -0.1161 C.3            1 S1                 0.0000
     22 ****        -3.5835   2.0079   0.5277 C.ar           1 S1                 0.0000
     23 ****        -3.4819   1.5451  -0.7962 C.ar           1 S1                 0.0000
     24 ****        -4.6485   1.1673  -1.4929 C.ar           1 S1                 0.0000
     25 ****        -4.5295   0.6710  -2.9231 C.3            1 S1                 0.0000
     26 ****        -8.0593   0.9701  -0.9440 H              1 S1                 0.0000
     27 ****        -7.1310  -0.1913  -1.8899 H              1 S1                 0.0000
     28 ****        -7.3267   1.4705  -2.4672 H              1 S1                 0.0000
     29 ****        -6.9619   1.7956   0.9632 H              1 S1                 0.0000
     30 ****        -2.9148   3.1329   3.4564 H              1 S1                 0.0000
     31 ****        -1.0056   2.9895   0.3477 H              1 S1                 0.0000
     32 ****        -0.8117   3.1902   2.0755 H              1 S1                 0.0000
     33 ****        -1.0131   0.4865   0.6545 H              1 S1                 0.0000
     34 ****        -1.6897   0.5553   2.8329 H              1 S1                 0.0000
     35 ****         1.1817   1.7241   0.1887 H              1 S1                 0.0000
     36 ****         1.4248   1.8373   1.9130 H              1 S1                 0.0000
     37 ****         3.5749   0.5659   0.6617 H              1 S1                 0.0000
     38 ****         3.2321   0.4642   2.3734 H              1 S1                 0.0000
     39 ****         4.7865  -1.3686   1.6780 H              1 S1                 0.0000
     40 ****         3.3026  -1.9815   2.3475 H              1 S1                 0.0000
     41 ****         3.8132  -2.2994  -1.8156 H              1 S1                 0.0000
     42 ****         4.2988  -0.8192  -1.0387 H              1 S1                 0.0000
     43 ****         6.1792  -2.1474   0.1204 H              1 S1                 0.0000
     44 ****         6.6784  -0.9231  -2.0028 H              1 S1                 0.0000
     45 ****         6.1806  -2.3315  -2.9367 H              1 S1                 0.0000
     46 ****         7.5968  -2.4187  -1.8913 H              1 S1                 0.0000
     47 ****         5.3670  -4.1636  -1.6737 H              1 S1                 0.0000
     48 ****         1.7994  -2.8747  -0.9283 H              1 S1                 0.0000
     49 ****         1.4978  -2.8573   0.7876 H              1 S1                 0.0000
     50 ****         0.3029  -0.9961  -0.2923 H              1 S1                 0.0000
     51 ****         1.7835  -0.3643  -0.9752 H              1 S1                 0.0000
     52 ****        -2.5144   1.4826  -1.2718 H              1 S1                 0.0000
     53 ****        -3.4910   0.6589  -3.2554 H              1 S1                 0.0000
     54 ****        -5.0894   1.3178  -3.5990 H              1 S1                 0.0000
     55 ****        -4.9199  -0.3430  -3.0107 H              1 S1                 0.0000
     56 ****         3.7094  -3.2039   0.4944 H              1 S1                 0.0000
     57 ****         1.2106  -0.6328   1.8874 H              1 S1                 0.0000
     58 ****        -5.3963   2.7645   3.1706 LP             1 S1                 0.0000
     59 ****        -0.3147   1.1554   3.3640 LP             1 S1                 0.0000
     60 ****        -0.3793  -0.3394   2.7097 LP             1 S1                 0.0000
     61 ****         5.0043  -4.1914  -0.1255 LP             1 S1                 0.0000
     62 ****         6.5584  -4.2478  -0.6236 LP             1 S1                 0.0000
@<TRIPOS>BOND
    1    1    2 1     
    2    1   26 1     
    3    1   27 1     
    4    1   28 1     
    5    2   24 ar    
    6    2    3 ar    
    7    3    4 ar    
    8    3   29 1     
    9    4   22 ar    
   10    4    5 1     
   11    5    6 2     
   12    6    7 1     
   13    6   30 1     
   14    7    8 1     
   15    7   22 1     
   16    8    9 1     
   17    8   31 1     
   18    8   32 1     
   19    9   10 1     
   20    9   11 1     
   21    9   33 1     
   22   10   34 1     
   23   11   12 1     
   24   11   35 1     
   25   11   36 1     
   26   12   21 1     
   27   12   13 1     
   28   12   57 1     
   29   13   14 1     
   30   13   37 1     
   31   13   38 1     
   32   14   15 1     
   33   14   39 1     
   34   14   40 1     
   35   15   16 1     
   36   15   20 1     
   37   15   56 1     
   38   16   17 1     
   39   16   41 1     
   40   16   42 1     
   41   17   18 1     
   42   17   19 1     
   43   17   43 1     
   44   18   44 1     
   45   18   45 1     
   46   18   46 1     
   47   19   47 1     
   48   20   21 1     
   49   20   48 1     
   50   20   49 1     
   51   21   50 1     
   52   21   51 1     
   53   22   23 ar    
   54   23   24 ar    
   55   23   52 1     
   56   24   25 1     
   57   25   53 1     
   58   25   54 1     
   59   25   55 1     
   60    5   58 1     
   61   10   59 1     
   62   10   60 1     
   63   19   61 1     
   64   19   62 1     
@<TRIPOS>SUBSTRUCTURE
      1 S1             1
@<TRIPOS>SET
LONE_PAIRS      STATIC     ATOMS    <user>   **** ""
5 58 59 60 61 62
DONOR_HYDROGENS      STATIC     ATOMS    <user>   **** ""
4 34 57 56 47
ATOM$BLUE        STATIC     ATOMS    COLORGROUP SYSTEM
5 58 59 60 61 62
ATOM$RED        STATIC     ATOMS    COLORGROUP SYSTEM
4 34 57 56 47
