AV-unprocessed.smi:685|AV-procd|sdf|3333|dock4
  -GOLD-   22720 0303D 1   1.00000     0.00000
 Structure written by MMmdl.
 50 51  0  0  0  0  0  0  0  0  1 V2000
  152.7838  138.4458  154.7841 C   0  0  0  0  0  0  0  0  0  0  0  0
  151.8030  139.4652  155.2901 C   0  0  0  0  0  0  0  0  0  0  0  0
  152.2049  140.3646  156.1723 N   0  0  0  0  0  0  0  0  0  0  0  0
  151.1166  141.1235  156.4101 N   0  0  0  0  0  0  0  0  0  0  0  0
  151.2100  142.2255  157.3481 C   0  0  0  0  0  0  0  0  0  0  0  0
  150.0237  140.7020  155.6777 C   0  0  0  0  0  0  0  0  0  0  0  0
  148.6992  141.3900  155.7631 C   0  0  0  0  0  0  0  0  0  0  0  0
  150.4312  139.6256  154.9348 C   0  0  0  0  0  0  0  0  0  0  0  0
  149.6407  138.7925  153.9580 C   0  0  0  0  0  0  0  0  0  0  0  0
  148.3502  138.2174  154.5812 C   0  0  2  0  0  0  0  0  0  0  0  0
  148.6304  137.2367  155.7315 C   0  0  0  0  0  0  0  0  0  0  0  0
  147.5545  137.5365  153.5634 N   0  0  0  0  0  0  0  0  0  0  0  0
  146.2271  137.6566  153.4026 C   0  0  0  0  0  0  0  0  0  0  0  0
  145.5221  138.3737  154.1134 O   0  0  0  0  0  0  0  0  0  0  0  0
  145.6031  136.8384  152.2691 C   0  0  0  0  0  0  0  0  0  0  0  0
  145.8914  135.3313  152.4000 C   0  0  0  0  0  0  0  0  0  0  0  0
  145.7127  134.5629  151.0782 C   0  0  0  0  0  0  0  0  0  0  0  0
  144.2718  134.1409  150.7762 C   0  0  0  0  0  0  0  0  0  0  0  0
  144.4007  133.0227  149.7376 C   0  0  0  0  0  0  0  0  0  0  0  0
  145.7910  132.4036  149.9461 C   0  0  0  0  0  0  0  0  0  0  0  0
  146.4751  133.2354  151.0381 C   0  0  0  0  0  0  0  0  0  0  0  0
  152.2851  137.5130  154.5208 H   0  0  0  0  0  0  0  0  0  0  0  0
  153.5413  138.2130  155.5330 H   0  0  0  0  0  0  0  0  0  0  0  0
  153.2965  138.8090  153.8933 H   0  0  0  0  0  0  0  0  0  0  0  0
  150.8194  143.1338  156.8887 H   0  0  0  0  0  0  0  0  0  0  0  0
  152.2474  142.3983  157.6383 H   0  0  0  0  0  0  0  0  0  0  0  0
  150.6259  141.9964  158.2396 H   0  0  0  0  0  0  0  0  0  0  0  0
  147.9290  140.8440  155.2194 H   0  0  0  0  0  0  0  0  0  0  0  0
  148.7588  142.3920  155.3383 H   0  0  0  0  0  0  0  0  0  0  0  0
  148.3731  141.4798  156.7994 H   0  0  0  0  0  0  0  0  0  0  0  0
  149.3835  139.3973  153.0880 H   0  0  0  0  0  0  0  0  0  0  0  0
  150.2439  137.9752  153.5625 H   0  0  0  0  0  0  0  0  0  0  0  0
  147.7574  139.0403  154.9850 H   0  0  0  0  0  0  0  0  0  0  0  0
  149.1590  137.7227  156.5518 H   0  0  0  0  0  0  0  0  0  0  0  0
  149.2380  136.3955  155.3963 H   0  0  0  0  0  0  0  0  0  0  0  0
  147.7021  136.8357  156.1395 H   0  0  0  0  0  0  0  0  0  0  0  0
  148.0519  136.9230  152.9343 H   0  0  0  0  0  0  0  0  0  0  0  0
  144.5261  137.0108  152.2494 H   0  0  0  0  0  0  0  0  0  0  0  0
  145.9953  137.2114  151.3224 H   0  0  0  0  0  0  0  0  0  0  0  0
  146.9157  135.1883  152.7475 H   0  0  0  0  0  0  0  0  0  0  0  0
  145.2479  134.8975  153.1669 H   0  0  0  0  0  0  0  0  0  0  0  0
  146.0709  135.1823  150.2541 H   0  0  0  0  0  0  0  0  0  0  0  0
  143.8019  133.7470  151.6787 H   0  0  0  0  0  0  0  0  0  0  0  0
  143.6573  134.9674  150.4175 H   0  0  0  0  0  0  0  0  0  0  0  0
  143.6025  132.2865  149.8372 H   0  0  0  0  0  0  0  0  0  0  0  0
  144.3346  133.4415  148.7325 H   0  0  0  0  0  0  0  0  0  0  0  0
  145.7271  131.3544  150.2363 H   0  0  0  0  0  0  0  0  0  0  0  0
  146.3613  132.4501  149.0177 H   0  0  0  0  0  0  0  0  0  0  0  0
  147.5402  133.3725  150.8487 H   0  0  0  0  0  0  0  0  0  0  0  0
  146.3764  132.7219  151.9957 H   0  0  0  0  0  0  0  0  0  0  0  0
  1  2  1  0  0  0  0
  1 22  1  0  0  0  0
  1 23  1  0  0  0  0
  1 24  1  0  0  0  0
  2  8  1  0  0  0  0
  2  3  2  0  0  0  0
  3  4  1  0  0  0  0
  4  5  1  0  0  0  0
  4  6  1  0  0  0  0
  5 25  1  0  0  0  0
  5 26  1  0  0  0  0
  5 27  1  0  0  0  0
  6  7  1  0  0  0  0
  6  8  2  0  0  0  0
  7 28  1  0  0  0  0
  7 29  1  0  0  0  0
  7 30  1  0  0  0  0
  8  9  1  0  0  0  0
  9 10  1  0  0  0  0
  9 31  1  0  0  0  0
  9 32  1  0  0  0  0
 10 11  1  0  0  0  0
 10 12  1  0  0  0  0
 10 33  1  0  0  0  0
 11 34  1  0  0  0  0
 11 35  1  0  0  0  0
 11 36  1  0  0  0  0
 12 13  1  0  0  0  0
 12 37  1  0  0  0  0
 13 14  2  0  0  0  0
 13 15  1  0  0  0  0
 15 16  1  0  0  0  0
 15 38  1  0  0  0  0
 15 39  1  0  0  0  0
 16 17  1  0  0  0  0
 16 40  1  0  0  0  0
 16 41  1  0  0  0  0
 17 21  1  0  0  0  0
 17 18  1  0  0  0  0
 17 42  1  0  0  0  0
 18 19  1  0  0  0  0
 18 43  1  0  0  0  0
 18 44  1  0  0  0  0
 19 20  1  0  0  0  0
 19 45  1  0  0  0  0
 19 46  1  0  0  0  0
 20 21  1  0  0  0  0
 20 47  1  0  0  0  0
 20 48  1  0  0  0  0
 21 49  1  0  0  0  0
 21 50  1  0  0  0  0
M  END
> <s_m_source_file>
AV-unprocessed.smi

> <i_m_source_file_index>
685

> <i_lp_mmshare_version>
43012

> <i_f3d_flags>
0

> <s_epik_input>
W0NIM11jMW5uKFtDSDNdKWMoW0NIM10pYzFbQ0gyXVtDQEhdKFtDSDNdKVtOSF1DKD1PKVtDSDJdW0NIMl1bQ0hdMltDSDJdW0NIMl1bQ0gyXVtDSDJdMg==

> <s_epik_cmdline>
J2VwaWtfcHl0aG9uJywgJy1waCcsICc3LjAnLCAnLXRuJywgJzgnLCAnLW1hJywgJzIwMCcsICctbWV0YWxfYmluZGluZycsICctaW1hZScsICc8aW5maWxlLm1hZT4nLCAnLW9tYWUnLCAnPG91dGZpbGUubWFlPic=

> <r_lp_tautomer_probability>
1

> <r_epik_Ionization_Penalty>
0.0131144

> <r_epik_Ionization_Penalty_Charging>
0

> <r_epik_Ionization_Penalty_Neutral>
0.0131144

> <r_epik_State_Penalty>
0.0101889

> <r_epik_Charging_Adjusted_Penalty>
0.0101889

> <i_epik_Tot_Q>
0

> <i_epik_Tot_abs_Q>
0

> <r_epik_Metal_State_Penalty>
0.00996794

> <b_epik_Metal_Only>
0

> <s_lp_Force_Field>
OPLS_2005

> <r_lp_Energy>
16.135

> <b_lp_Chiralities_Consistent>
1

> <s_lp_Variant>
AV-unprocessed.smi:685-1

> <Gold.Version>
5.8.1

> <Gold.Id.Protein>
6NUR|6NUR_protein|mol2

> <Gold.PLP.Fitness>
42.5806

> <Gold.PLP.PLP>
-38.2066

> <Gold.PLP.part.hbond>
-2.0000

> <Gold.PLP.part.metal>
0.0000

> <Gold.PLP.part.buried>
-1.8429

> <Gold.PLP.part.nonpolar>
-34.8582

> <Gold.PLP.part.repulsive>
0.1399

> <Gold.PLP.ligand.clash>
0.0000

> <Gold.PLP.ligand.torsion>
0.6210

> <Gold.PLP.Chemscore.Hbond>
1.8613

> <Gold.PLP.Chemscore.CHOScore>
0.0000

> <Gold.PLP.Chemscore.Metal>
0.0000

> <Gold.Chemscore.Hbonds>
donor molecule, donor type, donor heavy atom, donor atom, acceptor molecule, acceptor atom, score
      L1  H    12    37       P1  7948  1.00
      P1  H  7997  8010       L1     3  0.71

> <Gold.PLP.Chemscore.Internal.Correction>
0.0322

> <Gold.Rescore>
     Score         DG    S(hbond)    S(metal)    S(lipo)     H(rot)  DE(clash)    DE(int)     intcor
     19.36     -20.00       1.96        0.00     101.59       1.53       0.12       0.52       ----

> <Gold.Chemscore.Fitness>
19.3576

> <Gold.Chemscore.DG>
-20.0005

> <Gold.Chemscore.ZeroCoef>
-5.4800

> <Gold.Chemscore.Hbond>
1.9589

> <Gold.Chemscore.Metal>
0.0000

> <Gold.Chemscore.Lipo>
101.5929

> <Gold.Chemscore.Internal_Hbond>
0.0000

> <Gold.Chemscore.DEClash>
0.1200

> <Gold.Chemscore.DEInternal>
0.5229

> <Gold.Chemscore.Rot>
1.5268

> <Gold.Chemscore.Internal.Correction>
   9.000000E+99

> <Gold.Chemscore.Hbonds>
donor molecule, donor type, donor heavy atom, donor atom, acceptor molecule, acceptor atom, score
      L1  H    12    37       P1  7948  0.96
      P1  H  7997  8010       L1     3  0.39

> <Gold.Chemscore.Hbond.Weighted>
-6.5426

> <Gold.Chemscore.Metal.Weighted>
-0.0000

> <Gold.Chemscore.Lipo.Weighted>
-11.8864

> <Gold.Chemscore.Internal_Hbond.Weighted>
0.0000

> <Gold.Chemscore.DEClash.Weighted>
0.1200

> <Gold.Chemscore.DEInternal.Weighted>
0.5229

> <Gold.Chemscore.Rot.Weighted>
3.9086

> <Gold.Chemscore.Internal.Correction.Weighted>
   9.000000E+99

> <Gold.Protein.RotatedTorsions>
[ 6907 6896 6895 6894 ] final  176.84 input  -60.11 | X-H torsion
[ 7974 7965 7964 7962 ] final   49.46 input  175.53 | X-H torsion
[ 8008 7997 7996 7995 ] final   80.09 input   59.86 | X-H torsion
[ 10167 10162 10161 10158 ] final -132.57 input  -65.29 | X-H torsion
[ 10718 10713 10712 10709 ] final  -75.68 input   66.30 | X-H torsion
[ 10763 10752 10751 10750 ] final  -37.18 input  -60.55 | X-H torsion
[ 11005 11000 10999 10996 ] final  -77.81 input  -57.11 | X-H torsion

> <Gold.Protein.ActiveResidues>
 VAL166  LYS551  ARG553  GLY616  TRP617  ASP618  TYR619  PRO620  LYS621  CYS622 
 ASP623  PHE694  ASN695  SER759  ASP760  ASP761  ALA762  ILE779  LEU786  VAL792 
 PHE793  MET794  SER795  GLU796  ALA797  LYS798  CYS799  TRP800  GLU811  SER814 

> <Gold.Protein.RotatedAtoms>
  151.7137  133.3313  159.3297 H   0  0  0  0  0  0  0  0  0  0  0  0  # atno 6907 bound_to 6896
  150.7683  134.6509  159.6297 H   0  0  0  0  0  0  0  0  0  0  0  0  # atno 6908 bound_to 6896
  152.3695  134.6757  160.0232 H   0  0  0  0  0  0  0  0  0  0  0  0  # atno 6909 bound_to 6896
  146.0106  139.4539  142.9958 H   0  0  0  0  0  0  0  0  0  0  0  0  # atno 7974 bound_to 7965
  155.8787  140.3445  155.5872 H   0  0  0  0  0  0  0  0  0  0  0  0  # atno 8008 bound_to 7997
  155.7744  140.0850  157.2110 H   0  0  0  0  0  0  0  0  0  0  0  0  # atno 8009 bound_to 7997
  154.4023  140.1512  156.2967 H   0  0  0  0  0  0  0  0  0  0  0  0  # atno 8010 bound_to 7997
  139.9072  143.6537  152.2583 H   0  0  0  0  0  0  0  0  0  0  0  0  # atno 10167 bound_to 10162
  156.0199  130.4446  150.3079 H   0  0  0  0  0  0  0  0  0  0  0  0  # atno 10718 bound_to 10713
  153.8921  135.6811  153.4760 H   0  0  0  0  0  0  0  0  0  0  0  0  # atno 10763 bound_to 10752
  153.1175  135.4755  154.9138 H   0  0  0  0  0  0  0  0  0  0  0  0  # atno 10764 bound_to 10752
  154.7617  135.3212  154.8318 H   0  0  0  0  0  0  0  0  0  0  0  0  # atno 10765 bound_to 10752
  141.1662  133.7037  156.7876 H   0  0  0  0  0  0  0  0  0  0  0  0  # atno 11005 bound_to 11000
  145.7347  141.0030  143.1333 LP  0  0  0  0  0  0  0  0  0  0  0  0  # atno 17320 bound_to 7965
  144.6952  139.9027  143.7459 LP  0  0  0  0  0  0  0  0  0  0  0  0  # atno 17321 bound_to 7965
  139.6974  144.7639  151.1332 LP  0  0  0  0  0  0  0  0  0  0  0  0  # atno 17342 bound_to 10162
  140.7694  143.5504  150.9210 LP  0  0  0  0  0  0  0  0  0  0  0  0  # atno 17343 bound_to 10162
  157.1181  131.0239  151.3020 LP  0  0  0  0  0  0  0  0  0  0  0  0  # atno 17370 bound_to 10713
  157.4650  130.7675  149.7271 LP  0  0  0  0  0  0  0  0  0  0  0  0  # atno 17371 bound_to 10713
  140.2348  134.8658  157.3514 LP  0  0  0  0  0  0  0  0  0  0  0  0  # atno 17394 bound_to 11000
  140.1854  134.4437  155.7747 LP  0  0  0  0  0  0  0  0  0  0  0  0  # atno 17395 bound_to 11000

$$$$
