AV-unprocessed.smi:227|AV-procd|sdf|1727|dock9
  -GOLD-   2262020213D 1   1.00000     0.00000
 Structure written by MMmdl.
 54 58  0  0  0  0  0  0  0  0  1 V2000
  151.1923  137.0308  159.5264 O   0  0  0  0  0  0  0  0  0  0  0  0
  150.1342  137.5126  158.7245 C   0  0  0  0  0  0  0  0  0  0  0  0
  150.6256  137.8735  157.2991 C   0  0  2  0  0  0  0  0  0  0  0  0
  151.3691  136.6695  156.6491 C   0  0  0  0  0  0  0  0  0  0  0  0
  150.4970  135.7255  155.9643 N   0  0  0  0  0  0  0  0  0  0  0  0
  149.4479  136.0266  155.1265 C   0  0  0  0  0  0  0  0  0  0  0  0
  148.8188  134.9971  154.6322 N   0  0  0  0  0  0  0  0  0  0  0  0
  149.4703  133.8957  155.1752 C   0  0  0  0  0  0  0  0  0  0  0  0
  149.3141  132.4813  155.0647 C   0  0  0  0  0  0  0  0  0  0  0  0
  148.3752  131.8585  154.2982 N   0  0  0  0  0  0  0  0  0  0  0  0
  147.2896  131.0927  154.8935 C   0  0  2  0  0  0  0  0  0  0  0  0
  146.6361  130.4396  153.6638 C   0  0  0  0  0  0  0  0  0  0  0  0
  146.8138  131.5393  152.6077 C   0  0  0  0  0  0  0  0  0  0  0  0
  147.5017  132.6425  153.4333 C   0  0  1  0  0  0  0  0  0  0  0  0
  146.5166  133.3034  154.4325 C   0  0  1  0  0  0  0  0  0  0  0  0
  145.2142  133.8683  153.8358 C   0  0  0  0  0  0  0  0  0  0  0  0
  144.2524  134.0373  154.8551 O   0  0  0  0  0  0  0  0  0  0  0  0
  146.3336  132.1652  155.4550 C   0  0  0  0  0  0  0  0  0  0  0  0
  150.1539  131.7067  155.8018 N   0  0  0  0  0  0  0  0  0  0  0  0
  151.0917  132.2610  156.5737 C   0  0  0  0  0  0  0  0  0  0  0  0
  151.3595  133.5534  156.7593 N   0  0  0  0  0  0  0  0  0  0  0  0
  150.5178  134.3423  156.0330 C   0  0  0  0  0  0  0  0  0  0  0  0
  151.4697  139.1871  157.3030 C   0  0  2  0  0  0  0  0  0  0  0  0
  150.6828  140.4556  157.6244 C   0  0  0  0  0  0  0  0  0  0  0  0
  150.0986  140.8773  156.2764 C   0  0  0  0  0  0  0  0  0  0  0  0
  150.9272  140.2768  155.2879 O   0  0  0  0  0  0  0  0  0  0  0  0
  152.0036  139.6030  155.9241 C   0  0  0  0  0  0  0  0  0  0  0  0
  151.7730  137.7515  159.7193 H   0  0  0  0  0  0  0  0  0  0  0  0
  149.3874  136.7226  158.7075 H   0  0  0  0  0  0  0  0  0  0  0  0
  149.6682  138.3689  159.2119 H   0  0  0  0  0  0  0  0  0  0  0  0
  149.7383  138.0570  156.6915 H   0  0  0  0  0  0  0  0  0  0  0  0
  152.1116  137.0242  155.9340 H   0  0  0  0  0  0  0  0  0  0  0  0
  151.9502  136.1212  157.3888 H   0  0  0  0  0  0  0  0  0  0  0  0
  149.1617  137.0395  154.8848 H   0  0  0  0  0  0  0  0  0  0  0  0
  147.5819  130.3451  155.6283 H   0  0  0  0  0  0  0  0  0  0  0  0
  147.1726  129.5367  153.3692 H   0  0  0  0  0  0  0  0  0  0  0  0
  145.5916  130.1750  153.8315 H   0  0  0  0  0  0  0  0  0  0  0  0
  147.4751  131.1927  151.8123 H   0  0  0  0  0  0  0  0  0  0  0  0
  145.8788  131.8486  152.1425 H   0  0  0  0  0  0  0  0  0  0  0  0
  148.0173  133.3653  152.8000 H   0  0  0  0  0  0  0  0  0  0  0  0
  147.0425  134.1269  154.9190 H   0  0  0  0  0  0  0  0  0  0  0  0
  145.3987  134.8363  153.3695 H   0  0  0  0  0  0  0  0  0  0  0  0
  144.7996  133.2094  153.0734 H   0  0  0  0  0  0  0  0  0  0  0  0
  143.6516  133.3085  154.8244 H   0  0  0  0  0  0  0  0  0  0  0  0
  145.3061  131.8067  155.5278 H   0  0  0  0  0  0  0  0  0  0  0  0
  146.6456  132.4899  156.4485 H   0  0  0  0  0  0  0  0  0  0  0  0
  151.7173  131.5698  157.1190 H   0  0  0  0  0  0  0  0  0  0  0  0
  152.2928  139.0746  158.0093 H   0  0  0  0  0  0  0  0  0  0  0  0
  149.9223  140.3608  158.3961 H   0  0  0  0  0  0  0  0  0  0  0  0
  151.3774  141.2248  157.9656 H   0  0  0  0  0  0  0  0  0  0  0  0
  149.0814  140.5034  156.1562 H   0  0  0  0  0  0  0  0  0  0  0  0
  150.0765  141.9618  156.1661 H   0  0  0  0  0  0  0  0  0  0  0  0
  152.8245  140.3115  156.0448 H   0  0  0  0  0  0  0  0  0  0  0  0
  152.3784  138.7901  155.3063 H   0  0  0  0  0  0  0  0  0  0  0  0
  1  2  1  0  0  0  0
  1 28  1  0  0  0  0
  2  3  1  0  0  0  0
  2 29  1  0  0  0  0
  2 30  1  0  0  0  0
  3  4  1  0  0  0  0
  3 23  1  0  0  0  0
  3 31  1  0  0  0  0
  4  5  1  0  0  0  0
  4 32  1  0  0  0  0
  4 33  1  0  0  0  0
  5 22  1  0  0  0  0
  5  6  1  0  0  0  0
  6  7  2  0  0  0  0
  6 34  1  0  0  0  0
  7  8  1  0  0  0  0
  8 22  2  0  0  0  0
  8  9  1  0  0  0  0
  9 10  1  0  0  0  0
  9 19  2  0  0  0  0
 10 14  1  0  0  0  0
 10 11  1  0  0  0  0
 11 18  1  0  0  0  0
 11 12  1  0  0  0  0
 11 35  1  0  0  0  0
 12 13  1  0  0  0  0
 12 36  1  0  0  0  0
 12 37  1  0  0  0  0
 13 14  1  0  0  0  0
 13 38  1  0  0  0  0
 13 39  1  0  0  0  0
 14 15  1  0  0  0  0
 14 40  1  0  0  0  0
 15 16  1  0  0  0  0
 15 18  1  0  0  0  0
 15 41  1  0  0  0  0
 16 17  1  0  0  0  0
 16 42  1  0  0  0  0
 16 43  1  0  0  0  0
 17 44  1  0  0  0  0
 18 45  1  0  0  0  0
 18 46  1  0  0  0  0
 19 20  1  0  0  0  0
 20 21  2  0  0  0  0
 20 47  1  0  0  0  0
 21 22  1  0  0  0  0
 23 27  1  0  0  0  0
 23 24  1  0  0  0  0
 23 48  1  0  0  0  0
 24 25  1  0  0  0  0
 24 49  1  0  0  0  0
 24 50  1  0  0  0  0
 25 26  1  0  0  0  0
 25 51  1  0  0  0  0
 25 52  1  0  0  0  0
 26 27  1  0  0  0  0
 27 53  1  0  0  0  0
 27 54  1  0  0  0  0
M  END
> <s_m_source_file>
AV-unprocessed.smi

> <i_m_source_file_index>
227

> <i_lp_mmshare_version>
43012

> <i_f3d_flags>
0

> <s_epik_input>
W0NIMl0xT1tDSDJdW0NIMl1bQ0BIXTFbQ0BIXShbQ0gyXVtPSF0pW0NIMl1uKFtjSF1uMiljKGMyMyluW2NIXW5jM04oW0NASF00NSlbQ0BASF0oW0NIMl1bQ0gyXTQpW0NASF0oW0NIMl01KVtDSDJdW09IXQ==

> <s_epik_cmdline>
J2VwaWtfcHl0aG9uJywgJy1waCcsICc3LjAnLCAnLXRuJywgJzgnLCAnLW1hJywgJzIwMCcsICctbWV0YWxfYmluZGluZycsICctaW1hZScsICc8aW5maWxlLm1hZT4nLCAnLW9tYWUnLCAnPG91dGZpbGUubWFlPic=

> <r_lp_tautomer_probability>
1

> <r_epik_Ionization_Penalty>
0.0055791

> <r_epik_Ionization_Penalty_Charging>
0

> <r_epik_Ionization_Penalty_Neutral>
0.0055791

> <r_epik_State_Penalty>
0.00401299

> <r_epik_Charging_Adjusted_Penalty>
0.00401299

> <i_epik_Tot_Q>
0

> <i_epik_Tot_abs_Q>
0

> <r_epik_Metal_State_Penalty>
-0

> <b_epik_Metal_Only>
0

> <s_lp_Force_Field>
OPLS_2005

> <r_lp_Energy>
89.6374

> <b_lp_Chiralities_Consistent>
1

> <s_lp_Variant>
AV-unprocessed.smi:227-1

> <Gold.Version>
5.8.1

> <Gold.Id.Protein>
6NUR|6NUR_protein|mol2

> <Gold.PLP.Fitness>
40.0041

> <Gold.PLP.PLP>
-32.6436

> <Gold.PLP.part.hbond>
-3.6620

> <Gold.PLP.part.metal>
0.0000

> <Gold.PLP.part.buried>
-6.8266

> <Gold.PLP.part.nonpolar>
-23.6373

> <Gold.PLP.part.repulsive>
0.9671

> <Gold.PLP.ligand.clash>
0.0000

> <Gold.PLP.ligand.torsion>
0.8906

> <Gold.PLP.Chemscore.Hbond>
2.9913

> <Gold.PLP.Chemscore.CHOScore>
0.0000

> <Gold.PLP.Chemscore.Metal>
0.0000

> <Gold.Chemscore.Hbonds>
donor molecule, donor type, donor heavy atom, donor atom, acceptor molecule, acceptor atom, score
      L1  H    17    44       P1 10957  1.00
      P1  H  6896  6909       L1     1  1.00
      P1  H  7989  7998       L1    26  1.00

> <Gold.PLP.Chemscore.Internal.Correction>
0.1679

> <Gold.Rescore>
     Score         DG    S(hbond)    S(metal)    S(lipo)     H(rot)  DE(clash)    DE(int)     intcor
     10.01     -13.03       2.91        0.00      60.36       3.61       0.03       2.99       ----

> <Gold.Chemscore.Fitness>
10.0120

> <Gold.Chemscore.DG>
-13.0318

> <Gold.Chemscore.ZeroCoef>
-5.4800

> <Gold.Chemscore.Hbond>
2.9112

> <Gold.Chemscore.Metal>
0.0000

> <Gold.Chemscore.Lipo>
60.3633

> <Gold.Chemscore.Internal_Hbond>
0.0000

> <Gold.Chemscore.DEClash>
0.0310

> <Gold.Chemscore.DEInternal>
2.9889

> <Gold.Chemscore.Rot>
3.6071

> <Gold.Chemscore.Internal.Correction>
   9.000000E+99

> <Gold.Chemscore.Hbonds>
donor molecule, donor type, donor heavy atom, donor atom, acceptor molecule, acceptor atom, score
      L1  H    17    44       P1 10957  1.00
      P1  H  6896  6909       L1     1  0.98
      P1  H  7989  7998       L1    26  0.52

> <Gold.Chemscore.Hbond.Weighted>
-9.7235

> <Gold.Chemscore.Metal.Weighted>
-0.0000

> <Gold.Chemscore.Lipo.Weighted>
-7.0625

> <Gold.Chemscore.Internal_Hbond.Weighted>
0.0000

> <Gold.Chemscore.DEClash.Weighted>
0.0310

> <Gold.Chemscore.DEInternal.Weighted>
2.9889

> <Gold.Chemscore.Rot.Weighted>
9.2342

> <Gold.Chemscore.Internal.Correction.Weighted>
   9.000000E+99

> <Gold.Protein.RotatedTorsions>
[ 6907 6896 6895 6894 ] final  120.83 input  -60.11 | X-H torsion
[ 7974 7965 7964 7962 ] final  -22.56 input  175.53 | X-H torsion
[ 8008 7997 7996 7995 ] final  145.48 input   59.86 | X-H torsion
[ 10167 10162 10161 10158 ] final -129.74 input  -65.29 | X-H torsion
[ 10718 10713 10712 10709 ] final   28.87 input   66.30 | X-H torsion
[ 10763 10752 10751 10750 ] final  -50.88 input  -60.55 | X-H torsion
[ 11005 11000 10999 10996 ] final -144.22 input  -57.11 | X-H torsion

> <Gold.Protein.ActiveResidues>
 VAL166  LYS551  ARG553  GLY616  TRP617  ASP618  TYR619  PRO620  LYS621  CYS622 
 ASP623  PHE694  ASN695  SER759  ASP760  ASP761  ALA762  ILE779  LEU786  VAL792 
 PHE793  MET794  SER795  GLU796  ALA797  LYS798  CYS799  TRP800  GLU811  SER814 

> <Gold.Protein.RotatedAtoms>
  152.4368  133.7375  159.6622 H   0  0  0  0  0  0  0  0  0  0  0  0  # atno 6907 bound_to 6896
  150.8253  133.8172  159.3127 H   0  0  0  0  0  0  0  0  0  0  0  0  # atno 6908 bound_to 6896
  151.5842  135.1059  160.0076 H   0  0  0  0  0  0  0  0  0  0  0  0  # atno 6909 bound_to 6896
  146.1668  140.4495  142.8548 H   0  0  0  0  0  0  0  0  0  0  0  0  # atno 7974 bound_to 7965
  156.2882  140.2208  156.5223 H   0  0  0  0  0  0  0  0  0  0  0  0  # atno 8008 bound_to 7997
  154.7518  140.0480  157.0922 H   0  0  0  0  0  0  0  0  0  0  0  0  # atno 8009 bound_to 7997
  155.0100  140.3112  155.4837 H   0  0  0  0  0  0  0  0  0  0  0  0  # atno 8010 bound_to 7997
  139.9366  143.6211  152.2515 H   0  0  0  0  0  0  0  0  0  0  0  0  # atno 10167 bound_to 10162
  157.2392  130.7061  149.6350 H   0  0  0  0  0  0  0  0  0  0  0  0  # atno 10718 bound_to 10713
  154.1175  135.6540  153.4896 H   0  0  0  0  0  0  0  0  0  0  0  0  # atno 10763 bound_to 10752
  153.0236  135.5262  154.7130 H   0  0  0  0  0  0  0  0  0  0  0  0  # atno 10764 bound_to 10752
  154.6328  135.2978  155.0166 H   0  0  0  0  0  0  0  0  0  0  0  0  # atno 10765 bound_to 10752
  140.8046  134.2816  157.4965 H   0  0  0  0  0  0  0  0  0  0  0  0  # atno 11005 bound_to 11000
  144.8105  140.6376  143.6418 LP  0  0  0  0  0  0  0  0  0  0  0  0  # atno 17320 bound_to 7965
  145.4445  139.1531  143.3952 LP  0  0  0  0  0  0  0  0  0  0  0  0  # atno 17321 bound_to 7965
  139.6739  144.7659  151.1733 LP  0  0  0  0  0  0  0  0  0  0  0  0  # atno 17342 bound_to 10162
  140.7623  143.5825  150.8880 LP  0  0  0  0  0  0  0  0  0  0  0  0  # atno 17343 bound_to 10162
  155.9671  130.4463  150.5538 LP  0  0  0  0  0  0  0  0  0  0  0  0  # atno 17370 bound_to 10713
  157.3397  131.0714  151.1798 LP  0  0  0  0  0  0  0  0  0  0  0  0  # atno 17371 bound_to 10713
  139.8719  134.9449  156.3894 LP  0  0  0  0  0  0  0  0  0  0  0  0  # atno 17394 bound_to 11000
  140.9260  133.7612  155.9965 LP  0  0  0  0  0  0  0  0  0  0  0  0  # atno 17395 bound_to 11000

$$$$
