AV-unprocessed.smi:3210|AV-procd|sdf|12272|dock4
  -GOLD-   2272018103D 1   1.00000     0.00000
 Structure written by MMmdl.
 35 36  0  0  0  0  0  0  0  0  2 V2000
  146.2398  136.3411  153.3149 O   0  0  0  0  0  0  0  0  0  0  0  0
  145.7750  137.0583  152.4279 C   0  0  0  0  0  0  0  0  0  0  0  0
  146.3959  138.4219  152.1178 C   0  0  0  0  0  0  0  0  0  0  0  0
  147.8005  138.5155  152.5661 N   0  3  0  0  0  0  0  0  0  0  0  0
  147.9580  138.9440  153.9689 C   0  0  0  0  0  0  0  0  0  0  0  0
  149.0228  140.0433  154.0923 C   0  0  0  0  0  0  0  0  0  0  0  0
  150.3262  139.4983  154.4197 N   0  0  0  0  0  0  0  0  0  0  0  0
  150.7243  138.1779  154.4424 C   0  0  0  0  0  0  0  0  0  0  0  0
  152.0374  138.1566  154.8162 C   0  0  0  0  0  0  0  0  0  0  0  0
  152.3572  139.5298  155.0080 C   0  0  0  0  0  0  0  0  0  0  0  0
  151.3302  140.3303  154.7711 N   0  0  0  0  0  0  0  0  0  0  0  0
  144.7169  136.7109  151.6800 N   0  0  0  0  0  0  0  0  0  0  0  0
  143.9770  135.4614  151.8067 C   0  0  0  0  0  0  0  0  0  0  0  0
  144.5961  134.2745  151.0934 C   0  0  0  0  0  0  0  0  0  0  0  0
  144.0644  132.8804  151.3287 C   0  0  0  0  0  0  0  0  0  0  0  0
  145.4315  133.2629  151.8428 C   0  0  0  0  0  0  0  0  0  0  0  0
  146.3462  138.5972  151.0422 H   0  0  0  0  0  0  0  0  0  0  0  0
  145.8075  139.2006  152.6052 H   0  0  0  0  0  0  0  0  0  0  0  0
  148.2304  137.6082  152.4537 H   0  0  0  0  0  0  0  0  0  0  0  0
  147.0006  139.3087  154.3436 H   0  0  0  0  0  0  0  0  0  0  0  0
  148.2343  138.0800  154.5747 H   0  0  0  0  0  0  0  0  0  0  0  0
  149.1071  140.6026  153.1593 H   0  0  0  0  0  0  0  0  0  0  0  0
  148.7418  140.7584  154.8667 H   0  0  0  0  0  0  0  0  0  0  0  0
  150.0496  137.3721  154.1935 H   0  0  0  0  0  0  0  0  0  0  0  0
  152.6726  137.2915  154.9368 H   0  0  0  0  0  0  0  0  0  0  0  0
  153.2981  139.9654  155.3106 H   0  0  0  0  0  0  0  0  0  0  0  0
  144.3974  137.3579  150.9731 H   0  0  0  0  0  0  0  0  0  0  0  0
  143.8826  135.2313  152.8683 H   0  0  0  0  0  0  0  0  0  0  0  0
  142.9604  135.5991  151.4352 H   0  0  0  0  0  0  0  0  0  0  0  0
  144.9016  134.4866  150.0704 H   0  0  0  0  0  0  0  0  0  0  0  0
  143.2699  132.7562  152.0619 H   0  0  0  0  0  0  0  0  0  0  0  0
  144.0178  132.2099  150.4730 H   0  0  0  0  0  0  0  0  0  0  0  0
  146.2964  132.8470  151.3299 H   0  0  0  0  0  0  0  0  0  0  0  0
  145.5449  133.3929  152.9171 H   0  0  0  0  0  0  0  0  0  0  0  0
  148.2810  139.1734  151.9689 H   0  0  0  0  0  0  0  0  0  0  0  0
  1  2  2  0  0  0  0
  2  3  1  0  0  0  0
  2 12  1  0  0  0  0
  3  4  1  0  0  0  0
  3 17  1  0  0  0  0
  3 18  1  0  0  0  0
  4  5  1  0  0  0  0
  4 19  1  0  0  0  0
  4 35  1  0  0  0  0
  5  6  1  0  0  0  0
  5 20  1  0  0  0  0
  5 21  1  0  0  0  0
  6  7  1  0  0  0  0
  6 22  1  0  0  0  0
  6 23  1  0  0  0  0
  7 11  1  0  0  0  0
  7  8  1  0  0  0  0
  8  9  2  0  0  0  0
  8 24  1  0  0  0  0
  9 10  1  0  0  0  0
  9 25  1  0  0  0  0
 10 11  2  0  0  0  0
 10 26  1  0  0  0  0
 12 13  1  0  0  0  0
 12 27  1  0  0  0  0
 13 14  1  0  0  0  0
 13 28  1  0  0  0  0
 13 29  1  0  0  0  0
 14 16  1  0  0  0  0
 14 15  1  0  0  0  0
 14 30  1  0  0  0  0
 15 16  1  0  0  0  0
 15 31  1  0  0  0  0
 15 32  1  0  0  0  0
 16 33  1  0  0  0  0
 16 34  1  0  0  0  0
M  CHG  1   4   1
M  END
> <s_m_source_file>
AV-unprocessed.smi

> <i_m_source_file_index>
3210

> <i_lp_mmshare_version>
43012

> <i_f3d_flags>
0

> <s_epik_input>
W0NIMl0xW0NIMl1bQ0hdMVtDSDJdW05IXUMoPU8pW0NIMl1bTkhdW0NIMl1bQ0gyXW4yW2NIXVtjSF1bY0hdbjI=

> <s_epik_cmdline>
J2VwaWtfcHl0aG9uJywgJy1waCcsICc3LjAnLCAnLXRuJywgJzgnLCAnLW1hJywgJzIwMCcsICctbWV0YWxfYmluZGluZycsICctaW1hZScsICc8aW5maWxlLm1hZT4nLCAnLW9tYWUnLCAnPG91dGZpbGUubWFlPic=

> <r_lp_tautomer_probability>
1

> <r_epik_Ionization_Penalty>
0.20724

> <r_epik_Ionization_Penalty_Charging>
0.207237

> <r_epik_Ionization_Penalty_Neutral>
3.19342e-06

> <r_epik_State_Penalty>
0.197611

> <r_epik_Charging_Adjusted_Penalty>
0.404848

> <i_epik_Tot_Q>
1

> <i_epik_Tot_abs_Q>
1

> <r_epik_Metal_State_Penalty>
0.197786

> <b_epik_Metal_Only>
0

> <s_lp_Force_Field>
OPLS_2005

> <r_lp_Energy>
10.8837

> <b_lp_Chiralities_Consistent>
1

> <s_lp_Variant>
AV-unprocessed.smi:3210-1

> <Gold.Version>
5.8.1

> <Gold.Id.Protein>
6NUR|6NUR_protein|mol2

> <Gold.PLP.Fitness>
50.3428

> <Gold.PLP.PLP>
-34.8149

> <Gold.PLP.part.hbond>
-4.0000

> <Gold.PLP.part.metal>
0.0000

> <Gold.PLP.part.buried>
-4.4222

> <Gold.PLP.part.nonpolar>
-29.4571

> <Gold.PLP.part.repulsive>
1.3584

> <Gold.PLP.ligand.clash>
0.0000

> <Gold.PLP.ligand.torsion>
1.5873

> <Gold.PLP.Chemscore.Hbond>
5.0000

> <Gold.PLP.Chemscore.CHOScore>
1.0000

> <Gold.PLP.Chemscore.Metal>
0.0000

> <Gold.Chemscore.Hbonds>
donor molecule, donor type, donor heavy atom, donor atom, acceptor molecule, acceptor atom, score
      L1  H     4    19       P1  7948  2.00
      L1  H     4    35       P1  7957  1.00
      L1  H    12    27       P1 10171  1.00
      P1  H  7989  7998       L1    11  0.70
      L1  C     8    24       P1  7948  0.37

> <Gold.PLP.Chemscore.Internal.Correction>
0.7026

> <Gold.Rescore>
     Score         DG    S(hbond)    S(metal)    S(lipo)     H(rot)  DE(clash)    DE(int)     intcor
     15.54     -18.28       3.39        0.00      64.57       2.37       0.17       2.57       ----

> <Gold.Chemscore.Fitness>
15.5371

> <Gold.Chemscore.DG>
-18.2807

> <Gold.Chemscore.ZeroCoef>
-5.4800

> <Gold.Chemscore.Hbond>
3.3884

> <Gold.Chemscore.Metal>
0.0000

> <Gold.Chemscore.Lipo>
64.5700

> <Gold.Chemscore.Internal_Hbond>
0.0000

> <Gold.Chemscore.DEClash>
0.1691

> <Gold.Chemscore.DEInternal>
2.5745

> <Gold.Chemscore.Rot>
2.3715

> <Gold.Chemscore.Internal.Correction>
   9.000000E+99

> <Gold.Chemscore.Hbonds>
donor molecule, donor type, donor heavy atom, donor atom, acceptor molecule, acceptor atom, score
      L1  H     4    19       P1  7948  1.00
      L1  H     4    35       P1  7957  0.99
      L1  H    12    27       P1 10171  1.00
      P1  H  7989  7998       L1    11  0.07

> <Gold.Chemscore.Hbond.Weighted>
-11.3172

> <Gold.Chemscore.Metal.Weighted>
-0.0000

> <Gold.Chemscore.Lipo.Weighted>
-7.5547

> <Gold.Chemscore.Internal_Hbond.Weighted>
0.0000

> <Gold.Chemscore.DEClash.Weighted>
0.1691

> <Gold.Chemscore.DEInternal.Weighted>
2.5745

> <Gold.Chemscore.Rot.Weighted>
6.0712

> <Gold.Chemscore.Internal.Correction.Weighted>
   9.000000E+99

> <Gold.Protein.RotatedTorsions>
[ 6907 6896 6895 6894 ] final -176.99 input  -60.11 | X-H torsion
[ 7974 7965 7964 7962 ] final  127.75 input  175.53 | X-H torsion
[ 8008 7997 7996 7995 ] final  -24.71 input   59.86 | X-H torsion
[ 10167 10162 10161 10158 ] final  117.31 input  -65.29 | X-H torsion
[ 10718 10713 10712 10709 ] final  -99.00 input   66.30 | X-H torsion
[ 10763 10752 10751 10750 ] final  141.85 input  -60.55 | X-H torsion
[ 11005 11000 10999 10996 ] final -161.03 input  -57.11 | X-H torsion

> <Gold.Protein.ActiveResidues>
 VAL166  LYS551  ARG553  GLY616  TRP617  ASP618  TYR619  PRO620  LYS621  CYS622 
 ASP623  PHE694  ASN695  SER759  ASP760  ASP761  ALA762  ILE779  LEU786  VAL792 
 PHE793  MET794  SER795  GLU796  ALA797  LYS798  CYS799  TRP800  GLU811  SER814 

> <Gold.Protein.RotatedAtoms>
  151.6137  133.3345  159.3072 H   0  0  0  0  0  0  0  0  0  0  0  0  # atno 6907 bound_to 6896
  150.8142  134.7319  159.6727 H   0  0  0  0  0  0  0  0  0  0  0  0  # atno 6908 bound_to 6896
  152.4239  134.5910  160.0025 H   0  0  0  0  0  0  0  0  0  0  0  0  # atno 6909 bound_to 6896
  145.0471  139.3914  143.5072 H   0  0  0  0  0  0  0  0  0  0  0  0  # atno 7974 bound_to 7965
  154.4514  140.1946  156.0507 H   0  0  0  0  0  0  0  0  0  0  0  0  # atno 8008 bound_to 7997
  156.0656  140.3291  155.7487 H   0  0  0  0  0  0  0  0  0  0  0  0  # atno 8009 bound_to 7997
  155.5343  140.0581  157.2873 H   0  0  0  0  0  0  0  0  0  0  0  0  # atno 8010 bound_to 7997
  139.6187  144.7097  151.2681 H   0  0  0  0  0  0  0  0  0  0  0  0  # atno 10167 bound_to 10162
  156.0122  130.5263  150.6606 H   0  0  0  0  0  0  0  0  0  0  0  0  # atno 10718 bound_to 10713
  153.9461  135.2975  155.3440 H   0  0  0  0  0  0  0  0  0  0  0  0  # atno 10763 bound_to 10752
  154.7451  135.5006  153.9194 H   0  0  0  0  0  0  0  0  0  0  0  0  # atno 10764 bound_to 10752
  153.1018  135.6736  153.9767 H   0  0  0  0  0  0  0  0  0  0  0  0  # atno 10765 bound_to 10752
  140.6249  134.4711  157.5226 H   0  0  0  0  0  0  0  0  0  0  0  0  # atno 11005 bound_to 11000
  146.3515  140.0102  142.8668 LP  0  0  0  0  0  0  0  0  0  0  0  0  # atno 17320 bound_to 7965
  145.1574  140.9655  143.4397 LP  0  0  0  0  0  0  0  0  0  0  0  0  # atno 17321 bound_to 7965
  140.7368  143.6696  150.8093 LP  0  0  0  0  0  0  0  0  0  0  0  0  # atno 17342 bound_to 10162
  140.0304  143.5450  152.2763 LP  0  0  0  0  0  0  0  0  0  0  0  0  # atno 17343 bound_to 10162
  157.4349  131.0854  151.1002 LP  0  0  0  0  0  0  0  0  0  0  0  0  # atno 17370 bound_to 10713
  157.1564  130.6206  149.5597 LP  0  0  0  0  0  0  0  0  0  0  0  0  # atno 17371 bound_to 10713
  139.9138  134.8288  156.1434 LP  0  0  0  0  0  0  0  0  0  0  0  0  # atno 17394 bound_to 11000
  141.0716  133.6794  156.2152 LP  0  0  0  0  0  0  0  0  0  0  0  0  # atno 17395 bound_to 11000

$$$$
