AV-unprocessed.smi:305|AV-procd|sdf|2280|dock8
  -GOLD-   2262022183D 1   1.00000     0.00000
 Structure written by MMmdl.
 47 49  0  0  0  0  0  0  0  0  1 V2000
  154.6984  137.2823  163.9031 C   0  0  0  0  0  0  0  0  0  0  0  0
  153.9045  137.1802  162.5990 C   0  0  0  0  0  0  0  0  0  0  0  0
  154.3408  138.1970  161.7131 O   0  0  0  0  0  0  0  0  0  0  0  0
  153.4607  138.3800  160.6175 C   0  0  0  0  0  0  0  0  0  0  0  0
  153.8474  139.6691  159.8813 C   0  0  0  0  0  0  0  0  0  0  0  0
  152.9974  139.9041  158.7199 N   0  0  0  0  0  0  0  0  0  0  0  0
  152.2832  141.0181  158.4143 C   0  0  0  0  0  0  0  0  0  0  0  0
  152.2846  142.1487  159.2592 N   0  0  0  0  0  0  0  0  0  0  0  0
  152.5831  142.0151  160.5682 N   0  0  0  0  0  0  0  0  0  0  0  0
  152.4910  143.2366  161.0657 C   0  0  0  0  0  0  0  0  0  0  0  0
  152.7762  143.4613  162.5229 C   0  0  0  0  0  0  0  0  0  0  0  0
  152.1124  144.1958  160.0819 C   0  0  0  0  0  0  0  0  0  0  0  0
  151.9056  145.6733  160.2714 C   0  0  0  0  0  0  0  0  0  0  0  0
  151.9871  143.4594  158.9350 C   0  0  0  0  0  0  0  0  0  0  0  0
  151.6159  143.8789  157.5487 C   0  0  0  0  0  0  0  0  0  0  0  0
  151.6073  140.9553  157.2633 N   0  0  0  0  0  0  0  0  0  0  0  0
  151.9068  139.6812  156.8012 C   0  0  0  0  0  0  0  0  0  0  0  0
  152.7367  139.0361  157.6609 C   0  0  0  0  0  0  0  0  0  0  0  0
  153.2153  137.6693  157.4224 C   0  0  0  0  0  0  0  0  0  0  0  0
  153.9646  137.0707  158.1910 O   0  0  0  0  0  0  0  0  0  0  0  0
  152.7425  137.1355  156.2699 N   0  0  0  0  0  0  0  0  0  0  0  0
  151.9059  137.7258  155.3620 C   0  0  0  0  0  0  0  0  0  0  0  0
  151.5569  137.1087  154.3556 O   0  0  0  0  0  0  0  0  0  0  0  0
  151.4848  139.0056  155.6205 N   0  0  0  0  0  0  0  0  0  0  0  0
  150.5896  139.6848  154.6824 C   0  0  0  0  0  0  0  0  0  0  0  0
  153.0399  136.1944  156.0576 H   0  0  0  0  0  0  0  0  0  0  0  0
  154.3885  136.5113  164.6089 H   0  0  0  0  0  0  0  0  0  0  0  0
  154.5469  138.2517  164.3785 H   0  0  0  0  0  0  0  0  0  0  0  0
  155.7663  137.1600  163.7216 H   0  0  0  0  0  0  0  0  0  0  0  0
  154.0550  136.1983  162.1478 H   0  0  0  0  0  0  0  0  0  0  0  0
  152.8386  137.2907  162.8036 H   0  0  0  0  0  0  0  0  0  0  0  0
  153.5223  137.5250  159.9430 H   0  0  0  0  0  0  0  0  0  0  0  0
  152.4316  138.4415  160.9737 H   0  0  0  0  0  0  0  0  0  0  0  0
  153.7813  140.5224  160.5567 H   0  0  0  0  0  0  0  0  0  0  0  0
  154.8871  139.6289  159.5575 H   0  0  0  0  0  0  0  0  0  0  0  0
  153.4913  144.2727  162.6588 H   0  0  0  0  0  0  0  0  0  0  0  0
  153.1940  142.5717  162.9960 H   0  0  0  0  0  0  0  0  0  0  0  0
  151.8662  143.7271  163.0610 H   0  0  0  0  0  0  0  0  0  0  0  0
  151.0243  146.0300  159.7379 H   0  0  0  0  0  0  0  0  0  0  0  0
  152.7575  146.2466  159.9055 H   0  0  0  0  0  0  0  0  0  0  0  0
  151.7683  145.9354  161.3205 H   0  0  0  0  0  0  0  0  0  0  0  0
  151.6358  144.9637  157.4469 H   0  0  0  0  0  0  0  0  0  0  0  0
  150.6120  143.5360  157.2980 H   0  0  0  0  0  0  0  0  0  0  0  0
  152.3085  143.4641  156.8162 H   0  0  0  0  0  0  0  0  0  0  0  0
  151.0234  139.7033  153.6818 H   0  0  0  0  0  0  0  0  0  0  0  0
  150.3903  140.7182  154.9660 H   0  0  0  0  0  0  0  0  0  0  0  0
  149.6308  139.1674  154.6294 H   0  0  0  0  0  0  0  0  0  0  0  0
  1  2  1  0  0  0  0
  1 27  1  0  0  0  0
  1 28  1  0  0  0  0
  1 29  1  0  0  0  0
  2  3  1  0  0  0  0
  2 30  1  0  0  0  0
  2 31  1  0  0  0  0
  3  4  1  0  0  0  0
  4  5  1  0  0  0  0
  4 32  1  0  0  0  0
  4 33  1  0  0  0  0
  5  6  1  0  0  0  0
  5 34  1  0  0  0  0
  5 35  1  0  0  0  0
  6 18  1  0  0  0  0
  6  7  1  0  0  0  0
  7  8  1  0  0  0  0
  7 16  2  0  0  0  0
  8 14  1  0  0  0  0
  8  9  1  0  0  0  0
  9 10  2  0  0  0  0
 10 11  1  0  0  0  0
 10 12  1  0  0  0  0
 11 36  1  0  0  0  0
 11 37  1  0  0  0  0
 11 38  1  0  0  0  0
 12 13  1  0  0  0  0
 12 14  2  0  0  0  0
 13 39  1  0  0  0  0
 13 40  1  0  0  0  0
 13 41  1  0  0  0  0
 14 15  1  0  0  0  0
 15 42  1  0  0  0  0
 15 43  1  0  0  0  0
 15 44  1  0  0  0  0
 16 17  1  0  0  0  0
 17 24  1  0  0  0  0
 17 18  2  0  0  0  0
 18 19  1  0  0  0  0
 19 20  2  0  0  0  0
 19 21  1  0  0  0  0
 21 26  1  0  0  0  0
 21 22  1  0  0  0  0
 22 23  2  0  0  0  0
 22 24  1  0  0  0  0
 24 25  1  0  0  0  0
 25 45  1  0  0  0  0
 25 46  1  0  0  0  0
 25 47  1  0  0  0  0
M  END
> <s_m_source_file>
AV-unprocessed.smi

> <i_m_source_file_index>
305

> <i_lp_mmshare_version>
43012

> <i_f3d_flags>
0

> <s_epik_input>
W0NIM11uMWMoPU8pW25IXWMoPU8pYyhjMTIpbihbQ0gyXVtDSDJdT1tDSDJdW0NIM10pYyhuMiktbjNuYyhbQ0gzXSljKFtDSDNdKWMzW0NIM10=

> <s_epik_cmdline>
J2VwaWtfcHl0aG9uJywgJy1waCcsICc3LjAnLCAnLXRuJywgJzgnLCAnLW1hJywgJzIwMCcsICctbWV0YWxfYmluZGluZycsICctaW1hZScsICc8aW5maWxlLm1hZT4nLCAnLW9tYWUnLCAnPG91dGZpbGUubWFlPic=

> <r_lp_tautomer_probability>
1

> <r_epik_Ionization_Penalty>
0.00243297

> <r_epik_Ionization_Penalty_Charging>
0.000715499

> <r_epik_Ionization_Penalty_Neutral>
0.00171747

> <r_epik_State_Penalty>
-0

> <r_epik_Charging_Adjusted_Penalty>
0.000715499

> <i_epik_Tot_Q>
0

> <i_epik_Tot_abs_Q>
0

> <r_epik_Metal_State_Penalty>
0.258225

> <b_epik_Metal_Only>
0

> <s_lp_Force_Field>
OPLS_2005

> <r_lp_Energy>
25.4323

> <b_lp_Chiralities_Consistent>
1

> <s_lp_Variant>
AV-unprocessed.smi:305-1

> <Gold.Version>
5.8.1

> <Gold.Id.Protein>
6NUR|6NUR_protein|mol2

> <Gold.PLP.Fitness>
51.4020

> <Gold.PLP.PLP>
-48.6337

> <Gold.PLP.part.hbond>
-1.0000

> <Gold.PLP.part.metal>
0.0000

> <Gold.PLP.part.buried>
-4.8922

> <Gold.PLP.part.nonpolar>
-45.0561

> <Gold.PLP.part.repulsive>
1.5434

> <Gold.PLP.ligand.clash>
0.0000

> <Gold.PLP.ligand.torsion>
0.3419

> <Gold.PLP.Chemscore.Hbond>
1.0000

> <Gold.PLP.Chemscore.CHOScore>
0.0000

> <Gold.PLP.Chemscore.Metal>
0.0000

> <Gold.Chemscore.Hbonds>
donor molecule, donor type, donor heavy atom, donor atom, acceptor molecule, acceptor atom, score
      P1  H 10752 10764       L1    23  1.00

> <Gold.PLP.Chemscore.Internal.Correction>
0.4522

> <Gold.Rescore>
     Score         DG    S(hbond)    S(metal)    S(lipo)     H(rot)  DE(clash)    DE(int)     intcor
     12.80     -17.48       0.84        0.00     114.52       1.65       0.36       4.32       ----

> <Gold.Chemscore.Fitness>
12.7968

> <Gold.Chemscore.DG>
-17.4834

> <Gold.Chemscore.ZeroCoef>
-5.4800

> <Gold.Chemscore.Hbond>
0.8447

> <Gold.Chemscore.Metal>
0.0000

> <Gold.Chemscore.Lipo>
114.5199

> <Gold.Chemscore.Internal_Hbond>
0.0000

> <Gold.Chemscore.DEClash>
0.3650

> <Gold.Chemscore.DEInternal>
4.3216

> <Gold.Chemscore.Rot>
1.6471

> <Gold.Chemscore.Internal.Correction>
   9.000000E+99

> <Gold.Chemscore.Hbonds>
donor molecule, donor type, donor heavy atom, donor atom, acceptor molecule, acceptor atom, score
      P1  H 10752 10764       L1    23  0.42

> <Gold.Chemscore.Hbond.Weighted>
-2.8212

> <Gold.Chemscore.Metal.Weighted>
-0.0000

> <Gold.Chemscore.Lipo.Weighted>
-13.3988

> <Gold.Chemscore.Internal_Hbond.Weighted>
0.0000

> <Gold.Chemscore.DEClash.Weighted>
0.3650

> <Gold.Chemscore.DEInternal.Weighted>
4.3216

> <Gold.Chemscore.Rot.Weighted>
4.2167

> <Gold.Chemscore.Internal.Correction.Weighted>
   9.000000E+99

> <Gold.Protein.RotatedTorsions>
[ 6907 6896 6895 6894 ] final  -94.11 input  -60.11 | X-H torsion
[ 7974 7965 7964 7962 ] final  -87.80 input  175.53 | X-H torsion
[ 8008 7997 7996 7995 ] final  -48.82 input   59.86 | X-H torsion
[ 10167 10162 10161 10158 ] final   53.33 input  -65.29 | X-H torsion
[ 10718 10713 10712 10709 ] final  -12.96 input   66.30 | X-H torsion
[ 10763 10752 10751 10750 ] final  -86.17 input  -60.55 | X-H torsion
[ 11005 11000 10999 10996 ] final  162.51 input  -57.11 | X-H torsion

> <Gold.Protein.ActiveResidues>
 VAL166  LYS551  ARG553  GLY616  TRP617  ASP618  TYR619  PRO620  LYS621  CYS622 
 ASP623  PHE694  ASN695  SER759  ASP760  ASP761  ALA762  ILE779  LEU786  VAL792 
 PHE793  MET794  SER795  GLU796  ALA797  LYS798  CYS799  TRP800  GLU811  SER814 

> <Gold.Protein.RotatedAtoms>
  150.6935  134.1863  159.4267 H   0  0  0  0  0  0  0  0  0  0  0  0  # atno 6907 bound_to 6896
  151.9835  135.0014  160.0568 H   0  0  0  0  0  0  0  0  0  0  0  0  # atno 6908 bound_to 6896
  152.1733  133.4623  159.4957 H   0  0  0  0  0  0  0  0  0  0  0  0  # atno 6909 bound_to 6896
  145.4617  140.9561  143.1966 H   0  0  0  0  0  0  0  0  0  0  0  0  # atno 7974 bound_to 7965
  154.4034  140.1312  156.4402 H   0  0  0  0  0  0  0  0  0  0  0  0  # atno 8008 bound_to 7997
  155.7466  140.3489  155.5110 H   0  0  0  0  0  0  0  0  0  0  0  0  # atno 8009 bound_to 7997
  155.8989  140.1016  157.1355 H   0  0  0  0  0  0  0  0  0  0  0  0  # atno 8010 bound_to 7997
  140.2419  144.3574  150.6377 H   0  0  0  0  0  0  0  0  0  0  0  0  # atno 10167 bound_to 10162
  156.6371  130.4917  149.6108 H   0  0  0  0  0  0  0  0  0  0  0  0  # atno 10718 bound_to 10713
  154.6194  135.5459  153.7559 H   0  0  0  0  0  0  0  0  0  0  0  0  # atno 10763 bound_to 10752
  153.0231  135.6409  154.1462 H   0  0  0  0  0  0  0  0  0  0  0  0  # atno 10764 bound_to 10752
  154.1397  135.2909  155.3144 H   0  0  0  0  0  0  0  0  0  0  0  0  # atno 10765 bound_to 10752
  140.2265  134.8157  157.3273 H   0  0  0  0  0  0  0  0  0  0  0  0  # atno 11005 bound_to 11000
  144.7998  139.6162  143.7076 LP  0  0  0  0  0  0  0  0  0  0  0  0  # atno 17320 bound_to 7965
  146.2447  139.6073  142.9468 LP  0  0  0  0  0  0  0  0  0  0  0  0  # atno 17321 bound_to 7965
  140.6107  143.2169  151.6892 LP  0  0  0  0  0  0  0  0  0  0  0  0  # atno 17342 bound_to 10162
  139.5074  144.3646  152.0529 LP  0  0  0  0  0  0  0  0  0  0  0  0  # atno 17343 bound_to 10162
  156.2189  130.6725  151.1347 LP  0  0  0  0  0  0  0  0  0  0  0  0  # atno 17370 bound_to 10713
  157.7182  131.0697  150.6241 LP  0  0  0  0  0  0  0  0  0  0  0  0  # atno 17371 bound_to 10713
  140.1795  134.4507  155.7781 LP  0  0  0  0  0  0  0  0  0  0  0  0  # atno 17394 bound_to 11000
  141.2220  133.6977  156.7844 LP  0  0  0  0  0  0  0  0  0  0  0  0  # atno 17395 bound_to 11000

$$$$
