#       Name:                AV-unprocessed.smi:1708
#       Creating user name   scv26
#       Creation time:       Fri Mar 27 08:09:49 2020


#       File generated by GOLD software.
#

@<TRIPOS>MOLECULE
AV-unprocessed.smi:1708
    40    42     1
SMALL
NO_CHARGES


@<TRIPOS>ATOM
      1 ****        -2.4731   1.8329  -1.7323 C.3            1 S1                 0.0000
      2 ****        -1.8653   1.1277  -0.6105 N.am           1 S1                 0.0000
      3 ****        -1.6708  -0.2069  -0.4974 C.2            1 S1                 0.0000
      4 ****        -1.9732  -1.0553  -1.3363 O.2            1 S1                 0.0000
      5 ****        -1.0703  -0.4440   0.6941 N.am           1 S1                 0.0000
      6 ****        -0.6233  -1.7391   1.2101 C.3            1 S1                 0.0000
      7 ****         0.9008  -1.9407   1.0619 C.3            1 S1                 0.0000
      8 ****         1.2276  -3.2306   1.5353 O.3            1 S1                 0.0000
      9 ****         1.3973  -1.7041  -0.3582 C.ar           1 S1                 0.0000
     10 ****         1.1472  -2.6536  -1.3731 C.ar           1 S1                 0.0000
     11 ****         1.5834  -2.4151  -2.6907 C.ar           1 S1                 0.0000
     12 ****         2.2708  -1.2262  -3.0012 C.ar           1 S1                 0.0000
     13 ****         2.5216  -0.2753  -1.9936 C.ar           1 S1                 0.0000
     14 ****         3.1785   0.8703  -2.2922 F              1 S1                 0.0000
     15 ****         2.0868  -0.5138  -0.6757 C.ar           1 S1                 0.0000
     16 ****        -0.8779   0.7749   1.3600 C.ar           1 S1                 0.0000
     17 ****        -0.3024   1.0662   2.6089 C.ar           1 S1                 0.0000
     18 ****        -0.2546   2.4257   2.9971 C.ar           1 S1                 0.0000
     19 ****        -0.7707   3.4421   2.1513 C.ar           1 S1                 0.0000
     20 ****        -1.3450   3.1206   0.8989 C.ar           1 S1                 0.0000
     21 ****        -1.3783   1.7627   0.5386 C.ar           1 S1                 0.0000
     22 ****        -2.5979   1.1863  -2.6019 H              1 S1                 0.0000
     23 ****        -1.8517   2.6767  -2.0325 H              1 S1                 0.0000
     24 ****        -3.4543   2.2136  -1.4482 H              1 S1                 0.0000
     25 ****        -0.9139  -1.8238   2.2579 H              1 S1                 0.0000
     26 ****        -1.1534  -2.5379   0.6884 H              1 S1                 0.0000
     27 ****         1.4104  -1.2354   1.7194 H              1 S1                 0.0000
     28 ****         2.1686  -3.3174   1.5423 H              1 S1                 0.0000
     29 ****         0.6107  -3.5632  -1.1455 H              1 S1                 0.0000
     30 ****         1.3869  -3.1430  -3.4640 H              1 S1                 0.0000
     31 ****         2.6031  -1.0429  -4.0122 H              1 S1                 0.0000
     32 ****         2.2756   0.2258   0.0886 H              1 S1                 0.0000
     33 ****         0.0882   0.2883   3.2478 H              1 S1                 0.0000
     34 ****         0.1800   2.6934   3.9490 H              1 S1                 0.0000
     35 ****        -0.7240   4.4737   2.4670 H              1 S1                 0.0000
     36 ****        -1.7391   3.8883   0.2494 H              1 S1                 0.0000
     37 ****        -2.4042  -0.7780  -2.1950 LP             1 S1                 0.0000
     38 ****        -1.7878  -2.0219  -1.1592 LP             1 S1                 0.0000
     39 ****         0.8294  -3.9222   0.9326 LP             1 S1                 0.0000
     40 ****         0.8708  -3.3505   2.4617 LP             1 S1                 0.0000
@<TRIPOS>BOND
    1    1    2 1     
    2    1   22 1     
    3    1   23 1     
    4    1   24 1     
    5    2   21 1     
    6    2    3 am    
    7    3    4 2     
    8    3    5 am    
    9    5    6 1     
   10    5   16 1     
   11    6    7 1     
   12    6   25 1     
   13    6   26 1     
   14    7    8 1     
   15    7    9 1     
   16    7   27 1     
   17    8   28 1     
   18    9   15 ar    
   19    9   10 ar    
   20   10   11 ar    
   21   10   29 1     
   22   11   12 ar    
   23   11   30 1     
   24   12   13 ar    
   25   12   31 1     
   26   13   14 1     
   27   13   15 ar    
   28   15   32 1     
   29   16   21 ar    
   30   16   17 ar    
   31   17   18 ar    
   32   17   33 1     
   33   18   19 ar    
   34   18   34 1     
   35   19   20 ar    
   36   19   35 1     
   37   20   21 ar    
   38   20   36 1     
   39    4   37 1     
   40    4   38 1     
   41    8   39 1     
   42    8   40 1     
@<TRIPOS>SUBSTRUCTURE
      1 S1             1
@<TRIPOS>SET
LONE_PAIRS      STATIC     ATOMS    <user>   **** ""
4 37 38 39 40
DONOR_HYDROGENS      STATIC     ATOMS    <user>   **** ""
1 28
ATOM$BLUE        STATIC     ATOMS    COLORGROUP SYSTEM
4 37 38 39 40
ATOM$RED        STATIC     ATOMS    COLORGROUP SYSTEM
1 28
