AV-unprocessed.smi:334|AV-procd|sdf|2364|dock7
  -GOLD-   2262022283D 1   1.00000     0.00000
 Structure written by MMmdl.
 44 46  0  0  0  0  0  0  0  0  3 V2000
  153.9920  140.9092  160.7562 C   0  0  0  0  0  0  0  0  0  0  0  0
  152.6535  141.4089  160.1850 C   0  0  2  0  0  0  0  0  0  0  0  0
  151.8797  140.2766  159.6797 N   0  0  0  0  0  0  0  0  0  0  0  0
  152.2950  139.3957  158.7568 C   0  0  0  0  0  0  0  0  0  0  0  0
  153.3994  139.4562  158.2146 O   0  0  0  0  0  0  0  0  0  0  0  0
  151.2919  138.2912  158.3934 C   0  0  0  0  0  0  0  0  0  0  0  0
  150.7115  138.4409  157.0480 N   0  0  0  0  0  0  0  0  0  0  0  0
  150.0837  139.6682  156.7573 C   0  0  0  0  0  0  0  0  0  0  0  0
  149.5238  139.9198  155.5579 C   0  0  0  0  0  0  0  0  0  0  0  0
  148.8902  141.1889  155.2743 N   0  3  0  0  0  0  0  0  0  0  0  0
  148.7658  142.0009  156.1855 O   0  0  0  0  0  0  0  0  0  0  0  0
  148.4967  141.4167  154.1343 O   0  5  0  0  0  0  0  0  0  0  0  0
  149.5817  138.8745  154.5544 C   0  0  0  0  0  0  0  0  0  0  0  0
  150.1857  137.7006  154.8244 C   0  0  0  0  0  0  0  0  0  0  0  0
  150.8012  137.4320  156.1283 C   0  0  0  0  0  0  0  0  0  0  0  0
  151.3628  136.3653  156.3778 O   0  0  0  0  0  0  0  0  0  0  0  0
  152.8467  142.4402  159.0483 C   0  0  1  0  0  0  0  0  0  0  0  0
  151.5588  142.7977  158.2707 C   0  0  0  0  0  0  0  0  0  0  0  0
  151.5745  144.3376  158.2625 C   0  0  1  0  0  0  0  0  0  0  0  0
  151.2069  144.8512  159.6668 C   0  0  0  0  0  0  0  0  0  0  0  0
  152.4713  144.5304  160.4843 C   0  0  0  0  0  0  0  0  0  0  0  0
  153.3823  143.8372  159.4500 C   0  0  2  0  0  0  0  0  0  0  0  0
  153.0662  144.6441  158.1945 C   0  0  0  0  0  0  0  0  0  0  0  0
  154.5645  141.7258  161.1958 H   0  0  0  0  0  0  0  0  0  0  0  0
  154.6074  140.4498  159.9821 H   0  0  0  0  0  0  0  0  0  0  0  0
  153.8366  140.1683  161.5412 H   0  0  0  0  0  0  0  0  0  0  0  0
  152.0839  141.8745  160.9900 H   0  0  0  0  0  0  0  0  0  0  0  0
  150.9563  140.1516  160.0687 H   0  0  0  0  0  0  0  0  0  0  0  0
  151.7829  137.3211  158.4914 H   0  0  0  0  0  0  0  0  0  0  0  0
  150.5018  138.2855  159.1460 H   0  0  0  0  0  0  0  0  0  0  0  0
  150.1002  140.3821  157.5683 H   0  0  0  0  0  0  0  0  0  0  0  0
  149.1419  139.0252  153.5794 H   0  0  0  0  0  0  0  0  0  0  0  0
  150.2180  136.9359  154.0623 H   0  0  0  0  0  0  0  0  0  0  0  0
  153.5587  142.0153  158.3376 H   0  0  0  0  0  0  0  0  0  0  0  0
  151.6027  142.3995  157.2563 H   0  0  0  0  0  0  0  0  0  0  0  0
  150.6535  142.4079  158.7384 H   0  0  0  0  0  0  0  0  0  0  0  0
  150.9742  144.7774  157.4655 H   0  0  0  0  0  0  0  0  0  0  0  0
  151.0206  145.9259  159.6543 H   0  0  0  0  0  0  0  0  0  0  0  0
  150.3179  144.3620  160.0669 H   0  0  0  0  0  0  0  0  0  0  0  0
  152.9340  145.4529  160.8369 H   0  0  0  0  0  0  0  0  0  0  0  0
  152.2649  143.9203  161.3625 H   0  0  0  0  0  0  0  0  0  0  0  0
  154.4364  143.8371  159.7289 H   0  0  0  0  0  0  0  0  0  0  0  0
  153.5468  144.2561  157.2944 H   0  0  0  0  0  0  0  0  0  0  0  0
  153.2954  145.7069  158.2916 H   0  0  0  0  0  0  0  0  0  0  0  0
  1  2  1  0  0  0  0
  1 24  1  0  0  0  0
  1 25  1  0  0  0  0
  1 26  1  0  0  0  0
  2  3  1  0  0  0  0
  2 17  1  0  0  0  0
  2 27  1  0  0  0  0
  3  4  1  0  0  0  0
  3 28  1  0  0  0  0
  4  5  2  0  0  0  0
  4  6  1  0  0  0  0
  6  7  1  0  0  0  0
  6 29  1  0  0  0  0
  6 30  1  0  0  0  0
  7 15  1  0  0  0  0
  7  8  1  0  0  0  0
  8  9  2  0  0  0  0
  8 31  1  0  0  0  0
  9 10  1  0  0  0  0
  9 13  1  0  0  0  0
 10 11  2  0  0  0  0
 10 12  1  0  0  0  0
 13 14  2  0  0  0  0
 13 32  1  0  0  0  0
 14 15  1  0  0  0  0
 14 33  1  0  0  0  0
 15 16  2  0  0  0  0
 17 22  1  0  0  0  0
 17 18  1  0  0  0  0
 17 34  1  0  0  0  0
 18 19  1  0  0  0  0
 18 35  1  0  0  0  0
 18 36  1  0  0  0  0
 19 23  1  0  0  0  0
 19 20  1  0  0  0  0
 19 37  1  0  0  0  0
 20 21  1  0  0  0  0
 20 38  1  0  0  0  0
 20 39  1  0  0  0  0
 21 22  1  0  0  0  0
 21 40  1  0  0  0  0
 21 41  1  0  0  0  0
 22 23  1  0  0  0  0
 22 42  1  0  0  0  0
 23 43  1  0  0  0  0
 23 44  1  0  0  0  0
M  CHG  1  10   1
M  CHG  1  12  -1
M  END
> <s_m_source_file>
AV-unprocessed.smi

> <i_m_source_file_index>
334

> <i_lp_mmshare_version>
43012

> <i_f3d_flags>
0

> <s_epik_input>
W0NIMl0xW0NIMl1bQ0BIXShbQ0gyXTIpW0NAQEhdKFtDSDJdW0NAQEhdMTIpW0NASF0oW0NIM10pW05IXUMoPU8pW0NIMl1uM1tjSF1jKFtOK10oPU8pW08tXSlbY0hdW2NIXWMzPU8=

> <s_epik_cmdline>
J2VwaWtfcHl0aG9uJywgJy1waCcsICc3LjAnLCAnLXRuJywgJzgnLCAnLW1hJywgJzIwMCcsICctbWV0YWxfYmluZGluZycsICctaW1hZScsICc8aW5maWxlLm1hZT4nLCAnLW9tYWUnLCAnPG91dGZpbGUubWFlPic=

> <r_lp_tautomer_probability>
1

> <r_epik_Ionization_Penalty>
2.17081e-08

> <r_epik_Ionization_Penalty_Charging>
8.1195e-11

> <r_epik_Ionization_Penalty_Neutral>
2.16269e-08

> <r_epik_State_Penalty>
-0

> <r_epik_Charging_Adjusted_Penalty>
8.1195e-11

> <i_epik_Tot_Q>
0

> <i_epik_Tot_abs_Q>
2

> <r_epik_Metal_State_Penalty>
-0

> <b_epik_Metal_Only>
0

> <s_lp_Force_Field>
OPLS_2005

> <r_lp_Energy>
62.3999

> <b_lp_Chiralities_Consistent>
1

> <s_lp_Variant>
AV-unprocessed.smi:334-3

> <Gold.Version>
5.8.1

> <Gold.Id.Protein>
6NUR|6NUR_protein|mol2

> <Gold.PLP.Fitness>
56.0416

> <Gold.PLP.PLP>
-47.6146

> <Gold.PLP.part.hbond>
-4.0000

> <Gold.PLP.part.metal>
0.0000

> <Gold.PLP.part.buried>
-6.9633

> <Gold.PLP.part.nonpolar>
-41.1010

> <Gold.PLP.part.repulsive>
4.3699

> <Gold.PLP.ligand.clash>
0.0000

> <Gold.PLP.ligand.torsion>
0.3069

> <Gold.PLP.Chemscore.Hbond>
3.0000

> <Gold.PLP.Chemscore.CHOScore>
0.0000

> <Gold.PLP.Chemscore.Metal>
0.0000

> <Gold.Chemscore.Hbonds>
donor molecule, donor type, donor heavy atom, donor atom, acceptor molecule, acceptor atom, score
      P1  H  7997  8009       L1     5  1.00
      P1  H 10752 10763       L1    16  0.10

> <Gold.PLP.Chemscore.Internal.Correction>
0.0407

> <Gold.Rescore>
     Score         DG    S(hbond)    S(metal)    S(lipo)     H(rot)  DE(clash)    DE(int)     intcor
     21.29     -24.08       2.59        0.00     123.27       1.75       1.29       1.50       ----

> <Gold.Chemscore.Fitness>
21.2919

> <Gold.Chemscore.DG>
-24.0809

> <Gold.Chemscore.ZeroCoef>
-5.4800

> <Gold.Chemscore.Hbond>
2.5902

> <Gold.Chemscore.Metal>
0.0000

> <Gold.Chemscore.Lipo>
123.2718

> <Gold.Chemscore.Internal_Hbond>
0.0000

> <Gold.Chemscore.DEClash>
1.2896

> <Gold.Chemscore.DEInternal>
1.4994

> <Gold.Chemscore.Rot>
1.7474

> <Gold.Chemscore.Internal.Correction>
   9.000000E+99

> <Gold.Chemscore.Hbonds>
donor molecule, donor type, donor heavy atom, donor atom, acceptor molecule, acceptor atom, score
      P1  H  7997  8009       L1     5  0.99
      P1  H  8011  8017       L1    12  0.04
      P1  H 10752 10763       L1    16  0.12

> <Gold.Chemscore.Hbond.Weighted>
-8.6514

> <Gold.Chemscore.Metal.Weighted>
-0.0000

> <Gold.Chemscore.Lipo.Weighted>
-14.4228

> <Gold.Chemscore.Internal_Hbond.Weighted>
0.0000

> <Gold.Chemscore.DEClash.Weighted>
1.2896

> <Gold.Chemscore.DEInternal.Weighted>
1.4994

> <Gold.Chemscore.Rot.Weighted>
4.4733

> <Gold.Chemscore.Internal.Correction.Weighted>
   9.000000E+99

> <Gold.Protein.RotatedTorsions>
[ 6907 6896 6895 6894 ] final -161.87 input  -60.11 | X-H torsion
[ 7974 7965 7964 7962 ] final   55.86 input  175.53 | X-H torsion
[ 8008 7997 7996 7995 ] final  164.87 input   59.86 | X-H torsion
[ 10167 10162 10161 10158 ] final   32.01 input  -65.29 | X-H torsion
[ 10718 10713 10712 10709 ] final  -94.94 input   66.30 | X-H torsion
[ 10763 10752 10751 10750 ] final   77.51 input  -60.55 | X-H torsion
[ 11005 11000 10999 10996 ] final  -83.75 input  -57.11 | X-H torsion

> <Gold.Protein.ActiveResidues>
 VAL166  LYS551  ARG553  GLY616  TRP617  ASP618  TYR619  PRO620  LYS621  CYS622 
 ASP623  PHE694  ASN695  SER759  ASP760  ASP761  ALA762  ILE779  LEU786  VAL792 
 PHE793  MET794  SER795  GLU796  ALA797  LYS798  CYS799  TRP800  GLU811  SER814 

> <Gold.Protein.RotatedAtoms>
  151.3715  133.3853  159.2699 H   0  0  0  0  0  0  0  0  0  0  0  0  # atno 6907 bound_to 6896
  150.9647  134.9031  159.7762 H   0  0  0  0  0  0  0  0  0  0  0  0  # atno 6908 bound_to 6896
  152.5163  134.3675  159.9358 H   0  0  0  0  0  0  0  0  0  0  0  0  # atno 6909 bound_to 6896
  145.9459  139.3929  143.0335 H   0  0  0  0  0  0  0  0  0  0  0  0  # atno 7974 bound_to 7965
  156.1846  140.1685  156.8209 H   0  0  0  0  0  0  0  0  0  0  0  0  # atno 8008 bound_to 7997
  154.5399  140.0739  156.8525 H   0  0  0  0  0  0  0  0  0  0  0  0  # atno 8009 bound_to 7997
  155.3235  140.3375  155.4243 H   0  0  0  0  0  0  0  0  0  0  0  0  # atno 8010 bound_to 7997
  140.4537  144.1010  150.6197 H   0  0  0  0  0  0  0  0  0  0  0  0  # atno 10167 bound_to 10162
  156.0035  130.5088  150.6003 H   0  0  0  0  0  0  0  0  0  0  0  0  # atno 10718 bound_to 10713
  153.0804  135.4911  154.8491 H   0  0  0  0  0  0  0  0  0  0  0  0  # atno 10763 bound_to 10752
  154.7143  135.3026  154.9150 H   0  0  0  0  0  0  0  0  0  0  0  0  # atno 10764 bound_to 10752
  153.9834  135.6787  153.4804 H   0  0  0  0  0  0  0  0  0  0  0  0  # atno 10765 bound_to 10752
  141.1655  133.7310  156.8766 H   0  0  0  0  0  0  0  0  0  0  0  0  # atno 11005 bound_to 11000
  145.8237  140.9666  143.0885 LP  0  0  0  0  0  0  0  0  0  0  0  0  # atno 17320 bound_to 7965
  144.6787  140.0073  143.7484 LP  0  0  0  0  0  0  0  0  0  0  0  0  # atno 17321 bound_to 7965
  140.4176  143.2627  151.9755 LP  0  0  0  0  0  0  0  0  0  0  0  0  # atno 17342 bound_to 10162
  139.4799  144.5860  151.7853 LP  0  0  0  0  0  0  0  0  0  0  0  0  # atno 17343 bound_to 10162
  157.3853  131.0787  151.1442 LP  0  0  0  0  0  0  0  0  0  0  0  0  # atno 17370 bound_to 10713
  157.2151  130.6455  149.5789 LP  0  0  0  0  0  0  0  0  0  0  0  0  # atno 17371 bound_to 10713
  140.1744  134.9077  157.2873 LP  0  0  0  0  0  0  0  0  0  0  0  0  # atno 17394 bound_to 11000
  140.2465  134.3733  155.7459 LP  0  0  0  0  0  0  0  0  0  0  0  0  # atno 17395 bound_to 11000

$$$$
