AV-unprocessed.smi:559|AV-procd|sdf|2925|dock9
  -GOLD-   2262023413D 1   1.00000     0.00000
 Structure written by MMmdl.
 41 42  0  0  0  0  0  0  0  0  1 V2000
  151.8488  139.6381  156.5961 C   0  0  0  0  0  0  0  0  0  0  0  0
  152.2980  140.5037  157.7384 C   0  0  0  0  0  0  0  0  0  0  0  0
  153.2612  140.0767  158.5372 N   0  0  0  0  0  0  0  0  0  0  0  0
  153.4248  141.0635  159.4403 N   0  0  0  0  0  0  0  0  0  0  0  0
  154.4293  140.8976  160.4734 C   0  0  0  0  0  0  0  0  0  0  0  0
  152.5629  142.1204  159.2094 C   0  0  0  0  0  0  0  0  0  0  0  0
  152.5412  143.3430  160.0703 C   0  0  0  0  0  0  0  0  0  0  0  0
  151.8135  141.7918  158.1102 C   0  0  0  0  0  0  0  0  0  0  0  0
  150.7255  142.5868  157.4320 C   0  0  0  0  0  0  0  0  0  0  0  0
  149.3946  141.8386  157.5215 C   0  0  0  0  0  0  0  0  0  0  0  0
  149.3368  140.7534  158.0985 O   0  0  0  0  0  0  0  0  0  0  0  0
  148.3372  142.4249  156.9381 N   0  0  0  0  0  0  0  0  0  0  0  0
  146.9774  141.8961  156.9112 C   0  0  0  0  0  0  0  0  0  0  0  0
  146.0565  142.6109  157.9190 C   0  0  1  0  0  0  0  0  0  0  0  0
  144.7321  141.8670  158.1952 C   0  0  0  0  0  0  0  0  0  0  0  0
  144.0508  142.5071  159.4088 C   0  0  0  0  0  0  0  0  0  0  0  0
  145.4090  143.0612  160.5042 S   0  0  0  0  0  0  0  0  0  0  0  0
  145.2358  144.4925  160.7943 O   0  0  0  0  0  0  0  0  0  0  0  0
  145.5956  142.0856  161.5888 O   0  0  0  0  0  0  0  0  0  0  0  0
  146.7480  142.8436  159.2715 C   0  0  0  0  0  0  0  0  0  0  0  0
  150.7615  139.5713  156.5611 H   0  0  0  0  0  0  0  0  0  0  0  0
  152.2377  138.6227  156.6799 H   0  0  0  0  0  0  0  0  0  0  0  0
  152.1870  140.0461  155.6436 H   0  0  0  0  0  0  0  0  0  0  0  0
  154.3543  141.6886  161.2189 H   0  0  0  0  0  0  0  0  0  0  0  0
  155.4228  140.9278  160.0256 H   0  0  0  0  0  0  0  0  0  0  0  0
  154.2923  139.9367  160.9709 H   0  0  0  0  0  0  0  0  0  0  0  0
  151.7854  144.0525  159.7351 H   0  0  0  0  0  0  0  0  0  0  0  0
  153.5064  143.8491  160.0488 H   0  0  0  0  0  0  0  0  0  0  0  0
  152.3155  143.0843  161.1050 H   0  0  0  0  0  0  0  0  0  0  0  0
  150.6074  143.5744  157.8783 H   0  0  0  0  0  0  0  0  0  0  0  0
  150.9646  142.7617  156.3823 H   0  0  0  0  0  0  0  0  0  0  0  0
  148.4850  143.3172  156.4893 H   0  0  0  0  0  0  0  0  0  0  0  0
  146.5575  141.9463  155.9050 H   0  0  0  0  0  0  0  0  0  0  0  0
  147.0364  140.8364  157.1613 H   0  0  0  0  0  0  0  0  0  0  0  0
  145.7996  143.5919  157.5160 H   0  0  0  0  0  0  0  0  0  0  0  0
  144.0710  141.8730  157.3285 H   0  0  0  0  0  0  0  0  0  0  0  0
  144.9495  140.8225  158.4225 H   0  0  0  0  0  0  0  0  0  0  0  0
  143.4769  143.3853  159.1122 H   0  0  0  0  0  0  0  0  0  0  0  0
  143.3913  141.8208  159.9401 H   0  0  0  0  0  0  0  0  0  0  0  0
  147.3329  141.9726  159.5690 H   0  0  0  0  0  0  0  0  0  0  0  0
  147.4024  143.7154  159.2699 H   0  0  0  0  0  0  0  0  0  0  0  0
  1  2  1  0  0  0  0
  1 21  1  0  0  0  0
  1 22  1  0  0  0  0
  1 23  1  0  0  0  0
  2  8  1  0  0  0  0
  2  3  2  0  0  0  0
  3  4  1  0  0  0  0
  4  5  1  0  0  0  0
  4  6  1  0  0  0  0
  5 24  1  0  0  0  0
  5 25  1  0  0  0  0
  5 26  1  0  0  0  0
  6  7  1  0  0  0  0
  6  8  2  0  0  0  0
  7 27  1  0  0  0  0
  7 28  1  0  0  0  0
  7 29  1  0  0  0  0
  8  9  1  0  0  0  0
  9 10  1  0  0  0  0
  9 30  1  0  0  0  0
  9 31  1  0  0  0  0
 10 11  2  0  0  0  0
 10 12  1  0  0  0  0
 12 13  1  0  0  0  0
 12 32  1  0  0  0  0
 13 14  1  0  0  0  0
 13 33  1  0  0  0  0
 13 34  1  0  0  0  0
 14 20  1  0  0  0  0
 14 15  1  0  0  0  0
 14 35  1  0  0  0  0
 15 16  1  0  0  0  0
 15 36  1  0  0  0  0
 15 37  1  0  0  0  0
 16 17  1  0  0  0  0
 16 38  1  0  0  0  0
 16 39  1  0  0  0  0
 17 18  2  0  0  0  0
 17 19  2  0  0  0  0
 17 20  1  0  0  0  0
 20 40  1  0  0  0  0
 20 41  1  0  0  0  0
M  END
> <s_m_source_file>
AV-unprocessed.smi

> <i_m_source_file_index>
559

> <i_lp_mmshare_version>
43012

> <i_f3d_flags>
0

> <s_epik_input>
W0NIM11jMW5uKFtDSDNdKWMoW0NIM10pYzFbQ0gyXUMoPU8pW05IXVtDSDJdW0NAQEhdKFtDSDJdMilbQ0gyXVtDSDJdUzIoPU8pPU8=

> <s_epik_cmdline>
J2VwaWtfcHl0aG9uJywgJy1waCcsICc3LjAnLCAnLXRuJywgJzgnLCAnLW1hJywgJzIwMCcsICctbWV0YWxfYmluZGluZycsICctaW1hZScsICc8aW5maWxlLm1hZT4nLCAnLW9tYWUnLCAnPG91dGZpbGUubWFlPic=

> <r_lp_tautomer_probability>
1

> <r_epik_Ionization_Penalty>
0.00301269

> <r_epik_Ionization_Penalty_Charging>
0

> <r_epik_Ionization_Penalty_Neutral>
0.00301269

> <r_epik_State_Penalty>
0.00211587

> <r_epik_Charging_Adjusted_Penalty>
0.00211587

> <i_epik_Tot_Q>
0

> <i_epik_Tot_abs_Q>
0

> <r_epik_Metal_State_Penalty>
-0

> <b_epik_Metal_Only>
0

> <s_lp_Force_Field>
OPLS_2005

> <r_lp_Energy>
-1.18315

> <b_lp_Chiralities_Consistent>
1

> <s_lp_Variant>
AV-unprocessed.smi:559-2

> <Gold.Version>
5.8.1

> <Gold.Id.Protein>
6NUR|6NUR_protein|mol2

> <Gold.PLP.Fitness>
37.9193

> <Gold.PLP.PLP>
-30.3326

> <Gold.PLP.part.hbond>
-3.4043

> <Gold.PLP.part.metal>
0.0000

> <Gold.PLP.part.buried>
-4.2973

> <Gold.PLP.part.nonpolar>
-22.3265

> <Gold.PLP.part.repulsive>
0.1285

> <Gold.PLP.ligand.clash>
0.0000

> <Gold.PLP.ligand.torsion>
0.2529

> <Gold.PLP.Chemscore.Hbond>
2.6960

> <Gold.PLP.Chemscore.CHOScore>
0.0000

> <Gold.PLP.Chemscore.Metal>
0.0000

> <Gold.Chemscore.Hbonds>
donor molecule, donor type, donor heavy atom, donor atom, acceptor molecule, acceptor atom, score
      L1  H    12    32       P1  8028  1.00
      P1  H  6934  6946       L1    19  0.72
      P1  H  7997  8008       L1     3  0.88

> <Gold.PLP.Chemscore.Internal.Correction>
0.0047

> <Gold.Rescore>
     Score         DG    S(hbond)    S(metal)    S(lipo)     H(rot)  DE(clash)    DE(int)     intcor
     14.29     -15.68       1.92        0.00      68.17       1.64       0.00       1.38       ----

> <Gold.Chemscore.Fitness>
14.2920

> <Gold.Chemscore.DG>
-15.6778

> <Gold.Chemscore.ZeroCoef>
-5.4800

> <Gold.Chemscore.Hbond>
1.9219

> <Gold.Chemscore.Metal>
0.0000

> <Gold.Chemscore.Lipo>
68.1709

> <Gold.Chemscore.Internal_Hbond>
0.0000

> <Gold.Chemscore.DEClash>
0.0015

> <Gold.Chemscore.DEInternal>
1.3843

> <Gold.Chemscore.Rot>
1.6396

> <Gold.Chemscore.Internal.Correction>
   9.000000E+99

> <Gold.Chemscore.Hbonds>
donor molecule, donor type, donor heavy atom, donor atom, acceptor molecule, acceptor atom, score
      L1  H    12    32       P1  8028  0.65
      P1  H  6934  6946       L1    19  0.21
      P1  H  7997  8008       L1     3  0.13

> <Gold.Chemscore.Hbond.Weighted>
-6.4192

> <Gold.Chemscore.Metal.Weighted>
-0.0000

> <Gold.Chemscore.Lipo.Weighted>
-7.9760

> <Gold.Chemscore.Internal_Hbond.Weighted>
0.0000

> <Gold.Chemscore.DEClash.Weighted>
0.0015

> <Gold.Chemscore.DEInternal.Weighted>
1.3843

> <Gold.Chemscore.Rot.Weighted>
4.1974

> <Gold.Chemscore.Internal.Correction.Weighted>
   9.000000E+99

> <Gold.Protein.RotatedTorsions>
[ 6907 6896 6895 6894 ] final  160.29 input  -60.11 | X-H torsion
[ 7974 7965 7964 7962 ] final   49.55 input  175.53 | X-H torsion
[ 8008 7997 7996 7995 ] final  -99.06 input   59.86 | X-H torsion
[ 10167 10162 10161 10158 ] final -116.13 input  -65.29 | X-H torsion
[ 10718 10713 10712 10709 ] final   46.36 input   66.30 | X-H torsion
[ 10763 10752 10751 10750 ] final  -90.01 input  -60.55 | X-H torsion
[ 11005 11000 10999 10996 ] final  -51.22 input  -57.11 | X-H torsion

> <Gold.Protein.ActiveResidues>
 VAL166  LYS551  ARG553  GLY616  TRP617  ASP618  TYR619  PRO620  LYS621  CYS622 
 ASP623  PHE694  ASN695  SER759  ASP760  ASP761  ALA762  ILE779  LEU786  VAL792 
 PHE793  MET794  SER795  GLU796  ALA797  LYS798  CYS799  TRP800  GLU811  SER814 

> <Gold.Protein.RotatedAtoms>
  151.9728  133.3731  159.4077 H   0  0  0  0  0  0  0  0  0  0  0  0  # atno 6907 bound_to 6896
  150.6946  134.4121  159.5176 H   0  0  0  0  0  0  0  0  0  0  0  0  # atno 6908 bound_to 6896
  152.1828  134.8739  160.0575 H   0  0  0  0  0  0  0  0  0  0  0  0  # atno 6909 bound_to 6896
  146.0098  139.4530  142.9963 H   0  0  0  0  0  0  0  0  0  0  0  0  # atno 7974 bound_to 7965
  154.8097  140.0450  157.1333 H   0  0  0  0  0  0  0  0  0  0  0  0  # atno 8008 bound_to 7997
  154.9383  140.3049  155.5113 H   0  0  0  0  0  0  0  0  0  0  0  0  # atno 8009 bound_to 7997
  156.2970  140.2310  156.4450 H   0  0  0  0  0  0  0  0  0  0  0  0  # atno 8010 bound_to 7997
  140.0825  143.4774  152.1917 H   0  0  0  0  0  0  0  0  0  0  0  0  # atno 10167 bound_to 10162
  157.4473  130.8117  149.7753 H   0  0  0  0  0  0  0  0  0  0  0  0  # atno 10718 bound_to 10713
  154.6613  135.5320  153.8021 H   0  0  0  0  0  0  0  0  0  0  0  0  # atno 10763 bound_to 10752
  153.0443  135.6506  154.0868 H   0  0  0  0  0  0  0  0  0  0  0  0  # atno 10764 bound_to 10752
  154.0776  135.2949  155.3276 H   0  0  0  0  0  0  0  0  0  0  0  0  # atno 10765 bound_to 10752
  141.0859  133.6642  156.3846 H   0  0  0  0  0  0  0  0  0  0  0  0  # atno 11005 bound_to 11000
  145.7360  141.0025  143.1326 LP  0  0  0  0  0  0  0  0  0  0  0  0  # atno 17320 bound_to 7965
  144.6949  139.9041  143.7460 LP  0  0  0  0  0  0  0  0  0  0  0  0  # atno 17321 bound_to 7965
  139.5771  144.7493  151.3736 LP  0  0  0  0  0  0  0  0  0  0  0  0  # atno 17342 bound_to 10162
  140.7070  143.7488  150.7500 LP  0  0  0  0  0  0  0  0  0  0  0  0  # atno 17343 bound_to 10162
  155.9972  130.3901  150.2748 LP  0  0  0  0  0  0  0  0  0  0  0  0  # atno 17370 bound_to 10713
  157.0917  131.0171  151.3119 LP  0  0  0  0  0  0  0  0  0  0  0  0  # atno 17371 bound_to 10713
  140.5363  134.6163  157.5366 LP  0  0  0  0  0  0  0  0  0  0  0  0  # atno 17394 bound_to 11000
  139.9678  134.7344  156.0103 LP  0  0  0  0  0  0  0  0  0  0  0  0  # atno 17395 bound_to 11000

$$$$
