#       Name:                AV-unprocessed.smi:2227
#       Creating user name   scv26
#       Creation time:       Fri Mar 27 12:22:46 2020


#       File generated by GOLD software.
#

@<TRIPOS>MOLECULE
AV-unprocessed.smi:2227
    45    47     1
SMALL
NO_CHARGES


@<TRIPOS>ATOM
      1 ****        -2.4054   1.4376  -0.1333 C.3            1 S1                 0.0000
      2 ****        -2.2520   0.5973  -1.4090 C.3            1 S1                 0.0000
      3 ****        -2.9299   1.2576  -2.6185 C.3            1 S1                 0.0000
      4 ****        -2.7361  -0.8121  -1.1987 C.2            1 S1                 0.0000
      5 ****        -4.0148  -1.1174  -0.9904 N.2            1 S1                 0.0000
      6 ****        -4.0353  -2.4960  -0.8192 C.2            1 S1                 0.0000
      7 ****        -2.7566  -2.9842  -0.9232 C.2            1 S1                 0.0000
      8 ****        -1.9270  -1.8945  -1.1602 N.pl3          1 S1                 0.0000
      9 ****        -0.4819  -1.9658  -1.3236 C.3            1 S1                 0.0000
     10 ****         0.2510  -1.4776  -0.0712 C.2            1 S1                 0.0000
     11 ****         0.0530  -2.0260   1.0128 O.2            1 S1                 0.0000
     12 ****         1.0860  -0.4400  -0.2367 N.am           1 S1                 0.0000
     13 ****         1.8595   0.2095   0.8156 C.3            1 S1                 0.0000
     14 ****         2.1119   1.6710   0.4928 C.3            1 S1                 0.0000
     15 ****         2.3270   2.6951   1.5822 C.3            1 S1                 0.0000
     16 ****         1.0607   2.7220   0.7566 C.3            1 S1                 0.0000
     17 ****         3.1734  -0.5010   1.0992 C.3            1 S1                 0.0000
     18 ****         3.2542  -1.6574   2.0683 C.3            1 S1                 0.0000
     19 ****         3.8894  -0.3322   2.4190 C.3            1 S1                 0.0000
     20 ****        -1.8637   0.9859   0.6985 H              1 S1                 0.0000
     21 ****        -3.4517   1.5271   0.1608 H              1 S1                 0.0000
     22 ****        -2.0125   2.4445  -0.2757 H              1 S1                 0.0000
     23 ****        -1.1887   0.5719  -1.6383 H              1 S1                 0.0000
     24 ****        -2.7595   0.6787  -3.5267 H              1 S1                 0.0000
     25 ****        -2.5383   2.2608  -2.7888 H              1 S1                 0.0000
     26 ****        -4.0075   1.3430  -2.4743 H              1 S1                 0.0000
     27 ****        -4.9589  -3.0242  -0.6340 H              1 S1                 0.0000
     28 ****        -2.3763  -3.9920  -0.8437 H              1 S1                 0.0000
     29 ****        -0.1985  -3.0015  -1.5143 H              1 S1                 0.0000
     30 ****        -0.1912  -1.3960  -2.2070 H              1 S1                 0.0000
     31 ****         1.1826  -0.0586  -1.1664 H              1 S1                 0.0000
     32 ****         1.2671   0.1863   1.7329 H              1 S1                 0.0000
     33 ****         2.7049   1.8172  -0.4085 H              1 S1                 0.0000
     34 ****         2.2379   2.3698   2.6166 H              1 S1                 0.0000
     35 ****         3.0638   3.4747   1.4000 H              1 S1                 0.0000
     36 ****         0.9522   3.5185   0.0233 H              1 S1                 0.0000
     37 ****         0.1408   2.4101   1.2464 H              1 S1                 0.0000
     38 ****         3.8202  -0.5727   0.2267 H              1 S1                 0.0000
     39 ****         2.3523  -1.9354   2.6096 H              1 S1                 0.0000
     40 ****         3.9160  -2.4820   1.8113 H              1 S1                 0.0000
     41 ****         4.9754  -0.2716   2.3960 H              1 S1                 0.0000
     42 ****         3.4052   0.2598   3.1927 H              1 S1                 0.0000
     43 ****        -4.7929  -0.4899  -0.9630 LP             1 S1                 0.0000
     44 ****        -0.5873  -2.7915   1.0763 LP             1 S1                 0.0000
     45 ****         0.5325  -1.7060   1.8300 LP             1 S1                 0.0000
@<TRIPOS>BOND
    1    1    2 1     
    2    1   20 1     
    3    1   21 1     
    4    1   22 1     
    5    2    3 1     
    6    2    4 1     
    7    2   23 1     
    8    3   24 1     
    9    3   25 1     
   10    3   26 1     
   11    4    8 1     
   12    4    5 2     
   13    5    6 1     
   14    6    7 2     
   15    6   27 1     
   16    7    8 1     
   17    7   28 1     
   18    8    9 1     
   19    9   10 1     
   20    9   29 1     
   21    9   30 1     
   22   10   11 2     
   23   10   12 am    
   24   12   13 1     
   25   12   31 1     
   26   13   14 1     
   27   13   17 1     
   28   13   32 1     
   29   14   16 1     
   30   14   15 1     
   31   14   33 1     
   32   15   16 1     
   33   15   34 1     
   34   15   35 1     
   35   16   36 1     
   36   16   37 1     
   37   17   19 1     
   38   17   18 1     
   39   17   38 1     
   40   18   19 1     
   41   18   39 1     
   42   18   40 1     
   43   19   41 1     
   44   19   42 1     
   45    5   43 1     
   46   11   44 1     
   47   11   45 1     
@<TRIPOS>SUBSTRUCTURE
      1 S1             1
@<TRIPOS>SET
LONE_PAIRS      STATIC     ATOMS    <user>   **** ""
3 43 44 45
DONOR_HYDROGENS      STATIC     ATOMS    <user>   **** ""
1 31
ATOM$BLUE        STATIC     ATOMS    COLORGROUP SYSTEM
3 43 44 45
ATOM$RED        STATIC     ATOMS    COLORGROUP SYSTEM
1 31
