AV-unprocessed.smi:2567|AV-procd|sdf|10087|dock10
  -GOLD-   2272014113D 1   1.00000     0.00000
 Structure written by MMmdl.
 32 33  0  0  0  0  0  0  0  0  2 V2000
  152.8015  144.7486  158.0668 C   0  0  0  0  0  0  0  0  0  0  0  0
  151.9728  144.0067  159.1290 C   0  0  0  0  0  0  0  0  0  0  0  0
  152.9085  143.3206  160.1448 C   0  0  0  0  0  0  0  0  0  0  0  0
  151.1007  145.0089  159.9115 C   0  0  0  0  0  0  0  0  0  0  0  0
  151.0882  142.9659  158.4503 C   0  0  0  0  0  0  0  0  0  0  0  0
  149.7482  143.0285  158.3248 N   0  5  0  0  0  0  0  0  0  0  0  0
  149.3136  142.0337  157.5793 N   0  0  0  0  0  0  0  0  0  0  0  0
  150.4129  141.3599  157.2111 C   0  0  0  0  0  0  0  0  0  0  0  0
  150.4132  140.1522  156.2952 C   0  0  1  0  0  0  0  0  0  0  0  0
  149.8699  140.5175  154.8986 C   0  0  0  0  0  0  0  0  0  0  0  0
  149.8848  139.3511  154.0156 N   0  0  0  0  0  0  0  0  0  0  0  0
  151.2173  138.7555  153.9482 C   0  0  0  0  0  0  0  0  0  0  0  0
  151.7252  138.4257  155.3620 C   0  0  0  0  0  0  0  0  0  0  0  0
  151.7244  139.6085  156.1531 O   0  0  0  0  0  0  0  0  0  0  0  0
  151.5119  141.9424  157.7115 N   0  0  0  0  0  0  0  0  0  0  0  0
  153.4501  145.4988  158.5197 H   0  0  0  0  0  0  0  0  0  0  0  0
  152.1571  145.2576  157.3492 H   0  0  0  0  0  0  0  0  0  0  0  0
  153.4345  144.0586  157.5078 H   0  0  0  0  0  0  0  0  0  0  0  0
  153.5756  142.6094  159.6568 H   0  0  0  0  0  0  0  0  0  0  0  0
  152.3420  142.7742  160.8998 H   0  0  0  0  0  0  0  0  0  0  0  0
  153.5342  144.0475  160.6634 H   0  0  0  0  0  0  0  0  0  0  0  0
  151.7121  145.7497  160.4275 H   0  0  0  0  0  0  0  0  0  0  0  0
  150.4915  144.5032  160.6615 H   0  0  0  0  0  0  0  0  0  0  0  0
  150.4242  145.5517  159.2505 H   0  0  0  0  0  0  0  0  0  0  0  0
  149.7693  139.3992  156.7541 H   0  0  0  0  0  0  0  0  0  0  0  0
  148.8549  140.9070  154.9819 H   0  0  0  0  0  0  0  0  0  0  0  0
  150.4761  141.3158  154.4679 H   0  0  0  0  0  0  0  0  0  0  0  0
  151.1937  137.8527  153.3376 H   0  0  0  0  0  0  0  0  0  0  0  0
  151.9088  139.4454  153.4631 H   0  0  0  0  0  0  0  0  0  0  0  0
  151.1106  137.6552  155.8303 H   0  0  0  0  0  0  0  0  0  0  0  0
  152.7418  138.0357  155.3126 H   0  0  0  0  0  0  0  0  0  0  0  0
  149.5885  139.6280  153.0856 H   0  0  0  0  0  0  0  0  0  0  0  0
  1  2  1  0  0  0  0
  1 16  1  0  0  0  0
  1 17  1  0  0  0  0
  1 18  1  0  0  0  0
  2  3  1  0  0  0  0
  2  4  1  0  0  0  0
  2  5  1  0  0  0  0
  3 19  1  0  0  0  0
  3 20  1  0  0  0  0
  3 21  1  0  0  0  0
  4 22  1  0  0  0  0
  4 23  1  0  0  0  0
  4 24  1  0  0  0  0
  5 15  2  0  0  0  0
  5  6  1  0  0  0  0
  6  7  1  0  0  0  0
  7  8  2  0  0  0  0
  8  9  1  0  0  0  0
  8 15  1  0  0  0  0
  9 14  1  0  0  0  0
  9 10  1  0  0  0  0
  9 25  1  0  0  0  0
 10 11  1  0  0  0  0
 10 26  1  0  0  0  0
 10 27  1  0  0  0  0
 11 12  1  0  0  0  0
 11 32  1  0  0  0  0
 12 13  1  0  0  0  0
 12 28  1  0  0  0  0
 12 29  1  0  0  0  0
 13 14  1  0  0  0  0
 13 30  1  0  0  0  0
 13 31  1  0  0  0  0
M  CHG  1   6  -1
M  END
> <s_m_source_file>
AV-unprocessed.smi

> <i_m_source_file_index>
2567

> <i_lp_mmshare_version>
43012

> <i_f3d_flags>
0

> <s_epik_input>
W0NIM11DKFtDSDNdKShbQ0gzXSljMW5bbkhdYyhuMSlbQ0BASF0yW0NIMl1bTkhdW0NIMl1bQ0gyXU8y

> <s_epik_cmdline>
J2VwaWtfcHl0aG9uJywgJy1waCcsICc3LjAnLCAnLXRuJywgJzgnLCAnLW1hJywgJzIwMCcsICctbWV0YWxfYmluZGluZycsICctaW1hZScsICc8aW5maWxlLm1hZT4nLCAnLW9tYWUnLCAnPG91dGZpbGUubWFlPic=

> <r_lp_tautomer_probability>
0.948284

> <r_epik_Ionization_Penalty>
17.5852

> <r_epik_Ionization_Penalty_Charging>
16.0119

> <r_epik_Ionization_Penalty_Neutral>
1.5733

> <r_epik_State_Penalty>
6.64574

> <r_epik_Charging_Adjusted_Penalty>
22.6576

> <i_epik_Tot_Q>
-1

> <i_epik_Tot_abs_Q>
1

> <r_epik_Metal_State_Penalty>
2.89273

> <b_epik_Metal_Only>
1

> <s_lp_Force_Field>
OPLS_2005

> <r_lp_Energy>
12.7072

> <b_lp_Chiralities_Consistent>
1

> <s_lp_Variant>
AV-unprocessed.smi:2567-12

> <Gold.Version>
5.8.1

> <Gold.Id.Protein>
6NUR|6NUR_protein|mol2

> <Gold.PLP.Fitness>
33.0426

> <Gold.PLP.PLP>
-30.2641

> <Gold.PLP.part.hbond>
-1.0000

> <Gold.PLP.part.metal>
0.0000

> <Gold.PLP.part.buried>
-5.3263

> <Gold.PLP.part.nonpolar>
-24.6363

> <Gold.PLP.part.repulsive>
0.3567

> <Gold.PLP.ligand.clash>
0.0000

> <Gold.PLP.ligand.torsion>
0.2031

> <Gold.PLP.Chemscore.Hbond>
1.0000

> <Gold.PLP.Chemscore.CHOScore>
0.0000

> <Gold.PLP.Chemscore.Metal>
0.0000

> <Gold.Chemscore.Hbonds>
donor molecule, donor type, donor heavy atom, donor atom, acceptor molecule, acceptor atom, score
      L1  H    11    32       P1  7957  1.00

> <Gold.PLP.Chemscore.Internal.Correction>
0.1847

> <Gold.Rescore>
     Score         DG    S(hbond)    S(metal)    S(lipo)     H(rot)  DE(clash)    DE(int)     intcor
     14.34     -14.66       0.99        0.00      77.21       1.23       0.03       0.29       ----

> <Gold.Chemscore.Fitness>
14.3437

> <Gold.Chemscore.DG>
-14.6639

> <Gold.Chemscore.ZeroCoef>
-5.4800

> <Gold.Chemscore.Hbond>
0.9863

> <Gold.Chemscore.Metal>
0.0000

> <Gold.Chemscore.Lipo>
77.2136

> <Gold.Chemscore.Internal_Hbond>
0.0000

> <Gold.Chemscore.DEClash>
0.0321

> <Gold.Chemscore.DEInternal>
0.2881

> <Gold.Chemscore.Rot>
1.2283

> <Gold.Chemscore.Internal.Correction>
   9.000000E+99

> <Gold.Chemscore.Hbonds>
donor molecule, donor type, donor heavy atom, donor atom, acceptor molecule, acceptor atom, score
      L1  H    11    32       P1  7957  0.98

> <Gold.Chemscore.Hbond.Weighted>
-3.2943

> <Gold.Chemscore.Metal.Weighted>
-0.0000

> <Gold.Chemscore.Lipo.Weighted>
-9.0340

> <Gold.Chemscore.Internal_Hbond.Weighted>
0.0000

> <Gold.Chemscore.DEClash.Weighted>
0.0321

> <Gold.Chemscore.DEInternal.Weighted>
0.2881

> <Gold.Chemscore.Rot.Weighted>
3.1444

> <Gold.Chemscore.Internal.Correction.Weighted>
   9.000000E+99

> <Gold.Protein.RotatedTorsions>
[ 6907 6896 6895 6894 ] final  161.23 input  -60.11 | X-H torsion
[ 7974 7965 7964 7962 ] final  -31.97 input  175.53 | X-H torsion
[ 8008 7997 7996 7995 ] final  175.30 input   59.86 | X-H torsion
[ 10167 10162 10161 10158 ] final -109.01 input  -65.29 | X-H torsion
[ 10718 10713 10712 10709 ] final -144.72 input   66.30 | X-H torsion
[ 10763 10752 10751 10750 ] final  128.79 input  -60.55 | X-H torsion
[ 11005 11000 10999 10996 ] final -107.86 input  -57.11 | X-H torsion

> <Gold.Protein.ActiveResidues>
 VAL166  LYS551  ARG553  GLY616  TRP617  ASP618  TYR619  PRO620  LYS621  CYS622 
 ASP623  PHE694  ASN695  SER759  ASP760  ASP761  ALA762  ILE779  LEU786  VAL792 
 PHE793  MET794  SER795  GLU796  ALA797  LYS798  CYS799  TRP800  GLU811  SER814 

> <Gold.Protein.RotatedAtoms>
  151.9587  133.3688  159.4026 H   0  0  0  0  0  0  0  0  0  0  0  0  # atno 6907 bound_to 6896
  150.6968  134.4263  159.5237 H   0  0  0  0  0  0  0  0  0  0  0  0  # atno 6908 bound_to 6896
  152.1948  134.8640  160.0564 H   0  0  0  0  0  0  0  0  0  0  0  0  # atno 6909 bound_to 6896
  146.1026  140.5734  142.8814 H   0  0  0  0  0  0  0  0  0  0  0  0  # atno 7974 bound_to 7965
  156.0885  140.1412  156.9622 H   0  0  0  0  0  0  0  0  0  0  0  0  # atno 8008 bound_to 7997
  154.4627  140.0937  156.6985 H   0  0  0  0  0  0  0  0  0  0  0  0  # atno 8009 bound_to 7997
  155.4959  140.3449  155.4365 H   0  0  0  0  0  0  0  0  0  0  0  0  # atno 8010 bound_to 7997
  140.1599  143.4129  152.1433 H   0  0  0  0  0  0  0  0  0  0  0  0  # atno 10167 bound_to 10162
  156.3736  130.7800  151.1984 H   0  0  0  0  0  0  0  0  0  0  0  0  # atno 10718 bound_to 10713
  153.7312  135.3238  155.3286 H   0  0  0  0  0  0  0  0  0  0  0  0  # atno 10763 bound_to 10752
  154.8325  135.4522  154.1120 H   0  0  0  0  0  0  0  0  0  0  0  0  # atno 10764 bound_to 10752
  153.2268  135.6955  153.8017 H   0  0  0  0  0  0  0  0  0  0  0  0  # atno 10765 bound_to 10752
  141.0932  133.9018  157.2026 H   0  0  0  0  0  0  0  0  0  0  0  0  # atno 11005 bound_to 11000
  144.7445  140.5031  143.6845 LP  0  0  0  0  0  0  0  0  0  0  0  0  # atno 17320 bound_to 7965
  145.5824  139.1490  143.3228 LP  0  0  0  0  0  0  0  0  0  0  0  0  # atno 17321 bound_to 7965
  139.5386  144.7234  151.4810 LP  0  0  0  0  0  0  0  0  0  0  0  0  # atno 17342 bound_to 10162
  140.6649  143.8419  150.6930 LP  0  0  0  0  0  0  0  0  0  0  0  0  # atno 17343 bound_to 10162
  157.7486  131.0365  150.4412 LP  0  0  0  0  0  0  0  0  0  0  0  0  # atno 17370 bound_to 10713
  156.4644  130.4039  149.6556 LP  0  0  0  0  0  0  0  0  0  0  0  0  # atno 17371 bound_to 10713
  139.9762  135.0113  156.9637 LP  0  0  0  0  0  0  0  0  0  0  0  0  # atno 17394 bound_to 11000
  140.5203  134.0914  155.7290 LP  0  0  0  0  0  0  0  0  0  0  0  0  # atno 17395 bound_to 11000

$$$$
