AV-unprocessed.smi:653|AV-procd|sdf|3208|dock5
  -GOLD-   22720 0143D 1   1.00000     0.00000
 Structure written by MMmdl.
 45 46  0  0  0  0  0  0  0  0  2 V2000
  145.9780  138.1411  152.4938 C   0  0  0  0  0  0  0  0  0  0  0  0
  146.9123  139.0539  153.2598 C   0  0  0  0  0  0  0  0  0  0  0  0
  146.4467  140.1784  153.9742 C   0  0  0  0  0  0  0  0  0  0  0  0
  147.3719  140.9841  154.6698 C   0  0  0  0  0  0  0  0  0  0  0  0
  148.7443  140.6506  154.6372 C   0  0  0  0  0  0  0  0  0  0  0  0
  149.7648  141.4966  155.3786 C   0  0  0  0  0  0  0  0  0  0  0  0
  150.5810  140.6352  156.3452 C   0  0  0  0  0  0  0  0  0  0  0  0
  150.4834  139.4083  156.3118 O   0  0  0  0  0  0  0  0  0  0  0  0
  151.3833  141.2884  157.1996 N   0  0  0  0  0  0  0  0  0  0  0  0
  152.2389  140.6514  158.1950 C   0  0  0  0  0  0  0  0  0  0  0  0
  152.8574  141.6760  159.1668 C   0  0  2  0  0  0  0  0  0  0  0  0
  153.4281  141.0696  160.4346 C   0  0  0  0  0  0  0  0  0  0  0  0
  153.5023  142.2832  161.3547 C   0  0  0  0  0  0  0  0  0  0  0  0
  152.4003  143.1086  160.9911 O   0  0  0  0  0  0  0  0  0  0  0  0
  151.8473  142.6757  159.7491 C   0  0  1  0  0  0  0  0  0  0  0  0
  151.4829  143.8785  158.8482 C   0  0  0  0  0  0  0  0  0  0  0  0
  152.7102  144.6373  158.3109 C   0  0  0  0  0  0  0  0  0  0  0  0
  150.5318  144.8394  159.5788 C   0  0  0  0  0  0  0  0  0  0  0  0
  149.1513  139.5138  153.9055 C   0  0  0  0  0  0  0  0  0  0  0  0
  148.2334  138.7666  153.2539 N   0  3  0  0  0  0  0  0  0  0  0  0
  145.0554  138.6603  152.2329 H   0  0  0  0  0  0  0  0  0  0  0  0
  145.7226  137.2701  153.0978 H   0  0  0  0  0  0  0  0  0  0  0  0
  146.4441  137.7957  151.5704 H   0  0  0  0  0  0  0  0  0  0  0  0
  145.3942  140.4220  153.9924 H   0  0  0  0  0  0  0  0  0  0  0  0
  147.0295  141.8454  155.2248 H   0  0  0  0  0  0  0  0  0  0  0  0
  150.4170  141.9943  154.6590 H   0  0  0  0  0  0  0  0  0  0  0  0
  149.2598  142.2821  155.9422 H   0  0  0  0  0  0  0  0  0  0  0  0
  151.4000  142.2974  157.1625 H   0  0  0  0  0  0  0  0  0  0  0  0
  151.6676  139.9024  158.7454 H   0  0  0  0  0  0  0  0  0  0  0  0
  153.0250  140.1093  157.6686 H   0  0  0  0  0  0  0  0  0  0  0  0
  153.6611  142.2132  158.6643 H   0  0  0  0  0  0  0  0  0  0  0  0
  152.7419  140.3290  160.8478 H   0  0  0  0  0  0  0  0  0  0  0  0
  154.3974  140.5929  160.2853 H   0  0  0  0  0  0  0  0  0  0  0  0
  153.4665  142.0105  162.4095 H   0  0  0  0  0  0  0  0  0  0  0  0
  154.4246  142.8385  161.1786 H   0  0  0  0  0  0  0  0  0  0  0  0
  150.9362  142.1271  159.9945 H   0  0  0  0  0  0  0  0  0  0  0  0
  150.9373  143.4923  157.9867 H   0  0  0  0  0  0  0  0  0  0  0  0
  153.3242  145.0278  159.1228 H   0  0  0  0  0  0  0  0  0  0  0  0
  152.4049  145.4836  157.6953 H   0  0  0  0  0  0  0  0  0  0  0  0
  153.3423  144.0058  157.6880 H   0  0  0  0  0  0  0  0  0  0  0  0
  151.0056  145.2733  160.4597 H   0  0  0  0  0  0  0  0  0  0  0  0
  149.6273  144.3261  159.9063 H   0  0  0  0  0  0  0  0  0  0  0  0
  150.2243  145.6591  158.9289 H   0  0  0  0  0  0  0  0  0  0  0  0
  150.1752  139.1789  153.8252 H   0  0  0  0  0  0  0  0  0  0  0  0
  148.5512  137.9480  152.7345 H   0  0  0  0  0  0  0  0  0  0  0  0
  1  2  1  0  0  0  0
  1 21  1  0  0  0  0
  1 22  1  0  0  0  0
  1 23  1  0  0  0  0
  2 20  1  0  0  0  0
  2  3  2  0  0  0  0
  3  4  1  0  0  0  0
  3 24  1  0  0  0  0
  4  5  2  0  0  0  0
  4 25  1  0  0  0  0
  5  6  1  0  0  0  0
  5 19  1  0  0  0  0
  6  7  1  0  0  0  0
  6 26  1  0  0  0  0
  6 27  1  0  0  0  0
  7  8  2  0  0  0  0
  7  9  1  0  0  0  0
  9 10  1  0  0  0  0
  9 28  1  0  0  0  0
 10 11  1  0  0  0  0
 10 29  1  0  0  0  0
 10 30  1  0  0  0  0
 11 15  1  0  0  0  0
 11 12  1  0  0  0  0
 11 31  1  0  0  0  0
 12 13  1  0  0  0  0
 12 32  1  0  0  0  0
 12 33  1  0  0  0  0
 13 14  1  0  0  0  0
 13 34  1  0  0  0  0
 13 35  1  0  0  0  0
 14 15  1  0  0  0  0
 15 16  1  0  0  0  0
 15 36  1  0  0  0  0
 16 17  1  0  0  0  0
 16 18  1  0  0  0  0
 16 37  1  0  0  0  0
 17 38  1  0  0  0  0
 17 39  1  0  0  0  0
 17 40  1  0  0  0  0
 18 41  1  0  0  0  0
 18 42  1  0  0  0  0
 18 43  1  0  0  0  0
 19 20  2  0  0  0  0
 19 44  1  0  0  0  0
 20 45  1  0  0  0  0
M  CHG  1  20   1
M  END
> <s_m_source_file>
AV-unprocessed.smi

> <i_m_source_file_index>
653

> <i_lp_mmshare_version>
43012

> <i_f3d_flags>
0

> <s_epik_input>
W0NIM11jMVtjSF1bY0hdYyhbY0hdbjEpW0NIMl1DKD1PKVtOSF1bQ0gyXVtDQEBIXTJbQ0gyXVtDSDJdT1tDQEhdMltDSF0oW0NIM10pW0NIM10=

> <s_epik_cmdline>
J2VwaWtfcHl0aG9uJywgJy1waCcsICc3LjAnLCAnLXRuJywgJzgnLCAnLW1hJywgJzIwMCcsICctbWV0YWxfYmluZGluZycsICctaW1hZScsICc8aW5maWxlLm1hZT4nLCAnLW9tYWUnLCAnPG91dGZpbGUubWFlPic=

> <r_epik_Ionization_Penalty>
2.12486

> <r_epik_Ionization_Penalty_Charging>
2.12486

> <r_epik_Ionization_Penalty_Neutral>
9.0873e-08

> <r_epik_State_Penalty>
2.26279

> <r_epik_Charging_Adjusted_Penalty>
4.38765

> <i_epik_Tot_Q>
1

> <i_epik_Tot_abs_Q>
1

> <r_epik_Metal_State_Penalty>
2.27914

> <b_epik_Metal_Only>
0

> <s_lp_Force_Field>
OPLS_2005

> <r_lp_Energy>
26.2023

> <b_lp_Chiralities_Consistent>
1

> <s_lp_Variant>
AV-unprocessed.smi:653-5

> <Gold.Version>
5.8.1

> <Gold.Id.Protein>
6NUR|6NUR_protein|mol2

> <Gold.PLP.Fitness>
50.1863

> <Gold.PLP.PLP>
-44.7165

> <Gold.PLP.part.hbond>
-2.0000

> <Gold.PLP.part.metal>
0.0000

> <Gold.PLP.part.buried>
-2.8728

> <Gold.PLP.part.nonpolar>
-41.1948

> <Gold.PLP.part.repulsive>
0.2294

> <Gold.PLP.ligand.clash>
0.0000

> <Gold.PLP.ligand.torsion>
0.2935

> <Gold.PLP.Chemscore.Hbond>
2.0000

> <Gold.PLP.Chemscore.CHOScore>
0.0000

> <Gold.PLP.Chemscore.Metal>
0.0000

> <Gold.Chemscore.Hbonds>
donor molecule, donor type, donor heavy atom, donor atom, acceptor molecule, acceptor atom, score
      L1  H    20    45       P1  7948  2.00

> <Gold.PLP.Chemscore.Internal.Correction>
0.0568

> <Gold.Rescore>
     Score         DG    S(hbond)    S(metal)    S(lipo)     H(rot)  DE(clash)    DE(int)     intcor
     17.04     -19.93       1.00        0.00     129.44       1.57       1.24       1.64       ----

> <Gold.Chemscore.Fitness>
17.0438

> <Gold.Chemscore.DG>
-19.9282

> <Gold.Chemscore.ZeroCoef>
-5.4800

> <Gold.Chemscore.Hbond>
0.9952

> <Gold.Chemscore.Metal>
0.0000

> <Gold.Chemscore.Lipo>
129.4352

> <Gold.Chemscore.Internal_Hbond>
0.0000

> <Gold.Chemscore.DEClash>
1.2397

> <Gold.Chemscore.DEInternal>
1.6447

> <Gold.Chemscore.Rot>
1.5701

> <Gold.Chemscore.Internal.Correction>
   9.000000E+99

> <Gold.Chemscore.Hbonds>
donor molecule, donor type, donor heavy atom, donor atom, acceptor molecule, acceptor atom, score
      L1  H    20    45       P1  7948  0.99

> <Gold.Chemscore.Hbond.Weighted>
-3.3239

> <Gold.Chemscore.Metal.Weighted>
-0.0000

> <Gold.Chemscore.Lipo.Weighted>
-15.1439

> <Gold.Chemscore.Internal_Hbond.Weighted>
0.0000

> <Gold.Chemscore.DEClash.Weighted>
1.2397

> <Gold.Chemscore.DEInternal.Weighted>
1.6447

> <Gold.Chemscore.Rot.Weighted>
4.0196

> <Gold.Chemscore.Internal.Correction.Weighted>
   9.000000E+99

> <Gold.Protein.RotatedTorsions>
[ 6907 6896 6895 6894 ] final -137.87 input  -60.11 | X-H torsion
[ 7974 7965 7964 7962 ] final  107.39 input  175.53 | X-H torsion
[ 8008 7997 7996 7995 ] final  -77.22 input   59.86 | X-H torsion
[ 10167 10162 10161 10158 ] final  -67.86 input  -65.29 | X-H torsion
[ 10718 10713 10712 10709 ] final  -18.12 input   66.30 | X-H torsion
[ 10763 10752 10751 10750 ] final -104.41 input  -60.55 | X-H torsion
[ 11005 11000 10999 10996 ] final  160.11 input  -57.11 | X-H torsion

> <Gold.Protein.ActiveResidues>
 VAL166  LYS551  ARG553  GLY616  TRP617  ASP618  TYR619  PRO620  LYS621  CYS622 
 ASP623  PHE694  ASN695  SER759  ASP760  ASP761  ALA762  ILE779  LEU786  VAL792 
 PHE793  MET794  SER795  GLU796  ALA797  LYS798  CYS799  TRP800  GLU811  SER814 

> <Gold.Protein.RotatedAtoms>
  151.0279  133.5817  159.2663 H   0  0  0  0  0  0  0  0  0  0  0  0  # atno 6907 bound_to 6896
  151.2909  135.0741  159.9214 H   0  0  0  0  0  0  0  0  0  0  0  0  # atno 6908 bound_to 6896
  152.5338  133.9977  159.7934 H   0  0  0  0  0  0  0  0  0  0  0  0  # atno 6909 bound_to 6896
  145.2942  139.2590  143.3848 H   0  0  0  0  0  0  0  0  0  0  0  0  # atno 7974 bound_to 7965
  154.5576  140.0714  156.8769 H   0  0  0  0  0  0  0  0  0  0  0  0  # atno 8008 bound_to 7997
  155.2872  140.3375  155.4236 H   0  0  0  0  0  0  0  0  0  0  0  0  # atno 8009 bound_to 7997
  156.2015  140.1724  156.7874 H   0  0  0  0  0  0  0  0  0  0  0  0  # atno 8010 bound_to 7997
  140.5551  143.2312  151.6837 H   0  0  0  0  0  0  0  0  0  0  0  0  # atno 10167 bound_to 10162
  156.5640  130.4732  149.6393 H   0  0  0  0  0  0  0  0  0  0  0  0  # atno 10718 bound_to 10713
  154.7876  135.4787  153.9981 H   0  0  0  0  0  0  0  0  0  0  0  0  # atno 10763 bound_to 10752
  153.1583  135.6804  153.8786 H   0  0  0  0  0  0  0  0  0  0  0  0  # atno 10764 bound_to 10752
  153.8408  135.3179  155.3404 H   0  0  0  0  0  0  0  0  0  0  0  0  # atno 10765 bound_to 10752
  140.2027  134.8325  157.3036 H   0  0  0  0  0  0  0  0  0  0  0  0  # atno 11005 bound_to 11000
  146.3174  140.3441  142.8650 LP  0  0  0  0  0  0  0  0  0  0  0  0  # atno 17320 bound_to 7965
  144.9147  140.7799  143.5785 LP  0  0  0  0  0  0  0  0  0  0  0  0  # atno 17321 bound_to 7965
  139.5044  144.3754  152.0429 LP  0  0  0  0  0  0  0  0  0  0  0  0  # atno 17342 bound_to 10162
  140.2875  144.3791  150.6099 LP  0  0  0  0  0  0  0  0  0  0  0  0  # atno 17343 bound_to 10162
  156.2773  130.7051  151.1866 LP  0  0  0  0  0  0  0  0  0  0  0  0  # atno 17370 bound_to 10713
  157.7362  131.0564  150.5424 LP  0  0  0  0  0  0  0  0  0  0  0  0  # atno 17371 bound_to 10713
  140.2036  134.4224  155.7649 LP  0  0  0  0  0  0  0  0  0  0  0  0  # atno 17394 bound_to 11000
  141.2227  133.7084  156.8224 LP  0  0  0  0  0  0  0  0  0  0  0  0  # atno 17395 bound_to 11000

$$$$
