AV-unprocessed.smi:1833|AV-procd|sdf|7465|dock9
  -GOLD-   22720 9163D 1   1.00000     0.00000
 Structure written by MMmdl.
 42 43  0  0  0  0  0  0  0  0  2 V2000
  146.6390  128.5539  152.1494 C   0  0  0  0  0  0  0  0  0  0  0  0
  146.8024  129.9740  152.7105 C   0  0  0  0  0  0  0  0  0  0  0  0
  146.5000  131.0236  151.7049 N   0  3  1  0  0  0  0  0  0  0  0  0
  145.1477  130.8570  151.1108 C   0  0  0  0  0  0  0  0  0  0  0  0
  144.9089  131.8665  149.9755 C   0  0  0  0  0  0  0  0  0  0  0  0
  145.1162  133.3058  150.4639 C   0  0  0  0  0  0  0  0  0  0  0  0
  146.5077  133.4472  151.1007 C   0  0  1  0  0  0  0  0  0  0  0  0
  146.6815  134.7932  151.6400 N   0  0  0  0  0  0  0  0  0  0  0  0
  145.7373  135.5105  152.2657 C   0  0  0  0  0  0  0  0  0  0  0  0
  144.5880  135.1177  152.4657 O   0  0  0  0  0  0  0  0  0  0  0  0
  146.1963  136.7108  152.6459 N   0  0  0  0  0  0  0  0  0  0  0  0
  145.4069  137.7270  153.3321 C   0  0  0  0  0  0  0  0  0  0  0  0
  146.1236  138.2558  154.5848 C   0  0  0  0  0  0  0  0  0  0  0  0
  146.6579  139.6353  154.3930 C   0  0  0  0  0  0  0  0  0  0  0  0
  147.6347  139.9341  153.5320 N   0  0  0  0  0  0  0  0  0  0  0  0
  147.9797  141.2875  153.5639 C   0  0  0  0  0  0  0  0  0  0  0  0
  147.2581  142.0150  154.4761 C   0  0  0  0  0  0  0  0  0  0  0  0
  146.1122  141.0207  155.3329 S   0  0  0  0  0  0  0  0  0  0  0  0
  146.7022  132.4053  152.2181 C   0  0  0  0  0  0  0  0  0  0  0  0
  146.7724  127.8138  152.9387 H   0  0  0  0  0  0  0  0  0  0  0  0
  147.3712  128.3308  151.3742 H   0  0  0  0  0  0  0  0  0  0  0  0
  145.6443  128.4085  151.7269 H   0  0  0  0  0  0  0  0  0  0  0  0
  146.1162  130.0768  153.5523 H   0  0  0  0  0  0  0  0  0  0  0  0
  147.8067  130.1169  153.1120 H   0  0  0  0  0  0  0  0  0  0  0  0
  145.0391  129.8459  150.7164 H   0  0  0  0  0  0  0  0  0  0  0  0
  144.3905  130.9772  151.8873 H   0  0  0  0  0  0  0  0  0  0  0  0
  145.5919  131.6581  149.1507 H   0  0  0  0  0  0  0  0  0  0  0  0
  143.9003  131.7499  149.5779 H   0  0  0  0  0  0  0  0  0  0  0  0
  145.0061  134.0024  149.6317 H   0  0  0  0  0  0  0  0  0  0  0  0
  144.3431  133.5606  151.1904 H   0  0  0  0  0  0  0  0  0  0  0  0
  147.2574  133.2523  150.3311 H   0  0  0  0  0  0  0  0  0  0  0  0
  147.5942  135.2115  151.5311 H   0  0  0  0  0  0  0  0  0  0  0  0
  147.1568  136.9439  152.4399 H   0  0  0  0  0  0  0  0  0  0  0  0
  145.2314  138.5449  152.6328 H   0  0  0  0  0  0  0  0  0  0  0  0
  144.4258  137.3254  153.5929 H   0  0  0  0  0  0  0  0  0  0  0  0
  145.4447  138.2619  155.4387 H   0  0  0  0  0  0  0  0  0  0  0  0
  146.9518  137.5977  154.8497 H   0  0  0  0  0  0  0  0  0  0  0  0
  148.7544  141.6481  152.9035 H   0  0  0  0  0  0  0  0  0  0  0  0
  147.3327  143.0695  154.6966 H   0  0  0  0  0  0  0  0  0  0  0  0
  146.0083  132.5924  153.0395 H   0  0  0  0  0  0  0  0  0  0  0  0
  147.7077  132.5104  152.6245 H   0  0  0  0  0  0  0  0  0  0  0  0
  147.1569  130.8921  150.9488 H   0  0  0  0  0  0  0  0  0  0  0  0
  1  2  1  0  0  0  0
  1 20  1  0  0  0  0
  1 21  1  0  0  0  0
  1 22  1  0  0  0  0
  2  3  1  0  0  0  0
  2 23  1  0  0  0  0
  2 24  1  0  0  0  0
  3 19  1  0  0  0  0
  3  4  1  0  0  0  0
  3 42  1  0  0  0  0
  4  5  1  0  0  0  0
  4 25  1  0  0  0  0
  4 26  1  0  0  0  0
  5  6  1  0  0  0  0
  5 27  1  0  0  0  0
  5 28  1  0  0  0  0
  6  7  1  0  0  0  0
  6 29  1  0  0  0  0
  6 30  1  0  0  0  0
  7  8  1  0  0  0  0
  7 19  1  0  0  0  0
  7 31  1  0  0  0  0
  8  9  1  0  0  0  0
  8 32  1  0  0  0  0
  9 10  2  0  0  0  0
  9 11  1  0  0  0  0
 11 12  1  0  0  0  0
 11 33  1  0  0  0  0
 12 13  1  0  0  0  0
 12 34  1  0  0  0  0
 12 35  1  0  0  0  0
 13 14  1  0  0  0  0
 13 36  1  0  0  0  0
 13 37  1  0  0  0  0
 14 18  1  0  0  0  0
 14 15  2  0  0  0  0
 15 16  1  0  0  0  0
 16 17  2  0  0  0  0
 16 38  1  0  0  0  0
 17 18  1  0  0  0  0
 17 39  1  0  0  0  0
 19 40  1  0  0  0  0
 19 41  1  0  0  0  0
M  CHG  1   3   1
M  END
> <s_m_source_file>
AV-unprocessed.smi

> <i_m_source_file_index>
1833

> <i_lp_mmshare_version>
43012

> <i_f3d_flags>
0

> <s_epik_input>
W0NIM11bQ0gyXU4xW0NIMl1bQ0gyXVtDSDJdW0NASF0oW0NIMl0xKVtOSF1DKD1PKVtOSF1bQ0gyXVtDSDJdYzJuW2NIXVtjSF1zMg==

> <s_epik_cmdline>
J2VwaWtfcHl0aG9uJywgJy1waCcsICc3LjAnLCAnLXRuJywgJzgnLCAnLW1hJywgJzIwMCcsICctbWV0YWxfYmluZGluZycsICctaW1hZScsICc8aW5maWxlLm1hZT4nLCAnLW9tYWUnLCAnPG91dGZpbGUubWFlPic=

> <r_lp_tautomer_probability>
1

> <r_epik_Ionization_Penalty>
0.00269629

> <r_epik_Ionization_Penalty_Charging>
0.00233899

> <r_epik_Ionization_Penalty_Neutral>
0.000357304

> <r_epik_State_Penalty>
-0

> <r_epik_Charging_Adjusted_Penalty>
0.00233899

> <i_epik_Tot_Q>
1

> <i_epik_Tot_abs_Q>
1

> <r_epik_Metal_State_Penalty>
-0

> <b_epik_Metal_Only>
0

> <s_lp_Force_Field>
OPLS_2005

> <r_lp_Energy>
7.28856

> <b_lp_Chiralities_Consistent>
1

> <s_lp_Variant>
AV-unprocessed.smi:1833-1

> <Gold.Version>
5.8.1

> <Gold.Id.Protein>
6NUR|6NUR_protein|mol2

> <Gold.PLP.Fitness>
43.6363

> <Gold.PLP.PLP>
-31.0245

> <Gold.PLP.part.hbond>
-3.0000

> <Gold.PLP.part.metal>
0.0000

> <Gold.PLP.part.buried>
-5.2231

> <Gold.PLP.part.nonpolar>
-24.0438

> <Gold.PLP.part.repulsive>
0.5362

> <Gold.PLP.ligand.clash>
0.0000

> <Gold.PLP.ligand.torsion>
0.7237

> <Gold.PLP.Chemscore.Hbond>
2.9120

> <Gold.PLP.Chemscore.CHOScore>
1.7572

> <Gold.PLP.Chemscore.Metal>
0.0000

> <Gold.Chemscore.Hbonds>
donor molecule, donor type, donor heavy atom, donor atom, acceptor molecule, acceptor atom, score
      L1  H     3    42       P1 10747  1.00
      L1  H     8    32       P1  7948  1.00
      L1  H    11    33       P1  7948  0.91
      L1  C    16    38       P1  7957  0.75
      L1  C    17    39       P1  8028  1.00

> <Gold.PLP.Chemscore.Internal.Correction>
0.0516

> <Gold.Rescore>
     Score         DG    S(hbond)    S(metal)    S(lipo)     H(rot)  DE(clash)    DE(int)     intcor
     16.94     -19.04       2.48        0.00      82.67       1.71       0.01       2.09       ----

> <Gold.Chemscore.Fitness>
16.9385

> <Gold.Chemscore.DG>
-19.0400

> <Gold.Chemscore.ZeroCoef>
-5.4800

> <Gold.Chemscore.Hbond>
2.4783

> <Gold.Chemscore.Metal>
0.0000

> <Gold.Chemscore.Lipo>
82.6685

> <Gold.Chemscore.Internal_Hbond>
0.0000

> <Gold.Chemscore.DEClash>
0.0100

> <Gold.Chemscore.DEInternal>
2.0915

> <Gold.Chemscore.Rot>
1.7147

> <Gold.Chemscore.Internal.Correction>
   9.000000E+99

> <Gold.Chemscore.Hbonds>
donor molecule, donor type, donor heavy atom, donor atom, acceptor molecule, acceptor atom, score
      L1  H     3    42       P1 10747  0.95
      L1  H     8    32       P1  7948  0.70
      L1  H    11    33       P1  7948  0.84

> <Gold.Chemscore.Hbond.Weighted>
-8.2774

> <Gold.Chemscore.Metal.Weighted>
-0.0000

> <Gold.Chemscore.Lipo.Weighted>
-9.6722

> <Gold.Chemscore.Internal_Hbond.Weighted>
0.0000

> <Gold.Chemscore.DEClash.Weighted>
0.0100

> <Gold.Chemscore.DEInternal.Weighted>
2.0915

> <Gold.Chemscore.Rot.Weighted>
4.3896

> <Gold.Chemscore.Internal.Correction.Weighted>
   9.000000E+99

> <Gold.Protein.RotatedTorsions>
[ 6907 6896 6895 6894 ] final -103.79 input  -60.11 | X-H torsion
[ 7974 7965 7964 7962 ] final   26.37 input  175.53 | X-H torsion
[ 8008 7997 7996 7995 ] final  -84.60 input   59.86 | X-H torsion
[ 10167 10162 10161 10158 ] final  127.56 input  -65.29 | X-H torsion
[ 10718 10713 10712 10709 ] final  134.59 input   66.30 | X-H torsion
[ 10763 10752 10751 10750 ] final  171.26 input  -60.55 | X-H torsion
[ 11005 11000 10999 10996 ] final  -15.07 input  -57.11 | X-H torsion

> <Gold.Protein.ActiveResidues>
 VAL166  LYS551  ARG553  GLY616  TRP617  ASP618  TYR619  PRO620  LYS621  CYS622 
 ASP623  PHE694  ASN695  SER759  ASP760  ASP761  ALA762  ILE779  LEU786  VAL792 
 PHE793  MET794  SER795  GLU796  ALA797  LYS798  CYS799  TRP800  GLU811  SER814 

> <Gold.Protein.RotatedAtoms>
  150.7257  134.0375  159.3754 H   0  0  0  0  0  0  0  0  0  0  0  0  # atno 6907 bound_to 6896
  151.8347  135.0608  160.0450 H   0  0  0  0  0  0  0  0  0  0  0  0  # atno 6908 bound_to 6896
  152.2907  133.5522  159.5592 H   0  0  0  0  0  0  0  0  0  0  0  0  # atno 6909 bound_to 6896
  146.1841  139.7337  142.8879 H   0  0  0  0  0  0  0  0  0  0  0  0  # atno 7974 bound_to 7965
  154.6316  140.0603  156.9738 H   0  0  0  0  0  0  0  0  0  0  0  0  # atno 8008 bound_to 7997
  155.1657  140.3286  155.4384 H   0  0  0  0  0  0  0  0  0  0  0  0  # atno 8009 bound_to 7997
  156.2485  140.1923  156.6762 H   0  0  0  0  0  0  0  0  0  0  0  0  # atno 8010 bound_to 7997
  139.5572  144.6857  151.4148 H   0  0  0  0  0  0  0  0  0  0  0  0  # atno 10167 bound_to 10162
  157.4657  131.1076  150.9865 H   0  0  0  0  0  0  0  0  0  0  0  0  # atno 10718 bound_to 10713
  154.4093  135.2756  155.2047 H   0  0  0  0  0  0  0  0  0  0  0  0  # atno 10763 bound_to 10752
  154.4039  135.6038  153.5917 H   0  0  0  0  0  0  0  0  0  0  0  0  # atno 10764 bound_to 10752
  152.9831  135.5933  154.4373 H   0  0  0  0  0  0  0  0  0  0  0  0  # atno 10765 bound_to 10752
  140.7929  133.8274  155.9396 H   0  0  0  0  0  0  0  0  0  0  0  0  # atno 11005 bound_to 11000
  145.3991  141.0383  143.3080 LP  0  0  0  0  0  0  0  0  0  0  0  0  # atno 17320 bound_to 7965
  144.8365  139.5541  143.6919 LP  0  0  0  0  0  0  0  0  0  0  0  0  # atno 17321 bound_to 7965
  140.6847  143.8002  150.7169 LP  0  0  0  0  0  0  0  0  0  0  0  0  # atno 17342 bound_to 10162
  140.1466  143.4394  152.2159 LP  0  0  0  0  0  0  0  0  0  0  0  0  # atno 17343 bound_to 10162
  157.0647  130.5840  149.5392 LP  0  0  0  0  0  0  0  0  0  0  0  0  # atno 17370 bound_to 10713
  156.0049  130.5134  150.7795 LP  0  0  0  0  0  0  0  0  0  0  0  0  # atno 17371 bound_to 10713
  140.9372  134.1947  157.4823 LP  0  0  0  0  0  0  0  0  0  0  0  0  # atno 17394 bound_to 11000
  139.8729  134.9857  156.5293 LP  0  0  0  0  0  0  0  0  0  0  0  0  # atno 17395 bound_to 11000

$$$$
