AV-unprocessed.smi:1885|AV-procd|sdf|7651|dock4
  -GOLD-   22720 9383D 1   1.00000     0.00000
 Structure written by MMmdl.
 43 45  0  0  0  0  0  0  0  0  1 V2000
  149.4740  133.1717  156.9570 C   0  0  0  0  0  0  0  0  0  0  0  0
  150.5257  134.0839  157.2371 O   0  0  0  0  0  0  0  0  0  0  0  0
  150.5859  135.2485  156.5021 C   0  0  0  0  0  0  0  0  0  0  0  0
  151.7843  135.9525  156.2219 C   0  0  0  0  0  0  0  0  0  0  0  0
  151.7536  137.1412  155.4669 C   0  0  0  0  0  0  0  0  0  0  0  0
  150.5290  137.6472  154.9866 C   0  0  0  0  0  0  0  0  0  0  0  0
  150.4929  138.9335  154.1858 C   0  0  0  0  0  0  0  0  0  0  0  0
  151.1525  139.9854  154.8703 O   0  0  0  0  0  0  0  0  0  0  0  0
  150.4063  140.4947  155.9635 C   0  0  0  0  0  0  0  0  0  0  0  0
  151.3607  140.9648  157.0782 C   0  0  1  0  0  0  0  0  0  0  0  0
  152.5328  140.1779  157.0545 O   0  0  0  0  0  0  0  0  0  0  0  0
  151.7320  142.4636  157.0455 C   0  0  0  0  0  0  0  0  0  0  0  0
  151.5582  143.1198  158.3302 N   0  0  0  0  0  0  0  0  0  0  0  0
  150.7530  144.1644  158.6040 C   0  0  0  0  0  0  0  0  0  0  0  0
  150.7548  144.6245  159.8517 N   0  0  0  0  0  0  0  0  0  0  0  0
  151.6587  143.7725  160.4632 C   0  0  0  0  0  0  0  0  0  0  0  0
  152.1164  143.7275  161.7995 C   0  0  0  0  0  0  0  0  0  0  0  0
  153.0519  142.7522  162.2032 C   0  0  0  0  0  0  0  0  0  0  0  0
  153.4804  142.7239  163.4876 F   0  0  0  0  0  0  0  0  0  0  0  0
  153.5421  141.8069  161.2783 C   0  0  0  0  0  0  0  0  0  0  0  0
  154.4386  140.8727  161.6746 F   0  0  0  0  0  0  0  0  0  0  0  0
  153.1041  141.8349  159.9407 C   0  0  0  0  0  0  0  0  0  0  0  0
  152.1727  142.8118  159.5408 C   0  0  0  0  0  0  0  0  0  0  0  0
  149.3362  136.9457  155.2523 C   0  0  0  0  0  0  0  0  0  0  0  0
  149.3680  135.7570  156.0060 C   0  0  0  0  0  0  0  0  0  0  0  0
  149.5730  132.2996  157.6033 H   0  0  0  0  0  0  0  0  0  0  0  0
  149.5139  132.8229  155.9239 H   0  0  0  0  0  0  0  0  0  0  0  0
  148.4975  133.6170  157.1516 H   0  0  0  0  0  0  0  0  0  0  0  0
  152.7416  135.6031  156.5778 H   0  0  0  0  0  0  0  0  0  0  0  0
  152.6756  137.6675  155.2677 H   0  0  0  0  0  0  0  0  0  0  0  0
  150.9673  138.7649  153.2175 H   0  0  0  0  0  0  0  0  0  0  0  0
  149.4541  139.2073  153.9971 H   0  0  0  0  0  0  0  0  0  0  0  0
  149.8166  141.3479  155.6241 H   0  0  0  0  0  0  0  0  0  0  0  0
  149.7004  139.7493  156.3338 H   0  0  0  0  0  0  0  0  0  0  0  0
  150.8769  140.7532  158.0326 H   0  0  0  0  0  0  0  0  0  0  0  0
  152.6543  139.7985  157.9117 H   0  0  0  0  0  0  0  0  0  0  0  0
  152.7675  142.5917  156.7279 H   0  0  0  0  0  0  0  0  0  0  0  0
  151.1176  142.9841  156.3101 H   0  0  0  0  0  0  0  0  0  0  0  0
  150.1384  144.6190  157.8405 H   0  0  0  0  0  0  0  0  0  0  0  0
  151.7466  144.4447  162.5171 H   0  0  0  0  0  0  0  0  0  0  0  0
  153.4877  141.1178  159.2306 H   0  0  0  0  0  0  0  0  0  0  0  0
  148.3925  137.3211  154.8843 H   0  0  0  0  0  0  0  0  0  0  0  0
  148.4465  135.2313  156.2089 H   0  0  0  0  0  0  0  0  0  0  0  0
  1  2  1  0  0  0  0
  1 26  1  0  0  0  0
  1 27  1  0  0  0  0
  1 28  1  0  0  0  0
  2  3  1  0  0  0  0
  3 25  1  0  0  0  0
  3  4  2  0  0  0  0
  4  5  1  0  0  0  0
  4 29  1  0  0  0  0
  5  6  2  0  0  0  0
  5 30  1  0  0  0  0
  6  7  1  0  0  0  0
  6 24  1  0  0  0  0
  7  8  1  0  0  0  0
  7 31  1  0  0  0  0
  7 32  1  0  0  0  0
  8  9  1  0  0  0  0
  9 10  1  0  0  0  0
  9 33  1  0  0  0  0
  9 34  1  0  0  0  0
 10 11  1  0  0  0  0
 10 12  1  0  0  0  0
 10 35  1  0  0  0  0
 11 36  1  0  0  0  0
 12 13  1  0  0  0  0
 12 37  1  0  0  0  0
 12 38  1  0  0  0  0
 13 23  1  0  0  0  0
 13 14  1  0  0  0  0
 14 15  2  0  0  0  0
 14 39  1  0  0  0  0
 15 16  1  0  0  0  0
 16 23  2  0  0  0  0
 16 17  1  0  0  0  0
 17 18  2  0  0  0  0
 17 40  1  0  0  0  0
 18 19  1  0  0  0  0
 18 20  1  0  0  0  0
 20 21  1  0  0  0  0
 20 22  2  0  0  0  0
 22 23  1  0  0  0  0
 22 41  1  0  0  0  0
 24 25  2  0  0  0  0
 24 42  1  0  0  0  0
 25 43  1  0  0  0  0
M  END
> <s_m_source_file>
AV-unprocessed.smi

> <i_m_source_file_index>
1885

> <i_lp_mmshare_version>
43012

> <i_f3d_flags>
0

> <s_epik_input>
W0NIM11PYzFbY0hdW2NIXWMoW2NIXVtjSF0xKVtDSDJdT1tDSDJdW0NASF0oW09IXSlbQ0gyXW4oW2NIXW4yKWMoYzIzKVtjSF1jKEYpYyhGKVtjSF0z

> <s_epik_cmdline>
J2VwaWtfcHl0aG9uJywgJy1waCcsICc3LjAnLCAnLXRuJywgJzgnLCAnLW1hJywgJzIwMCcsICctbWV0YWxfYmluZGluZycsICctaW1hZScsICc8aW5maWxlLm1hZT4nLCAnLW9tYWUnLCAnPG91dGZpbGUubWFlPic=

> <r_lp_tautomer_probability>
1

> <r_epik_Ionization_Penalty>
0.0160256

> <r_epik_Ionization_Penalty_Charging>
0

> <r_epik_Ionization_Penalty_Neutral>
0.0160256

> <r_epik_State_Penalty>
0.0126263

> <r_epik_Charging_Adjusted_Penalty>
0.0126263

> <i_epik_Tot_Q>
0

> <i_epik_Tot_abs_Q>
0

> <r_epik_Metal_State_Penalty>
1.27616e-05

> <b_epik_Metal_Only>
0

> <s_lp_Force_Field>
OPLS_2005

> <r_lp_Energy>
16.1037

> <b_lp_Chiralities_Consistent>
1

> <s_lp_Variant>
AV-unprocessed.smi:1885-2

> <Gold.Version>
5.8.1

> <Gold.Id.Protein>
6NUR|6NUR_protein|mol2

> <Gold.PLP.Fitness>
60.8758

> <Gold.PLP.PLP>
-52.2825

> <Gold.PLP.part.hbond>
-3.0000

> <Gold.PLP.part.metal>
0.0000

> <Gold.PLP.part.buried>
-7.2266

> <Gold.PLP.part.nonpolar>
-40.8396

> <Gold.PLP.part.repulsive>
0.1898

> <Gold.PLP.ligand.clash>
0.0000

> <Gold.PLP.ligand.torsion>
1.7669

> <Gold.PLP.Chemscore.Hbond>
2.9600

> <Gold.PLP.Chemscore.CHOScore>
1.0103

> <Gold.PLP.Chemscore.Metal>
0.0000

> <Gold.Chemscore.Hbonds>
donor molecule, donor type, donor heavy atom, donor atom, acceptor molecule, acceptor atom, score
      P1  H  6896  6907       L1     2  0.60
      P1  H  7989  7998       L1     8  0.90
      P1  H  7997  8010       L1    11  0.85
      L1  C    14    39       P1  8028  0.79
      L1  C    14    39       P1  8029  0.28

> <Gold.PLP.Chemscore.Internal.Correction>
0.2161

> <Gold.Rescore>
     Score         DG    S(hbond)    S(metal)    S(lipo)     H(rot)  DE(clash)    DE(int)     intcor
     15.79     -19.24       2.15        0.00     120.36       2.93       1.72       1.74       ----

> <Gold.Chemscore.Fitness>
15.7876

> <Gold.Chemscore.DG>
-19.2438

> <Gold.Chemscore.ZeroCoef>
-5.4800

> <Gold.Chemscore.Hbond>
2.1532

> <Gold.Chemscore.Metal>
0.0000

> <Gold.Chemscore.Lipo>
120.3566

> <Gold.Chemscore.Internal_Hbond>
0.0000

> <Gold.Chemscore.DEClash>
1.7191

> <Gold.Chemscore.DEInternal>
1.7372

> <Gold.Chemscore.Rot>
2.9335

> <Gold.Chemscore.Internal.Correction>
   9.000000E+99

> <Gold.Chemscore.Hbonds>
donor molecule, donor type, donor heavy atom, donor atom, acceptor molecule, acceptor atom, score
      P1  H  6896  6907       L1     2  0.25
      P1  H  7989  7998       L1     8  0.18
      P1  H  7997  8010       L1    11  0.14

> <Gold.Chemscore.Hbond.Weighted>
-7.1918

> <Gold.Chemscore.Metal.Weighted>
-0.0000

> <Gold.Chemscore.Lipo.Weighted>
-14.0817

> <Gold.Chemscore.Internal_Hbond.Weighted>
0.0000

> <Gold.Chemscore.DEClash.Weighted>
1.7191

> <Gold.Chemscore.DEInternal.Weighted>
1.7372

> <Gold.Chemscore.Rot.Weighted>
7.5097

> <Gold.Chemscore.Internal.Correction.Weighted>
   9.000000E+99

> <Gold.Protein.RotatedTorsions>
[ 6907 6896 6895 6894 ] final -107.84 input  -60.11 | X-H torsion
[ 7974 7965 7964 7962 ] final  120.92 input  175.53 | X-H torsion
[ 8008 7997 7996 7995 ] final   67.68 input   59.86 | X-H torsion
[ 10167 10162 10161 10158 ] final  -33.01 input  -65.29 | X-H torsion
[ 10718 10713 10712 10709 ] final   99.15 input   66.30 | X-H torsion
[ 10763 10752 10751 10750 ] final -169.89 input  -60.55 | X-H torsion
[ 11005 11000 10999 10996 ] final -113.08 input  -57.11 | X-H torsion

> <Gold.Protein.ActiveResidues>
 VAL166  LYS551  ARG553  GLY616  TRP617  ASP618  TYR619  PRO620  LYS621  CYS622 
 ASP623  PHE694  ASN695  SER759  ASP760  ASP761  ALA762  ILE779  LEU786  VAL792 
 PHE793  MET794  SER795  GLU796  ALA797  LYS798  CYS799  TRP800  GLU811  SER814 

> <Gold.Protein.RotatedAtoms>
  150.7467  133.9766  159.3562 H   0  0  0  0  0  0  0  0  0  0  0  0  # atno 6907 bound_to 6896
  151.7704  135.0785  160.0368 H   0  0  0  0  0  0  0  0  0  0  0  0  # atno 6908 bound_to 6896
  152.3343  133.5956  159.5867 H   0  0  0  0  0  0  0  0  0  0  0  0  # atno 6909 bound_to 6896
  145.1255  139.3361  143.4692 H   0  0  0  0  0  0  0  0  0  0  0  0  # atno 7974 bound_to 7965
  155.6967  140.3495  155.4916 H   0  0  0  0  0  0  0  0  0  0  0  0  # atno 8008 bound_to 7997
  155.9477  140.1113  157.1025 H   0  0  0  0  0  0  0  0  0  0  0  0  # atno 8009 bound_to 7997
  154.4115  140.1200  156.4997 H   0  0  0  0  0  0  0  0  0  0  0  0  # atno 8010 bound_to 7997
  140.7212  143.3652  151.1885 H   0  0  0  0  0  0  0  0  0  0  0  0  # atno 10167 bound_to 10162
  157.6882  131.0661  150.4905 H   0  0  0  0  0  0  0  0  0  0  0  0  # atno 10718 bound_to 10713
  154.6474  135.2907  155.0029 H   0  0  0  0  0  0  0  0  0  0  0  0  # atno 10763 bound_to 10752
  154.1134  135.6559  153.4893 H   0  0  0  0  0  0  0  0  0  0  0  0  # atno 10764 bound_to 10752
  153.0358  135.5270  154.7367 H   0  0  0  0  0  0  0  0  0  0  0  0  # atno 10765 bound_to 10752
  141.0636  133.9495  157.2621 H   0  0  0  0  0  0  0  0  0  0  0  0  # atno 11005 bound_to 11000
  146.3518  140.1231  142.8599 LP  0  0  0  0  0  0  0  0  0  0  0  0  # atno 17320 bound_to 7965
  145.0693  140.9144  143.4891 LP  0  0  0  0  0  0  0  0  0  0  0  0  # atno 17321 bound_to 7965
  139.7212  143.9220  152.2986 LP  0  0  0  0  0  0  0  0  0  0  0  0  # atno 17342 bound_to 10162
  139.8978  144.6929  150.8699 LP  0  0  0  0  0  0  0  0  0  0  0  0  # atno 17343 bound_to 10162
  156.5232  130.4167  149.6240 LP  0  0  0  0  0  0  0  0  0  0  0  0  # atno 17370 bound_to 10713
  156.3135  130.7242  151.2140 LP  0  0  0  0  0  0  0  0  0  0  0  0  # atno 17371 bound_to 10713
  139.9455  135.0184  156.8839 LP  0  0  0  0  0  0  0  0  0  0  0  0  # atno 17394 bound_to 11000
  140.5819  134.0344  155.7467 LP  0  0  0  0  0  0  0  0  0  0  0  0  # atno 17395 bound_to 11000

$$$$
