AV-unprocessed.smi:244|AV-procd|sdf|1873|dock4
  -GOLD-   2262020513D 1   1.00000     0.00000
 Structure written by MMmdl.
 56 60  0  0  0  0  0  0  0  0  1 V2000
  150.5264  144.9505  160.0414 C   0  0  0  0  0  0  0  0  0  0  0  0
  151.1491  143.6369  159.9661 N   0  0  0  0  0  0  0  0  0  0  0  0
  152.3302  143.6074  160.8279 C   0  0  0  0  0  0  0  0  0  0  0  0
  152.9348  142.1951  160.8309 C   0  0  0  0  0  0  0  0  0  0  0  0
  153.3289  141.7770  159.4024 C   0  0  1  0  0  0  0  0  0  0  0  0
  153.8784  140.4588  159.3383 O   0  0  0  0  0  0  0  0  0  0  0  0
  152.9334  139.4105  159.5376 C   0  0  0  0  0  0  0  0  0  0  0  0
  151.7971  139.5301  158.5130 C   0  0  0  0  0  0  0  0  0  0  0  0
  151.1791  140.8466  158.6016 N   0  0  0  0  0  0  0  0  0  0  0  0
  150.0511  140.9310  157.8640 C   0  0  0  0  0  0  0  0  0  0  0  0
  148.9472  141.4190  158.4808 N   0  0  0  0  0  0  0  0  0  0  0  0
  147.8035  141.5434  157.8010 C   0  0  0  0  0  0  0  0  0  0  0  0
  147.5525  141.2392  156.5258 N   0  0  0  0  0  0  0  0  0  0  0  0
  148.6612  140.7410  155.9065 C   0  0  0  0  0  0  0  0  0  0  0  0
  149.9431  140.5555  156.4955 C   0  0  0  0  0  0  0  0  0  0  0  0
  150.8248  140.0303  155.5585 N   0  0  0  0  0  0  0  0  0  0  0  0
  150.1024  139.9055  154.4785 C   0  0  0  0  0  0  0  0  0  0  0  0
  148.7902  140.3040  154.6001 N   0  0  0  0  0  0  0  0  0  0  0  0
  147.7704  140.2708  153.5633 C   0  0  0  0  0  0  0  0  0  0  0  0
  147.0112  138.9238  153.4751 C   0  0  0  0  0  0  0  0  0  0  0  0
  147.9270  137.8913  153.7990 O   0  0  0  0  0  0  0  0  0  0  0  0
  145.8193  138.8475  154.4550 C   0  0  0  0  0  0  0  0  0  0  0  0
  144.9463  137.6033  154.2135 C   0  0  0  0  0  0  0  0  0  0  0  0
  144.5148  137.5618  152.8588 O   0  0  0  0  0  0  0  0  0  0  0  0
  145.5952  137.4483  151.9408 C   0  0  0  0  0  0  0  0  0  0  0  0
  146.5018  138.6880  152.0392 C   0  0  0  0  0  0  0  0  0  0  0  0
  152.1406  141.9400  158.4282 C   0  0  1  0  0  0  0  0  0  0  0  0
  151.5137  143.3516  158.5763 C   0  0  0  0  0  0  0  0  0  0  0  0
  150.2228  145.1711  161.0653 H   0  0  0  0  0  0  0  0  0  0  0  0
  149.6328  144.9863  159.4168 H   0  0  0  0  0  0  0  0  0  0  0  0
  151.2085  145.7343  159.7096 H   0  0  0  0  0  0  0  0  0  0  0  0
  153.0659  144.3388  160.4893 H   0  0  0  0  0  0  0  0  0  0  0  0
  152.0478  143.8821  161.8449 H   0  0  0  0  0  0  0  0  0  0  0  0
  153.8096  142.1662  161.4806 H   0  0  0  0  0  0  0  0  0  0  0  0
  152.2072  141.5053  161.2581 H   0  0  0  0  0  0  0  0  0  0  0  0
  154.1226  142.4506  159.0768 H   0  0  0  0  0  0  0  0  0  0  0  0
  153.4435  138.4549  159.4169 H   0  0  0  0  0  0  0  0  0  0  0  0
  152.5438  139.4253  160.5550 H   0  0  0  0  0  0  0  0  0  0  0  0
  152.1901  139.3723  157.5077 H   0  0  0  0  0  0  0  0  0  0  0  0
  151.0520  138.7537  158.6930 H   0  0  0  0  0  0  0  0  0  0  0  0
  146.9703  141.9444  158.3591 H   0  0  0  0  0  0  0  0  0  0  0  0
  150.5071  139.5112  153.5574 H   0  0  0  0  0  0  0  0  0  0  0  0
  147.0685  141.0834  153.7548 H   0  0  0  0  0  0  0  0  0  0  0  0
  148.2466  140.5020  152.6092 H   0  0  0  0  0  0  0  0  0  0  0  0
  148.4819  137.7365  153.0499 H   0  0  0  0  0  0  0  0  0  0  0  0
  146.1637  138.8571  155.4899 H   0  0  0  0  0  0  0  0  0  0  0  0
  145.1965  139.7344  154.3311 H   0  0  0  0  0  0  0  0  0  0  0  0
  145.4867  136.6891  154.4635 H   0  0  0  0  0  0  0  0  0  0  0  0
  144.0683  137.6355  154.8589 H   0  0  0  0  0  0  0  0  0  0  0  0
  146.1561  136.5322  152.1325 H   0  0  0  0  0  0  0  0  0  0  0  0
  145.1898  137.3642  150.9323 H   0  0  0  0  0  0  0  0  0  0  0  0
  145.9304  139.5578  151.7122 H   0  0  0  0  0  0  0  0  0  0  0  0
  147.3390  138.5958  151.3460 H   0  0  0  0  0  0  0  0  0  0  0  0
  152.5353  141.8571  157.4149 H   0  0  0  0  0  0  0  0  0  0  0  0
  150.6415  143.4609  157.9310 H   0  0  0  0  0  0  0  0  0  0  0  0
  152.2333  144.0993  158.2392 H   0  0  0  0  0  0  0  0  0  0  0  0
  1  2  1  0  0  0  0
  1 29  1  0  0  0  0
  1 30  1  0  0  0  0
  1 31  1  0  0  0  0
  2 28  1  0  0  0  0
  2  3  1  0  0  0  0
  3  4  1  0  0  0  0
  3 32  1  0  0  0  0
  3 33  1  0  0  0  0
  4  5  1  0  0  0  0
  4 34  1  0  0  0  0
  4 35  1  0  0  0  0
  5 27  1  0  0  0  0
  5  6  1  0  0  0  0
  5 36  1  0  0  0  0
  6  7  1  0  0  0  0
  7  8  1  0  0  0  0
  7 37  1  0  0  0  0
  7 38  1  0  0  0  0
  8  9  1  0  0  0  0
  8 39  1  0  0  0  0
  8 40  1  0  0  0  0
  9 10  1  0  0  0  0
  9 27  1  0  0  0  0
 10 15  1  0  0  0  0
 10 11  2  0  0  0  0
 11 12  1  0  0  0  0
 12 13  2  0  0  0  0
 12 41  1  0  0  0  0
 13 14  1  0  0  0  0
 14 18  1  0  0  0  0
 14 15  2  0  0  0  0
 15 16  1  0  0  0  0
 16 17  2  0  0  0  0
 17 18  1  0  0  0  0
 17 42  1  0  0  0  0
 18 19  1  0  0  0  0
 19 20  1  0  0  0  0
 19 43  1  0  0  0  0
 19 44  1  0  0  0  0
 20 26  1  0  0  0  0
 20 21  1  0  0  0  0
 20 22  1  0  0  0  0
 21 45  1  0  0  0  0
 22 23  1  0  0  0  0
 22 46  1  0  0  0  0
 22 47  1  0  0  0  0
 23 24  1  0  0  0  0
 23 48  1  0  0  0  0
 23 49  1  0  0  0  0
 24 25  1  0  0  0  0
 25 26  1  0  0  0  0
 25 50  1  0  0  0  0
 25 51  1  0  0  0  0
 26 52  1  0  0  0  0
 26 53  1  0  0  0  0
 27 28  1  0  0  0  0
 27 54  1  0  0  0  0
 28 55  1  0  0  0  0
 28 56  1  0  0  0  0
M  END
> <s_m_source_file>
AV-unprocessed.smi

> <i_m_source_file_index>
244

> <i_lp_mmshare_version>
43012

> <i_f3d_flags>
0

> <s_epik_input>
W0NIMl0xW0NIMl1OKFtDSDNdKVtDSDJdW0NAQEhdKFtDQEhdMTIpTihbQ0gyXVtDSDJdTzIpYyhuW2NIXW4zKWMoYzM0KW5bY0hdbjRbQ0gyXUM1KFtPSF0pW0NIMl1bQ0gyXU9bQ0gyXVtDSDJdNQ==

> <s_epik_cmdline>
J2VwaWtfcHl0aG9uJywgJy1waCcsICc3LjAnLCAnLXRuJywgJzgnLCAnLW1hJywgJzIwMCcsICctbWV0YWxfYmluZGluZycsICctaW1hZScsICc8aW5maWxlLm1hZT4nLCAnLW9tYWUnLCAnPG91dGZpbGUubWFlPic=

> <r_lp_tautomer_probability>
1

> <r_epik_Ionization_Penalty>
2.27765

> <r_epik_Ionization_Penalty_Charging>
0

> <r_epik_Ionization_Penalty_Neutral>
2.27765

> <r_epik_State_Penalty>
2.4114

> <r_epik_Charging_Adjusted_Penalty>
2.4114

> <i_epik_Tot_Q>
0

> <i_epik_Tot_abs_Q>
0

> <r_epik_Metal_State_Penalty>
2.39769

> <b_epik_Metal_Only>
0

> <s_lp_Force_Field>
OPLS_2005

> <r_lp_Energy>
50.0311

> <b_lp_Chiralities_Consistent>
1

> <s_lp_Variant>
AV-unprocessed.smi:244-10

> <Gold.Version>
5.8.1

> <Gold.Id.Protein>
6NUR|6NUR_protein|mol2

> <Gold.PLP.Fitness>
46.0815

> <Gold.PLP.PLP>
-42.1655

> <Gold.PLP.part.hbond>
-2.6423

> <Gold.PLP.part.metal>
0.0000

> <Gold.PLP.part.buried>
-1.8742

> <Gold.PLP.part.nonpolar>
-38.1472

> <Gold.PLP.part.repulsive>
0.5416

> <Gold.PLP.ligand.clash>
0.0000

> <Gold.PLP.ligand.torsion>
1.2103

> <Gold.PLP.Chemscore.Hbond>
1.1477

> <Gold.PLP.Chemscore.CHOScore>
0.9189

> <Gold.PLP.Chemscore.Metal>
0.0000

> <Gold.Chemscore.Hbonds>
donor molecule, donor type, donor heavy atom, donor atom, acceptor molecule, acceptor atom, score
      L1  H    21    45       P1  7948  0.78
      P1  H  7997  8009       L1     6  0.17
      L1  C    17    42       P1  7957  0.76

> <Gold.PLP.Chemscore.Internal.Correction>
0.1370

> <Gold.Rescore>
     Score         DG    S(hbond)    S(metal)    S(lipo)     H(rot)  DE(clash)    DE(int)     intcor
     14.41     -16.91       1.23        0.00     107.58       2.06       0.47       2.02       ----

> <Gold.Chemscore.Fitness>
14.4149

> <Gold.Chemscore.DG>
-16.9056

> <Gold.Chemscore.ZeroCoef>
-5.4800

> <Gold.Chemscore.Hbond>
1.2323

> <Gold.Chemscore.Metal>
0.0000

> <Gold.Chemscore.Lipo>
107.5760

> <Gold.Chemscore.Internal_Hbond>
0.0000

> <Gold.Chemscore.DEClash>
0.4715

> <Gold.Chemscore.DEInternal>
2.0193

> <Gold.Chemscore.Rot>
2.0611

> <Gold.Chemscore.Internal.Correction>
   9.000000E+99

> <Gold.Chemscore.Hbonds>
donor molecule, donor type, donor heavy atom, donor atom, acceptor molecule, acceptor atom, score
      L1  H    21    45       P1  7948  0.77
      P1  H  7997  8009       L1     6  0.07

> <Gold.Chemscore.Hbond.Weighted>
-4.1157

> <Gold.Chemscore.Metal.Weighted>
-0.0000

> <Gold.Chemscore.Lipo.Weighted>
-12.5864

> <Gold.Chemscore.Internal_Hbond.Weighted>
0.0000

> <Gold.Chemscore.DEClash.Weighted>
0.4715

> <Gold.Chemscore.DEInternal.Weighted>
2.0193

> <Gold.Chemscore.Rot.Weighted>
5.2765

> <Gold.Chemscore.Internal.Correction.Weighted>
   9.000000E+99

> <Gold.Protein.RotatedTorsions>
[ 6907 6896 6895 6894 ] final -157.31 input  -60.11 | X-H torsion
[ 7974 7965 7964 7962 ] final  -15.91 input  175.53 | X-H torsion
[ 8008 7997 7996 7995 ] final  135.44 input   59.86 | X-H torsion
[ 10167 10162 10161 10158 ] final -160.89 input  -65.29 | X-H torsion
[ 10718 10713 10712 10709 ] final  -88.74 input   66.30 | X-H torsion
[ 10763 10752 10751 10750 ] final  -52.68 input  -60.55 | X-H torsion
[ 11005 11000 10999 10996 ] final   80.98 input  -57.11 | X-H torsion

> <Gold.Protein.ActiveResidues>
 VAL166  LYS551  ARG553  GLY616  TRP617  ASP618  TYR619  PRO620  LYS621  CYS622 
 ASP623  PHE694  ASN695  SER759  ASP760  ASP761  ALA762  ILE779  LEU786  VAL792 
 PHE793  MET794  SER795  GLU796  ALA797  LYS798  CYS799  TRP800  GLU811  SER814 

> <Gold.Protein.RotatedAtoms>
  151.3010  133.4122  159.2639 H   0  0  0  0  0  0  0  0  0  0  0  0  # atno 6907 bound_to 6896
  151.0196  134.9459  159.8062 H   0  0  0  0  0  0  0  0  0  0  0  0  # atno 6908 bound_to 6896
  152.5321  134.2973  159.9118 H   0  0  0  0  0  0  0  0  0  0  0  0  # atno 6909 bound_to 6896
  146.2011  140.3561  142.8423 H   0  0  0  0  0  0  0  0  0  0  0  0  # atno 7974 bound_to 7965
  156.3003  140.2470  156.3582 H   0  0  0  0  0  0  0  0  0  0  0  0  # atno 8008 bound_to 7997
  154.8902  140.0409  157.1853 H   0  0  0  0  0  0  0  0  0  0  0  0  # atno 8009 bound_to 7997
  154.8606  140.2920  155.5545 H   0  0  0  0  0  0  0  0  0  0  0  0  # atno 8010 bound_to 7997
  139.6505  144.0092  152.2158 H   0  0  0  0  0  0  0  0  0  0  0  0  # atno 10167 bound_to 10162
  155.9983  130.4847  150.5065 H   0  0  0  0  0  0  0  0  0  0  0  0  # atno 10718 bound_to 10713
  154.1467  135.6496  153.4954 H   0  0  0  0  0  0  0  0  0  0  0  0  # atno 10763 bound_to 10752
  153.0150  135.5328  154.6850 H   0  0  0  0  0  0  0  0  0  0  0  0  # atno 10764 bound_to 10752
  154.6126  135.2955  155.0386 H   0  0  0  0  0  0  0  0  0  0  0  0  # atno 10765 bound_to 10752
  139.9114  134.7962  156.1981 H   0  0  0  0  0  0  0  0  0  0  0  0  # atno 11005 bound_to 11000
  144.8685  140.7240  143.6062 LP  0  0  0  0  0  0  0  0  0  0  0  0  # atno 17320 bound_to 7965
  145.3481  139.1714  143.4450 LP  0  0  0  0  0  0  0  0  0  0  0  0  # atno 17321 bound_to 7965
  139.9805  144.6431  150.7905 LP  0  0  0  0  0  0  0  0  0  0  0  0  # atno 17342 bound_to 10162
  140.7535  143.3010  151.3080 LP  0  0  0  0  0  0  0  0  0  0  0  0  # atno 17343 bound_to 10162
  157.3043  131.0651  151.2046 LP  0  0  0  0  0  0  0  0  0  0  0  0  # atno 17370 bound_to 10713
  157.3014  130.6844  149.6166 LP  0  0  0  0  0  0  0  0  0  0  0  0  # atno 17371 bound_to 10713
  141.0542  133.6873  156.1829 LP  0  0  0  0  0  0  0  0  0  0  0  0  # atno 17394 bound_to 11000
  140.6763  134.4815  157.5588 LP  0  0  0  0  0  0  0  0  0  0  0  0  # atno 17395 bound_to 11000

$$$$
