AV-unprocessed.smi:3287|AV-procd|sdf|12598|dock6
  -GOLD-   2272018523D 1   1.00000     0.00000
 Structure written by MMmdl.
 43 44  0  0  0  0  0  0  0  0  2 V2000
  144.0982  131.9370  150.5063 C   0  0  0  0  0  0  0  0  0  0  0  0
  144.9002  133.1688  150.9573 C   0  0  2  0  0  0  0  0  0  0  0  0
  145.8376  132.8426  152.1364 C   0  0  0  0  0  0  0  0  0  0  0  0
  146.6997  134.0542  152.5255 C   0  0  0  0  0  0  0  0  0  0  0  0
  145.8355  135.2923  152.8418 C   0  0  1  0  0  0  0  0  0  0  0  0
  146.6709  136.4769  153.1387 N   0  3  0  0  0  0  0  0  0  0  0  0
  145.9666  137.7771  153.1026 C   0  0  0  0  0  0  0  0  0  0  0  0
  146.7893  138.8391  152.3522 C   0  0  2  0  0  0  0  0  0  0  0  0
  147.5789  138.1935  151.3721 O   0  0  0  0  0  0  0  0  0  0  0  0
  147.6412  139.6553  153.3114 C   0  0  0  0  0  0  0  0  0  0  0  0
  148.6681  139.0402  154.0576 C   0  0  0  0  0  0  0  0  0  0  0  0
  149.4361  139.8359  154.9312 C   0  0  0  0  0  0  0  0  0  0  0  0
  149.2422  141.1625  155.0894 N   0  0  0  0  0  0  0  0  0  0  0  0
  148.2598  141.7474  154.3716 C   0  0  0  0  0  0  0  0  0  0  0  0
  147.4346  141.0427  153.4724 C   0  0  0  0  0  0  0  0  0  0  0  0
  144.8976  135.6050  151.6584 C   0  0  0  0  0  0  0  0  0  0  0  0
  144.0139  134.4038  151.2602 C   0  0  2  0  0  0  0  0  0  0  0  0
  142.9006  134.1454  152.2957 C   0  0  0  0  0  0  0  0  0  0  0  0
  143.4893  131.5313  151.3144 H   0  0  0  0  0  0  0  0  0  0  0  0
  144.7642  131.1414  150.1709 H   0  0  0  0  0  0  0  0  0  0  0  0
  143.4357  132.1808  149.6753 H   0  0  0  0  0  0  0  0  0  0  0  0
  145.5371  133.4400  150.1136 H   0  0  0  0  0  0  0  0  0  0  0  0
  145.2581  132.5109  152.9984 H   0  0  0  0  0  0  0  0  0  0  0  0
  146.4885  132.0086  151.8710 H   0  0  0  0  0  0  0  0  0  0  0  0
  147.3170  133.7855  153.3824 H   0  0  0  0  0  0  0  0  0  0  0  0
  147.3876  134.2837  151.7104 H   0  0  0  0  0  0  0  0  0  0  0  0
  145.2233  135.0866  153.7207 H   0  0  0  0  0  0  0  0  0  0  0  0
  147.0947  136.3597  154.0483 H   0  0  0  0  0  0  0  0  0  0  0  0
  145.0075  137.6383  152.6016 H   0  0  0  0  0  0  0  0  0  0  0  0
  145.7521  138.1186  154.1155 H   0  0  0  0  0  0  0  0  0  0  0  0
  146.1120  139.5164  151.8297 H   0  0  0  0  0  0  0  0  0  0  0  0
  148.1318  137.5589  151.8033 H   0  0  0  0  0  0  0  0  0  0  0  0
  148.8681  137.9827  153.9676 H   0  0  0  0  0  0  0  0  0  0  0  0
  150.2280  139.3945  155.5180 H   0  0  0  0  0  0  0  0  0  0  0  0
  148.1277  142.8094  154.5165 H   0  0  0  0  0  0  0  0  0  0  0  0
  146.6633  141.5606  152.9210 H   0  0  0  0  0  0  0  0  0  0  0  0
  144.2688  136.4642  151.8957 H   0  0  0  0  0  0  0  0  0  0  0  0
  145.4958  135.9021  150.7955 H   0  0  0  0  0  0  0  0  0  0  0  0
  143.5088  134.6772  150.3327 H   0  0  0  0  0  0  0  0  0  0  0  0
  143.2958  133.7989  153.2501 H   0  0  0  0  0  0  0  0  0  0  0  0
  142.1919  133.3971  151.9412 H   0  0  0  0  0  0  0  0  0  0  0  0
  142.3297  135.0542  152.4876 H   0  0  0  0  0  0  0  0  0  0  0  0
  147.4064  136.5150  152.4478 H   0  0  0  0  0  0  0  0  0  0  0  0
  1  2  1  0  0  0  0
  1 19  1  0  0  0  0
  1 20  1  0  0  0  0
  1 21  1  0  0  0  0
  2 17  1  0  0  0  0
  2  3  1  0  0  0  0
  2 22  1  0  0  0  0
  3  4  1  0  0  0  0
  3 23  1  0  0  0  0
  3 24  1  0  0  0  0
  4  5  1  0  0  0  0
  4 25  1  0  0  0  0
  4 26  1  0  0  0  0
  5  6  1  0  0  0  0
  5 16  1  0  0  0  0
  5 27  1  0  0  0  0
  6  7  1  0  0  0  0
  6 28  1  0  0  0  0
  6 43  1  0  0  0  0
  7  8  1  0  0  0  0
  7 29  1  0  0  0  0
  7 30  1  0  0  0  0
  8  9  1  0  0  0  0
  8 10  1  0  0  0  0
  8 31  1  0  0  0  0
  9 32  1  0  0  0  0
 10 15  1  0  0  0  0
 10 11  2  0  0  0  0
 11 12  1  0  0  0  0
 11 33  1  0  0  0  0
 12 13  2  0  0  0  0
 12 34  1  0  0  0  0
 13 14  1  0  0  0  0
 14 15  2  0  0  0  0
 14 35  1  0  0  0  0
 15 36  1  0  0  0  0
 16 17  1  0  0  0  0
 16 37  1  0  0  0  0
 16 38  1  0  0  0  0
 17 18  1  0  0  0  0
 17 39  1  0  0  0  0
 18 40  1  0  0  0  0
 18 41  1  0  0  0  0
 18 42  1  0  0  0  0
M  CHG  1   6   1
M  END
> <s_m_source_file>
AV-unprocessed.smi

> <i_m_source_file_index>
3287

> <i_lp_mmshare_version>
43012

> <i_f3d_flags>
0

> <s_epik_input>
W0NIM11bQ0BASF0xW0NIMl1bQ0gyXVtDQEhdKFtDSDJdW0NASF0xW0NIM10pW05IXVtDSDJdW0NASF0oW09IXSljMltjSF1bY0hdbltjSF1bY0hdMg==

> <s_epik_cmdline>
J2VwaWtfcHl0aG9uJywgJy1waCcsICc3LjAnLCAnLXRuJywgJzgnLCAnLW1hJywgJzIwMCcsICctbWV0YWxfYmluZGluZycsICctaW1hZScsICc8aW5maWxlLm1hZT4nLCAnLW9tYWUnLCAnPG91dGZpbGUubWFlPic=

> <r_lp_tautomer_probability>
1

> <r_epik_Ionization_Penalty>
0.00537262

> <r_epik_Ionization_Penalty_Charging>
0.00321624

> <r_epik_Ionization_Penalty_Neutral>
0.00215638

> <r_epik_State_Penalty>
-0

> <r_epik_Charging_Adjusted_Penalty>
0.00321624

> <i_epik_Tot_Q>
1

> <i_epik_Tot_abs_Q>
1

> <r_epik_Metal_State_Penalty>
-0

> <b_epik_Metal_Only>
0

> <s_lp_Force_Field>
OPLS_2005

> <r_lp_Energy>
18.5341

> <b_lp_Chiralities_Consistent>
1

> <s_lp_Variant>
AV-unprocessed.smi:3287-9

> <Gold.Version>
5.8.1

> <Gold.Id.Protein>
6NUR|6NUR_protein|mol2

> <Gold.PLP.Fitness>
47.7405

> <Gold.PLP.PLP>
-35.5439

> <Gold.PLP.part.hbond>
-3.6179

> <Gold.PLP.part.metal>
0.0000

> <Gold.PLP.part.buried>
-2.7810

> <Gold.PLP.part.nonpolar>
-29.8389

> <Gold.PLP.part.repulsive>
0.1238

> <Gold.PLP.ligand.clash>
0.0000

> <Gold.PLP.ligand.torsion>
0.8835

> <Gold.PLP.Chemscore.Hbond>
3.6500

> <Gold.PLP.Chemscore.CHOScore>
1.0000

> <Gold.PLP.Chemscore.Metal>
0.0000

> <Gold.Chemscore.Hbonds>
donor molecule, donor type, donor heavy atom, donor atom, acceptor molecule, acceptor atom, score
      L1  H     6    43       P1  7948  2.00
      L1  H     9    32       P1  7948  0.99
      P1  H  7954  7966       L1     9  0.70
      L1  C    14    35       P1  8028  1.00

> <Gold.PLP.Chemscore.Internal.Correction>
0.0137

> <Gold.Rescore>
     Score         DG    S(hbond)    S(metal)    S(lipo)     H(rot)  DE(clash)    DE(int)     intcor
     17.18     -18.17       1.96        0.00      94.23       1.90       0.16       0.84       ----

> <Gold.Chemscore.Fitness>
17.1777

> <Gold.Chemscore.DG>
-18.1748

> <Gold.Chemscore.ZeroCoef>
-5.4800

> <Gold.Chemscore.Hbond>
1.9589

> <Gold.Chemscore.Metal>
0.0000

> <Gold.Chemscore.Lipo>
94.2314

> <Gold.Chemscore.Internal_Hbond>
0.0000

> <Gold.Chemscore.DEClash>
0.1616

> <Gold.Chemscore.DEInternal>
0.8354

> <Gold.Chemscore.Rot>
1.9035

> <Gold.Chemscore.Internal.Correction>
   9.000000E+99

> <Gold.Chemscore.Hbonds>
donor molecule, donor type, donor heavy atom, donor atom, acceptor molecule, acceptor atom, score
      L1  H     6    43       P1  7948  0.98
      L1  H     9    32       P1  7948  0.89
      P1  H  7954  7966       L1     9  0.07

> <Gold.Chemscore.Hbond.Weighted>
-6.5426

> <Gold.Chemscore.Metal.Weighted>
-0.0000

> <Gold.Chemscore.Lipo.Weighted>
-11.0251

> <Gold.Chemscore.Internal_Hbond.Weighted>
0.0000

> <Gold.Chemscore.DEClash.Weighted>
0.1616

> <Gold.Chemscore.DEInternal.Weighted>
0.8354

> <Gold.Chemscore.Rot.Weighted>
4.8729

> <Gold.Chemscore.Internal.Correction.Weighted>
   9.000000E+99

> <Gold.Protein.RotatedTorsions>
[ 6907 6896 6895 6894 ] final  -17.32 input  -60.11 | X-H torsion
[ 7974 7965 7964 7962 ] final   79.49 input  175.53 | X-H torsion
[ 8008 7997 7996 7995 ] final  161.28 input   59.86 | X-H torsion
[ 10167 10162 10161 10158 ] final   37.67 input  -65.29 | X-H torsion
[ 10718 10713 10712 10709 ] final  168.78 input   66.30 | X-H torsion
[ 10763 10752 10751 10750 ] final -125.91 input  -60.55 | X-H torsion
[ 11005 11000 10999 10996 ] final  157.05 input  -57.11 | X-H torsion

> <Gold.Protein.ActiveResidues>
 VAL166  LYS551  ARG553  GLY616  TRP617  ASP618  TYR619  PRO620  LYS621  CYS622 
 ASP623  PHE694  ASN695  SER759  ASP760  ASP761  ALA762  ILE779  LEU786  VAL792 
 PHE793  MET794  SER795  GLU796  ALA797  LYS798  CYS799  TRP800  GLU811  SER814 

> <Gold.Protein.RotatedAtoms>
  151.2951  135.0753  159.9217 H   0  0  0  0  0  0  0  0  0  0  0  0  # atno 6907 bound_to 6896
  152.5309  133.9891  159.7853 H   0  0  0  0  0  0  0  0  0  0  0  0  # atno 6908 bound_to 6896
  151.0168  133.5862  159.2706 H   0  0  0  0  0  0  0  0  0  0  0  0  # atno 6909 bound_to 6896
  145.6635  139.2477  143.1909 H   0  0  0  0  0  0  0  0  0  0  0  0  # atno 7974 bound_to 7965
  156.2114  140.1781  156.7687 H   0  0  0  0  0  0  0  0  0  0  0  0  # atno 8008 bound_to 7997
  154.5728  140.0679  156.9019 H   0  0  0  0  0  0  0  0  0  0  0  0  # atno 8009 bound_to 7997
  155.2643  140.3338  155.4273 H   0  0  0  0  0  0  0  0  0  0  0  0  # atno 8010 bound_to 7997
  140.4010  144.1724  150.6134 H   0  0  0  0  0  0  0  0  0  0  0  0  # atno 10167 bound_to 10162
  157.0321  131.0262  151.2741 H   0  0  0  0  0  0  0  0  0  0  0  0  # atno 10718 bound_to 10713
  154.8741  135.4013  154.3345 H   0  0  0  0  0  0  0  0  0  0  0  0  # atno 10763 bound_to 10752
  153.4154  135.7022  153.6336 H   0  0  0  0  0  0  0  0  0  0  0  0  # atno 10764 bound_to 10752
  153.5021  135.3725  155.2515 H   0  0  0  0  0  0  0  0  0  0  0  0  # atno 10765 bound_to 10752
  140.1732  134.8528  157.2716 H   0  0  0  0  0  0  0  0  0  0  0  0  # atno 11005 bound_to 11000
  146.1106  140.7433  142.9505 LP  0  0  0  0  0  0  0  0  0  0  0  0  # atno 17320 bound_to 7965
  144.7081  140.3932  143.7102 LP  0  0  0  0  0  0  0  0  0  0  0  0  # atno 17321 bound_to 7965
  140.4740  143.2403  151.9049 LP  0  0  0  0  0  0  0  0  0  0  0  0  # atno 17342 bound_to 10162
  139.4785  144.5340  151.8626 LP  0  0  0  0  0  0  0  0  0  0  0  0  # atno 17343 bound_to 10162
  157.5169  130.7974  149.7766 LP  0  0  0  0  0  0  0  0  0  0  0  0  # atno 17370 bound_to 10713
  156.0066  130.3853  150.2410 LP  0  0  0  0  0  0  0  0  0  0  0  0  # atno 17371 bound_to 10713
  140.2352  134.3861  155.7504 LP  0  0  0  0  0  0  0  0  0  0  0  0  # atno 17394 bound_to 11000
  141.2219  133.7236  156.8704 LP  0  0  0  0  0  0  0  0  0  0  0  0  # atno 17395 bound_to 11000

$$$$
