AV-unprocessed.smi:1261|AV-procd|sdf|5301|dock7
  -GOLD-   22720 4423D 1   1.00000     0.00000
 Structure written by MMmdl.
 49 50  0  0  0  0  0  0  0  0  3 V2000
  146.9360  129.0037  151.2465 C   0  0  0  0  0  0  0  0  0  0  0  0
  146.0861  129.7820  152.2662 C   0  0  2  0  0  0  0  0  0  0  0  0
  145.1759  130.8365  151.6096 C   0  0  0  0  0  0  0  0  0  0  0  0
  145.9755  132.0623  151.1334 C   0  0  1  0  0  0  0  0  0  0  0  0
  145.0520  133.1364  150.5406 C   0  0  0  0  0  0  0  0  0  0  0  0
  146.8250  132.6261  152.2886 C   0  0  0  0  0  0  0  0  0  0  0  0
  147.7195  131.5880  152.8631 N   0  3  1  0  0  0  0  0  0  0  0  0
  148.6605  132.1502  153.8649 C   0  0  0  0  0  0  0  0  0  0  0  0
  149.2136  133.5237  153.4481 C   0  0  0  0  0  0  0  0  0  0  0  0
  149.7631  134.3159  154.6455 C   0  0  0  0  0  0  0  0  0  0  0  0
  150.4569  135.5243  154.2179 N   0  0  0  0  0  0  0  0  0  0  0  0
  150.3104  136.7369  154.7729 C   0  0  0  0  0  0  0  0  0  0  0  0
  149.5750  136.9579  155.7356 O   0  0  0  0  0  0  0  0  0  0  0  0
  151.1353  137.8695  154.1529 C   0  0  0  0  0  0  0  0  0  0  0  0
  150.8163  139.1704  154.7537 N   0  0  0  0  0  0  0  0  0  0  0  0
  149.5317  139.7154  154.3210 N   0  5  0  0  0  0  0  0  0  0  0  0
  149.1118  140.9046  154.8284 C   0  0  0  0  0  0  0  0  0  0  0  0
  148.0382  141.4178  154.5218 O   0  0  0  0  0  0  0  0  0  0  0  0
  149.9788  141.5900  155.7724 C   0  0  0  0  0  0  0  0  0  0  0  0
  151.1638  141.0685  156.1461 C   0  0  0  0  0  0  0  0  0  0  0  0
  151.6496  139.7918  155.6363 C   0  0  0  0  0  0  0  0  0  0  0  0
  152.7293  139.3087  155.9772 O   0  0  0  0  0  0  0  0  0  0  0  0
  146.9470  130.4229  153.3726 C   0  0  0  0  0  0  0  0  0  0  0  0
  147.6547  129.6457  150.7376 H   0  0  0  0  0  0  0  0  0  0  0  0
  146.3076  128.5400  150.4854 H   0  0  0  0  0  0  0  0  0  0  0  0
  147.4972  128.2069  151.7354 H   0  0  0  0  0  0  0  0  0  0  0  0
  145.4354  129.0479  152.7435 H   0  0  0  0  0  0  0  0  0  0  0  0
  144.6255  130.3946  150.7781 H   0  0  0  0  0  0  0  0  0  0  0  0
  144.4251  131.1570  152.3335 H   0  0  0  0  0  0  0  0  0  0  0  0
  146.6519  131.7456  150.3385 H   0  0  0  0  0  0  0  0  0  0  0  0
  144.3463  133.5086  151.2841 H   0  0  0  0  0  0  0  0  0  0  0  0
  144.4752  132.7405  149.7041 H   0  0  0  0  0  0  0  0  0  0  0  0
  145.6250  133.9871  150.1707 H   0  0  0  0  0  0  0  0  0  0  0  0
  147.4246  133.4576  151.9156 H   0  0  0  0  0  0  0  0  0  0  0  0
  146.1824  133.0269  153.0746 H   0  0  0  0  0  0  0  0  0  0  0  0
  148.1385  132.2762  154.8145 H   0  0  0  0  0  0  0  0  0  0  0  0
  149.4717  131.4447  154.0513 H   0  0  0  0  0  0  0  0  0  0  0  0
  150.0051  133.4023  152.7089 H   0  0  0  0  0  0  0  0  0  0  0  0
  148.4251  134.1018  152.9644 H   0  0  0  0  0  0  0  0  0  0  0  0
  148.9461  134.6128  155.3035 H   0  0  0  0  0  0  0  0  0  0  0  0
  150.4326  133.6948  155.2429 H   0  0  0  0  0  0  0  0  0  0  0  0
  151.0720  135.4462  153.4202 H   0  0  0  0  0  0  0  0  0  0  0  0
  152.1970  137.6455  154.2702 H   0  0  0  0  0  0  0  0  0  0  0  0
  150.9634  137.8927  153.0748 H   0  0  0  0  0  0  0  0  0  0  0  0
  149.6662  142.5395  156.1818 H   0  0  0  0  0  0  0  0  0  0  0  0
  151.7759  141.6133  156.8494 H   0  0  0  0  0  0  0  0  0  0  0  0
  146.3071  130.7528  154.1926 H   0  0  0  0  0  0  0  0  0  0  0  0
  147.6141  129.6683  153.7877 H   0  0  0  0  0  0  0  0  0  0  0  0
  148.2867  131.2526  152.0975 H   0  0  0  0  0  0  0  0  0  0  0  0
  1  2  1  0  0  0  0
  1 24  1  0  0  0  0
  1 25  1  0  0  0  0
  1 26  1  0  0  0  0
  2 23  1  0  0  0  0
  2  3  1  0  0  0  0
  2 27  1  0  0  0  0
  3  4  1  0  0  0  0
  3 28  1  0  0  0  0
  3 29  1  0  0  0  0
  4  5  1  0  0  0  0
  4  6  1  0  0  0  0
  4 30  1  0  0  0  0
  5 31  1  0  0  0  0
  5 32  1  0  0  0  0
  5 33  1  0  0  0  0
  6  7  1  0  0  0  0
  6 34  1  0  0  0  0
  6 35  1  0  0  0  0
  7  8  1  0  0  0  0
  7 23  1  0  0  0  0
  7 49  1  0  0  0  0
  8  9  1  0  0  0  0
  8 36  1  0  0  0  0
  8 37  1  0  0  0  0
  9 10  1  0  0  0  0
  9 38  1  0  0  0  0
  9 39  1  0  0  0  0
 10 11  1  0  0  0  0
 10 40  1  0  0  0  0
 10 41  1  0  0  0  0
 11 12  1  0  0  0  0
 11 42  1  0  0  0  0
 12 13  2  0  0  0  0
 12 14  1  0  0  0  0
 14 43  1  0  0  0  0
 14 44  1  0  0  0  0
 14 15  1  0  0  0  0
 15 16  1  0  0  0  0
 15 21  1  0  0  0  0
 16 17  1  0  0  0  0
 17 18  2  0  0  0  0
 17 19  1  0  0  0  0
 19 45  1  0  0  0  0
 19 20  2  0  0  0  0
 20 46  1  0  0  0  0
 20 21  1  0  0  0  0
 21 22  2  0  0  0  0
 23 47  1  0  0  0  0
 23 48  1  0  0  0  0
M  CHG  1   7   1
M  CHG  1  16  -1
M  END
> <s_m_source_file>
AV-unprocessed.smi

> <i_m_source_file_index>
1261

> <i_lp_mmshare_version>
43012

> <i_f3d_flags>
0

> <s_epik_input>
W0NIM11bQ0BASF0xW0NIMl1bQ0BASF0oW0NIM10pW0NIMl1OKFtDSDJdMSlbQ0gyXVtDSDJdW0NIMl1bTkhdQyg9TylbQ0gyXW4yW25IXWMoPU8pW2NIXVtjSF1jMj1P

> <s_epik_cmdline>
J2VwaWtfcHl0aG9uJywgJy1waCcsICc3LjAnLCAnLXRuJywgJzgnLCAnLW1hJywgJzIwMCcsICctbWV0YWxfYmluZGluZycsICctaW1hZScsICc8aW5maWxlLm1hZT4nLCAnLW9tYWUnLCAnPG91dGZpbGUubWFlPic=

> <r_lp_tautomer_probability>
1

> <r_epik_Ionization_Penalty>
0.0955723

> <r_epik_Ionization_Penalty_Charging>
0.0955723

> <r_epik_Ionization_Penalty_Neutral>
2.68632e-08

> <r_epik_State_Penalty>
0.0334406

> <r_epik_Charging_Adjusted_Penalty>
0.129013

> <i_epik_Tot_Q>
0

> <i_epik_Tot_abs_Q>
2

> <r_epik_Metal_State_Penalty>
0.0334406

> <b_epik_Metal_Only>
0

> <s_lp_Force_Field>
OPLS_2005

> <r_lp_Energy>
33.9758

> <b_lp_Chiralities_Consistent>
1

> <s_lp_Variant>
AV-unprocessed.smi:1261-1

> <Gold.Version>
5.8.1

> <Gold.Id.Protein>
6NUR|6NUR_protein|mol2

> <Gold.PLP.Fitness>
52.9493

> <Gold.PLP.PLP>
-45.9795

> <Gold.PLP.part.hbond>
-4.1567

> <Gold.PLP.part.metal>
0.0000

> <Gold.PLP.part.buried>
-1.0339

> <Gold.PLP.part.nonpolar>
-40.3261

> <Gold.PLP.part.repulsive>
0.6983

> <Gold.PLP.ligand.clash>
0.0000

> <Gold.PLP.ligand.torsion>
0.5533

> <Gold.PLP.Chemscore.Hbond>
2.6616

> <Gold.PLP.Chemscore.CHOScore>
0.0000

> <Gold.PLP.Chemscore.Metal>
0.0000

> <Gold.Chemscore.Hbonds>
donor molecule, donor type, donor heavy atom, donor atom, acceptor molecule, acceptor atom, score
      L1  H     7    49       P1 10747  1.00
      L1  H    11    42       P1  7949  0.69
      P1  H  7997  8008       L1    22  1.00

> <Gold.PLP.Chemscore.Internal.Correction>
0.0915

> <Gold.Rescore>
     Score         DG    S(hbond)    S(metal)    S(lipo)     H(rot)  DE(clash)    DE(int)     intcor
     14.72     -17.89       2.19        0.00      98.14       2.49       1.79       1.37       ----

> <Gold.Chemscore.Fitness>
14.7224

> <Gold.Chemscore.DG>
-17.8906

> <Gold.Chemscore.ZeroCoef>
-5.4800

> <Gold.Chemscore.Hbond>
2.1894

> <Gold.Chemscore.Metal>
0.0000

> <Gold.Chemscore.Lipo>
98.1374

> <Gold.Chemscore.Internal_Hbond>
0.0000

> <Gold.Chemscore.DEClash>
1.7932

> <Gold.Chemscore.DEInternal>
1.3749

> <Gold.Chemscore.Rot>
2.4938

> <Gold.Chemscore.Internal.Correction>
   9.000000E+99

> <Gold.Chemscore.Hbonds>
donor molecule, donor type, donor heavy atom, donor atom, acceptor molecule, acceptor atom, score
      L1  H     7    49       P1 10747  0.98
      L1  H    11    42       P1  7949  0.12
      P1  H  7997  8008       L1    22  1.00

> <Gold.Chemscore.Hbond.Weighted>
-7.3125

> <Gold.Chemscore.Metal.Weighted>
-0.0000

> <Gold.Chemscore.Lipo.Weighted>
-11.4821

> <Gold.Chemscore.Internal_Hbond.Weighted>
0.0000

> <Gold.Chemscore.DEClash.Weighted>
1.7932

> <Gold.Chemscore.DEInternal.Weighted>
1.3749

> <Gold.Chemscore.Rot.Weighted>
6.3840

> <Gold.Chemscore.Internal.Correction.Weighted>
   9.000000E+99

> <Gold.Protein.RotatedTorsions>
[ 6907 6896 6895 6894 ] final  171.59 input  -60.11 | X-H torsion
[ 7974 7965 7964 7962 ] final  172.62 input  175.53 | X-H torsion
[ 8008 7997 7996 7995 ] final  -40.41 input   59.86 | X-H torsion
[ 10167 10162 10161 10158 ] final  -90.63 input  -65.29 | X-H torsion
[ 10718 10713 10712 10709 ] final  161.85 input   66.30 | X-H torsion
[ 10763 10752 10751 10750 ] final   97.69 input  -60.55 | X-H torsion
[ 11005 11000 10999 10996 ] final    7.09 input  -57.11 | X-H torsion

> <Gold.Protein.ActiveResidues>
 VAL166  LYS551  ARG553  GLY616  TRP617  ASP618  TYR619  PRO620  LYS621  CYS622 
 ASP623  PHE694  ASN695  SER759  ASP760  ASP761  ALA762  ILE779  LEU786  VAL792 
 PHE793  MET794  SER795  GLU796  ALA797  LYS798  CYS799  TRP800  GLU811  SER814 

> <Gold.Protein.RotatedAtoms>
  151.7978  133.3366  159.3517 H   0  0  0  0  0  0  0  0  0  0  0  0  # atno 6907 bound_to 6896
  150.7369  134.5782  159.5934 H   0  0  0  0  0  0  0  0  0  0  0  0  # atno 6908 bound_to 6896
  152.3164  134.7435  160.0375 H   0  0  0  0  0  0  0  0  0  0  0  0  # atno 6909 bound_to 6896
  144.7263  139.9526  143.6432 H   0  0  0  0  0  0  0  0  0  0  0  0  # atno 7974 bound_to 7965
  154.4012  140.1526  156.3023 H   0  0  0  0  0  0  0  0  0  0  0  0  # atno 8008 bound_to 7997
  155.8689  140.3450  155.5786 H   0  0  0  0  0  0  0  0  0  0  0  0  # atno 8009 bound_to 7997
  155.7796  140.0841  157.2056 H   0  0  0  0  0  0  0  0  0  0  0  0  # atno 8010 bound_to 7997
  140.3529  143.2881  151.9704 H   0  0  0  0  0  0  0  0  0  0  0  0  # atno 10167 bound_to 10162
  157.1308  131.0516  151.2372 H   0  0  0  0  0  0  0  0  0  0  0  0  # atno 10718 bound_to 10713
  153.2800  135.4174  155.1069 H   0  0  0  0  0  0  0  0  0  0  0  0  # atno 10763 bound_to 10752
  154.8486  135.3493  154.6125 H   0  0  0  0  0  0  0  0  0  0  0  0  # atno 10764 bound_to 10752
  153.6546  135.7051  153.5255 H   0  0  0  0  0  0  0  0  0  0  0  0  # atno 10765 bound_to 10752
  140.5522  134.0272  155.7941 H   0  0  0  0  0  0  0  0  0  0  0  0  # atno 11005 bound_to 11000
  146.0699  139.3689  143.0529 LP  0  0  0  0  0  0  0  0  0  0  0  0  # atno 17320 bound_to 7965
  145.7981  140.9783  143.1013 LP  0  0  0  0  0  0  0  0  0  0  0  0  # atno 17321 bound_to 7965
  139.4824  144.6060  151.7521 LP  0  0  0  0  0  0  0  0  0  0  0  0  # atno 17342 bound_to 10162
  140.5201  144.0892  150.6020 LP  0  0  0  0  0  0  0  0  0  0  0  0  # atno 17343 bound_to 10162
  157.4394  130.7535  149.7056 LP  0  0  0  0  0  0  0  0  0  0  0  0  # atno 17370 bound_to 10713
  155.9808  130.4025  150.3506 LP  0  0  0  0  0  0  0  0  0  0  0  0  # atno 17371 bound_to 10713
  141.1165  133.9532  157.2813 LP  0  0  0  0  0  0  0  0  0  0  0  0  # atno 17394 bound_to 11000
  139.9449  135.0185  156.8823 LP  0  0  0  0  0  0  0  0  0  0  0  0  # atno 17395 bound_to 11000

$$$$
