AV-unprocessed.smi:1597|AV-procd|sdf|6420|dock4
  -GOLD-   22720 7 53D 1   1.00000     0.00000
 Structure written by MMmdl.
 53 54  0  0  0  0  0  0  0  0  2 V2000
  150.9693  138.3310  149.4898 C   0  0  0  0  0  0  0  0  0  0  0  0
  150.1110  137.1597  149.1665 N   0  3  0  0  0  0  0  0  0  0  0  0
  148.9425  137.5988  148.3531 C   0  0  0  0  0  0  0  0  0  0  0  0
  150.8375  135.9242  148.6784 C   0  0  0  0  0  0  0  0  0  0  0  0
  152.0060  135.6233  149.6762 C   0  0  0  0  0  0  0  0  0  0  0  0
  151.5748  135.5881  151.0720 N   0  0  0  0  0  0  0  0  0  0  0  0
  152.3511  135.4582  152.1600 C   0  0  0  0  0  0  0  0  0  0  0  0
  153.5755  135.3642  152.0997 O   0  0  0  0  0  0  0  0  0  0  0  0
  151.6579  135.3982  153.5322 C   0  0  0  0  0  0  0  0  0  0  0  0
  152.0220  136.4933  154.4457 N   0  0  0  0  0  0  0  0  0  0  0  0
  151.2139  137.6136  154.5201 C   0  0  0  0  0  0  0  0  0  0  0  0
  151.4848  138.6771  155.3074 C   0  0  0  0  0  0  0  0  0  0  0  0
  152.6781  138.7019  156.1432 C   0  0  0  0  0  0  0  0  0  0  0  0
  152.9694  139.6440  156.8812 O   0  0  0  0  0  0  0  0  0  0  0  0
  153.4893  137.5484  156.0465 N   0  0  0  0  0  0  0  0  0  0  0  0
  154.6843  137.5312  156.8643 C   0  0  0  0  0  0  0  0  0  0  0  0
  153.1976  136.4334  155.2266 C   0  0  0  0  0  0  0  0  0  0  0  0
  153.9293  135.4429  155.1708 O   0  0  0  0  0  0  0  0  0  0  0  0
  149.8467  134.7105  148.6724 C   0  0  0  0  0  0  0  0  0  0  0  0
  149.9343  133.6597  147.5486 C   0  0  0  0  0  0  0  0  0  0  0  0
  151.3228  133.0777  147.2572 C   0  0  0  0  0  0  0  0  0  0  0  0
  152.0954  133.9059  146.2240 C   0  0  0  0  0  0  0  0  0  0  0  0
  152.5577  135.2793  146.7224 C   0  0  0  0  0  0  0  0  0  0  0  0
  151.4399  136.2084  147.2544 C   0  0  0  0  0  0  0  0  0  0  0  0
  151.5680  138.6403  148.6330 H   0  0  0  0  0  0  0  0  0  0  0  0
  151.6382  138.1366  150.3271 H   0  0  0  0  0  0  0  0  0  0  0  0
  150.3584  139.1831  149.7896 H   0  0  0  0  0  0  0  0  0  0  0  0
  149.2470  138.0569  147.4124 H   0  0  0  0  0  0  0  0  0  0  0  0
  148.3735  138.3481  148.9043 H   0  0  0  0  0  0  0  0  0  0  0  0
  148.2434  136.7987  148.1245 H   0  0  0  0  0  0  0  0  0  0  0  0
  152.5456  134.7105  149.4297 H   0  0  0  0  0  0  0  0  0  0  0  0
  152.7748  136.3894  149.6064 H   0  0  0  0  0  0  0  0  0  0  0  0
  150.5798  135.6658  151.2288 H   0  0  0  0  0  0  0  0  0  0  0  0
  150.5794  135.4097  153.3676 H   0  0  0  0  0  0  0  0  0  0  0  0
  151.8681  134.4304  153.9900 H   0  0  0  0  0  0  0  0  0  0  0  0
  150.3197  137.6442  153.9144 H   0  0  0  0  0  0  0  0  0  0  0  0
  150.8107  139.5211  155.3184 H   0  0  0  0  0  0  0  0  0  0  0  0
  155.3102  136.6696  156.6350 H   0  0  0  0  0  0  0  0  0  0  0  0
  154.3578  137.4974  157.9050 H   0  0  0  0  0  0  0  0  0  0  0  0
  155.2426  138.4448  156.6516 H   0  0  0  0  0  0  0  0  0  0  0  0
  149.9046  134.1957  149.6323 H   0  0  0  0  0  0  0  0  0  0  0  0
  148.8194  135.0685  148.6208 H   0  0  0  0  0  0  0  0  0  0  0  0
  149.2745  132.8368  147.8260 H   0  0  0  0  0  0  0  0  0  0  0  0
  149.5044  134.0638  146.6313 H   0  0  0  0  0  0  0  0  0  0  0  0
  151.8969  132.9316  148.1713 H   0  0  0  0  0  0  0  0  0  0  0  0
  151.1864  132.0805  146.8372 H   0  0  0  0  0  0  0  0  0  0  0  0
  152.9732  133.3416  145.9073 H   0  0  0  0  0  0  0  0  0  0  0  0
  151.4874  134.0299  145.3271 H   0  0  0  0  0  0  0  0  0  0  0  0
  153.3667  135.1604  147.4406 H   0  0  0  0  0  0  0  0  0  0  0  0
  153.0265  135.7826  145.8759 H   0  0  0  0  0  0  0  0  0  0  0  0
  150.6465  136.2496  146.5071 H   0  0  0  0  0  0  0  0  0  0  0  0
  151.8751  137.2091  147.2657 H   0  0  0  0  0  0  0  0  0  0  0  0
  149.7141  136.8813  150.0529 H   0  0  0  0  0  0  0  0  0  0  0  0
  1  2  1  0  0  0  0
  1 25  1  0  0  0  0
  1 26  1  0  0  0  0
  1 27  1  0  0  0  0
  2  3  1  0  0  0  0
  2  4  1  0  0  0  0
  2 53  1  0  0  0  0
  3 28  1  0  0  0  0
  3 29  1  0  0  0  0
  3 30  1  0  0  0  0
  4 24  1  0  0  0  0
  4  5  1  0  0  0  0
  4 19  1  0  0  0  0
  5  6  1  0  0  0  0
  5 31  1  0  0  0  0
  5 32  1  0  0  0  0
  6  7  1  0  0  0  0
  6 33  1  0  0  0  0
  7  8  2  0  0  0  0
  7  9  1  0  0  0  0
  9 10  1  0  0  0  0
  9 34  1  0  0  0  0
  9 35  1  0  0  0  0
 10 17  1  0  0  0  0
 10 11  1  0  0  0  0
 11 12  2  0  0  0  0
 11 36  1  0  0  0  0
 12 13  1  0  0  0  0
 12 37  1  0  0  0  0
 13 14  2  0  0  0  0
 13 15  1  0  0  0  0
 15 16  1  0  0  0  0
 15 17  1  0  0  0  0
 16 38  1  0  0  0  0
 16 39  1  0  0  0  0
 16 40  1  0  0  0  0
 17 18  2  0  0  0  0
 19 20  1  0  0  0  0
 19 41  1  0  0  0  0
 19 42  1  0  0  0  0
 20 21  1  0  0  0  0
 20 43  1  0  0  0  0
 20 44  1  0  0  0  0
 21 22  1  0  0  0  0
 21 45  1  0  0  0  0
 21 46  1  0  0  0  0
 22 23  1  0  0  0  0
 22 47  1  0  0  0  0
 22 48  1  0  0  0  0
 23 24  1  0  0  0  0
 23 49  1  0  0  0  0
 23 50  1  0  0  0  0
 24 51  1  0  0  0  0
 24 52  1  0  0  0  0
M  CHG  1   2   1
M  END
> <s_m_source_file>
AV-unprocessed.smi

> <i_m_source_file_index>
1597

> <i_lp_mmshare_version>
43012

> <i_f3d_flags>
0

> <s_epik_input>
W0NIMl0xW0NIMl1bQ0gyXVtDSDJdW0NIMl1bQ0gyXUMxKE4oW0NIM10pW0NIM10pW0NIMl1bTkhdQyg9TylbQ0gyXW4yW2NIXVtjSF1jKD1PKW4oW0NIM10pYzI9Tw==

> <s_epik_cmdline>
J2VwaWtfcHl0aG9uJywgJy1waCcsICc3LjAnLCAnLXRuJywgJzgnLCAnLW1hJywgJzIwMCcsICctbWV0YWxfYmluZGluZycsICctaW1hZScsICc8aW5maWxlLm1hZT4nLCAnLW9tYWUnLCAnPG91dGZpbGUubWFlPic=

> <r_lp_tautomer_probability>
1

> <r_epik_Ionization_Penalty>
0.00225783

> <r_epik_Ionization_Penalty_Charging>
0.00225776

> <r_epik_Ionization_Penalty_Neutral>
7.38919e-08

> <r_epik_State_Penalty>
0.00155497

> <r_epik_Charging_Adjusted_Penalty>
0.00381272

> <i_epik_Tot_Q>
1

> <i_epik_Tot_abs_Q>
1

> <r_epik_Metal_State_Penalty>
-0

> <b_epik_Metal_Only>
0

> <s_lp_Force_Field>
OPLS_2005

> <r_lp_Energy>
50.4542

> <b_lp_Chiralities_Consistent>
1

> <s_lp_Variant>
AV-unprocessed.smi:1597-1

> <Gold.Version>
5.8.1

> <Gold.Id.Protein>
6NUR|6NUR_protein|mol2

> <Gold.PLP.Fitness>
-570.0576

> <Gold.PLP.PLP>
573.8979

> <Gold.PLP.part.hbond>
27.0841

> <Gold.PLP.part.metal>
0.0000

> <Gold.PLP.part.buried>
245.2314

> <Gold.PLP.part.nonpolar>
282.4095

> <Gold.PLP.part.repulsive>
14.7630

> <Gold.PLP.ligand.clash>
0.0000

> <Gold.PLP.ligand.torsion>
0.5015

> <Gold.PLP.Chemscore.Hbond>
1.2388

> <Gold.PLP.Chemscore.CHOScore>
0.3303

> <Gold.PLP.Chemscore.Metal>
0.0000

> <Gold.Chemscore.Hbonds>
donor molecule, donor type, donor heavy atom, donor atom, acceptor molecule, acceptor atom, score
      P1  H  7997  8010       L1    14  0.94
      P1  H 10752 10763       L1     8  0.30
      L1  C    11    36       P1  7948  0.33

> <Gold.PLP.Chemscore.Internal.Correction>
0.1360

> <Gold.Rescore>
     Score         DG    S(hbond)    S(metal)    S(lipo)     H(rot)  DE(clash)    DE(int)     intcor
      1.50     -15.12       0.00        0.00     126.64       2.02      12.47       1.14       ----

> <Gold.Chemscore.Fitness>
1.5032

> <Gold.Chemscore.DG>
-15.1171

> <Gold.Chemscore.ZeroCoef>
-5.4800

> <Gold.Chemscore.Hbond>
0.0000

> <Gold.Chemscore.Metal>
0.0000

> <Gold.Chemscore.Lipo>
126.6444

> <Gold.Chemscore.Internal_Hbond>
0.0000

> <Gold.Chemscore.DEClash>
12.4701

> <Gold.Chemscore.DEInternal>
1.1438

> <Gold.Chemscore.Rot>
2.0236

> <Gold.Chemscore.Internal.Correction>
   9.000000E+99

> <Gold.Chemscore.Hbonds>
donor molecule, donor type, donor heavy atom, donor atom, acceptor molecule, acceptor atom, score
      P1  H  7997  8010       L1    14  0.54
      P1  H 10752 10763       L1     8  0.03

> <Gold.Chemscore.Hbond.Weighted>
-0.0000

> <Gold.Chemscore.Metal.Weighted>
-0.0000

> <Gold.Chemscore.Lipo.Weighted>
-14.8174

> <Gold.Chemscore.Internal_Hbond.Weighted>
0.0000

> <Gold.Chemscore.DEClash.Weighted>
12.4701

> <Gold.Chemscore.DEInternal.Weighted>
1.1438

> <Gold.Chemscore.Rot.Weighted>
5.1803

> <Gold.Chemscore.Internal.Correction.Weighted>
   9.000000E+99

> <Gold.Protein.RotatedTorsions>
[ 6907 6896 6895 6894 ] final  -61.52 input  -60.11 | X-H torsion
[ 7974 7965 7964 7962 ] final  -10.10 input  175.53 | X-H torsion
[ 8008 7997 7996 7995 ] final   71.11 input   59.86 | X-H torsion
[ 10167 10162 10161 10158 ] final  138.62 input  -65.29 | X-H torsion
[ 10718 10713 10712 10709 ] final   94.42 input   66.30 | X-H torsion
[ 10763 10752 10751 10750 ] final  -29.62 input  -60.55 | X-H torsion
[ 11005 11000 10999 10996 ] final  -90.86 input  -57.11 | X-H torsion

> <Gold.Protein.ActiveResidues>
 VAL166  LYS551  ARG553  GLY616  TRP617  ASP618  TYR619  PRO620  LYS621  CYS622 
 ASP623  PHE694  ASN695  SER759  ASP760  ASP761  ALA762  ILE779  LEU786  VAL792 
 PHE793  MET794  SER795  GLU796  ALA797  LYS798  CYS799  TRP800  GLU811  SER814 

> <Gold.Protein.RotatedAtoms>
  150.7779  134.6694  159.6382 H   0  0  0  0  0  0  0  0  0  0  0  0  # atno 6907 bound_to 6896
  152.3854  134.6522  160.0136 H   0  0  0  0  0  0  0  0  0  0  0  0  # atno 6908 bound_to 6896
  151.6838  133.3275  159.3262 H   0  0  0  0  0  0  0  0  0  0  0  0  # atno 6909 bound_to 6896
  146.2231  140.2714  142.8357 H   0  0  0  0  0  0  0  0  0  0  0  0  # atno 7974 bound_to 7965
  155.7489  140.3489  155.5141 H   0  0  0  0  0  0  0  0  0  0  0  0  # atno 8008 bound_to 7997
  155.9023  140.1036  157.1362 H   0  0  0  0  0  0  0  0  0  0  0  0  # atno 8009 bound_to 7997
  154.4045  140.1284  156.4439 H   0  0  0  0  0  0  0  0  0  0  0  0  # atno 8010 bound_to 7997
  139.5105  144.6343  151.5737 H   0  0  0  0  0  0  0  0  0  0  0  0  # atno 10167 bound_to 10162
  157.6948  131.0512  150.4184 H   0  0  0  0  0  0  0  0  0  0  0  0  # atno 10718 bound_to 10713
  153.7676  135.6915  153.4913 H   0  0  0  0  0  0  0  0  0  0  0  0  # atno 10763 bound_to 10752
  153.1896  135.4476  155.0131 H   0  0  0  0  0  0  0  0  0  0  0  0  # atno 10764 bound_to 10752
  154.8130  135.3386  154.7187 H   0  0  0  0  0  0  0  0  0  0  0  0  # atno 10765 bound_to 10752
  141.1557  133.7719  156.9797 H   0  0  0  0  0  0  0  0  0  0  0  0  # atno 11005 bound_to 11000
  144.9265  140.7927  143.5716 LP  0  0  0  0  0  0  0  0  0  0  0  0  # atno 17320 bound_to 7965
  145.2654  139.1975  143.4870 LP  0  0  0  0  0  0  0  0  0  0  0  0  # atno 17321 bound_to 7965
  140.6086  143.9477  150.6437 LP  0  0  0  0  0  0  0  0  0  0  0  0  # atno 17342 bound_to 10162
  140.2713  143.3454  152.1235 LP  0  0  0  0  0  0  0  0  0  0  0  0  # atno 17343 bound_to 10162
  156.4561  130.4022  149.6605 LP  0  0  0  0  0  0  0  0  0  0  0  0  # atno 17370 bound_to 10713
  156.3737  130.7543  151.2529 LP  0  0  0  0  0  0  0  0  0  0  0  0  # atno 17371 bound_to 10713
  140.1074  134.9498  157.2014 LP  0  0  0  0  0  0  0  0  0  0  0  0  # atno 17394 bound_to 11000
  140.3238  134.2886  155.7241 LP  0  0  0  0  0  0  0  0  0  0  0  0  # atno 17395 bound_to 11000

$$$$
