AV-unprocessed.smi:36|AV-procd|sdf|294|dock3
  -GOLD-   2262016 83D 1   1.00000     0.00000
 Structure written by MMmdl.
 64 67  0  0  0  0  0  0  0  0  1 V2000
  138.2751  147.4031  153.5716 C   0  0  0  0  0  0  0  0  0  0  0  0
  139.6954  147.8703  153.2124 C   0  0  0  0  0  0  0  0  0  0  0  0
  140.1218  147.2617  151.8662 C   0  0  0  0  0  0  0  0  0  0  0  0
  139.7361  149.4060  153.1221 C   0  0  0  0  0  0  0  0  0  0  0  0
  140.9137  147.3021  154.5701 Si  0  0  0  0  0  0  0  0  0  0  0  0
  142.6763  147.9004  154.1760 C   0  0  0  0  0  0  0  0  0  0  0  0
  140.3936  147.9514  156.2774 C   0  0  0  0  0  0  0  0  0  0  0  0
  140.8594  145.6088  154.6205 O   0  0  0  0  0  0  0  0  0  0  0  0
  141.1857  144.7532  153.5437 C   0  0  0  0  0  0  0  0  0  0  0  0
  142.0409  143.5999  154.0832 C   0  0  1  0  0  0  0  0  0  0  0  0
  142.5874  143.9513  155.3522 O   0  0  0  0  0  0  0  0  0  0  0  0
  142.6586  142.8303  156.1786 C   0  0  2  0  0  0  0  0  0  0  0  0
  144.0701  142.6656  156.6430 N   0  0  0  0  0  0  0  0  0  0  0  0
  144.4708  142.5080  157.9179 C   0  0  0  0  0  0  0  0  0  0  0  0
  145.7844  142.3952  158.0945 N   0  0  0  0  0  0  0  0  0  0  0  0
  146.2749  142.4940  156.7968 C   0  0  0  0  0  0  0  0  0  0  0  0
  147.6663  142.4500  156.2967 C   0  0  0  0  0  0  0  0  0  0  0  0
  148.6147  142.2876  157.1686 N   0  0  0  0  0  0  0  0  0  0  0  0
  149.9397  142.2263  156.7561 C   0  0  0  0  0  0  0  0  0  0  0  0
  150.4068  141.7205  155.7318 O   0  0  0  0  0  0  0  0  0  0  0  0
  150.8789  142.9386  157.6758 C   0  0  0  0  0  0  0  0  0  0  0  0
  151.0289  142.5074  159.0114 C   0  0  0  0  0  0  0  0  0  0  0  0
  151.9112  143.1828  159.8773 C   0  0  0  0  0  0  0  0  0  0  0  0
  152.6470  144.2893  159.4113 C   0  0  0  0  0  0  0  0  0  0  0  0
  152.5000  144.7219  158.0793 C   0  0  0  0  0  0  0  0  0  0  0  0
  151.6163  144.0491  157.2128 C   0  0  0  0  0  0  0  0  0  0  0  0
  147.6766  142.5991  154.9040 N   0  0  0  0  0  0  0  0  0  0  0  0
  146.5485  142.7615  154.0857 C   0  0  0  0  0  0  0  0  0  0  0  0
  145.3153  142.7953  154.5140 N   0  0  0  0  0  0  0  0  0  0  0  0
  145.2462  142.6573  155.8935 C   0  0  0  0  0  0  0  0  0  0  0  0
  142.2003  141.6297  155.3532 C   0  0  0  0  0  0  0  0  0  0  0  0
  141.2736  142.3063  154.3644 C   0  0  2  0  0  0  0  0  0  0  0  0
  141.1049  141.5150  153.2067 O   0  0  0  0  0  0  0  0  0  0  0  0
  137.5535  147.7128  152.8150 H   0  0  0  0  0  0  0  0  0  0  0  0
  137.9490  147.8194  154.5251 H   0  0  0  0  0  0  0  0  0  0  0  0
  138.2227  146.3169  153.6510 H   0  0  0  0  0  0  0  0  0  0  0  0
  140.0933  146.1722  151.8951 H   0  0  0  0  0  0  0  0  0  0  0  0
  141.1376  147.5573  151.6023 H   0  0  0  0  0  0  0  0  0  0  0  0
  139.4642  147.5851  151.0587 H   0  0  0  0  0  0  0  0  0  0  0  0
  139.0654  149.7768  152.3465 H   0  0  0  0  0  0  0  0  0  0  0  0
  140.7399  149.7617  152.8867 H   0  0  0  0  0  0  0  0  0  0  0  0
  139.4378  149.8707  154.0622 H   0  0  0  0  0  0  0  0  0  0  0  0
  142.7470  148.9864  154.2276 H   0  0  0  0  0  0  0  0  0  0  0  0
  142.9886  147.6080  153.1741 H   0  0  0  0  0  0  0  0  0  0  0  0
  143.4070  147.4973  154.8767 H   0  0  0  0  0  0  0  0  0  0  0  0
  140.3712  149.0405  156.3024 H   0  0  0  0  0  0  0  0  0  0  0  0
  141.0827  147.6227  157.0550 H   0  0  0  0  0  0  0  0  0  0  0  0
  139.4010  147.5982  156.5553 H   0  0  0  0  0  0  0  0  0  0  0  0
  140.2936  144.3884  153.0338 H   0  0  0  0  0  0  0  0  0  0  0  0
  141.7551  145.3356  152.8191 H   0  0  0  0  0  0  0  0  0  0  0  0
  142.8614  143.3897  153.3952 H   0  0  0  0  0  0  0  0  0  0  0  0
  142.0665  142.9917  157.0805 H   0  0  0  0  0  0  0  0  0  0  0  0
  143.7763  142.4769  158.7445 H   0  0  0  0  0  0  0  0  0  0  0  0
  150.4673  141.6598  159.3772 H   0  0  0  0  0  0  0  0  0  0  0  0
  152.0235  142.8519  160.8991 H   0  0  0  0  0  0  0  0  0  0  0  0
  153.3239  144.8058  160.0757 H   0  0  0  0  0  0  0  0  0  0  0  0
  153.0639  145.5709  157.7221 H   0  0  0  0  0  0  0  0  0  0  0  0
  151.5084  144.3883  156.1926 H   0  0  0  0  0  0  0  0  0  0  0  0
  146.7804  142.8620  153.0244 H   0  0  0  0  0  0  0  0  0  0  0  0
  143.0555  141.1794  154.8456 H   0  0  0  0  0  0  0  0  0  0  0  0
  141.7152  140.8787  155.9772 H   0  0  0  0  0  0  0  0  0  0  0  0
  140.3084  142.5169  154.8278 H   0  0  0  0  0  0  0  0  0  0  0  0
  141.9486  141.1744  152.9509 H   0  0  0  0  0  0  0  0  0  0  0  0
  148.5784  142.5886  154.4492 H   0  0  0  0  0  0  0  0  0  0  0  0
  1  2  1  0  0  0  0
  1 34  1  0  0  0  0
  1 35  1  0  0  0  0
  1 36  1  0  0  0  0
  2  3  1  0  0  0  0
  2  4  1  0  0  0  0
  2  5  1  0  0  0  0
  3 37  1  0  0  0  0
  3 38  1  0  0  0  0
  3 39  1  0  0  0  0
  4 40  1  0  0  0  0
  4 41  1  0  0  0  0
  4 42  1  0  0  0  0
  5  6  1  0  0  0  0
  5  7  1  0  0  0  0
  5  8  1  0  0  0  0
  6 43  1  0  0  0  0
  6 44  1  0  0  0  0
  6 45  1  0  0  0  0
  7 46  1  0  0  0  0
  7 47  1  0  0  0  0
  7 48  1  0  0  0  0
  8  9  1  0  0  0  0
  9 10  1  0  0  0  0
  9 49  1  0  0  0  0
  9 50  1  0  0  0  0
 10 32  1  0  0  0  0
 10 11  1  0  0  0  0
 10 51  1  0  0  0  0
 11 12  1  0  0  0  0
 12 13  1  0  0  0  0
 12 31  1  0  0  0  0
 12 52  1  0  0  0  0
 13 30  1  0  0  0  0
 13 14  1  0  0  0  0
 14 15  2  0  0  0  0
 14 53  1  0  0  0  0
 15 16  1  0  0  0  0
 16 30  2  0  0  0  0
 16 17  1  0  0  0  0
 17 18  2  0  0  0  0
 17 27  1  0  0  0  0
 18 19  1  0  0  0  0
 19 20  2  0  0  0  0
 19 21  1  0  0  0  0
 21 26  1  0  0  0  0
 21 22  2  0  0  0  0
 22 23  1  0  0  0  0
 22 54  1  0  0  0  0
 23 24  2  0  0  0  0
 23 55  1  0  0  0  0
 24 25  1  0  0  0  0
 24 56  1  0  0  0  0
 25 26  2  0  0  0  0
 25 57  1  0  0  0  0
 26 58  1  0  0  0  0
 27 28  1  0  0  0  0
 27 64  1  0  0  0  0
 28 29  2  0  0  0  0
 28 59  1  0  0  0  0
 29 30  1  0  0  0  0
 31 32  1  0  0  0  0
 31 60  1  0  0  0  0
 31 61  1  0  0  0  0
 32 33  1  0  0  0  0
 32 62  1  0  0  0  0
 33 63  1  0  0  0  0
M  END
> <s_m_source_file>
AV-unprocessed.smi

> <i_m_source_file_index>
36

> <i_lp_mmshare_version>
43012

> <i_f3d_flags>
0

> <s_epik_input>
W0NIM11DKFtDSDNdKShbQ0gzXSlbU2ldKFtDSDNdKShbQ0gzXSlPW0NIMl1bQ0BASF0xT1tDQEhdKFtDSDJdW0NASF0xW09IXSluKFtjSF1uMiljKGMyMyluW2NIXW5jM1tOSF1DKD1PKWM0W2NIXVtjSF1bY0hdW2NIXVtjSF00

> <s_epik_cmdline>
J2VwaWtfcHl0aG9uJywgJy1waCcsICc3LjAnLCAnLXRuJywgJzgnLCAnLW1hJywgJzIwMCcsICctbWV0YWxfYmluZGluZycsICctaW1hZScsICc8aW5maWxlLm1hZT4nLCAnLW9tYWUnLCAnPG91dGZpbGUubWFlPic=

> <r_epik_Ionization_Penalty>
0.0850405

> <r_epik_Ionization_Penalty_Charging>
0.0850403

> <r_epik_Ionization_Penalty_Neutral>
1.47497e-07

> <r_epik_State_Penalty>
2.6133

> <r_epik_Charging_Adjusted_Penalty>
2.69834

> <i_epik_Tot_Q>
0

> <i_epik_Tot_abs_Q>
0

> <r_epik_Metal_State_Penalty>
2.92945

> <b_epik_Metal_Only>
0

> <s_epik_Chemistry_Notes>
This compound contains an acetal/aminal-like group ( X-CH(R)-Y where X, Y are N, S, or O) that may be acid/base labile, releasing an aldehyde.

> <s_lp_Force_Field>
OPLS_2005

> <r_lp_Energy>
45.0835

> <b_lp_Chiralities_Consistent>
1

> <s_lp_Variant>
AV-unprocessed.smi:36-16

> <Gold.Version>
5.8.1

> <Gold.Id.Protein>
6NUR|6NUR_protein|mol2

> <Gold.PLP.Fitness>
45.9454

> <Gold.PLP.PLP>
-47.2060

> <Gold.PLP.part.hbond>
-4.9649

> <Gold.PLP.part.metal>
0.0000

> <Gold.PLP.part.buried>
-3.5465

> <Gold.PLP.part.nonpolar>
-40.2576

> <Gold.PLP.part.repulsive>
0.5279

> <Gold.PLP.ligand.clash>
0.0000

> <Gold.PLP.ligand.torsion>
2.4506

> <Gold.PLP.Chemscore.Hbond>
1.1128

> <Gold.PLP.Chemscore.CHOScore>
0.0000

> <Gold.PLP.Chemscore.Metal>
0.0000

> <Gold.PLP.Chemscore.Internal.Correction>
0.3022

> <Gold.Rescore>
     Score         DG    S(hbond)    S(metal)    S(lipo)     H(rot)  DE(clash)    DE(int)     intcor
     12.35     -15.42       1.26        0.00     108.19       2.70       0.09       2.97       ----

> <Gold.Chemscore.Fitness>
12.3519

> <Gold.Chemscore.DG>
-15.4193

> <Gold.Chemscore.ZeroCoef>
-5.4800

> <Gold.Chemscore.Hbond>
1.2585

> <Gold.Chemscore.Metal>
0.0000

> <Gold.Chemscore.Lipo>
108.1911

> <Gold.Chemscore.Internal_Hbond>
0.0000

> <Gold.Chemscore.DEClash>
0.0944

> <Gold.Chemscore.DEInternal>
2.9729

> <Gold.Chemscore.Rot>
2.7041

> <Gold.Chemscore.Internal.Correction>
   9.000000E+99

> <Gold.Chemscore.Hbond.Weighted>
-4.2034

> <Gold.Chemscore.Metal.Weighted>
-0.0000

> <Gold.Chemscore.Lipo.Weighted>
-12.6584

> <Gold.Chemscore.Internal_Hbond.Weighted>
0.0000

> <Gold.Chemscore.DEClash.Weighted>
0.0944

> <Gold.Chemscore.DEInternal.Weighted>
2.9729

> <Gold.Chemscore.Rot.Weighted>
6.9225

> <Gold.Chemscore.Internal.Correction.Weighted>
   9.000000E+99

> <Gold.Protein.RotatedTorsions>
[ 6907 6896 6895 6894 ] final  -53.00 input  -60.11 | X-H torsion
[ 7974 7965 7964 7962 ] final   19.77 input  175.53 | X-H torsion
[ 8008 7997 7996 7995 ] final  -63.00 input   59.86 | X-H torsion
[ 10167 10162 10161 10158 ] final    6.29 input  -65.29 | X-H torsion
[ 10718 10713 10712 10709 ] final   88.26 input   66.30 | X-H torsion
[ 10763 10752 10751 10750 ] final    2.73 input  -60.55 | X-H torsion
[ 11005 11000 10999 10996 ] final  -90.10 input  -57.11 | X-H torsion

> <Gold.Protein.ActiveResidues>
 VAL166  LYS551  ARG553  GLY616  TRP617  ASP618  TYR619  PRO620  LYS621  CYS622 
 ASP623  PHE694  ASN695  SER759  ASP760  ASP761  ALA762  ILE779  LEU786  VAL792 
 PHE793  MET794  SER795  GLU796  ALA797  LYS798  CYS799  TRP800  GLU811  SER814 

> <Gold.Protein.RotatedAtoms>
  150.8466  134.7777  159.6974 H   0  0  0  0  0  0  0  0  0  0  0  0  # atno 6907 bound_to 6896
  152.4541  134.5326  159.9825 H   0  0  0  0  0  0  0  0  0  0  0  0  # atno 6908 bound_to 6896
  151.5455  133.3388  159.2979 H   0  0  0  0  0  0  0  0  0  0  0  0  # atno 6909 bound_to 6896
  146.2137  139.8266  142.8669 H   0  0  0  0  0  0  0  0  0  0  0  0  # atno 7974 bound_to 7965
  154.4530  140.0984  156.6674 H   0  0  0  0  0  0  0  0  0  0  0  0  # atno 8008 bound_to 7997
  155.5226  140.3479  155.4391 H   0  0  0  0  0  0  0  0  0  0  0  0  # atno 8009 bound_to 7997
  156.0720  140.1352  156.9806 H   0  0  0  0  0  0  0  0  0  0  0  0  # atno 8010 bound_to 7997
  140.6436  143.7716  150.7464 H   0  0  0  0  0  0  0  0  0  0  0  0  # atno 10167 bound_to 10162
  157.6947  131.0288  150.3247 H   0  0  0  0  0  0  0  0  0  0  0  0  # atno 10718 bound_to 10713
  153.2920  135.6949  153.7284 H   0  0  0  0  0  0  0  0  0  0  0  0  # atno 10763 bound_to 10752
  153.6232  135.3423  155.3018 H   0  0  0  0  0  0  0  0  0  0  0  0  # atno 10764 bound_to 10752
  154.8526  135.4391  154.2005 H   0  0  0  0  0  0  0  0  0  0  0  0  # atno 10765 bound_to 10752
  141.1572  133.7671  156.9689 H   0  0  0  0  0  0  0  0  0  0  0  0  # atno 11005 bound_to 11000
  145.3041  141.0202  143.3592 LP  0  0  0  0  0  0  0  0  0  0  0  0  # atno 17320 bound_to 7965
  144.8984  139.4682  143.6644 LP  0  0  0  0  0  0  0  0  0  0  0  0  # atno 17321 bound_to 7965
  140.1353  143.4490  152.2228 LP  0  0  0  0  0  0  0  0  0  0  0  0  # atno 17342 bound_to 10162
  139.5645  144.7427  151.4060 LP  0  0  0  0  0  0  0  0  0  0  0  0  # atno 17343 bound_to 10162
  156.3730  130.3867  149.7161 LP  0  0  0  0  0  0  0  0  0  0  0  0  # atno 17370 bound_to 10713
  156.4569  130.7933  151.2954 LP  0  0  0  0  0  0  0  0  0  0  0  0  # atno 17371 bound_to 10713
  140.1143  134.9457  157.2111 LP  0  0  0  0  0  0  0  0  0  0  0  0  # atno 17394 bound_to 11000
  140.3154  134.2977  155.7257 LP  0  0  0  0  0  0  0  0  0  0  0  0  # atno 17395 bound_to 11000

$$$$
