AV-unprocessed.smi:3170|AV-procd|sdf|12107|dock6
  -GOLD-   2272017543D 1   1.00000     0.00000
 Structure written by MMmdl.
 36 37  0  0  0  0  0  0  0  0  2 V2000
  146.1849  138.7243  154.2969 O   0  0  0  0  0  0  0  0  0  0  0  0
  147.0350  138.1380  153.6264 C   0  0  0  0  0  0  0  0  0  0  0  0
  146.7507  137.2672  152.6477 N   0  0  0  0  0  0  0  0  0  0  0  0
  145.4083  136.8564  152.2456 C   0  0  0  0  0  0  0  0  0  0  0  0
  145.4238  135.8785  151.0557 C   0  0  0  0  0  0  0  0  0  0  0  0
  144.7896  134.5935  151.3663 N   0  0  0  0  0  0  0  0  0  0  0  0
  144.6985  133.4955  150.5499 C   0  0  0  0  0  0  0  0  0  0  0  0
  144.0327  132.5325  151.2632 C   0  0  0  0  0  0  0  0  0  0  0  0
  143.7413  133.0844  152.4818 N   0  3  0  0  0  0  0  0  0  0  0  0
  144.1990  134.3391  152.5414 C   0  0  0  0  0  0  0  0  0  0  0  0
  148.3561  138.2974  153.7827 N   0  0  0  0  0  0  0  0  0  0  0  0
  148.9828  139.1717  154.7682 C   0  0  0  0  0  0  0  0  0  0  0  0
  150.4733  139.4156  154.4629 C   0  0  2  0  0  0  0  0  0  0  0  0
  151.3173  138.1582  154.4768 C   0  0  0  0  0  0  0  0  0  0  0  0
  152.7232  138.7322  154.6172 C   0  0  0  0  0  0  0  0  0  0  0  0
  152.5801  139.9019  155.4173 O   0  0  0  0  0  0  0  0  0  0  0  0
  151.2080  140.2811  155.4899 C   0  0  0  0  0  0  0  0  0  0  0  0
  147.5218  136.8374  152.1574 H   0  0  0  0  0  0  0  0  0  0  0  0
  144.9531  136.3631  153.1046 H   0  0  0  0  0  0  0  0  0  0  0  0
  144.7817  137.7236  152.0295 H   0  0  0  0  0  0  0  0  0  0  0  0
  144.9345  136.3147  150.1831 H   0  0  0  0  0  0  0  0  0  0  0  0
  146.4534  135.6648  150.7659 H   0  0  0  0  0  0  0  0  0  0  0  0
  145.1092  133.4793  149.5508 H   0  0  0  0  0  0  0  0  0  0  0  0
  143.7528  131.5223  151.0019 H   0  0  0  0  0  0  0  0  0  0  0  0
  144.1168  135.0097  153.3781 H   0  0  0  0  0  0  0  0  0  0  0  0
  148.9752  137.7717  153.1825 H   0  0  0  0  0  0  0  0  0  0  0  0
  148.4410  140.1180  154.7703 H   0  0  0  0  0  0  0  0  0  0  0  0
  148.8664  138.7487  155.7674 H   0  0  0  0  0  0  0  0  0  0  0  0
  150.5746  139.8801  153.4804 H   0  0  0  0  0  0  0  0  0  0  0  0
  151.0763  137.5434  155.3454 H   0  0  0  0  0  0  0  0  0  0  0  0
  151.1950  137.5487  153.5808 H   0  0  0  0  0  0  0  0  0  0  0  0
  153.4222  138.0248  155.0638 H   0  0  0  0  0  0  0  0  0  0  0  0
  153.1128  139.0239  153.6410 H   0  0  0  0  0  0  0  0  0  0  0  0
  151.0811  141.3472  155.2996 H   0  0  0  0  0  0  0  0  0  0  0  0
  150.8500  140.0748  156.4994 H   0  0  0  0  0  0  0  0  0  0  0  0
  143.2521  132.6120  153.2317 H   0  0  0  0  0  0  0  0  0  0  0  0
  1  2  2  0  0  0  0
  2  3  1  0  0  0  0
  2 11  1  0  0  0  0
  3  4  1  0  0  0  0
  3 18  1  0  0  0  0
  4  5  1  0  0  0  0
  4 19  1  0  0  0  0
  4 20  1  0  0  0  0
  5  6  1  0  0  0  0
  5 21  1  0  0  0  0
  5 22  1  0  0  0  0
  6 10  1  0  0  0  0
  6  7  1  0  0  0  0
  7  8  2  0  0  0  0
  7 23  1  0  0  0  0
  8  9  1  0  0  0  0
  8 24  1  0  0  0  0
  9 10  2  0  0  0  0
  9 36  1  0  0  0  0
 10 25  1  0  0  0  0
 11 12  1  0  0  0  0
 11 26  1  0  0  0  0
 12 13  1  0  0  0  0
 12 27  1  0  0  0  0
 12 28  1  0  0  0  0
 13 17  1  0  0  0  0
 13 14  1  0  0  0  0
 13 29  1  0  0  0  0
 14 15  1  0  0  0  0
 14 30  1  0  0  0  0
 14 31  1  0  0  0  0
 15 16  1  0  0  0  0
 15 32  1  0  0  0  0
 15 33  1  0  0  0  0
 16 17  1  0  0  0  0
 17 34  1  0  0  0  0
 17 35  1  0  0  0  0
M  CHG  1   9   1
M  END
> <s_m_source_file>
AV-unprocessed.smi

> <i_m_source_file_index>
3170

> <i_lp_mmshare_version>
43012

> <i_f3d_flags>
0

> <s_epik_input>
W0NIMl0xT1tDSDJdW0NIMl1bQ0BIXTFbQ0gyXVtOSF1DKD1PKVtOSF1bQ0gyXVtDSDJdbjJbY0hdW2NIXW5bY0hdMg==

> <s_epik_cmdline>
J2VwaWtfcHl0aG9uJywgJy1waCcsICc3LjAnLCAnLXRuJywgJzgnLCAnLW1hJywgJzIwMCcsICctbWV0YWxfYmluZGluZycsICctaW1hZScsICc8aW5maWxlLm1hZT4nLCAnLW9tYWUnLCAnPG91dGZpbGUubWFlPic=

> <r_lp_tautomer_probability>
1

> <r_epik_Ionization_Penalty>
0.255699

> <r_epik_Ionization_Penalty_Charging>
0

> <r_epik_Ionization_Penalty_Neutral>
0.255699

> <r_epik_State_Penalty>
0.247169

> <r_epik_Charging_Adjusted_Penalty>
0.247169

> <i_epik_Tot_Q>
1

> <i_epik_Tot_abs_Q>
1

> <r_epik_Metal_State_Penalty>
0.536793

> <b_epik_Metal_Only>
0

> <s_lp_Force_Field>
OPLS_2005

> <r_lp_Energy>
19.7141

> <b_lp_Chiralities_Consistent>
1

> <s_lp_Variant>
AV-unprocessed.smi:3170-1

> <Gold.Version>
5.8.1

> <Gold.Id.Protein>
6NUR|6NUR_protein|mol2

> <Gold.PLP.Fitness>
50.7496

> <Gold.PLP.PLP>
-33.9365

> <Gold.PLP.part.hbond>
-4.4757

> <Gold.PLP.part.metal>
0.0000

> <Gold.PLP.part.buried>
-2.3532

> <Gold.PLP.part.nonpolar>
-27.5742

> <Gold.PLP.part.repulsive>
0.1873

> <Gold.PLP.ligand.clash>
0.0000

> <Gold.PLP.ligand.torsion>
0.4814

> <Gold.PLP.Chemscore.Hbond>
4.9120

> <Gold.PLP.Chemscore.CHOScore>
1.0000

> <Gold.PLP.Chemscore.Metal>
0.0000

> <Gold.Chemscore.Hbonds>
donor molecule, donor type, donor heavy atom, donor atom, acceptor molecule, acceptor atom, score
      L1  H     3    18       P1  7948  1.00
      L1  H     9    36       P1 10957  2.00
      L1  H    11    26       P1  7948  0.85
      P1  H  7997  8008       L1    16  1.00
      L1  C     7    23       P1  7921  0.96

> <Gold.PLP.Chemscore.Internal.Correction>
0.0398

> <Gold.Rescore>
     Score         DG    S(hbond)    S(metal)    S(lipo)     H(rot)  DE(clash)    DE(int)     intcor
     18.89     -19.81       3.84        0.00      63.66       2.33       0.41       0.51       ----

> <Gold.Chemscore.Fitness>
18.8904

> <Gold.Chemscore.DG>
-19.8077

> <Gold.Chemscore.ZeroCoef>
-5.4800

> <Gold.Chemscore.Hbond>
3.8447

> <Gold.Chemscore.Metal>
0.0000

> <Gold.Chemscore.Lipo>
63.6582

> <Gold.Chemscore.Internal_Hbond>
0.0000

> <Gold.Chemscore.DEClash>
0.4076

> <Gold.Chemscore.DEInternal>
0.5097

> <Gold.Chemscore.Rot>
2.3288

> <Gold.Chemscore.Internal.Correction>
   9.000000E+99

> <Gold.Chemscore.Hbonds>
donor molecule, donor type, donor heavy atom, donor atom, acceptor molecule, acceptor atom, score
      L1  H     3    18       P1  7948  0.97
      L1  H     9    36       P1 10957  0.26
      L1  H    11    26       P1  7948  0.79
      P1  H  7997  8008       L1    16  0.48

> <Gold.Chemscore.Hbond.Weighted>
-12.8414

> <Gold.Chemscore.Metal.Weighted>
-0.0000

> <Gold.Chemscore.Lipo.Weighted>
-7.4480

> <Gold.Chemscore.Internal_Hbond.Weighted>
0.0000

> <Gold.Chemscore.DEClash.Weighted>
0.4076

> <Gold.Chemscore.DEInternal.Weighted>
0.5097

> <Gold.Chemscore.Rot.Weighted>
5.9617

> <Gold.Chemscore.Internal.Correction.Weighted>
   9.000000E+99

> <Gold.Protein.RotatedTorsions>
[ 6907 6896 6895 6894 ] final  -83.44 input  -60.11 | X-H torsion
[ 7974 7965 7964 7962 ] final   96.69 input  175.53 | X-H torsion
[ 8008 7997 7996 7995 ] final  -40.69 input   59.86 | X-H torsion
[ 10167 10162 10161 10158 ] final  131.92 input  -65.29 | X-H torsion
[ 10718 10713 10712 10709 ] final  -98.55 input   66.30 | X-H torsion
[ 10763 10752 10751 10750 ] final   14.98 input  -60.55 | X-H torsion
[ 11005 11000 10999 10996 ] final  -35.09 input  -57.11 | X-H torsion

> <Gold.Protein.ActiveResidues>
 VAL166  LYS551  ARG553  GLY616  TRP617  ASP618  TYR619  PRO620  LYS621  CYS622 
 ASP623  PHE694  ASN695  SER759  ASP760  ASP761  ALA762  ILE779  LEU786  VAL792 
 PHE793  MET794  SER795  GLU796  ALA797  LYS798  CYS799  TRP800  GLU811  SER814 

> <Gold.Protein.RotatedAtoms>
  150.6885  134.3512  159.4909 H   0  0  0  0  0  0  0  0  0  0  0  0  # atno 6907 bound_to 6896
  152.1353  134.9101  160.0566 H   0  0  0  0  0  0  0  0  0  0  0  0  # atno 6908 bound_to 6896
  152.0256  133.3881  159.4313 H   0  0  0  0  0  0  0  0  0  0  0  0  # atno 6909 bound_to 6896
  145.4355  139.2306  143.3121 H   0  0  0  0  0  0  0  0  0  0  0  0  # atno 7974 bound_to 7965
  154.4010  140.1519  156.3068 H   0  0  0  0  0  0  0  0  0  0  0  0  # atno 8008 bound_to 7997
  155.8651  140.3451  155.5761 H   0  0  0  0  0  0  0  0  0  0  0  0  # atno 8009 bound_to 7997
  155.7837  140.0847  157.2036 H   0  0  0  0  0  0  0  0  0  0  0  0  # atno 8010 bound_to 7997
  139.5362  144.6685  151.4777 H   0  0  0  0  0  0  0  0  0  0  0  0  # atno 10167 bound_to 10162
  156.0110  130.5243  150.6539 H   0  0  0  0  0  0  0  0  0  0  0  0  # atno 10718 bound_to 10713
  153.1569  135.6789  153.8798 H   0  0  0  0  0  0  0  0  0  0  0  0  # atno 10763 bound_to 10752
  153.8206  135.3130  155.3411 H   0  0  0  0  0  0  0  0  0  0  0  0  # atno 10764 bound_to 10752
  154.7904  135.4838  154.0128 H   0  0  0  0  0  0  0  0  0  0  0  0  # atno 10765 bound_to 10752
  140.9768  133.7078  156.1617 H   0  0  0  0  0  0  0  0  0  0  0  0  # atno 11005 bound_to 11000
  146.2584  140.5097  142.8863 LP  0  0  0  0  0  0  0  0  0  0  0  0  # atno 17320 bound_to 7965
  144.8155  140.6461  143.6387 LP  0  0  0  0  0  0  0  0  0  0  0  0  # atno 17321 bound_to 7965
  140.6570  143.8579  150.6846 LP  0  0  0  0  0  0  0  0  0  0  0  0  # atno 17342 bound_to 10162
  140.1961  143.3997  152.1826 LP  0  0  0  0  0  0  0  0  0  0  0  0  # atno 17343 bound_to 10162
  157.4295  131.0847  151.1053 LP  0  0  0  0  0  0  0  0  0  0  0  0  # atno 17370 bound_to 10713
  157.1630  130.6234  149.5616 LP  0  0  0  0  0  0  0  0  0  0  0  0  # atno 17371 bound_to 10713
  140.7246  134.4321  157.5572 LP  0  0  0  0  0  0  0  0  0  0  0  0  # atno 17394 bound_to 11000
  139.8934  134.8732  156.2226 LP  0  0  0  0  0  0  0  0  0  0  0  0  # atno 17395 bound_to 11000

$$$$
