#       Name:                AV-unprocessed.smi:2202
#       Creating user name   scv26
#       Creation time:       Fri Mar 27 12:14:54 2020


#       File generated by GOLD software.
#

@<TRIPOS>MOLECULE
AV-unprocessed.smi:2202
    49    51     1
SMALL
NO_CHARGES


@<TRIPOS>ATOM
      1 ****         0.1492   0.9223   0.3770 O.2            1 S1                 0.0000
      2 ****        -0.2078   0.2497   1.3459 C.2            1 S1                 0.0000
      3 ****        -1.6785  -0.1479   1.5359 C.3            1 S1                 0.0000
      4 ****        -2.4826   0.0005   0.3162 N.am           1 S1                 0.0000
      5 ****        -3.1850   1.1061  -0.0015 C.2            1 S1                 0.0000
      6 ****        -3.3624   2.1018   0.6993 O.2            1 S1                 0.0000
      7 ****        -3.6757   0.9849  -1.4363 C.3            1 S1                 0.0000
      8 ****        -5.0318   1.5311  -1.8989 C.3            1 S1                 0.0000
      9 ****        -5.2967   1.0063  -3.3139 C.2            1 S1                 0.0000
     10 ****        -4.6146  -0.0223  -3.8753 C.2            1 S1                 0.0000
     11 ****        -3.5222  -0.8151  -3.1499 C.3            1 S1                 0.0000
     12 ****        -3.6350  -0.5150  -1.6504 C.3            1 S1                 0.0000
     13 ****        -2.5761  -0.9398  -0.6447 C.2            1 S1                 0.0000
     14 ****        -1.9654  -2.0067  -0.7024 O.2            1 S1                 0.0000
     15 ****         0.6411  -0.1736   2.2944 N.am           1 S1                 0.0000
     16 ****         2.0757   0.0856   2.3036 C.3            1 S1                 0.0000
     17 ****         2.8265  -0.8554   1.3458 C.3            1 S1                 0.0000
     18 ****         4.3176  -0.5829   1.3261 C.ar           1 S1                 0.0000
     19 ****         5.2370  -1.3696   2.0534 C.ar           1 S1                 0.0000
     20 ****         6.6107  -1.0541   1.9940 C.ar           1 S1                 0.0000
     21 ****         7.0350   0.0391   1.2101 C.ar           1 S1                 0.0000
     22 ****         6.0735   0.7908   0.5043 C.ar           1 S1                 0.0000
     23 ****         4.7666   0.4580   0.5875 N.pl3          1 S1                 1.0000
     24 ****        -1.7278  -1.1823   1.8810 H              1 S1                 0.0000
     25 ****        -2.0988   0.4549   2.3425 H              1 S1                 0.0000
     26 ****        -2.9027   1.4598  -2.0455 H              1 S1                 0.0000
     27 ****        -5.8401   1.2227  -1.2348 H              1 S1                 0.0000
     28 ****        -5.0140   2.6212  -1.9142 H              1 S1                 0.0000
     29 ****        -6.0726   1.5038  -3.8770 H              1 S1                 0.0000
     30 ****        -4.8384  -0.3221  -4.8886 H              1 S1                 0.0000
     31 ****        -3.6653  -1.8805  -3.3329 H              1 S1                 0.0000
     32 ****        -2.5437  -0.5399  -3.5450 H              1 S1                 0.0000
     33 ****        -4.5676  -0.9585  -1.2934 H              1 S1                 0.0000
     34 ****         0.2667  -0.7153   3.0604 H              1 S1                 0.0000
     35 ****         2.2639   1.1291   2.0445 H              1 S1                 0.0000
     36 ****         2.4408  -0.0517   3.3219 H              1 S1                 0.0000
     37 ****         2.6551  -1.8940   1.6323 H              1 S1                 0.0000
     38 ****         2.4422  -0.7507   0.3301 H              1 S1                 0.0000
     39 ****         4.8967  -2.2033   2.6504 H              1 S1                 0.0000
     40 ****         7.3302  -1.6431   2.5440 H              1 S1                 0.0000
     41 ****         8.0823   0.2973   1.1518 H              1 S1                 0.0000
     42 ****         6.3078   1.6423  -0.1179 H              1 S1                 0.0000
     43 ****         4.0873   1.0166   0.0697 H              1 S1                 0.0000
     44 ****        -0.5234   1.2182  -0.3013 LP             1 S1                 0.0000
     45 ****         1.1114   1.1722   0.2691 LP             1 S1                 0.0000
     46 ****        -2.9627   2.1465   1.6148 LP             1 S1                 0.0000
     47 ****        -3.9064   2.8663   0.3533 LP             1 S1                 0.0000
     48 ****        -1.3164  -2.2509   0.0181 LP             1 S1                 0.0000
     49 ****        -2.1183  -2.6294  -1.4697 LP             1 S1                 0.0000
@<TRIPOS>BOND
    1    1    2 2     
    2    2    3 1     
    3    2   15 am    
    4    3    4 1     
    5    3   24 1     
    6    3   25 1     
    7    4   13 am    
    8    4    5 am    
    9    5    6 2     
   10    5    7 1     
   11    7   12 1     
   12    7    8 1     
   13    7   26 1     
   14    8    9 1     
   15    8   27 1     
   16    8   28 1     
   17    9   10 2     
   18    9   29 1     
   19   10   11 1     
   20   10   30 1     
   21   11   12 1     
   22   11   31 1     
   23   11   32 1     
   24   12   13 1     
   25   12   33 1     
   26   13   14 2     
   27   15   16 1     
   28   15   34 1     
   29   16   17 1     
   30   16   35 1     
   31   16   36 1     
   32   17   18 1     
   33   17   37 1     
   34   17   38 1     
   35   18   23 ar    
   36   18   19 ar    
   37   19   20 ar    
   38   19   39 1     
   39   20   21 ar    
   40   20   40 1     
   41   21   22 ar    
   42   21   41 1     
   43   22   23 ar    
   44   22   42 1     
   45   23   43 1     
   46    1   44 1     
   47    1   45 1     
   48    6   46 1     
   49    6   47 1     
   50   14   48 1     
   51   14   49 1     
@<TRIPOS>SUBSTRUCTURE
      1 S1             1
@<TRIPOS>SET
LONE_PAIRS      STATIC     ATOMS    <user>   **** ""
6 44 45 46 47 48 49
DONOR_HYDROGENS      STATIC     ATOMS    <user>   **** ""
2 34 43
ATOM$BLUE        STATIC     ATOMS    COLORGROUP SYSTEM
6 44 45 46 47 48 49
ATOM$RED        STATIC     ATOMS    COLORGROUP SYSTEM
2 34 43
