AV-unprocessed.smi:871|AV-procd|sdf|4011|dock1
  -GOLD-   22720 1503D 1   1.00000     0.00000
 Structure written by MMmdl.
 19 19  0  0  0  0  0  0  0  0  2 V2000
  149.7456  142.3591  155.4212 N   0  0  0  0  0  0  0  0  0  0  0  0
  150.5875  141.6560  156.2611 C   0  0  0  0  0  0  0  0  0  0  0  0
  150.9831  142.1545  157.4507 C   0  0  0  0  0  0  0  0  0  0  0  0
  151.8660  141.4030  158.3087 C   0  0  0  0  0  0  0  0  0  0  0  0
  152.2710  140.1933  157.8962 C   0  0  0  0  0  0  0  0  0  0  0  0
  151.8550  139.6439  156.6667 N   0  0  0  0  0  0  0  0  0  0  0  0
  152.3982  138.3199  156.3177 C   0  0  0  0  0  0  0  0  0  0  0  0
  152.9879  138.2958  154.9044 C   0  0  0  0  0  0  0  0  0  0  0  0
  152.4734  137.5024  154.0863 O   0  0  0  0  0  0  0  0  0  0  0  0
  153.9416  139.0696  154.6677 O   0  5  0  0  0  0  0  0  0  0  0  0
  151.0406  140.3285  155.8043 C   0  0  0  0  0  0  0  0  0  0  0  0
  150.7039  139.8587  154.7148 O   0  0  0  0  0  0  0  0  0  0  0  0
  149.4470  141.9892  154.5307 H   0  0  0  0  0  0  0  0  0  0  0  0
  149.4634  143.3056  155.6338 H   0  0  0  0  0  0  0  0  0  0  0  0
  150.6405  143.1281  157.7695 H   0  0  0  0  0  0  0  0  0  0  0  0
  152.1968  141.8057  159.2547 H   0  0  0  0  0  0  0  0  0  0  0  0
  152.9371  139.5682  158.4739 H   0  0  0  0  0  0  0  0  0  0  0  0
  153.1603  137.9686  157.0143 H   0  0  0  0  0  0  0  0  0  0  0  0
  151.5943  137.5847  156.3816 H   0  0  0  0  0  0  0  0  0  0  0  0
  1  2  1  0  0  0  0
  1 13  1  0  0  0  0
  1 14  1  0  0  0  0
  2 11  1  0  0  0  0
  2  3  2  0  0  0  0
  3  4  1  0  0  0  0
  3 15  1  0  0  0  0
  4  5  2  0  0  0  0
  4 16  1  0  0  0  0
  5  6  1  0  0  0  0
  5 17  1  0  0  0  0
  6  7  1  0  0  0  0
  6 11  1  0  0  0  0
  7  8  1  0  0  0  0
  7 18  1  0  0  0  0
  7 19  1  0  0  0  0
  8  9  2  0  0  0  0
  8 10  1  0  0  0  0
 11 12  2  0  0  0  0
M  CHG  1  10  -1
M  END
> <s_m_source_file>
AV-unprocessed.smi

> <i_m_source_file_index>
871

> <i_lp_mmshare_version>
43012

> <i_f3d_flags>
0

> <s_epik_input>
W05IMl1jMVtjSF1bY0hdW2NIXW4oYzE9TylbQ0gyXUMoPU8pW09IXQ==

> <s_epik_cmdline>
J2VwaWtfcHl0aG9uJywgJy1waCcsICc3LjAnLCAnLXRuJywgJzgnLCAnLW1hJywgJzIwMCcsICctbWV0YWxfYmluZGluZycsICctaW1hZScsICc8aW5maWxlLm1hZT4nLCAnLW9tYWUnLCAnPG91dGZpbGUubWFlPic=

> <r_lp_tautomer_probability>
1

> <r_epik_Ionization_Penalty>
0.00200637

> <r_epik_Ionization_Penalty_Charging>
0.0012605

> <r_epik_Ionization_Penalty_Neutral>
0.000745874

> <r_epik_State_Penalty>
-0

> <r_epik_Charging_Adjusted_Penalty>
0.0012605

> <i_epik_Tot_Q>
-1

> <i_epik_Tot_abs_Q>
1

> <r_epik_Metal_State_Penalty>
-0

> <b_epik_Metal_Only>
0

> <s_lp_Force_Field>
OPLS_2005

> <r_lp_Energy>
10.9711

> <b_lp_Chiralities_Consistent>
1

> <s_lp_Variant>
AV-unprocessed.smi:871-1

> <Gold.Version>
5.8.1

> <Gold.Id.Protein>
6NUR|6NUR_protein|mol2

> <Gold.PLP.Fitness>
38.9701

> <Gold.PLP.PLP>
-22.9095

> <Gold.PLP.part.hbond>
-3.9666

> <Gold.PLP.part.metal>
0.0000

> <Gold.PLP.part.buried>
-4.1247

> <Gold.PLP.part.nonpolar>
-16.8444

> <Gold.PLP.part.repulsive>
0.4142

> <Gold.PLP.ligand.clash>
0.0000

> <Gold.PLP.ligand.torsion>
0.1193

> <Gold.PLP.Chemscore.Hbond>
5.4313

> <Gold.PLP.Chemscore.CHOScore>
0.0000

> <Gold.PLP.Chemscore.Metal>
0.0000

> <Gold.Chemscore.Hbonds>
donor molecule, donor type, donor heavy atom, donor atom, acceptor molecule, acceptor atom, score
      L1  H     1    14       P1  8028  0.99
      P1  H  7989  7998       L1    12  1.00
      P1  H  7997  8009       L1    10  2.00
      P1  H 10752 10765       L1     9  1.44

> <Gold.PLP.Chemscore.Internal.Correction>
0.0055

> <Gold.Rescore>
     Score         DG    S(hbond)    S(metal)    S(lipo)     H(rot)  DE(clash)    DE(int)     intcor
     14.96     -16.50       3.30        0.00      34.74       1.58       0.01       1.52       ----

> <Gold.Chemscore.Fitness>
14.9635

> <Gold.Chemscore.DG>
-16.4957

> <Gold.Chemscore.ZeroCoef>
-5.4800

> <Gold.Chemscore.Hbond>
3.2955

> <Gold.Chemscore.Metal>
0.0000

> <Gold.Chemscore.Lipo>
34.7353

> <Gold.Chemscore.Internal_Hbond>
0.0000

> <Gold.Chemscore.DEClash>
0.0082

> <Gold.Chemscore.DEInternal>
1.5239

> <Gold.Chemscore.Rot>
1.5841

> <Gold.Chemscore.Internal.Correction>
   9.000000E+99

> <Gold.Chemscore.Hbonds>
donor molecule, donor type, donor heavy atom, donor atom, acceptor molecule, acceptor atom, score
      L1  H     1    14       P1  8028  0.92
      P1  H  7989  7998       L1    12  0.45
      P1  H  7997  8009       L1    10  0.95
      P1  H 10752 10765       L1     9  0.70

> <Gold.Chemscore.Hbond.Weighted>
-11.0070

> <Gold.Chemscore.Metal.Weighted>
-0.0000

> <Gold.Chemscore.Lipo.Weighted>
-4.0640

> <Gold.Chemscore.Internal_Hbond.Weighted>
0.0000

> <Gold.Chemscore.DEClash.Weighted>
0.0082

> <Gold.Chemscore.DEInternal.Weighted>
1.5239

> <Gold.Chemscore.Rot.Weighted>
4.0554

> <Gold.Chemscore.Internal.Correction.Weighted>
   9.000000E+99

> <Gold.Protein.RotatedTorsions>
[ 6907 6896 6895 6894 ] final   50.47 input  -60.11 | X-H torsion
[ 7974 7965 7964 7962 ] final   55.07 input  175.53 | X-H torsion
[ 8008 7997 7996 7995 ] final -120.66 input   59.86 | X-H torsion
[ 10167 10162 10161 10158 ] final -108.34 input  -65.29 | X-H torsion
[ 10718 10713 10712 10709 ] final   52.50 input   66.30 | X-H torsion
[ 10763 10752 10751 10750 ] final  146.58 input  -60.55 | X-H torsion
[ 11005 11000 10999 10996 ] final    1.78 input  -57.11 | X-H torsion

> <Gold.Protein.ActiveResidues>
 VAL166  LYS551  ARG553  GLY616  TRP617  ASP618  TYR619  PRO620  LYS621  CYS622 
 ASP623  PHE694  ASN695  SER759  ASP760  ASP761  ALA762  ILE779  LEU786  VAL792 
 PHE793  MET794  SER795  GLU796  ALA797  LYS798  CYS799  TRP800  GLU811  SER814 

> <Gold.Protein.RotatedAtoms>
  152.3022  134.7598  160.0355 H   0  0  0  0  0  0  0  0  0  0  0  0  # atno 6907 bound_to 6896
  151.8107  133.3376  159.3562 H   0  0  0  0  0  0  0  0  0  0  0  0  # atno 6908 bound_to 6896
  150.7279  134.5596  159.5880 H   0  0  0  0  0  0  0  0  0  0  0  0  # atno 6909 bound_to 6896
  145.9542  139.4000  143.0287 H   0  0  0  0  0  0  0  0  0  0  0  0  # atno 7974 bound_to 7965
  155.1354  140.0401  157.2785 H   0  0  0  0  0  0  0  0  0  0  0  0  # atno 8008 bound_to 7997
  154.6511  140.2569  155.7186 H   0  0  0  0  0  0  0  0  0  0  0  0  # atno 8009 bound_to 7997
  156.2578  140.2836  156.0946 H   0  0  0  0  0  0  0  0  0  0  0  0  # atno 8010 bound_to 7997
  140.1672  143.4072  152.1381 H   0  0  0  0  0  0  0  0  0  0  0  0  # atno 10167 bound_to 10162
  157.5081  130.8482  149.8400 H   0  0  0  0  0  0  0  0  0  0  0  0  # atno 10718 bound_to 10713
  154.0243  135.2903  155.3377 H   0  0  0  0  0  0  0  0  0  0  0  0  # atno 10763 bound_to 10752
  154.7027  135.5182  153.8553 H   0  0  0  0  0  0  0  0  0  0  0  0  # atno 10764 bound_to 10752
  153.0667  135.6633  154.0462 H   0  0  0  0  0  0  0  0  0  0  0  0  # atno 10765 bound_to 10752
  140.6117  133.9742  155.8180 H   0  0  0  0  0  0  0  0  0  0  0  0  # atno 11005 bound_to 11000
  145.8129  140.9717  143.0939 LP  0  0  0  0  0  0  0  0  0  0  0  0  # atno 17320 bound_to 7965
  144.6802  139.9944  143.7484 LP  0  0  0  0  0  0  0  0  0  0  0  0  # atno 17321 bound_to 7965
  139.5354  144.7204  151.4911 LP  0  0  0  0  0  0  0  0  0  0  0  0  # atno 17342 bound_to 10162
  140.6605  143.8508  150.6883 LP  0  0  0  0  0  0  0  0  0  0  0  0  # atno 17343 bound_to 10162
  156.0271  130.3776  150.1792 LP  0  0  0  0  0  0  0  0  0  0  0  0  # atno 17370 bound_to 10713
  156.9981  130.9914  151.3398 LP  0  0  0  0  0  0  0  0  0  0  0  0  # atno 17371 bound_to 10713
  141.0804  134.0072  157.3395 LP  0  0  0  0  0  0  0  0  0  0  0  0  # atno 17394 bound_to 11000
  139.9189  135.0199  156.7990 LP  0  0  0  0  0  0  0  0  0  0  0  0  # atno 17395 bound_to 11000

$$$$
