AV-unprocessed.smi:1196|AV-procd|sdf|5007|dock9
  -GOLD-   22720 4 23D 1   1.00000     0.00000
 Structure written by MMmdl.
 36 37  0  0  0  0  0  0  0  0  2 V2000
  154.2279  140.4822  160.4559 C   0  0  0  0  0  0  0  0  0  0  0  0
  153.0026  141.3329  160.0852 C   0  0  1  0  0  0  0  0  0  0  0  0
  153.2559  142.8295  160.3527 C   0  0  0  0  0  0  0  0  0  0  0  0
  152.2754  143.6826  159.7041 N   0  0  0  0  0  0  0  0  0  0  0  0
  151.4261  144.6019  160.2827 C   0  0  0  0  0  0  0  0  0  0  0  0
  150.6832  145.1562  159.2801 C   0  0  0  0  0  0  0  0  0  0  0  0
  151.1560  144.5022  158.1082 C   0  0  0  0  0  0  0  0  0  0  0  0
  152.1101  143.6220  158.3646 N   0  0  0  0  0  0  0  0  0  0  0  0
  152.6585  141.1239  158.6806 N   0  0  0  0  0  0  0  0  0  0  0  0
  151.4534  140.7580  158.2181 C   0  0  0  0  0  0  0  0  0  0  0  0
  150.4851  140.5439  158.9476 O   0  0  0  0  0  0  0  0  0  0  0  0
  151.3213  140.6213  156.6999 C   0  0  0  0  0  0  0  0  0  0  0  0
  150.5781  139.3360  156.2909 C   0  0  0  0  0  0  0  0  0  0  0  0
  151.4707  138.0805  156.3457 C   0  0  1  0  0  0  0  0  0  0  0  0
  150.7658  136.9145  155.8580 N   0  0  0  0  0  0  0  0  0  0  0  0
  151.3994  136.3594  154.8269 C   0  0  0  0  0  0  0  0  0  0  0  0
  150.9752  135.3455  154.2771 O   0  0  0  0  0  0  0  0  0  0  0  0
  152.5034  137.0692  154.5240 N   0  5  0  0  0  0  0  0  0  0  0  0
  152.6390  138.1206  155.3609 C   0  0  0  0  0  0  0  0  0  0  0  0
  153.5051  138.9924  155.4083 O   0  0  0  0  0  0  0  0  0  0  0  0
  154.4907  140.6108  161.5061 H   0  0  0  0  0  0  0  0  0  0  0  0
  155.0975  140.7578  159.8583 H   0  0  0  0  0  0  0  0  0  0  0  0
  154.0363  139.4208  160.2951 H   0  0  0  0  0  0  0  0  0  0  0  0
  152.1667  141.0148  160.7114 H   0  0  0  0  0  0  0  0  0  0  0  0
  153.2121  143.0290  161.4243 H   0  0  0  0  0  0  0  0  0  0  0  0
  154.2559  143.1190  160.0249 H   0  0  0  0  0  0  0  0  0  0  0  0
  151.4208  144.7819  161.3476 H   0  0  0  0  0  0  0  0  0  0  0  0
  149.9179  145.9126  159.3701 H   0  0  0  0  0  0  0  0  0  0  0  0
  150.8371  144.6405  157.0856 H   0  0  0  0  0  0  0  0  0  0  0  0
  153.3918  141.2870  158.0054 H   0  0  0  0  0  0  0  0  0  0  0  0
  150.7884  141.4944  156.3224 H   0  0  0  0  0  0  0  0  0  0  0  0
  152.3122  140.6408  156.2436 H   0  0  0  0  0  0  0  0  0  0  0  0
  149.7012  139.1969  156.9261 H   0  0  0  0  0  0  0  0  0  0  0  0
  150.1996  139.4520  155.2740 H   0  0  0  0  0  0  0  0  0  0  0  0
  151.8453  137.9012  157.3541 H   0  0  0  0  0  0  0  0  0  0  0  0
  149.9149  136.5629  156.2709 H   0  0  0  0  0  0  0  0  0  0  0  0
  1  2  1  0  0  0  0
  1 21  1  0  0  0  0
  1 22  1  0  0  0  0
  1 23  1  0  0  0  0
  2  3  1  0  0  0  0
  2  9  1  0  0  0  0
  2 24  1  0  0  0  0
  3  4  1  0  0  0  0
  3 25  1  0  0  0  0
  3 26  1  0  0  0  0
  4  8  1  0  0  0  0
  4  5  1  0  0  0  0
  5  6  2  0  0  0  0
  5 27  1  0  0  0  0
  6  7  1  0  0  0  0
  6 28  1  0  0  0  0
  7  8  2  0  0  0  0
  7 29  1  0  0  0  0
  9 10  1  0  0  0  0
  9 30  1  0  0  0  0
 10 11  2  0  0  0  0
 10 12  1  0  0  0  0
 12 13  1  0  0  0  0
 12 31  1  0  0  0  0
 12 32  1  0  0  0  0
 13 14  1  0  0  0  0
 13 33  1  0  0  0  0
 13 34  1  0  0  0  0
 14 19  1  0  0  0  0
 14 15  1  0  0  0  0
 14 35  1  0  0  0  0
 15 16  1  0  0  0  0
 15 36  1  0  0  0  0
 16 17  2  0  0  0  0
 16 18  1  0  0  0  0
 18 19  1  0  0  0  0
 19 20  2  0  0  0  0
M  CHG  1  18  -1
M  END
> <s_m_source_file>
AV-unprocessed.smi

> <i_m_source_file_index>
1196

> <i_lp_mmshare_version>
43012

> <i_f3d_flags>
0

> <s_epik_input>
bjFbY0hdW2NIXVtjSF1uMVtDSDJdW0NAQEhdKFtDSDNdKVtOSF1DKD1PKVtDSDJdW0NIMl1bQ0BASF0yW05IXUMoPU8pW05IXUMyPU8=

> <s_epik_cmdline>
J2VwaWtfcHl0aG9uJywgJy1waCcsICc3LjAnLCAnLXRuJywgJzgnLCAnLW1hJywgJzIwMCcsICctbWV0YWxfYmluZGluZycsICctaW1hZScsICc8aW5maWxlLm1hZT4nLCAnLW9tYWUnLCAnPG91dGZpbGUubWFlPic=

> <r_lp_tautomer_probability>
1

> <r_epik_Ionization_Penalty>
2.57056

> <r_epik_Ionization_Penalty_Charging>
2.57023

> <r_epik_Ionization_Penalty_Neutral>
0.000331301

> <r_epik_State_Penalty>
2.56828

> <r_epik_Charging_Adjusted_Penalty>
5.13851

> <i_epik_Tot_Q>
-1

> <i_epik_Tot_abs_Q>
1

> <r_epik_Metal_State_Penalty>
0.444883

> <b_epik_Metal_Only>
1

> <s_lp_Force_Field>
OPLS_2005

> <r_lp_Energy>
6.594

> <b_lp_Chiralities_Consistent>
1

> <s_lp_Variant>
AV-unprocessed.smi:1196-12

> <Gold.Version>
5.8.1

> <Gold.Id.Protein>
6NUR|6NUR_protein|mol2

> <Gold.PLP.Fitness>
47.0698

> <Gold.PLP.PLP>
-35.8504

> <Gold.PLP.part.hbond>
-3.0000

> <Gold.PLP.part.metal>
0.0000

> <Gold.PLP.part.buried>
-5.2044

> <Gold.PLP.part.nonpolar>
-29.4136

> <Gold.PLP.part.repulsive>
0.4651

> <Gold.PLP.ligand.clash>
0.0000

> <Gold.PLP.ligand.torsion>
0.4610

> <Gold.PLP.Chemscore.Hbond>
3.0000

> <Gold.PLP.Chemscore.CHOScore>
1.0000

> <Gold.PLP.Chemscore.Metal>
0.0000

> <Gold.Chemscore.Hbonds>
donor molecule, donor type, donor heavy atom, donor atom, acceptor molecule, acceptor atom, score
      P1  H  7997  8008       L1    20  0.83
      L1  C     7    29       P1  8028  1.00

> <Gold.PLP.Chemscore.Internal.Correction>
0.1413

> <Gold.Rescore>
     Score         DG    S(hbond)    S(metal)    S(lipo)     H(rot)  DE(clash)    DE(int)     intcor
     11.63     -13.41       1.82        0.00      79.03       2.89       0.18       1.60       ----

> <Gold.Chemscore.Fitness>
11.6350

> <Gold.Chemscore.DG>
-13.4094

> <Gold.Chemscore.ZeroCoef>
-5.4800

> <Gold.Chemscore.Hbond>
1.8244

> <Gold.Chemscore.Metal>
0.0000

> <Gold.Chemscore.Lipo>
79.0270

> <Gold.Chemscore.Internal_Hbond>
0.0000

> <Gold.Chemscore.DEClash>
0.1779

> <Gold.Chemscore.DEInternal>
1.5965

> <Gold.Chemscore.Rot>
2.8946

> <Gold.Chemscore.Internal.Correction>
   9.000000E+99

> <Gold.Chemscore.Hbonds>
donor molecule, donor type, donor heavy atom, donor atom, acceptor molecule, acceptor atom, score
      P1  H  7997  8008       L1    20  0.81

> <Gold.Chemscore.Hbond.Weighted>
-6.0934

> <Gold.Chemscore.Metal.Weighted>
-0.0000

> <Gold.Chemscore.Lipo.Weighted>
-9.2462

> <Gold.Chemscore.Internal_Hbond.Weighted>
0.0000

> <Gold.Chemscore.DEClash.Weighted>
0.1779

> <Gold.Chemscore.DEInternal.Weighted>
1.5965

> <Gold.Chemscore.Rot.Weighted>
7.4101

> <Gold.Chemscore.Internal.Correction.Weighted>
   9.000000E+99

> <Gold.Protein.RotatedTorsions>
[ 6907 6896 6895 6894 ] final  -80.47 input  -60.11 | X-H torsion
[ 7974 7965 7964 7962 ] final   -3.74 input  175.53 | X-H torsion
[ 8008 7997 7996 7995 ] final  -41.26 input   59.86 | X-H torsion
[ 10167 10162 10161 10158 ] final -111.68 input  -65.29 | X-H torsion
[ 10718 10713 10712 10709 ] final  150.81 input   66.30 | X-H torsion
[ 10763 10752 10751 10750 ] final  166.14 input  -60.55 | X-H torsion
[ 11005 11000 10999 10996 ] final  129.61 input  -57.11 | X-H torsion

> <Gold.Protein.ActiveResidues>
 VAL166  LYS551  ARG553  GLY616  TRP617  ASP618  TYR619  PRO620  LYS621  CYS622 
 ASP623  PHE694  ASN695  SER759  ASP760  ASP761  ALA762  ILE779  LEU786  VAL792 
 PHE793  MET794  SER795  GLU796  ALA797  LYS798  CYS799  TRP800  GLU811  SER814 

> <Gold.Protein.RotatedAtoms>
  150.6929  134.3965  159.5099 H   0  0  0  0  0  0  0  0  0  0  0  0  # atno 6907 bound_to 6896
  152.1745  134.8803  160.0541 H   0  0  0  0  0  0  0  0  0  0  0  0  # atno 6908 bound_to 6896
  151.9817  133.3725  159.4147 H   0  0  0  0  0  0  0  0  0  0  0  0  # atno 6909 bound_to 6896
  146.2384  140.1767  142.8332 H   0  0  0  0  0  0  0  0  0  0  0  0  # atno 7974 bound_to 7965
  154.4005  140.1504  156.3161 H   0  0  0  0  0  0  0  0  0  0  0  0  # atno 8008 bound_to 7997
  155.8571  140.3455  155.5710 H   0  0  0  0  0  0  0  0  0  0  0  0  # atno 8009 bound_to 7997
  155.7920  140.0858  157.1994 H   0  0  0  0  0  0  0  0  0  0  0  0  # atno 8010 bound_to 7997
  140.1310  143.4361  152.1627 H   0  0  0  0  0  0  0  0  0  0  0  0  # atno 10167 bound_to 10162
  157.2787  131.0831  151.1547 H   0  0  0  0  0  0  0  0  0  0  0  0  # atno 10718 bound_to 10713
  154.3346  135.2754  155.2454 H   0  0  0  0  0  0  0  0  0  0  0  0  # atno 10763 bound_to 10752
  154.4751  135.5873  153.6353 H   0  0  0  0  0  0  0  0  0  0  0  0  # atno 10764 bound_to 10752
  152.9863  135.6097  154.3542 H   0  0  0  0  0  0  0  0  0  0  0  0  # atno 10765 bound_to 10752
  139.9625  134.9599  156.9173 H   0  0  0  0  0  0  0  0  0  0  0  0  # atno 11005 bound_to 11000
  144.9967  140.8596  143.5306 LP  0  0  0  0  0  0  0  0  0  0  0  0  # atno 17320 bound_to 7965
  145.1781  139.2367  143.5307 LP  0  0  0  0  0  0  0  0  0  0  0  0  # atno 17321 bound_to 7965
  139.5520  144.7344  151.4408 LP  0  0  0  0  0  0  0  0  0  0  0  0  # atno 17342 bound_to 10162
  140.6817  143.8067  150.7130 LP  0  0  0  0  0  0  0  0  0  0  0  0  # atno 17343 bound_to 10162
  157.2990  130.6833  149.6154 LP  0  0  0  0  0  0  0  0  0  0  0  0  # atno 17370 bound_to 10713
  155.9664  130.4398  150.5273 LP  0  0  0  0  0  0  0  0  0  0  0  0  # atno 17371 bound_to 10713
  140.5468  134.0666  155.7357 LP  0  0  0  0  0  0  0  0  0  0  0  0  # atno 17394 bound_to 11000
  141.1303  133.9313  157.2549 LP  0  0  0  0  0  0  0  0  0  0  0  0  # atno 17395 bound_to 11000

$$$$
