AV-unprocessed.smi:2230|AV-procd|sdf|9036|dock2
  -GOLD-   2272012243D 1   1.00000     0.00000
 Structure written by MMmdl.
 29 30  0  0  0  0  0  0  0  0  2 V2000
  150.8682  139.3479  154.0356 O   0  0  0  0  0  0  0  0  0  0  0  0
  151.3751  138.3650  154.6215 C   0  0  0  0  0  0  0  0  0  0  0  0
  152.0349  137.4618  154.0613 O   0  5  0  0  0  0  0  0  0  0  0  0
  151.2076  138.2691  156.1460 C   0  0  1  0  0  0  0  0  0  0  0  0
  151.8207  139.4932  156.8669 C   0  0  0  0  0  0  0  0  0  0  0  0
  151.5671  139.4123  158.3007 N   0  0  0  0  0  0  0  0  0  0  0  0
  152.2023  140.4148  159.0498 C   0  0  0  0  0  0  0  0  0  0  0  0
  151.6784  141.6636  158.9849 N   0  0  0  0  0  0  0  0  0  0  0  0
  152.2645  142.6482  159.6958 C   0  0  0  0  0  0  0  0  0  0  0  0
  153.3954  142.4433  160.5063 C   0  0  0  0  0  0  0  0  0  0  0  0
  153.9402  141.1480  160.5763 C   0  0  0  0  0  0  0  0  0  0  0  0
  153.3403  140.1024  159.8383 C   0  0  0  0  0  0  0  0  0  0  0  0
  153.9071  138.6860  159.8975 C   0  0  0  0  0  0  0  0  0  0  0  0
  154.7988  138.5550  160.8805 F   0  0  0  0  0  0  0  0  0  0  0  0
  152.9255  137.8099  160.1133 F   0  0  0  0  0  0  0  0  0  0  0  0
  154.5132  138.3858  158.7488 F   0  0  0  0  0  0  0  0  0  0  0  0
  150.1550  139.2467  158.6155 C   0  0  0  0  0  0  0  0  0  0  0  0
  149.5981  138.0221  157.8734 C   0  0  0  0  0  0  0  0  0  0  0  0
  149.8202  138.1751  156.4754 O   0  0  0  0  0  0  0  0  0  0  0  0
  151.7118  137.3578  156.4728 H   0  0  0  0  0  0  0  0  0  0  0  0
  152.8974  139.5369  156.6965 H   0  0  0  0  0  0  0  0  0  0  0  0
  151.3930  140.4154  156.4703 H   0  0  0  0  0  0  0  0  0  0  0  0
  151.8173  143.6280  159.6174 H   0  0  0  0  0  0  0  0  0  0  0  0
  153.8344  143.2597  161.0609 H   0  0  0  0  0  0  0  0  0  0  0  0
  154.8079  140.9708  161.1938 H   0  0  0  0  0  0  0  0  0  0  0  0
  150.0268  139.1250  159.6917 H   0  0  0  0  0  0  0  0  0  0  0  0
  149.6035  140.1407  158.3210 H   0  0  0  0  0  0  0  0  0  0  0  0
  150.0662  137.1030  158.2297 H   0  0  0  0  0  0  0  0  0  0  0  0
  148.5276  137.9268  158.0544 H   0  0  0  0  0  0  0  0  0  0  0  0
  1  2  2  0  0  0  0
  2  3  1  0  0  0  0
  2  4  1  0  0  0  0
  4 19  1  0  0  0  0
  4  5  1  0  0  0  0
  4 20  1  0  0  0  0
  5  6  1  0  0  0  0
  5 21  1  0  0  0  0
  5 22  1  0  0  0  0
  6  7  1  0  0  0  0
  6 17  1  0  0  0  0
  7 12  1  0  0  0  0
  7  8  2  0  0  0  0
  8  9  1  0  0  0  0
  9 10  2  0  0  0  0
  9 23  1  0  0  0  0
 10 11  1  0  0  0  0
 10 24  1  0  0  0  0
 11 12  2  0  0  0  0
 11 25  1  0  0  0  0
 12 13  1  0  0  0  0
 13 14  1  0  0  0  0
 13 15  1  0  0  0  0
 13 16  1  0  0  0  0
 17 18  1  0  0  0  0
 17 26  1  0  0  0  0
 17 27  1  0  0  0  0
 18 19  1  0  0  0  0
 18 28  1  0  0  0  0
 18 29  1  0  0  0  0
M  CHG  1   3  -1
M  END
> <s_m_source_file>
AV-unprocessed.smi

> <i_m_source_file_index>
2230

> <i_lp_mmshare_version>
43012

> <i_f3d_flags>
0

> <s_epik_input>
Tz1DKFtPSF0pW0NAQEhdMVtDSDJdTihbQ0gyXVtDSDJdTzEpYzJuW2NIXVtjSF1bY0hdYzJDKEYpKEYpRg==

> <s_epik_cmdline>
J2VwaWtfcHl0aG9uJywgJy1waCcsICc3LjAnLCAnLXRuJywgJzgnLCAnLW1hJywgJzIwMCcsICctbWV0YWxfYmluZGluZycsICctaW1hZScsICc8aW5maWxlLm1hZT4nLCAnLW9tYWUnLCAnPG91dGZpbGUubWFlPic=

> <r_lp_tautomer_probability>
1

> <r_epik_Ionization_Penalty>
0.000150991

> <r_epik_Ionization_Penalty_Charging>
0.000148814

> <r_epik_Ionization_Penalty_Neutral>
2.17728e-06

> <r_epik_State_Penalty>
-0

> <r_epik_Charging_Adjusted_Penalty>
0.000148814

> <i_epik_Tot_Q>
-1

> <i_epik_Tot_abs_Q>
1

> <r_epik_Metal_State_Penalty>
-0

> <b_epik_Metal_Only>
0

> <s_lp_Force_Field>
OPLS_2005

> <r_lp_Energy>
24.6169

> <b_lp_Chiralities_Consistent>
1

> <s_lp_Variant>
AV-unprocessed.smi:2230-2

> <Gold.Version>
5.8.1

> <Gold.Id.Protein>
6NUR|6NUR_protein|mol2

> <Gold.PLP.Fitness>
35.9997

> <Gold.PLP.PLP>
-27.7159

> <Gold.PLP.part.hbond>
-2.0000

> <Gold.PLP.part.metal>
0.0000

> <Gold.PLP.part.buried>
-3.4982

> <Gold.PLP.part.nonpolar>
-22.9922

> <Gold.PLP.part.repulsive>
0.7123

> <Gold.PLP.ligand.clash>
0.0597

> <Gold.PLP.ligand.torsion>
0.5721

> <Gold.PLP.Chemscore.Hbond>
2.9520

> <Gold.PLP.Chemscore.CHOScore>
0.0000

> <Gold.PLP.Chemscore.Metal>
0.0000

> <Gold.Chemscore.Hbonds>
donor molecule, donor type, donor heavy atom, donor atom, acceptor molecule, acceptor atom, score
      P1  H  7989  7998       L1     1  1.00
      P1  H 10752 10765       L1     3  1.89

> <Gold.PLP.Chemscore.Internal.Correction>
0.6317

> <Gold.Rescore>
     Score         DG    S(hbond)    S(metal)    S(lipo)     H(rot)  DE(clash)    DE(int)     intcor
     13.34     -15.18       1.94        0.00      60.26       1.49       0.05       1.78       ----

> <Gold.Chemscore.Fitness>
13.3435

> <Gold.Chemscore.DG>
-15.1759

> <Gold.Chemscore.ZeroCoef>
-5.4800

> <Gold.Chemscore.Hbond>
1.9353

> <Gold.Chemscore.Metal>
0.0000

> <Gold.Chemscore.Lipo>
60.2614

> <Gold.Chemscore.Internal_Hbond>
0.0000

> <Gold.Chemscore.DEClash>
0.0543

> <Gold.Chemscore.DEInternal>
1.7782

> <Gold.Chemscore.Rot>
1.4916

> <Gold.Chemscore.Internal.Correction>
   9.000000E+99

> <Gold.Chemscore.Hbonds>
donor molecule, donor type, donor heavy atom, donor atom, acceptor molecule, acceptor atom, score
      P1  H  7989  7998       L1     1  0.99
      P1  H 10752 10765       L1     3  0.87

> <Gold.Chemscore.Hbond.Weighted>
-6.4638

> <Gold.Chemscore.Metal.Weighted>
-0.0000

> <Gold.Chemscore.Lipo.Weighted>
-7.0506

> <Gold.Chemscore.Internal_Hbond.Weighted>
0.0000

> <Gold.Chemscore.DEClash.Weighted>
0.0543

> <Gold.Chemscore.DEInternal.Weighted>
1.7782

> <Gold.Chemscore.Rot.Weighted>
3.8185

> <Gold.Chemscore.Internal.Correction.Weighted>
   9.000000E+99

> <Gold.Protein.RotatedTorsions>
[ 6907 6896 6895 6894 ] final -114.92 input  -60.11 | X-H torsion
[ 7974 7965 7964 7962 ] final   95.89 input  175.53 | X-H torsion
[ 8008 7997 7996 7995 ] final  -76.80 input   59.86 | X-H torsion
[ 10167 10162 10161 10158 ] final  108.34 input  -65.29 | X-H torsion
[ 10718 10713 10712 10709 ] final   66.82 input   66.30 | X-H torsion
[ 10763 10752 10751 10750 ] final  153.06 input  -60.55 | X-H torsion
[ 11005 11000 10999 10996 ] final  -30.62 input  -57.11 | X-H torsion

> <Gold.Protein.ActiveResidues>
 VAL166  LYS551  ARG553  GLY616  TRP617  ASP618  TYR619  PRO620  LYS621  CYS622 
 ASP623  PHE694  ASN695  SER759  ASP760  ASP761  ALA762  ILE779  LEU786  VAL792 
 PHE793  MET794  SER795  GLU796  ALA797  LYS798  CYS799  TRP800  GLU811  SER814 

> <Gold.Protein.RotatedAtoms>
  150.7939  133.8731  159.3264 H   0  0  0  0  0  0  0  0  0  0  0  0  # atno 6907 bound_to 6896
  151.6562  135.0993  160.0180 H   0  0  0  0  0  0  0  0  0  0  0  0  # atno 6908 bound_to 6896
  152.4017  133.6789  159.6357 H   0  0  0  0  0  0  0  0  0  0  0  0  # atno 6909 bound_to 6896
  145.4461  139.2297  143.3065 H   0  0  0  0  0  0  0  0  0  0  0  0  # atno 7974 bound_to 7965
  154.5538  140.0721  156.8711 H   0  0  0  0  0  0  0  0  0  0  0  0  # atno 8008 bound_to 7997
  155.2941  140.3380  155.4233 H   0  0  0  0  0  0  0  0  0  0  0  0  # atno 8009 bound_to 7997
  156.1984  140.1712  156.7935 H   0  0  0  0  0  0  0  0  0  0  0  0  # atno 8010 bound_to 7997
  139.6854  144.7114  151.1442 H   0  0  0  0  0  0  0  0  0  0  0  0  # atno 10167 bound_to 10162
  157.6192  130.9288  150.0159 H   0  0  0  0  0  0  0  0  0  0  0  0  # atno 10718 bound_to 10713
  154.1300  135.2827  155.3187 H   0  0  0  0  0  0  0  0  0  0  0  0  # atno 10763 bound_to 10752
  154.6362  135.5418  153.7740 H   0  0  0  0  0  0  0  0  0  0  0  0  # atno 10764 bound_to 10752
  153.0284  135.6475  154.1451 H   0  0  0  0  0  0  0  0  0  0  0  0  # atno 10765 bound_to 10752
  140.9398  133.7286  156.1059 H   0  0  0  0  0  0  0  0  0  0  0  0  # atno 11005 bound_to 11000
  146.2530  140.5215  142.8885 LP  0  0  0  0  0  0  0  0  0  0  0  0  # atno 17320 bound_to 7965
  144.8091  140.6353  143.6427 LP  0  0  0  0  0  0  0  0  0  0  0  0  # atno 17321 bound_to 7965
  140.7666  143.5637  150.9071 LP  0  0  0  0  0  0  0  0  0  0  0  0  # atno 17342 bound_to 10162
  139.9312  143.6491  152.3076 LP  0  0  0  0  0  0  0  0  0  0  0  0  # atno 17343 bound_to 10162
  156.1329  130.3643  149.9702 LP  0  0  0  0  0  0  0  0  0  0  0  0  # atno 17370 bound_to 10713
  156.7759  130.9203  151.3645 LP  0  0  0  0  0  0  0  0  0  0  0  0  # atno 17371 bound_to 10713
  140.7749  134.3790  157.5500 LP  0  0  0  0  0  0  0  0  0  0  0  0  # atno 17394 bound_to 11000
  139.8817  134.9046  156.2880 LP  0  0  0  0  0  0  0  0  0  0  0  0  # atno 17395 bound_to 11000

$$$$
