AV-unprocessed.smi:625|AV-procd|sdf|3107|dock4
  -GOLD-   22720 0 33D 1   1.00000     0.00000
 Structure written by MMmdl.
 49 51  0  0  0  0  0  0  0  0  1 V2000
  146.1992  138.9735  153.6103 C   0  0  0  0  0  0  0  0  0  0  0  0
  147.5622  138.8015  154.0900 N   0  0  0  0  0  0  0  0  0  0  0  0
  147.9037  138.6689  155.3824 C   0  0  0  0  0  0  0  0  0  0  0  0
  147.0592  138.6864  156.2794 O   0  0  0  0  0  0  0  0  0  0  0  0
  149.3434  138.5068  155.6007 C   0  0  0  0  0  0  0  0  0  0  0  0
  150.3095  138.4303  154.5147 C   0  0  0  0  0  0  0  0  0  0  0  0
  151.6220  138.2708  154.7747 C   0  0  0  0  0  0  0  0  0  0  0  0
  152.1310  138.1706  156.1453 C   0  0  0  0  0  0  0  0  0  0  0  0
  153.3292  138.0208  156.3879 O   0  0  0  0  0  0  0  0  0  0  0  0
  151.1910  138.2534  157.1360 N   0  0  0  0  0  0  0  0  0  0  0  0
  151.5847  138.1599  158.5516 C   0  0  0  0  0  0  0  0  0  0  0  0
  152.5811  139.2540  158.9553 C   0  0  0  0  0  0  0  0  0  0  0  0
  153.7706  138.9819  159.1221 O   0  0  0  0  0  0  0  0  0  0  0  0
  152.0721  140.4858  159.1104 N   0  0  0  0  0  0  0  0  0  0  0  0
  152.8341  141.6974  159.4042 C   0  0  2  0  0  0  0  0  0  0  0  0
  153.8829  141.3817  160.4818 C   0  0  0  0  0  0  0  0  0  0  0  0
  151.8691  142.8254  159.8399 C   0  0  1  0  0  0  0  0  0  0  0  0
  152.5570  144.0903  160.4008 C   0  0  0  0  0  0  0  0  0  0  0  0
  151.8796  145.2301  159.6164 C   0  0  1  0  0  0  0  0  0  0  0  0
  152.4169  145.2367  158.1737 C   0  0  0  0  0  0  0  0  0  0  0  0
  151.7531  143.9903  157.5610 C   0  0  0  0  0  0  0  0  0  0  0  0
  150.9455  143.4160  158.7434 C   0  0  2  0  0  0  0  0  0  0  0  0
  150.4655  144.6948  159.4220 C   0  0  0  0  0  0  0  0  0  0  0  0
  149.8196  138.4166  156.8581 C   0  0  0  0  0  0  0  0  0  0  0  0
  146.1974  139.0691  152.5247 H   0  0  0  0  0  0  0  0  0  0  0  0
  145.7487  139.8726  154.0325 H   0  0  0  0  0  0  0  0  0  0  0  0
  145.5823  138.1149  153.8784 H   0  0  0  0  0  0  0  0  0  0  0  0
  148.2956  138.7793  153.3966 H   0  0  0  0  0  0  0  0  0  0  0  0
  150.0013  138.4981  153.4818 H   0  0  0  0  0  0  0  0  0  0  0  0
  152.3200  138.2155  153.9523 H   0  0  0  0  0  0  0  0  0  0  0  0
  150.6975  138.2097  159.1864 H   0  0  0  0  0  0  0  0  0  0  0  0
  152.0377  137.1918  158.7690 H   0  0  0  0  0  0  0  0  0  0  0  0
  151.0804  140.6038  158.9622 H   0  0  0  0  0  0  0  0  0  0  0  0
  153.3731  142.0275  158.5152 H   0  0  0  0  0  0  0  0  0  0  0  0
  154.4922  142.2560  160.7111 H   0  0  0  0  0  0  0  0  0  0  0  0
  154.5583  140.5920  160.1508 H   0  0  0  0  0  0  0  0  0  0  0  0
  153.4141  141.0508  161.4093 H   0  0  0  0  0  0  0  0  0  0  0  0
  151.2206  142.4208  160.6194 H   0  0  0  0  0  0  0  0  0  0  0  0
  152.3682  144.1844  161.4708 H   0  0  0  0  0  0  0  0  0  0  0  0
  153.6380  144.0898  160.2559 H   0  0  0  0  0  0  0  0  0  0  0  0
  151.9437  146.1999  160.1107 H   0  0  0  0  0  0  0  0  0  0  0  0
  152.1025  146.1371  157.6444 H   0  0  0  0  0  0  0  0  0  0  0  0
  153.5058  145.1893  158.1360 H   0  0  0  0  0  0  0  0  0  0  0  0
  151.0839  144.2787  156.7495 H   0  0  0  0  0  0  0  0  0  0  0  0
  152.4763  143.2891  157.1472 H   0  0  0  0  0  0  0  0  0  0  0  0
  150.1451  142.7422  158.4358 H   0  0  0  0  0  0  0  0  0  0  0  0
  149.9362  144.5187  160.3599 H   0  0  0  0  0  0  0  0  0  0  0  0
  149.8490  145.3237  158.7769 H   0  0  0  0  0  0  0  0  0  0  0  0
  149.1887  138.4538  157.7352 H   0  0  0  0  0  0  0  0  0  0  0  0
  1  2  1  0  0  0  0
  1 25  1  0  0  0  0
  1 26  1  0  0  0  0
  1 27  1  0  0  0  0
  2  3  1  0  0  0  0
  2 28  1  0  0  0  0
  3  4  2  0  0  0  0
  3  5  1  0  0  0  0
  5 24  2  0  0  0  0
  5  6  1  0  0  0  0
  6  7  2  0  0  0  0
  6 29  1  0  0  0  0
  7  8  1  0  0  0  0
  7 30  1  0  0  0  0
  8  9  2  0  0  0  0
  8 10  1  0  0  0  0
 10 11  1  0  0  0  0
 10 24  1  0  0  0  0
 11 12  1  0  0  0  0
 11 31  1  0  0  0  0
 11 32  1  0  0  0  0
 12 13  2  0  0  0  0
 12 14  1  0  0  0  0
 14 15  1  0  0  0  0
 14 33  1  0  0  0  0
 15 16  1  0  0  0  0
 15 17  1  0  0  0  0
 15 34  1  0  0  0  0
 16 35  1  0  0  0  0
 16 36  1  0  0  0  0
 16 37  1  0  0  0  0
 17 22  1  0  0  0  0
 17 18  1  0  0  0  0
 17 38  1  0  0  0  0
 18 19  1  0  0  0  0
 18 39  1  0  0  0  0
 18 40  1  0  0  0  0
 19 23  1  0  0  0  0
 19 20  1  0  0  0  0
 19 41  1  0  0  0  0
 20 21  1  0  0  0  0
 20 42  1  0  0  0  0
 20 43  1  0  0  0  0
 21 22  1  0  0  0  0
 21 44  1  0  0  0  0
 21 45  1  0  0  0  0
 22 23  1  0  0  0  0
 22 46  1  0  0  0  0
 23 47  1  0  0  0  0
 23 48  1  0  0  0  0
 24 49  1  0  0  0  0
M  END
> <s_m_source_file>
AV-unprocessed.smi

> <i_m_source_file_index>
625

> <i_lp_mmshare_version>
43012

> <i_f3d_flags>
0

> <s_epik_input>
W0NIM11bTkhdQyg9TyljMVtjSF1bY0hdYyg9TyluKFtjSF0xKVtDSDJdQyg9TylbTkhdW0NASF0oW0NIM10pW0NASF0oW0NIMl1bQ0BIXTIzKVtDQEhdKFtDSDJdMylbQ0gyXVtDSDJdMg==

> <s_epik_cmdline>
J2VwaWtfcHl0aG9uJywgJy1waCcsICc3LjAnLCAnLXRuJywgJzgnLCAnLW1hJywgJzIwMCcsICctbWV0YWxfYmluZGluZycsICctaW1hZScsICc8aW5maWxlLm1hZT4nLCAnLW9tYWUnLCAnPG91dGZpbGUubWFlPic=

> <r_lp_tautomer_probability>
1

> <r_epik_Ionization_Penalty>
3.7129e-07

> <r_epik_Ionization_Penalty_Charging>
5.04114e-08

> <r_epik_Ionization_Penalty_Neutral>
3.20879e-07

> <r_epik_State_Penalty>
-0

> <r_epik_Charging_Adjusted_Penalty>
5.04114e-08

> <i_epik_Tot_Q>
0

> <i_epik_Tot_abs_Q>
0

> <r_epik_Metal_State_Penalty>
-0

> <b_epik_Metal_Only>
0

> <s_lp_Force_Field>
OPLS_2005

> <r_lp_Energy>
63.4891

> <b_lp_Chiralities_Consistent>
1

> <s_lp_Variant>
AV-unprocessed.smi:625-7

> <Gold.Version>
5.8.1

> <Gold.Id.Protein>
6NUR|6NUR_protein|mol2

> <Gold.PLP.Fitness>
53.4967

> <Gold.PLP.PLP>
-48.2567

> <Gold.PLP.part.hbond>
-3.4793

> <Gold.PLP.part.metal>
0.0000

> <Gold.PLP.part.buried>
-6.9788

> <Gold.PLP.part.nonpolar>
-36.1998

> <Gold.PLP.part.repulsive>
0.1853

> <Gold.PLP.ligand.clash>
0.0000

> <Gold.PLP.ligand.torsion>
0.4892

> <Gold.PLP.Chemscore.Hbond>
2.0463

> <Gold.PLP.Chemscore.CHOScore>
0.0000

> <Gold.PLP.Chemscore.Metal>
0.0000

> <Gold.PLP.Chemscore.Internal.Correction>
0.0796

> <Gold.Rescore>
     Score         DG    S(hbond)    S(metal)    S(lipo)     H(rot)  DE(clash)    DE(int)     intcor
     17.27     -21.19       1.44        0.00     129.63       1.67       1.42       2.49       ----

> <Gold.Chemscore.Fitness>
17.2726

> <Gold.Chemscore.DG>
-21.1886

> <Gold.Chemscore.ZeroCoef>
-5.4800

> <Gold.Chemscore.Hbond>
1.4429

> <Gold.Chemscore.Metal>
0.0000

> <Gold.Chemscore.Lipo>
129.6299

> <Gold.Chemscore.Internal_Hbond>
0.0000

> <Gold.Chemscore.DEClash>
1.4219

> <Gold.Chemscore.DEInternal>
2.4941

> <Gold.Chemscore.Rot>
1.6709

> <Gold.Chemscore.Internal.Correction>
   9.000000E+99

> <Gold.Chemscore.Hbond.Weighted>
-4.8193

> <Gold.Chemscore.Metal.Weighted>
-0.0000

> <Gold.Chemscore.Lipo.Weighted>
-15.1667

> <Gold.Chemscore.Internal_Hbond.Weighted>
0.0000

> <Gold.Chemscore.DEClash.Weighted>
1.4219

> <Gold.Chemscore.DEInternal.Weighted>
2.4941

> <Gold.Chemscore.Rot.Weighted>
4.2774

> <Gold.Chemscore.Internal.Correction.Weighted>
   9.000000E+99

> <Gold.Protein.RotatedTorsions>
[ 6907 6896 6895 6894 ] final  130.12 input  -60.11 | X-H torsion
[ 7974 7965 7964 7962 ] final  100.09 input  175.53 | X-H torsion
[ 8008 7997 7996 7995 ] final  109.24 input   59.86 | X-H torsion
[ 10167 10162 10161 10158 ] final   21.22 input  -65.29 | X-H torsion
[ 10718 10713 10712 10709 ] final  -67.23 input   66.30 | X-H torsion
[ 10763 10752 10751 10750 ] final  -58.20 input  -60.55 | X-H torsion
[ 11005 11000 10999 10996 ] final   -1.42 input  -57.11 | X-H torsion

> <Gold.Protein.ActiveResidues>
 VAL166  LYS551  ARG553  GLY616  TRP617  ASP618  TYR619  PRO620  LYS621  CYS622 
 ASP623  PHE694  ASN695  SER759  ASP760  ASP761  ALA762  ILE779  LEU786  VAL792 
 PHE793  MET794  SER795  GLU796  ALA797  LYS798  CYS799  TRP800  GLU811  SER814 

> <Gold.Protein.RotatedAtoms>
  152.3557  133.6234  159.5977 H   0  0  0  0  0  0  0  0  0  0  0  0  # atno 6907 bound_to 6896
  150.7567  133.9503  159.3492 H   0  0  0  0  0  0  0  0  0  0  0  0  # atno 6908 bound_to 6896
  151.7349  135.0868  160.0357 H   0  0  0  0  0  0  0  0  0  0  0  0  # atno 6909 bound_to 6896
  145.3902  139.2364  143.3356 H   0  0  0  0  0  0  0  0  0  0  0  0  # atno 7974 bound_to 7965
  156.1964  140.3061  155.9436 H   0  0  0  0  0  0  0  0  0  0  0  0  # atno 8008 bound_to 7997
  155.3056  140.0448  157.3049 H   0  0  0  0  0  0  0  0  0  0  0  0  # atno 8009 bound_to 7997
  154.5515  140.2293  155.8487 H   0  0  0  0  0  0  0  0  0  0  0  0  # atno 8010 bound_to 7997
  140.5444  143.9621  150.6538 H   0  0  0  0  0  0  0  0  0  0  0  0  # atno 10167 bound_to 10162
  156.0569  130.4274  150.1824 H   0  0  0  0  0  0  0  0  0  0  0  0  # atno 10718 bound_to 10713
  154.2344  135.6355  153.5186 H   0  0  0  0  0  0  0  0  0  0  0  0  # atno 10763 bound_to 10752
  152.9942  135.5527  154.5978 H   0  0  0  0  0  0  0  0  0  0  0  0  # atno 10764 bound_to 10752
  154.5468  135.2898  155.1019 H   0  0  0  0  0  0  0  0  0  0  0  0  # atno 10765 bound_to 10752
  140.6472  133.9437  155.8359 H   0  0  0  0  0  0  0  0  0  0  0  0  # atno 11005 bound_to 11000
  146.2801  140.4583  142.8779 LP  0  0  0  0  0  0  0  0  0  0  0  0  # atno 17320 bound_to 7965
  144.8446  140.6909  143.6207 LP  0  0  0  0  0  0  0  0  0  0  0  0  # atno 17321 bound_to 7965
  140.3030  143.3248  152.0953 LP  0  0  0  0  0  0  0  0  0  0  0  0  # atno 17342 bound_to 10162
  139.5001  144.6685  151.6300 LP  0  0  0  0  0  0  0  0  0  0  0  0  # atno 17343 bound_to 10162
  156.9898  130.9890  151.3417 LP  0  0  0  0  0  0  0  0  0  0  0  0  # atno 17370 bound_to 10713
  157.5546  130.8205  149.8188 LP  0  0  0  0  0  0  0  0  0  0  0  0  # atno 17371 bound_to 10713
  141.0564  134.0411  157.3717 LP  0  0  0  0  0  0  0  0  0  0  0  0  # atno 17394 bound_to 11000
  139.9059  135.0179  156.7481 LP  0  0  0  0  0  0  0  0  0  0  0  0  # atno 17395 bound_to 11000

$$$$
