AV-unprocessed.smi:1485|AV-procd|sdf|6002|dock2
  -GOLD-   22720 6 93D 1   1.00000     0.00000
 Structure written by MMmdl.
 44 45  0  0  0  0  0  0  0  0  1 V2000
  144.2066  144.0436  155.8736 C   0  0  0  0  0  0  0  0  0  0  0  0
  145.0145  143.6540  154.7774 O   0  0  0  0  0  0  0  0  0  0  0  0
  145.9903  142.6894  155.1370 C   0  0  0  0  0  0  0  0  0  0  0  0
  146.7788  142.2681  153.8860 C   0  0  0  0  0  0  0  0  0  0  0  0
  147.8028  141.2641  154.1964 N   0  0  0  0  0  0  0  0  0  0  0  0
  148.7890  141.7139  155.0580 N   0  0  0  0  0  0  0  0  0  0  0  0
  149.7556  140.9283  155.4081 C   0  0  0  0  0  0  0  0  0  0  0  0
  150.8340  141.3750  156.3327 C   0  0  0  0  0  0  0  0  0  0  0  0
  151.7780  140.6426  156.6341 O   0  0  0  0  0  0  0  0  0  0  0  0
  150.6977  142.6252  156.8101 N   0  0  0  0  0  0  0  0  0  0  0  0
  151.6155  143.2885  157.7303 C   0  0  1  0  0  0  0  0  0  0  0  0
  150.9718  144.5869  158.2489 C   0  0  0  0  0  0  0  0  0  0  0  0
  151.8752  145.2865  159.2754 C   0  0  0  0  0  0  0  0  0  0  0  0
  152.2289  144.3464  160.4383 C   0  0  0  0  0  0  0  0  0  0  0  0
  152.8848  143.0468  159.9334 C   0  0  1  0  0  0  0  0  0  0  0  0
  153.2366  142.1078  161.0959 C   0  0  0  0  0  0  0  0  0  0  0  0
  151.9782  142.3500  158.8996 C   0  0  0  0  0  0  0  0  0  0  0  0
  149.8252  139.5658  154.9076 C   0  0  0  0  0  0  0  0  0  0  0  0
  148.8573  139.1416  154.0656 C   0  0  0  0  0  0  0  0  0  0  0  0
  147.7537  140.0106  153.6531 C   0  0  0  0  0  0  0  0  0  0  0  0
  146.8628  139.6486  152.8851 O   0  0  0  0  0  0  0  0  0  0  0  0
  143.4774  144.7842  155.5457 H   0  0  0  0  0  0  0  0  0  0  0  0
  144.8066  144.4895  156.6676 H   0  0  0  0  0  0  0  0  0  0  0  0
  143.6611  143.1923  156.2826 H   0  0  0  0  0  0  0  0  0  0  0  0
  146.6736  143.1210  155.8700 H   0  0  0  0  0  0  0  0  0  0  0  0
  145.5191  141.8241  155.6058 H   0  0  0  0  0  0  0  0  0  0  0  0
  146.0887  141.8864  153.1312 H   0  0  0  0  0  0  0  0  0  0  0  0
  147.2450  143.1442  153.4320 H   0  0  0  0  0  0  0  0  0  0  0  0
  149.8929  143.1566  156.5102 H   0  0  0  0  0  0  0  0  0  0  0  0
  152.5294  143.5553  157.1960 H   0  0  0  0  0  0  0  0  0  0  0  0
  150.7701  145.2625  157.4166 H   0  0  0  0  0  0  0  0  0  0  0  0
  150.0075  144.3652  158.7084 H   0  0  0  0  0  0  0  0  0  0  0  0
  152.7897  145.6246  158.7867 H   0  0  0  0  0  0  0  0  0  0  0  0
  151.3804  146.1798  159.6571 H   0  0  0  0  0  0  0  0  0  0  0  0
  152.8988  144.8583  161.1301 H   0  0  0  0  0  0  0  0  0  0  0  0
  151.3255  144.1098  161.0021 H   0  0  0  0  0  0  0  0  0  0  0  0
  153.8173  143.3136  159.4338 H   0  0  0  0  0  0  0  0  0  0  0  0
  152.3437  141.7977  161.6397 H   0  0  0  0  0  0  0  0  0  0  0  0
  153.9056  142.5955  161.8052 H   0  0  0  0  0  0  0  0  0  0  0  0
  153.7369  141.2083  160.7363 H   0  0  0  0  0  0  0  0  0  0  0  0
  151.0663  142.0042  159.3888 H   0  0  0  0  0  0  0  0  0  0  0  0
  152.4776  141.4591  158.5162 H   0  0  0  0  0  0  0  0  0  0  0  0
  150.6290  138.9033  155.1947 H   0  0  0  0  0  0  0  0  0  0  0  0
  148.8971  138.1318  153.6845 H   0  0  0  0  0  0  0  0  0  0  0  0
  1  2  1  0  0  0  0
  1 22  1  0  0  0  0
  1 23  1  0  0  0  0
  1 24  1  0  0  0  0
  2  3  1  0  0  0  0
  3  4  1  0  0  0  0
  3 25  1  0  0  0  0
  3 26  1  0  0  0  0
  4  5  1  0  0  0  0
  4 27  1  0  0  0  0
  4 28  1  0  0  0  0
  5 20  1  0  0  0  0
  5  6  1  0  0  0  0
  6  7  2  0  0  0  0
  7  8  1  0  0  0  0
  7 18  1  0  0  0  0
  8  9  2  0  0  0  0
  8 10  1  0  0  0  0
 10 11  1  0  0  0  0
 10 29  1  0  0  0  0
 11 17  1  0  0  0  0
 11 12  1  0  0  0  0
 11 30  1  0  0  0  0
 12 13  1  0  0  0  0
 12 31  1  0  0  0  0
 12 32  1  0  0  0  0
 13 14  1  0  0  0  0
 13 33  1  0  0  0  0
 13 34  1  0  0  0  0
 14 15  1  0  0  0  0
 14 35  1  0  0  0  0
 14 36  1  0  0  0  0
 15 16  1  0  0  0  0
 15 17  1  0  0  0  0
 15 37  1  0  0  0  0
 16 38  1  0  0  0  0
 16 39  1  0  0  0  0
 16 40  1  0  0  0  0
 17 41  1  0  0  0  0
 17 42  1  0  0  0  0
 18 19  2  0  0  0  0
 18 43  1  0  0  0  0
 19 20  1  0  0  0  0
 19 44  1  0  0  0  0
 20 21  2  0  0  0  0
M  END
> <s_m_source_file>
AV-unprocessed.smi

> <i_m_source_file_index>
1485

> <i_lp_mmshare_version>
43012

> <i_f3d_flags>
0

> <s_epik_input>
W0NIM11PW0NIMl1bQ0gyXW4xbmMoW2NIXVtjSF1jMT1PKUMoPU8pW05IXVtDQEBIXTJbQ0gyXVtDSDJdW0NIMl1bQ0BASF0oW0NIM10pW0NIMl0y

> <s_epik_cmdline>
J2VwaWtfcHl0aG9uJywgJy1waCcsICc3LjAnLCAnLXRuJywgJzgnLCAnLW1hJywgJzIwMCcsICctbWV0YWxfYmluZGluZycsICctaW1hZScsICc8aW5maWxlLm1hZT4nLCAnLW9tYWUnLCAnPG91dGZpbGUubWFlPic=

> <r_lp_tautomer_probability>
1

> <r_epik_Ionization_Penalty>
6.4688e-07

> <r_epik_Ionization_Penalty_Charging>
6.63567e-09

> <r_epik_Ionization_Penalty_Neutral>
6.40245e-07

> <r_epik_State_Penalty>
-0

> <r_epik_Charging_Adjusted_Penalty>
6.63567e-09

> <i_epik_Tot_Q>
0

> <i_epik_Tot_abs_Q>
0

> <r_epik_Metal_State_Penalty>
-0

> <b_epik_Metal_Only>
0

> <s_lp_Force_Field>
OPLS_2005

> <r_lp_Energy>
29.7645

> <b_lp_Chiralities_Consistent>
1

> <s_lp_Variant>
AV-unprocessed.smi:1485-2

> <Gold.Version>
5.8.1

> <Gold.Id.Protein>
6NUR|6NUR_protein|mol2

> <Gold.PLP.Fitness>
49.9340

> <Gold.PLP.PLP>
-47.1814

> <Gold.PLP.part.hbond>
-1.0000

> <Gold.PLP.part.metal>
0.0000

> <Gold.PLP.part.buried>
-6.6339

> <Gold.PLP.part.nonpolar>
-41.1196

> <Gold.PLP.part.repulsive>
1.1545

> <Gold.PLP.ligand.clash>
0.0000

> <Gold.PLP.ligand.torsion>
0.1487

> <Gold.PLP.Chemscore.Hbond>
1.0000

> <Gold.PLP.Chemscore.CHOScore>
0.0000

> <Gold.PLP.Chemscore.Metal>
0.0000

> <Gold.Chemscore.Hbonds>
donor molecule, donor type, donor heavy atom, donor atom, acceptor molecule, acceptor atom, score
      L1  H    10    29       P1  8028  0.98

> <Gold.PLP.Chemscore.Internal.Correction>
0.0500

> <Gold.Rescore>
     Score         DG    S(hbond)    S(metal)    S(lipo)     H(rot)  DE(clash)    DE(int)     intcor
     17.11     -18.57       0.98        0.00     117.81       1.55       0.11       1.34       ----

> <Gold.Chemscore.Fitness>
17.1134

> <Gold.Chemscore.DG>
-18.5687

> <Gold.Chemscore.ZeroCoef>
-5.4800

> <Gold.Chemscore.Hbond>
0.9783

> <Gold.Chemscore.Metal>
0.0000

> <Gold.Chemscore.Lipo>
117.8070

> <Gold.Chemscore.Internal_Hbond>
0.0000

> <Gold.Chemscore.DEClash>
0.1131

> <Gold.Chemscore.DEInternal>
1.3421

> <Gold.Chemscore.Rot>
1.5478

> <Gold.Chemscore.Internal.Correction>
   9.000000E+99

> <Gold.Chemscore.Hbonds>
donor molecule, donor type, donor heavy atom, donor atom, acceptor molecule, acceptor atom, score
      L1  H    10    29       P1  8028  0.90

> <Gold.Chemscore.Hbond.Weighted>
-3.2675

> <Gold.Chemscore.Metal.Weighted>
-0.0000

> <Gold.Chemscore.Lipo.Weighted>
-13.7834

> <Gold.Chemscore.Internal_Hbond.Weighted>
0.0000

> <Gold.Chemscore.DEClash.Weighted>
0.1131

> <Gold.Chemscore.DEInternal.Weighted>
1.3421

> <Gold.Chemscore.Rot.Weighted>
3.9623

> <Gold.Chemscore.Internal.Correction.Weighted>
   9.000000E+99

> <Gold.Protein.RotatedTorsions>
[ 6907 6896 6895 6894 ] final  -93.68 input  -60.11 | X-H torsion
[ 7974 7965 7964 7962 ] final -140.02 input  175.53 | X-H torsion
[ 8008 7997 7996 7995 ] final  -68.33 input   59.86 | X-H torsion
[ 10167 10162 10161 10158 ] final  167.07 input  -65.29 | X-H torsion
[ 10718 10713 10712 10709 ] final  -57.69 input   66.30 | X-H torsion
[ 10763 10752 10751 10750 ] final -122.25 input  -60.55 | X-H torsion
[ 11005 11000 10999 10996 ] final  102.21 input  -57.11 | X-H torsion

> <Gold.Protein.ActiveResidues>
 VAL166  LYS551  ARG553  GLY616  TRP617  ASP618  TYR619  PRO620  LYS621  CYS622 
 ASP623  PHE694  ASN695  SER759  ASP760  ASP761  ALA762  ILE779  LEU786  VAL792 
 PHE793  MET794  SER795  GLU796  ALA797  LYS798  CYS799  TRP800  GLU811  SER814 

> <Gold.Protein.RotatedAtoms>
  150.6927  134.1930  159.4292 H   0  0  0  0  0  0  0  0  0  0  0  0  # atno 6907 bound_to 6896
  151.9899  134.9982  160.0570 H   0  0  0  0  0  0  0  0  0  0  0  0  # atno 6908 bound_to 6896
  152.1677  133.4588  159.4930 H   0  0  0  0  0  0  0  0  0  0  0  0  # atno 6909 bound_to 6896
  144.8630  140.6249  143.5316 H   0  0  0  0  0  0  0  0  0  0  0  0  # atno 7974 bound_to 7965
  154.4861  140.0875  156.7489 H   0  0  0  0  0  0  0  0  0  0  0  0  # atno 8008 bound_to 7997
  155.4347  140.3451  155.4265 H   0  0  0  0  0  0  0  0  0  0  0  0  # atno 8009 bound_to 7997
  156.1263  140.1488  156.9119 H   0  0  0  0  0  0  0  0  0  0  0  0  # atno 8010 bound_to 7997
  139.4937  144.3960  151.9463 H   0  0  0  0  0  0  0  0  0  0  0  0  # atno 10167 bound_to 10162
  156.1192  130.4167  150.0474 H   0  0  0  0  0  0  0  0  0  0  0  0  # atno 10718 bound_to 10713
  154.8685  135.4139  154.2752 H   0  0  0  0  0  0  0  0  0  0  0  0  # atno 10763 bound_to 10752
  153.3655  135.7005  153.6684 H   0  0  0  0  0  0  0  0  0  0  0  0  # atno 10764 bound_to 10752
  153.5567  135.3618  155.2754 H   0  0  0  0  0  0  0  0  0  0  0  0  # atno 10765 bound_to 10752
  139.8776  134.9214  156.5023 H   0  0  0  0  0  0  0  0  0  0  0  0  # atno 11005 bound_to 11000
  145.4275  139.1554  143.4040 LP  0  0  0  0  0  0  0  0  0  0  0  0  # atno 17320 bound_to 7965
  146.2875  140.4389  142.8752 LP  0  0  0  0  0  0  0  0  0  0  0  0  # atno 17321 bound_to 7965
  140.3399  144.3216  150.5969 LP  0  0  0  0  0  0  0  0  0  0  0  0  # atno 17342 bound_to 10162
  140.5575  143.2197  151.7822 LP  0  0  0  0  0  0  0  0  0  0  0  0  # atno 17343 bound_to 10162
  156.8417  130.9428  151.3631 LP  0  0  0  0  0  0  0  0  0  0  0  0  # atno 17370 bound_to 10713
  157.6375  130.8779  149.9387 LP  0  0  0  0  0  0  0  0  0  0  0  0  # atno 17371 bound_to 10713
  140.8581  133.8081  155.9236 LP  0  0  0  0  0  0  0  0  0  0  0  0  # atno 17394 bound_to 11000
  140.9077  134.2299  157.5004 LP  0  0  0  0  0  0  0  0  0  0  0  0  # atno 17395 bound_to 11000

$$$$
