#       Name:                AV-unprocessed.smi:2114
#       Creating user name   scv26
#       Creation time:       Fri Mar 27 11:36:22 2020


#       File generated by GOLD software.
#

@<TRIPOS>MOLECULE
AV-unprocessed.smi:2114
    55    56     1
SMALL
NO_CHARGES


@<TRIPOS>ATOM
      1 ****        -5.7574  -1.3087   3.0494 C.3            1 S1                 0.0000
      2 ****        -5.2910  -0.4163   2.0533 O.3            1 S1                 0.0000
      3 ****        -5.6262  -0.8390   0.7413 C.3            1 S1                 0.0000
      4 ****        -5.0769   0.1662  -0.2859 C.3            1 S1                 0.0000
      5 ****        -5.6018  -0.1292  -1.6977 C.3            1 S1                 0.0000
      6 ****        -3.6166   0.1263  -0.3053 N.am           1 S1                 0.0000
      7 ****        -2.8004   0.9311   0.3956 C.2            1 S1                 0.0000
      8 ****        -3.1977   1.8373   1.1278 O.2            1 S1                 0.0000
      9 ****        -1.3317   0.7021   0.1849 C.ar           1 S1                 0.0000
     10 ****        -0.8104  -0.5833  -0.0782 C.ar           1 S1                 0.0000
     11 ****         0.5790  -0.7387  -0.2448 C.ar           1 S1                 0.0000
     12 ****         1.4187   0.3946  -0.1373 C.ar           1 S1                 0.0000
     13 ****         2.8133   0.2597  -0.3045 N.3            1 S1                 0.0000
     14 ****         3.2388  -0.3825  -1.5448 C.3            1 S1                 0.0000
     15 ****         4.7270  -0.7784  -1.4800 C.3            1 S1                 0.0000
     16 ****         4.9920  -2.0205  -0.6104 C.3            1 S1                 0.0000
     17 ****         5.5199   0.3417  -1.0794 O.3            1 S1                 0.0000
     18 ****         5.1352   0.9340   0.1607 C.3            1 S1                 0.0000
     19 ****         6.0761   2.1115   0.4365 C.3            1 S1                 0.0000
     20 ****         3.6645   1.3804   0.0846 C.3            1 S1                 0.0000
     21 ****         0.9182   1.6248   0.1334 N.ar           1 S1                 0.0000
     22 ****        -0.4146   1.7692   0.2922 C.ar           1 S1                 0.0000
     23 ****        -5.4732  -0.9381   4.0342 H              1 S1                 0.0000
     24 ****        -5.3219  -2.3010   2.9247 H              1 S1                 0.0000
     25 ****        -6.8442  -1.3966   3.0228 H              1 S1                 0.0000
     26 ****        -5.2273  -1.8365   0.5484 H              1 S1                 0.0000
     27 ****        -6.7121  -0.9010   0.6536 H              1 S1                 0.0000
     28 ****        -5.4184   1.1666  -0.0137 H              1 S1                 0.0000
     29 ****        -6.6907  -0.0824  -1.7290 H              1 S1                 0.0000
     30 ****        -5.3021  -1.1223  -2.0345 H              1 S1                 0.0000
     31 ****        -5.2218   0.5963  -2.4177 H              1 S1                 0.0000
     32 ****        -3.1920  -0.5725  -0.8971 H              1 S1                 0.0000
     33 ****        -1.4557  -1.4469  -0.1473 H              1 S1                 0.0000
     34 ****         0.9847  -1.7211  -0.4348 H              1 S1                 0.0000
     35 ****         2.6400  -1.2621  -1.7776 H              1 S1                 0.0000
     36 ****         3.0845   0.3233  -2.3621 H              1 S1                 0.0000
     37 ****         5.0466  -1.0291  -2.4918 H              1 S1                 0.0000
     38 ****         4.4791  -2.8920  -1.0175 H              1 S1                 0.0000
     39 ****         4.6434  -1.8911   0.4140 H              1 S1                 0.0000
     40 ****         6.0569  -2.2512  -0.5759 H              1 S1                 0.0000
     41 ****         5.2565   0.2103   0.9670 H              1 S1                 0.0000
     42 ****         5.8329   2.5956   1.3826 H              1 S1                 0.0000
     43 ****         6.0092   2.8626  -0.3511 H              1 S1                 0.0000
     44 ****         7.1126   1.7774   0.4911 H              1 S1                 0.0000
     45 ****         3.5508   2.1861  -0.6422 H              1 S1                 0.0000
     46 ****         3.3554   1.7700   1.0555 H              1 S1                 0.0000
     47 ****        -0.7530   2.7725   0.5064 H              1 S1                 0.0000
     48 ****        -4.2957  -0.3496   2.1238 LP             1 S1                 0.0000
     49 ****        -5.6974   0.4832   2.2136 LP             1 S1                 0.0000
     50 ****        -4.1782   2.0073   1.2259 LP             1 S1                 0.0000
     51 ****        -2.5399   2.4035   1.6245 LP             1 S1                 0.0000
     52 ****         2.9917  -0.4031   0.4228 LP             1 S1                 0.0000
     53 ****         5.4538   1.0404  -1.7917 LP             1 S1                 0.0000
     54 ****         6.4691   0.0378  -0.9978 LP             1 S1                 0.0000
     55 ****         1.5273   2.4138   0.2143 LP             1 S1                 0.0000
@<TRIPOS>BOND
    1    1    2 1     
    2    1   23 1     
    3    1   24 1     
    4    1   25 1     
    5    2    3 1     
    6    3    4 1     
    7    3   26 1     
    8    3   27 1     
    9    4    5 1     
   10    4    6 1     
   11    4   28 1     
   12    5   29 1     
   13    5   30 1     
   14    5   31 1     
   15    6    7 am    
   16    6   32 1     
   17    7    8 2     
   18    7    9 1     
   19    9   22 ar    
   20    9   10 ar    
   21   10   11 ar    
   22   10   33 1     
   23   11   12 ar    
   24   11   34 1     
   25   12   13 1     
   26   12   21 ar    
   27   13   20 1     
   28   13   14 1     
   29   14   15 1     
   30   14   35 1     
   31   14   36 1     
   32   15   16 1     
   33   15   17 1     
   34   15   37 1     
   35   16   38 1     
   36   16   39 1     
   37   16   40 1     
   38   17   18 1     
   39   18   19 1     
   40   18   20 1     
   41   18   41 1     
   42   19   42 1     
   43   19   43 1     
   44   19   44 1     
   45   20   45 1     
   46   20   46 1     
   47   21   22 ar    
   48   22   47 1     
   49    2   48 1     
   50    2   49 1     
   51    8   50 1     
   52    8   51 1     
   53   13   52 1     
   54   17   53 1     
   55   17   54 1     
   56   21   55 1     
@<TRIPOS>SUBSTRUCTURE
      1 S1             1
@<TRIPOS>SET
LONE_PAIRS      STATIC     ATOMS    <user>   **** ""
8 48 49 50 51 52 53 54 55
DONOR_HYDROGENS      STATIC     ATOMS    <user>   **** ""
1 32
ATOM$BLUE        STATIC     ATOMS    COLORGROUP SYSTEM
8 48 49 50 51 52 53 54 55
ATOM$RED        STATIC     ATOMS    COLORGROUP SYSTEM
1 32
