AV-unprocessed.smi:72|AV-procd|sdf|714|dock6
  -GOLD-   2262017 33D 1   1.00000     0.00000
 Structure written by MMmdl.
 28 29  0  0  0  0  0  0  0  0  2 V2000
  151.9314  134.6846  157.2406 N   0  0  0  0  0  0  0  0  0  0  0  0
  151.8447  135.9150  156.9800 C   0  0  0  0  0  0  0  0  0  0  0  0
  150.5870  136.6080  157.1556 N   0  0  0  0  0  0  0  0  0  0  0  0
  150.5480  137.8719  156.8648 C   0  0  0  0  0  0  0  0  0  0  0  0
  151.7194  138.5851  156.3744 N   0  0  0  0  0  0  0  0  0  0  0  0
  151.6510  140.0646  156.0458 C   0  0  1  0  0  0  0  0  0  0  0  0
  150.7139  140.2612  155.0277 O   0  0  0  0  0  0  0  0  0  0  0  0
  149.9414  141.4247  155.3037 C   0  0  1  0  0  0  0  0  0  0  0  0
  148.5982  141.3915  154.5531 C   0  0  0  0  0  0  0  0  0  0  0  0
  148.8163  141.1961  153.1719 O   0  0  0  0  0  0  0  0  0  0  0  0
  149.8438  141.4301  156.8357 C   0  0  1  0  0  0  0  0  0  0  0  0
  148.8039  140.5755  157.2833 O   0  0  0  0  0  0  0  0  0  0  0  0
  151.2261  140.9350  157.2485 C   0  0  1  0  0  0  0  0  0  0  0  0
  151.2359  140.2959  158.5139 O   0  0  0  0  0  0  0  0  0  0  0  0
  152.9463  137.8837  156.2293 C   0  0  0  0  0  0  0  0  0  0  0  0
  153.9343  138.5096  155.8450 O   0  0  0  0  0  0  0  0  0  0  0  0
  152.9790  136.5554  156.5319 N   0  5  0  0  0  0  0  0  0  0  0  0
  152.6295  140.3417  155.6515 H   0  0  0  0  0  0  0  0  0  0  0  0
  150.5198  142.2996  154.9997 H   0  0  0  0  0  0  0  0  0  0  0  0
  149.6457  142.4304  157.2218 H   0  0  0  0  0  0  0  0  0  0  0  0
  151.9091  141.7845  157.2866 H   0  0  0  0  0  0  0  0  0  0  0  0
  152.8601  134.3230  157.0779 H   0  0  0  0  0  0  0  0  0  0  0  0
  149.6460  138.4754  156.9711 H   0  0  0  0  0  0  0  0  0  0  0  0
  147.9421  140.6144  154.9469 H   0  0  0  0  0  0  0  0  0  0  0  0
  148.0805  142.3443  154.6679 H   0  0  0  0  0  0  0  0  0  0  0  0
  149.0301  140.2871  153.0273 H   0  0  0  0  0  0  0  0  0  0  0  0
  148.9350  139.7225  156.8976 H   0  0  0  0  0  0  0  0  0  0  0  0
  150.4126  140.4743  158.9428 H   0  0  0  0  0  0  0  0  0  0  0  0
  1  2  2  0  0  0  0
  1 22  1  0  0  0  0
  2 17  1  0  0  0  0
  2  3  1  0  0  0  0
  3  4  2  0  0  0  0
  4  5  1  0  0  0  0
  4 23  1  0  0  0  0
  5  6  1  0  0  0  0
  5 15  1  0  0  0  0
  6 18  1  0  0  0  0
  6 13  1  0  0  0  0
  6  7  1  0  0  0  0
  7  8  1  0  0  0  0
  8 19  1  0  0  0  0
  8  9  1  0  0  0  0
  8 11  1  0  0  0  0
  9 10  1  0  0  0  0
  9 24  1  0  0  0  0
  9 25  1  0  0  0  0
 10 26  1  0  0  0  0
 11 20  1  0  0  0  0
 11 12  1  0  0  0  0
 11 13  1  0  0  0  0
 12 27  1  0  0  0  0
 13 21  1  0  0  0  0
 13 14  1  0  0  0  0
 14 28  1  0  0  0  0
 15 16  2  0  0  0  0
 15 17  1  0  0  0  0
M  CHG  1  17  -1
M  END
> <s_m_source_file>
AV-unprocessed.smi

> <i_m_source_file_index>
72

> <i_lp_mmshare_version>
43012

> <i_f3d_flags>
0

> <s_epik_input>
W05IMl1jMW5bY0hdbihjKD1PKW4xKVtDQEBIXTJPW0NASF0oW0NIMl1bT0hdKVtDQEBIXShbT0hdKVtDQEhdMltPSF0=

> <s_epik_cmdline>
J2VwaWtfcHl0aG9uJywgJy1waCcsICc3LjAnLCAnLXRuJywgJzgnLCAnLW1hJywgJzIwMCcsICctbWV0YWxfYmluZGluZycsICctaW1hZScsICc8aW5maWxlLm1hZT4nLCAnLW9tYWUnLCAnPG91dGZpbGUubWFlPic=

> <r_lp_tautomer_probability>
7.17554e-07

> <r_epik_Ionization_Penalty>
12.8705

> <r_epik_Ionization_Penalty_Charging>
5.64144

> <r_epik_Ionization_Penalty_Neutral>
7.22905

> <r_epik_State_Penalty>
3.30104

> <r_epik_Charging_Adjusted_Penalty>
8.94249

> <i_epik_Tot_Q>
-1

> <i_epik_Tot_abs_Q>
1

> <r_epik_Metal_State_Penalty>
0.529074

> <b_epik_Metal_Only>
1

> <s_epik_Chemistry_Notes>
This compound contains an acetal/aminal-like group ( X-CH(R)-Y where X, Y are N, S, or O) that may be acid/base labile, releasing an aldehyde.

> <s_lp_Force_Field>
OPLS_2005

> <r_lp_Energy>
43.693

> <b_lp_Chiralities_Consistent>
1

> <s_lp_Variant>
AV-unprocessed.smi:72-52

> <Gold.Version>
5.8.1

> <Gold.Id.Protein>
6NUR|6NUR_protein|mol2

> <Gold.PLP.Fitness>
36.9652

> <Gold.PLP.PLP>
-22.3034

> <Gold.PLP.part.hbond>
-6.2937

> <Gold.PLP.part.metal>
0.0000

> <Gold.PLP.part.buried>
-2.6270

> <Gold.PLP.part.nonpolar>
-14.1184

> <Gold.PLP.part.repulsive>
0.0620

> <Gold.PLP.ligand.clash>
0.0000

> <Gold.PLP.ligand.torsion>
0.0270

> <Gold.PLP.Chemscore.Hbond>
4.9040

> <Gold.PLP.Chemscore.CHOScore>
0.0000

> <Gold.PLP.Chemscore.Metal>
0.0000

> <Gold.Chemscore.Hbonds>
donor molecule, donor type, donor heavy atom, donor atom, acceptor molecule, acceptor atom, score
      L1  H    10    26       P1  7957  0.18
      P1  H  7989  7998       L1     7  0.95
      P1  H  7997  8010       L1    16  0.58
      P1  H  8011  8017       L1    10  1.00
      P1  H 10752 10763       L1    17  1.69

> <Gold.PLP.Chemscore.Internal.Correction>
0.0037

> <Gold.Rescore>
     Score         DG    S(hbond)    S(metal)    S(lipo)     H(rot)  DE(clash)    DE(int)     intcor
      5.33      -7.10       2.67        0.00      25.93       4.04       0.49       1.28       ----

> <Gold.Chemscore.Fitness>
5.3275

> <Gold.Chemscore.DG>
-7.0971

> <Gold.Chemscore.ZeroCoef>
-5.4800

> <Gold.Chemscore.Hbond>
2.6725

> <Gold.Chemscore.Metal>
0.0000

> <Gold.Chemscore.Lipo>
25.9315

> <Gold.Chemscore.Internal_Hbond>
0.0000

> <Gold.Chemscore.DEClash>
0.4887

> <Gold.Chemscore.DEInternal>
1.2810

> <Gold.Chemscore.Rot>
4.0403

> <Gold.Chemscore.Internal.Correction>
   9.000000E+99

> <Gold.Chemscore.Hbonds>
donor molecule, donor type, donor heavy atom, donor atom, acceptor molecule, acceptor atom, score
      L1  H    10    26       P1  7957  0.18
      P1  H  7989  7998       L1     7  0.14
      P1  H  7997  8010       L1    16  0.58
      P1  H  8011  8017       L1    10  0.87
      P1  H 10752 10763       L1    17  0.13

> <Gold.Chemscore.Hbond.Weighted>
-8.9262

> <Gold.Chemscore.Metal.Weighted>
-0.0000

> <Gold.Chemscore.Lipo.Weighted>
-3.0340

> <Gold.Chemscore.Internal_Hbond.Weighted>
0.0000

> <Gold.Chemscore.DEClash.Weighted>
0.4887

> <Gold.Chemscore.DEInternal.Weighted>
1.2810

> <Gold.Chemscore.Rot.Weighted>
10.3431

> <Gold.Chemscore.Internal.Correction.Weighted>
   9.000000E+99

> <Gold.Protein.RotatedTorsions>
[ 6907 6896 6895 6894 ] final  168.52 input  -60.11 | X-H torsion
[ 7974 7965 7964 7962 ] final  -57.96 input  175.53 | X-H torsion
[ 8008 7997 7996 7995 ] final   84.74 input   59.86 | X-H torsion
[ 10167 10162 10161 10158 ] final   54.30 input  -65.29 | X-H torsion
[ 10718 10713 10712 10709 ] final -142.82 input   66.30 | X-H torsion
[ 10763 10752 10751 10750 ] final  103.18 input  -60.55 | X-H torsion
[ 11005 11000 10999 10996 ] final   62.74 input  -57.11 | X-H torsion

> <Gold.Protein.ActiveResidues>
 VAL166  LYS551  ARG553  GLY616  TRP617  ASP618  TYR619  PRO620  LYS621  CYS622 
 ASP623  PHE694  ASN695  SER759  ASP760  ASP761  ALA762  ILE779  LEU786  VAL792 
 PHE793  MET794  SER795  GLU796  ALA797  LYS798  CYS799  TRP800  GLU811  SER814 

> <Gold.Protein.RotatedAtoms>
  151.8463  133.3432  159.3658 H   0  0  0  0  0  0  0  0  0  0  0  0  # atno 6907 bound_to 6896
  150.7219  134.5342  159.5724 H   0  0  0  0  0  0  0  0  0  0  0  0  # atno 6908 bound_to 6896
  152.2826  134.7812  160.0444 H   0  0  0  0  0  0  0  0  0  0  0  0  # atno 6909 bound_to 6896
  145.8450  140.8391  143.0015 H   0  0  0  0  0  0  0  0  0  0  0  0  # atno 7974 bound_to 7965
  155.9410  140.3408  155.6327 H   0  0  0  0  0  0  0  0  0  0  0  0  # atno 8008 bound_to 7997
  155.7040  140.0763  157.2417 H   0  0  0  0  0  0  0  0  0  0  0  0  # atno 8009 bound_to 7997
  154.4102  140.1635  156.2210 H   0  0  0  0  0  0  0  0  0  0  0  0  # atno 8010 bound_to 7997
  140.2315  144.3681  150.6412 H   0  0  0  0  0  0  0  0  0  0  0  0  # atno 10167 bound_to 10162
  156.3506  130.7686  151.1838 H   0  0  0  0  0  0  0  0  0  0  0  0  # atno 10718 bound_to 10713
  153.3493  135.3985  155.1633 H   0  0  0  0  0  0  0  0  0  0  0  0  # atno 10763 bound_to 10752
  154.8659  135.3652  154.5243 H   0  0  0  0  0  0  0  0  0  0  0  0  # atno 10764 bound_to 10752
  153.5694  135.7079  153.5571 H   0  0  0  0  0  0  0  0  0  0  0  0  # atno 10765 bound_to 10752
  140.0072  134.6352  155.9837 H   0  0  0  0  0  0  0  0  0  0  0  0  # atno 11005 bound_to 11000
  144.6731  140.0868  143.7467 LP  0  0  0  0  0  0  0  0  0  0  0  0  # atno 17320 bound_to 7965
  145.9422  139.2677  143.1262 LP  0  0  0  0  0  0  0  0  0  0  0  0  # atno 17321 bound_to 7965
  140.6181  143.2174  151.6750 LP  0  0  0  0  0  0  0  0  0  0  0  0  # atno 17342 bound_to 10162
  139.5108  144.3530  152.0634 LP  0  0  0  0  0  0  0  0  0  0  0  0  # atno 17343 bound_to 10162
  157.7460  131.0428  150.4715 LP  0  0  0  0  0  0  0  0  0  0  0  0  # atno 17370 bound_to 10713
  156.4910  130.4095  149.6407 LP  0  0  0  0  0  0  0  0  0  0  0  0  # atno 17371 bound_to 10713
  141.1685  133.6537  156.4565 LP  0  0  0  0  0  0  0  0  0  0  0  0  # atno 17394 bound_to 11000
  140.4620  134.6832  157.5090 LP  0  0  0  0  0  0  0  0  0  0  0  0  # atno 17395 bound_to 11000

$$$$
