#       Name:                AV-unprocessed.smi:592
#       Creating user name   scv26
#       Creation time:       Thu Mar 26 23:52:01 2020


#       File generated by GOLD software.
#

@<TRIPOS>MOLECULE
AV-unprocessed.smi:592
    32    33     1
SMALL
NO_CHARGES


@<TRIPOS>ATOM
      1 ****        -0.1466   1.6781   1.2710 O.2            1 S1                 0.0000
      2 ****         0.2779   0.5204   1.2247 C.2            1 S1                 0.0000
      3 ****         1.7938   0.3004   1.1533 C.3            1 S1                 0.0000
      4 ****         2.2594   0.2018  -0.2390 N.am           1 S1                 0.0000
      5 ****         2.5493   1.4136  -0.8975 C.2            1 S1                 0.0000
      6 ****         2.9708   1.4478  -2.1714 C.2            1 S1                 0.0000
      7 ****         3.1264   0.1954  -2.8721 C.2            1 S1                 0.0000
      8 ****         2.8531  -0.9698  -2.2521 C.2            1 S1                 0.0000
      9 ****         2.3933  -1.0118  -0.8589 C.2            1 S1                 0.0000
     10 ****         2.1427  -2.0734  -0.2883 O.2            1 S1                 0.0000
     11 ****        -0.4287  -0.6774   1.2194 N.2            1 S1                 0.0000
     12 ****        -1.7273  -0.6982   1.2107 C.2            1 S1                 0.0000
     13 ****        -2.6168   0.3721   1.2059 N.pl3          1 S1                 0.0000
     14 ****        -3.9936   0.0956   0.8397 C.3            1 S1                 0.0000
     15 ****        -4.3058  -1.3301   1.2856 C.3            1 S1                 0.0000
     16 ****        -2.7339  -2.2057   1.1957 S.3            1 S1                 0.0000
     17 ****         2.2938   1.1326   1.6517 H              1 S1                 0.0000
     18 ****         2.0704  -0.5801   1.7369 H              1 S1                 0.0000
     19 ****         2.4014   2.3043  -0.3038 H              1 S1                 0.0000
     20 ****         3.1848   2.3871  -2.6598 H              1 S1                 0.0000
     21 ****         3.4620   0.1926  -3.8987 H              1 S1                 0.0000
     22 ****         2.9737  -1.8970  -2.7928 H              1 S1                 0.0000
     23 ****        -4.6713   0.8158   1.2985 H              1 S1                 0.0000
     24 ****        -4.0902   0.1884  -0.2426 H              1 S1                 0.0000
     25 ****        -4.6442  -1.3384   2.3220 H              1 S1                 0.0000
     26 ****        -5.0705  -1.8040   0.6701 H              1 S1                 0.0000
     27 ****        -2.3241   1.3389   1.1931 H              1 S1                 0.0000
     28 ****         0.4937   2.4462   1.2615 LP             1 S1                 0.0000
     29 ****        -1.1309   1.8483   1.3180 LP             1 S1                 0.0000
     30 ****         1.8292  -2.0688   0.6612 LP             1 S1                 0.0000
     31 ****         2.2526  -2.9404  -0.7744 LP             1 S1                 0.0000
     32 ****         0.0742  -1.5417   1.2223 LP             1 S1                 0.0000
@<TRIPOS>BOND
    1    1    2 2     
    2    2    3 1     
    3    2   11 1     
    4    3    4 1     
    5    3   17 1     
    6    3   18 1     
    7    4    9 am    
    8    4    5 1     
    9    5    6 2     
   10    5   19 1     
   11    6    7 1     
   12    6   20 1     
   13    7    8 2     
   14    7   21 1     
   15    8    9 1     
   16    8   22 1     
   17    9   10 2     
   18   11   12 2     
   19   12   16 1     
   20   12   13 1     
   21   13   14 1     
   22   13   27 1     
   23   14   15 1     
   24   14   23 1     
   25   14   24 1     
   26   15   16 1     
   27   15   25 1     
   28   15   26 1     
   29    1   28 1     
   30    1   29 1     
   31   10   30 1     
   32   10   31 1     
   33   11   32 1     
@<TRIPOS>SUBSTRUCTURE
      1 S1             1
@<TRIPOS>SET
LONE_PAIRS      STATIC     ATOMS    <user>   **** ""
5 28 29 30 31 32
DONOR_HYDROGENS      STATIC     ATOMS    <user>   **** ""
1 27
ATOM$BLUE        STATIC     ATOMS    COLORGROUP SYSTEM
5 28 29 30 31 32
ATOM$RED        STATIC     ATOMS    COLORGROUP SYSTEM
1 27
