AV-unprocessed.smi:2471|AV-procd|sdf|9740|dock4
  -GOLD-   2272013383D 1   1.00000     0.00000
 Structure written by MMmdl.
 40 41  0  0  0  0  0  0  0  0  1 V2000
  153.3552  142.1212  160.8476 C   0  0  0  0  0  0  0  0  0  0  0  0
  152.4886  143.1306  160.1241 C   0  0  0  0  0  0  0  0  0  0  0  0
  152.3914  144.4600  160.5791 C   0  0  0  0  0  0  0  0  0  0  0  0
  151.5731  145.3485  159.8587 C   0  0  0  0  0  0  0  0  0  0  0  0
  150.8904  144.8745  158.7218 C   0  0  0  0  0  0  0  0  0  0  0  0
  151.0424  143.5246  158.3322 C   0  0  0  0  0  0  0  0  0  0  0  0
  150.3136  143.1453  157.1734 N   0  0  0  0  0  0  0  0  0  0  0  0
  150.4179  142.0087  156.4621 C   0  0  0  0  0  0  0  0  0  0  0  0
  151.1818  141.0766  156.7155 O   0  0  0  0  0  0  0  0  0  0  0  0
  149.5722  142.0062  155.4215 N   0  0  0  0  0  0  0  0  0  0  0  0
  149.4340  140.9149  154.4613 C   0  0  0  0  0  0  0  0  0  0  0  0
  149.5266  139.5203  155.1260 C   0  0  1  0  0  0  0  0  0  0  0  0
  148.1764  138.7694  155.0437 C   0  0  0  0  0  0  0  0  0  0  0  0
  148.2523  137.3663  155.6651 C   0  0  0  0  0  0  0  0  0  0  0  0
  149.3633  136.5323  155.0137 C   0  0  0  0  0  0  0  0  0  0  0  0
  150.7146  137.2518  155.1185 C   0  0  0  0  0  0  0  0  0  0  0  0
  150.6535  138.6612  154.4999 C   0  0  2  0  0  0  0  0  0  0  0  0
  151.9112  139.2733  154.7067 O   0  0  0  0  0  0  0  0  0  0  0  0
  151.8351  142.6761  159.0333 N   0  0  0  0  0  0  0  0  0  0  0  0
  153.6729  142.4988  161.8199 H   0  0  0  0  0  0  0  0  0  0  0  0
  154.2459  141.8992  160.2593 H   0  0  0  0  0  0  0  0  0  0  0  0
  152.8081  141.1915  161.0079 H   0  0  0  0  0  0  0  0  0  0  0  0
  152.9287  144.7927  161.4550 H   0  0  0  0  0  0  0  0  0  0  0  0
  151.4702  146.3768  160.1723 H   0  0  0  0  0  0  0  0  0  0  0  0
  150.2575  145.5446  158.1579 H   0  0  0  0  0  0  0  0  0  0  0  0
  149.6375  143.8192  156.8465 H   0  0  0  0  0  0  0  0  0  0  0  0
  148.9794  142.8118  155.2845 H   0  0  0  0  0  0  0  0  0  0  0  0
  148.4716  141.0249  153.9611 H   0  0  0  0  0  0  0  0  0  0  0  0
  150.1924  141.0283  153.6851 H   0  0  0  0  0  0  0  0  0  0  0  0
  149.7645  139.6593  156.1822 H   0  0  0  0  0  0  0  0  0  0  0  0
  147.3946  139.3362  155.5499 H   0  0  0  0  0  0  0  0  0  0  0  0
  147.8675  138.6847  154.0009 H   0  0  0  0  0  0  0  0  0  0  0  0
  148.4360  137.4500  156.7371 H   0  0  0  0  0  0  0  0  0  0  0  0
  147.2938  136.8586  155.5538 H   0  0  0  0  0  0  0  0  0  0  0  0
  149.4237  135.5541  155.4915 H   0  0  0  0  0  0  0  0  0  0  0  0
  149.1226  136.3521  153.9652 H   0  0  0  0  0  0  0  0  0  0  0  0
  151.0034  137.3207  156.1687 H   0  0  0  0  0  0  0  0  0  0  0  0
  151.4857  136.6589  154.6251 H   0  0  0  0  0  0  0  0  0  0  0  0
  150.4912  138.5748  153.4246 H   0  0  0  0  0  0  0  0  0  0  0  0
  152.3119  138.8888  155.4713 H   0  0  0  0  0  0  0  0  0  0  0  0
  1  2  1  0  0  0  0
  1 20  1  0  0  0  0
  1 21  1  0  0  0  0
  1 22  1  0  0  0  0
  2 19  1  0  0  0  0
  2  3  2  0  0  0  0
  3  4  1  0  0  0  0
  3 23  1  0  0  0  0
  4  5  2  0  0  0  0
  4 24  1  0  0  0  0
  5  6  1  0  0  0  0
  5 25  1  0  0  0  0
  6  7  1  0  0  0  0
  6 19  2  0  0  0  0
  7  8  1  0  0  0  0
  7 26  1  0  0  0  0
  8  9  2  0  0  0  0
  8 10  1  0  0  0  0
 10 11  1  0  0  0  0
 10 27  1  0  0  0  0
 11 12  1  0  0  0  0
 11 28  1  0  0  0  0
 11 29  1  0  0  0  0
 12 17  1  0  0  0  0
 12 13  1  0  0  0  0
 12 30  1  0  0  0  0
 13 14  1  0  0  0  0
 13 31  1  0  0  0  0
 13 32  1  0  0  0  0
 14 15  1  0  0  0  0
 14 33  1  0  0  0  0
 14 34  1  0  0  0  0
 15 16  1  0  0  0  0
 15 35  1  0  0  0  0
 15 36  1  0  0  0  0
 16 17  1  0  0  0  0
 16 37  1  0  0  0  0
 16 38  1  0  0  0  0
 17 18  1  0  0  0  0
 17 39  1  0  0  0  0
 18 40  1  0  0  0  0
M  END
> <s_m_source_file>
AV-unprocessed.smi

> <i_m_source_file_index>
2471

> <i_lp_mmshare_version>
43012

> <i_f3d_flags>
0

> <s_epik_input>
W0NIM11jMVtjSF1bY0hdW2NIXWMobjEpW05IXUMoPU8pW05IXVtDSDJdW0NAQEhdMltDSDJdW0NIMl1bQ0gyXVtDSDJdW0NASF0yW09IXQ==

> <s_epik_cmdline>
J2VwaWtfcHl0aG9uJywgJy1waCcsICc3LjAnLCAnLXRuJywgJzgnLCAnLW1hJywgJzIwMCcsICctbWV0YWxfYmluZGluZycsICctaW1hZScsICc8aW5maWxlLm1hZT4nLCAnLW9tYWUnLCAnPG91dGZpbGUubWFlPic=

> <r_lp_tautomer_probability>
1

> <r_epik_Ionization_Penalty>
8.52237e-05

> <r_epik_Ionization_Penalty_Charging>
0

> <r_epik_Ionization_Penalty_Neutral>
8.52237e-05

> <r_epik_State_Penalty>
-0

> <r_epik_Charging_Adjusted_Penalty>
0

> <i_epik_Tot_Q>
0

> <i_epik_Tot_abs_Q>
0

> <r_epik_Metal_State_Penalty>
-0

> <b_epik_Metal_Only>
0

> <s_lp_Force_Field>
OPLS_2005

> <r_lp_Energy>
14.0215

> <b_lp_Chiralities_Consistent>
1

> <s_lp_Variant>
AV-unprocessed.smi:2471-4

> <Gold.Version>
5.8.1

> <Gold.Id.Protein>
6NUR|6NUR_protein|mol2

> <Gold.PLP.Fitness>
44.7274

> <Gold.PLP.PLP>
-38.2193

> <Gold.PLP.part.hbond>
-3.0000

> <Gold.PLP.part.metal>
0.0000

> <Gold.PLP.part.buried>
-5.2358

> <Gold.PLP.part.nonpolar>
-30.3251

> <Gold.PLP.part.repulsive>
0.2042

> <Gold.PLP.ligand.clash>
0.0000

> <Gold.PLP.ligand.torsion>
0.9115

> <Gold.PLP.Chemscore.Hbond>
2.7752

> <Gold.PLP.Chemscore.CHOScore>
0.0000

> <Gold.PLP.Chemscore.Metal>
0.0000

> <Gold.Chemscore.Hbonds>
donor molecule, donor type, donor heavy atom, donor atom, acceptor molecule, acceptor atom, score
      L1  H     7    26       P1  8028  1.00
      L1  H    10    27       P1  8028  0.85
      P1  H  7989  7998       L1    18  0.88

> <Gold.PLP.Chemscore.Internal.Correction>
0.0056

> <Gold.Rescore>
     Score         DG    S(hbond)    S(metal)    S(lipo)     H(rot)  DE(clash)    DE(int)     intcor
     16.34     -20.09       2.65        0.00      87.15       1.73       0.16       3.58       ----

> <Gold.Chemscore.Fitness>
16.3445

> <Gold.Chemscore.DG>
-20.0877

> <Gold.Chemscore.ZeroCoef>
-5.4800

> <Gold.Chemscore.Hbond>
2.6497

> <Gold.Chemscore.Metal>
0.0000

> <Gold.Chemscore.Lipo>
87.1500

> <Gold.Chemscore.Internal_Hbond>
0.0000

> <Gold.Chemscore.DEClash>
0.1587

> <Gold.Chemscore.DEInternal>
3.5846

> <Gold.Chemscore.Rot>
1.7339

> <Gold.Chemscore.Internal.Correction>
   9.000000E+99

> <Gold.Chemscore.Hbonds>
donor molecule, donor type, donor heavy atom, donor atom, acceptor molecule, acceptor atom, score
      L1  H     7    26       P1  8028  0.93
      L1  H    10    27       P1  8028  0.84
      P1  H  7989  7998       L1    18  0.16

> <Gold.Chemscore.Hbond.Weighted>
-8.8499

> <Gold.Chemscore.Metal.Weighted>
-0.0000

> <Gold.Chemscore.Lipo.Weighted>
-10.1966

> <Gold.Chemscore.Internal_Hbond.Weighted>
0.0000

> <Gold.Chemscore.DEClash.Weighted>
0.1587

> <Gold.Chemscore.DEInternal.Weighted>
3.5846

> <Gold.Chemscore.Rot.Weighted>
4.4387

> <Gold.Chemscore.Internal.Correction.Weighted>
   9.000000E+99

> <Gold.Protein.RotatedTorsions>
[ 6907 6896 6895 6894 ] final   97.70 input  -60.11 | X-H torsion
[ 7974 7965 7964 7962 ] final  -19.46 input  175.53 | X-H torsion
[ 8008 7997 7996 7995 ] final  177.39 input   59.86 | X-H torsion
[ 10167 10162 10161 10158 ] final   19.10 input  -65.29 | X-H torsion
[ 10718 10713 10712 10709 ] final  156.55 input   66.30 | X-H torsion
[ 10763 10752 10751 10750 ] final -108.09 input  -60.55 | X-H torsion
[ 11005 11000 10999 10996 ] final  -88.90 input  -57.11 | X-H torsion

> <Gold.Protein.ActiveResidues>
 VAL166  LYS551  ARG553  GLY616  TRP617  ASP618  TYR619  PRO620  LYS621  CYS622 
 ASP623  PHE694  ASN695  SER759  ASP760  ASP761  ALA762  ILE779  LEU786  VAL792 
 PHE793  MET794  SER795  GLU796  ALA797  LYS798  CYS799  TRP800  GLU811  SER814 

> <Gold.Protein.RotatedAtoms>
  152.5420  134.0693  159.8186 H   0  0  0  0  0  0  0  0  0  0  0  0  # atno 6907 bound_to 6896
  151.0810  133.5383  159.2628 H   0  0  0  0  0  0  0  0  0  0  0  0  # atno 6908 bound_to 6896
  151.2210  135.0527  159.9004 H   0  0  0  0  0  0  0  0  0  0  0  0  # atno 6909 bound_to 6896
  146.1840  140.4065  142.8483 H   0  0  0  0  0  0  0  0  0  0  0  0  # atno 7974 bound_to 7965
  156.0662  140.1359  156.9883 H   0  0  0  0  0  0  0  0  0  0  0  0  # atno 8008 bound_to 7997
  154.4507  140.0981  156.6662 H   0  0  0  0  0  0  0  0  0  0  0  0  # atno 8009 bound_to 7997
  155.5300  140.3458  155.4426 H   0  0  0  0  0  0  0  0  0  0  0  0  # atno 8010 bound_to 7997
  140.5604  143.9347  150.6638 H   0  0  0  0  0  0  0  0  0  0  0  0  # atno 10167 bound_to 10162
  157.2035  131.0681  151.2011 H   0  0  0  0  0  0  0  0  0  0  0  0  # atno 10718 bound_to 10713
  154.8115  135.4650  154.0528 H   0  0  0  0  0  0  0  0  0  0  0  0  # atno 10763 bound_to 10752
  153.1956  135.6861  153.8304 H   0  0  0  0  0  0  0  0  0  0  0  0  # atno 10764 bound_to 10752
  153.7806  135.3257  155.3342 H   0  0  0  0  0  0  0  0  0  0  0  0  # atno 10765 bound_to 10752
  141.1594  133.7598  156.9518 H   0  0  0  0  0  0  0  0  0  0  0  0  # atno 11005 bound_to 11000
  144.8364  140.6789  143.6257 LP  0  0  0  0  0  0  0  0  0  0  0  0  # atno 17320 bound_to 7965
  145.3993  139.1601  143.4186 LP  0  0  0  0  0  0  0  0  0  0  0  0  # atno 17321 bound_to 7965
  140.2797  143.3398  152.1163 LP  0  0  0  0  0  0  0  0  0  0  0  0  # atno 17342 bound_to 10162
  139.5067  144.6819  151.5986 LP  0  0  0  0  0  0  0  0  0  0  0  0  # atno 17343 bound_to 10162
  157.3744  130.7198  149.6586 LP  0  0  0  0  0  0  0  0  0  0  0  0  # atno 17370 bound_to 10713
  155.9698  130.4190  150.4354 LP  0  0  0  0  0  0  0  0  0  0  0  0  # atno 17371 bound_to 10713
  140.1252  134.9391  157.2259 LP  0  0  0  0  0  0  0  0  0  0  0  0  # atno 17394 bound_to 11000
  140.3022  134.3119  155.7287 LP  0  0  0  0  0  0  0  0  0  0  0  0  # atno 17395 bound_to 11000

$$$$
