#       Name:                AV-unprocessed.smi:287
#       Creating user name   scv26
#       Creation time:       Thu Mar 26 21:56:14 2020


#       File generated by GOLD software.
#

@<TRIPOS>MOLECULE
AV-unprocessed.smi:287
    70    73     1
SMALL
NO_CHARGES


@<TRIPOS>ATOM
      1 ****         0.9981   5.3717  -3.2863 C.3            1 S1                 0.0000
      2 ****         0.3952   5.0510  -1.9613 C.2            1 S1                 0.0000
      3 ****        -0.3887   4.0331  -1.5019 C.2            1 S1                 0.0000
      4 ****        -0.6438   4.2813  -0.1201 C.2            1 S1                 0.0000
      5 ****        -1.4740   3.4002   0.8041 C.3            1 S1                 0.0000
      6 ****        -2.9442   3.4032   0.3522 C.3            1 S1                 0.0000
      7 ****        -1.4962   3.8668   2.1392 O.3            1 S1                 0.0000
      8 ****        -0.9403   1.9513   0.8636 C.3            1 S1                 0.0000
      9 ****         0.5099   1.8859   0.9910 N.pl3          1 S1                 0.0000
     10 ****         1.1596   0.7044   0.9409 C.ar           1 S1                 0.0000
     11 ****         2.5112   0.7804   0.9897 N.ar           1 S1                 0.0000
     12 ****         3.2499  -0.3316   0.9419 C.ar           1 S1                 0.0000
     13 ****         2.8442  -1.5990   0.8469 N.ar           1 S1                 0.0000
     14 ****         1.4831  -1.6838   0.8010 C.ar           1 S1                 0.0000
     15 ****         0.5704  -0.5912   0.8417 C.ar           1 S1                 0.0000
     16 ****        -0.7300  -1.0807   0.7713 N.2            1 S1                 0.0000
     17 ****        -0.5867  -2.3755   0.6903 C.2            1 S1                 0.0000
     18 ****         0.7160  -2.8231   0.6974 N.pl3          1 S1                 0.0000
     19 ****         1.2354  -4.2257   0.6197 C.3            1 S1                 0.0000
     20 ****         0.2350  -5.0711   1.1055 O.3            1 S1                 0.0000
     21 ****        -0.1586  -6.0225   0.1165 C.3            1 S1                 0.0000
     22 ****        -1.6504  -6.3762   0.2519 C.3            1 S1                 0.0000
     23 ****        -1.8308  -7.3329   1.2737 O.3            1 S1                 0.0000
     24 ****         0.2568  -5.3948  -1.2220 C.3            1 S1                 0.0000
     25 ****        -0.7482  -4.5294  -1.7240 O.3            1 S1                 0.0000
     26 ****         1.5264  -4.6519  -0.8315 C.3            1 S1                 0.0000
     27 ****         1.8579  -3.6058  -1.7294 O.3            1 S1                 0.0000
     28 ****         0.0167   5.4556   0.1527 C.2            1 S1                 0.0000
     29 ****         0.1826   6.2943   1.3771 C.3            1 S1                 0.0000
     30 ****         0.6483   5.9281  -0.9581 O.3            1 S1                 0.0000
     31 ****         2.1135  -4.2333   1.2665 H              1 S1                 0.0000
     32 ****         0.4497  -6.9174   0.2609 H              1 S1                 0.0000
     33 ****         0.4546  -6.1547  -1.9786 H              1 S1                 0.0000
     34 ****         2.3557  -5.3598  -0.7976 H              1 S1                 0.0000
     35 ****         0.9836   4.5003  -3.9413 H              1 S1                 0.0000
     36 ****         2.0342   5.6919  -3.1742 H              1 S1                 0.0000
     37 ****         0.4467   6.1734  -3.7775 H              1 S1                 0.0000
     38 ****        -0.7388   3.1978  -2.0902 H              1 S1                 0.0000
     39 ****        -3.0491   3.0133  -0.6608 H              1 S1                 0.0000
     40 ****        -3.3595   4.4120   0.3595 H              1 S1                 0.0000
     41 ****        -3.5642   2.7858   1.0036 H              1 S1                 0.0000
     42 ****        -2.0308   3.2809   2.6528 H              1 S1                 0.0000
     43 ****        -1.4201   1.3944   1.6697 H              1 S1                 0.0000
     44 ****        -1.2020   1.4498  -0.0692 H              1 S1                 0.0000
     45 ****         0.9821   2.7752   1.0682 H              1 S1                 0.0000
     46 ****         4.3190  -0.1842   0.9851 H              1 S1                 0.0000
     47 ****        -1.4350  -3.0405   0.6214 H              1 S1                 0.0000
     48 ****        -2.2539  -5.4907   0.4529 H              1 S1                 0.0000
     49 ****        -2.0181  -6.8181  -0.6747 H              1 S1                 0.0000
     50 ****        -2.7523  -7.5314   1.3395 H              1 S1                 0.0000
     51 ****        -0.3917  -4.0608  -2.4637 H              1 S1                 0.0000
     52 ****         2.5947  -3.1307  -1.3757 H              1 S1                 0.0000
     53 ****        -0.7853   6.6320   1.7474 H              1 S1                 0.0000
     54 ****         0.7896   7.1767   1.1731 H              1 S1                 0.0000
     55 ****         0.6712   5.7277   2.1698 H              1 S1                 0.0000
     56 ****        -1.8827   4.7886   2.1679 LP             1 S1                 0.0000
     57 ****        -0.5661   3.8837   2.5061 LP             1 S1                 0.0000
     58 ****         2.9577   1.6723   1.0618 LP             1 S1                 0.0000
     59 ****         3.4594  -2.3867   0.8136 LP             1 S1                 0.0000
     60 ****        -1.5825  -0.5582   0.7806 LP             1 S1                 0.0000
     61 ****        -0.5594  -4.5219   1.3648 LP             1 S1                 0.0000
     62 ****         0.5800  -5.5579   1.9080 LP             1 S1                 0.0000
     63 ****        -1.5023  -6.9638   2.1431 LP             1 S1                 0.0000
     64 ****        -1.3217  -8.1644   1.0510 LP             1 S1                 0.0000
     65 ****        -1.0231  -3.8817  -1.0135 LP             1 S1                 0.0000
     66 ****        -1.5422  -5.0643  -2.0128 LP             1 S1                 0.0000
     67 ****         1.0771  -2.9897  -1.8330 LP             1 S1                 0.0000
     68 ****         2.1000  -3.9898  -2.6205 LP             1 S1                 0.0000
     69 ****         0.2947   6.8328  -1.1956 LP             1 S1                 0.0000
     70 ****         1.6330   5.9875  -0.7942 LP             1 S1                 0.0000
@<TRIPOS>BOND
    1    1    2 1     
    2    1   35 1     
    3    1   36 1     
    4    1   37 1     
    5    2   30 1     
    6    2    3 2     
    7    3    4 1     
    8    3   38 1     
    9    4    5 1     
   10    4   28 2     
   11    5    6 1     
   12    5    7 1     
   13    5    8 1     
   14    6   39 1     
   15    6   40 1     
   16    6   41 1     
   17    7   42 1     
   18    8    9 1     
   19    8   43 1     
   20    8   44 1     
   21    9   10 1     
   22    9   45 1     
   23   10   15 ar    
   24   10   11 ar    
   25   11   12 ar    
   26   12   13 ar    
   27   12   46 1     
   28   13   14 ar    
   29   14   18 1     
   30   14   15 ar    
   31   15   16 1     
   32   16   17 2     
   33   17   18 1     
   34   17   47 1     
   35   18   19 1     
   36   19   31 1     
   37   19   26 1     
   38   19   20 1     
   39   20   21 1     
   40   21   32 1     
   41   21   22 1     
   42   21   24 1     
   43   22   23 1     
   44   22   48 1     
   45   22   49 1     
   46   23   50 1     
   47   24   33 1     
   48   24   25 1     
   49   24   26 1     
   50   25   51 1     
   51   26   34 1     
   52   26   27 1     
   53   27   52 1     
   54   28   29 1     
   55   28   30 1     
   56   29   53 1     
   57   29   54 1     
   58   29   55 1     
   59    7   56 1     
   60    7   57 1     
   61   11   58 1     
   62   13   59 1     
   63   16   60 1     
   64   20   61 1     
   65   20   62 1     
   66   23   63 1     
   67   23   64 1     
   68   25   65 1     
   69   25   66 1     
   70   27   67 1     
   71   27   68 1     
   72   30   69 1     
   73   30   70 1     
@<TRIPOS>SUBSTRUCTURE
      1 S1             1
@<TRIPOS>SET
LONE_PAIRS      STATIC     ATOMS    <user>   **** ""
15 56 57 58 59 60 61 62 63 64 65 66 67 68 69 70
DONOR_HYDROGENS      STATIC     ATOMS    <user>   **** ""
5 42 45 50 51 52
ATOM$BLUE        STATIC     ATOMS    COLORGROUP SYSTEM
15 56 57 58 59 60 61 62 63 64 65 66 67 68 69 70
ATOM$RED        STATIC     ATOMS    COLORGROUP SYSTEM
5 42 45 50 51 52
