AV-unprocessed.smi:774|AV-procd|sdf|3692|dock6
  -GOLD-   22720 1113D 1   1.00000     0.00000
 Structure written by MMmdl.
 37 38  0  0  0  0  0  0  0  0  1 V2000
  151.4498  143.2024  157.6034 C   0  0  0  0  0  0  0  0  0  0  0  0
  151.2736  141.9165  158.4154 C   0  0  0  0  0  0  0  0  0  0  0  0
  150.0109  140.8379  157.6863 S   0  0  0  0  0  0  0  0  0  0  0  0
  150.7493  140.5284  156.0557 C   0  0  1  0  0  0  0  0  0  0  0  0
  151.9985  139.6541  156.1369 C   0  0  0  0  0  0  0  0  0  0  0  0
  152.1635  139.1077  154.7187 C   0  0  0  0  0  0  0  0  0  0  0  0
  150.7387  138.9742  154.1521 C   0  0  1  0  0  0  0  0  0  0  0  0
  150.3364  137.5703  154.0883 N   0  0  0  0  0  0  0  0  0  0  0  0
  150.4876  136.6652  155.0659 C   0  0  0  0  0  0  0  0  0  0  0  0
  150.9847  136.9249  156.1605 O   0  0  0  0  0  0  0  0  0  0  0  0
  150.0246  135.4633  154.6801 N   0  0  0  0  0  0  0  0  0  0  0  0
  150.0289  134.2215  155.3753 C   0  0  0  0  0  0  0  0  0  0  0  0
  149.7375  133.0608  154.6284 C   0  0  0  0  0  0  0  0  0  0  0  0
  149.7359  131.8087  155.2714 C   0  0  0  0  0  0  0  0  0  0  0  0
  150.0281  131.7637  156.6477 C   0  0  0  0  0  0  0  0  0  0  0  0
  150.3078  132.8620  157.3798 N   0  0  0  0  0  0  0  0  0  0  0  0
  150.3077  134.0605  156.7566 C   0  0  0  0  0  0  0  0  0  0  0  0
  149.8210  139.7618  155.1071 C   0  0  0  0  0  0  0  0  0  0  0  0
  152.2071  143.8451  158.0524 H   0  0  0  0  0  0  0  0  0  0  0  0
  150.5192  143.7684  157.5559 H   0  0  0  0  0  0  0  0  0  0  0  0
  151.7624  142.9824  156.5823 H   0  0  0  0  0  0  0  0  0  0  0  0
  152.2196  141.3771  158.4649 H   0  0  0  0  0  0  0  0  0  0  0  0
  150.9851  142.1577  159.4385 H   0  0  0  0  0  0  0  0  0  0  0  0
  151.0194  141.4835  155.6029 H   0  0  0  0  0  0  0  0  0  0  0  0
  152.8756  140.2045  156.4781 H   0  0  0  0  0  0  0  0  0  0  0  0
  151.8332  138.8268  156.8286 H   0  0  0  0  0  0  0  0  0  0  0  0
  152.7210  139.8293  154.1199 H   0  0  0  0  0  0  0  0  0  0  0  0
  152.7276  138.1742  154.7005 H   0  0  0  0  0  0  0  0  0  0  0  0
  150.7074  139.4349  153.1631 H   0  0  0  0  0  0  0  0  0  0  0  0
  149.9123  137.2644  153.2247 H   0  0  0  0  0  0  0  0  0  0  0  0
  149.6322  135.4276  153.7508 H   0  0  0  0  0  0  0  0  0  0  0  0
  149.5188  133.1252  153.5723 H   0  0  0  0  0  0  0  0  0  0  0  0
  149.5172  130.9048  154.7224 H   0  0  0  0  0  0  0  0  0  0  0  0
  150.0382  130.8209  157.1742 H   0  0  0  0  0  0  0  0  0  0  0  0
  150.5415  134.8896  157.4037 H   0  0  0  0  0  0  0  0  0  0  0  0
  149.1917  139.0797  155.6818 H   0  0  0  0  0  0  0  0  0  0  0  0
  149.1529  140.4322  154.5656 H   0  0  0  0  0  0  0  0  0  0  0  0
  1  2  1  0  0  0  0
  1 19  1  0  0  0  0
  1 20  1  0  0  0  0
  1 21  1  0  0  0  0
  2  3  1  0  0  0  0
  2 22  1  0  0  0  0
  2 23  1  0  0  0  0
  3  4  1  0  0  0  0
  4 18  1  0  0  0  0
  4  5  1  0  0  0  0
  4 24  1  0  0  0  0
  5  6  1  0  0  0  0
  5 25  1  0  0  0  0
  5 26  1  0  0  0  0
  6  7  1  0  0  0  0
  6 27  1  0  0  0  0
  6 28  1  0  0  0  0
  7  8  1  0  0  0  0
  7 18  1  0  0  0  0
  7 29  1  0  0  0  0
  8  9  1  0  0  0  0
  8 30  1  0  0  0  0
  9 10  2  0  0  0  0
  9 11  1  0  0  0  0
 11 12  1  0  0  0  0
 11 31  1  0  0  0  0
 12 17  1  0  0  0  0
 12 13  2  0  0  0  0
 13 14  1  0  0  0  0
 13 32  1  0  0  0  0
 14 15  2  0  0  0  0
 14 33  1  0  0  0  0
 15 16  1  0  0  0  0
 15 34  1  0  0  0  0
 16 17  2  0  0  0  0
 17 35  1  0  0  0  0
 18 36  1  0  0  0  0
 18 37  1  0  0  0  0
M  END
> <s_m_source_file>
AV-unprocessed.smi

> <i_m_source_file_index>
774

> <i_lp_mmshare_version>
43012

> <i_f3d_flags>
0

> <s_epik_input>
W0NIM11bQ0gyXVNbQ0BASF0xW0NIMl1bQ0gyXVtDQEhdKFtDSDJdMSlbTkhdQyg9TylbTkhdYzJbY0hdW2NIXVtjSF1uW2NIXTI=

> <s_epik_cmdline>
J2VwaWtfcHl0aG9uJywgJy1waCcsICc3LjAnLCAnLXRuJywgJzgnLCAnLW1hJywgJzIwMCcsICctbWV0YWxfYmluZGluZycsICctaW1hZScsICc8aW5maWxlLm1hZT4nLCAnLW9tYWUnLCAnPG91dGZpbGUubWFlPic=

> <r_epik_Ionization_Penalty>
0.00485718

> <r_epik_Ionization_Penalty_Charging>
0

> <r_epik_Ionization_Penalty_Neutral>
0.00485718

> <r_epik_State_Penalty>
0.00349461

> <r_epik_Charging_Adjusted_Penalty>
0.00349461

> <i_epik_Tot_Q>
0

> <i_epik_Tot_abs_Q>
0

> <r_epik_Metal_State_Penalty>
-0

> <b_epik_Metal_Only>
0

> <s_lp_Force_Field>
OPLS_2005

> <r_lp_Energy>
20.4228

> <b_lp_Chiralities_Consistent>
1

> <s_lp_Variant>
AV-unprocessed.smi:774-2

> <Gold.Version>
5.8.1

> <Gold.Id.Protein>
6NUR|6NUR_protein|mol2

> <Gold.PLP.Fitness>
38.6703

> <Gold.PLP.PLP>
-31.2152

> <Gold.PLP.part.hbond>
-3.3903

> <Gold.PLP.part.metal>
0.0000

> <Gold.PLP.part.buried>
-2.3674

> <Gold.PLP.part.nonpolar>
-26.0859

> <Gold.PLP.part.repulsive>
0.1421

> <Gold.PLP.ligand.clash>
0.0000

> <Gold.PLP.ligand.torsion>
0.2078

> <Gold.PLP.Chemscore.Hbond>
2.6218

> <Gold.PLP.Chemscore.CHOScore>
0.0000

> <Gold.PLP.Chemscore.Metal>
0.0000

> <Gold.Chemscore.Hbonds>
donor molecule, donor type, donor heavy atom, donor atom, acceptor molecule, acceptor atom, score
      L1  H     8    30       P1  7948  1.00
      L1  H    11    31       P1  7948  0.62
      P1  H  6896  6907       L1    16  0.80

> <Gold.PLP.Chemscore.Internal.Correction>
0.0054

> <Gold.Rescore>
     Score         DG    S(hbond)    S(metal)    S(lipo)     H(rot)  DE(clash)    DE(int)     intcor
     13.58     -16.85       1.73        0.00      76.26       1.30       0.01       3.25       ----

> <Gold.Chemscore.Fitness>
13.5827

> <Gold.Chemscore.DG>
-16.8461

> <Gold.Chemscore.ZeroCoef>
-5.4800

> <Gold.Chemscore.Hbond>
1.7311

> <Gold.Chemscore.Metal>
0.0000

> <Gold.Chemscore.Lipo>
76.2631

> <Gold.Chemscore.Internal_Hbond>
0.0000

> <Gold.Chemscore.DEClash>
0.0088

> <Gold.Chemscore.DEInternal>
3.2547

> <Gold.Chemscore.Rot>
1.3041

> <Gold.Chemscore.Internal.Correction>
   9.000000E+99

> <Gold.Chemscore.Hbonds>
donor molecule, donor type, donor heavy atom, donor atom, acceptor molecule, acceptor atom, score
      L1  H     8    30       P1  7948  0.35
      L1  H    11    31       P1  7948  0.09
      P1  H  6896  6907       L1    16  0.18

> <Gold.Chemscore.Hbond.Weighted>
-5.7818

> <Gold.Chemscore.Metal.Weighted>
-0.0000

> <Gold.Chemscore.Lipo.Weighted>
-8.9228

> <Gold.Chemscore.Internal_Hbond.Weighted>
0.0000

> <Gold.Chemscore.DEClash.Weighted>
0.0088

> <Gold.Chemscore.DEInternal.Weighted>
3.2547

> <Gold.Chemscore.Rot.Weighted>
3.3384

> <Gold.Chemscore.Internal.Correction.Weighted>
   9.000000E+99

> <Gold.Protein.RotatedTorsions>
[ 6907 6896 6895 6894 ] final -150.37 input  -60.11 | X-H torsion
[ 7974 7965 7964 7962 ] final  -93.82 input  175.53 | X-H torsion
[ 8008 7997 7996 7995 ] final -121.02 input   59.86 | X-H torsion
[ 10167 10162 10161 10158 ] final   93.94 input  -65.29 | X-H torsion
[ 10718 10713 10712 10709 ] final  -49.25 input   66.30 | X-H torsion
[ 10763 10752 10751 10750 ] final  134.66 input  -60.55 | X-H torsion
[ 11005 11000 10999 10996 ] final   22.61 input  -57.11 | X-H torsion

> <Gold.Protein.ActiveResidues>
 VAL166  LYS551  ARG553  GLY616  TRP617  ASP618  TYR619  PRO620  LYS621  CYS622 
 ASP623  PHE694  ASN695  SER759  ASP760  ASP761  ALA762  ILE779  LEU786  VAL792 
 PHE793  MET794  SER795  GLU796  ALA797  LYS798  CYS799  TRP800  GLU811  SER814 

> <Gold.Protein.RotatedAtoms>
  151.1976  133.4630  159.2595 H   0  0  0  0  0  0  0  0  0  0  0  0  # atno 6907 bound_to 6896
  151.1102  135.0022  159.8500 H   0  0  0  0  0  0  0  0  0  0  0  0  # atno 6908 bound_to 6896
  152.5450  134.1895  159.8721 H   0  0  0  0  0  0  0  0  0  0  0  0  # atno 6909 bound_to 6896
  145.3815  140.9518  143.2391 H   0  0  0  0  0  0  0  0  0  0  0  0  # atno 7974 bound_to 7965
  155.1413  140.0402  157.2799 H   0  0  0  0  0  0  0  0  0  0  0  0  # atno 8008 bound_to 7997
  154.6471  140.2560  155.7229 H   0  0  0  0  0  0  0  0  0  0  0  0  # atno 8009 bound_to 7997
  156.2560  140.2844  156.0889 H   0  0  0  0  0  0  0  0  0  0  0  0  # atno 8010 bound_to 7997
  139.8131  144.6765  150.9615 H   0  0  0  0  0  0  0  0  0  0  0  0  # atno 10167 bound_to 10162
  156.1911  130.4153  149.9370 H   0  0  0  0  0  0  0  0  0  0  0  0  # atno 10718 bound_to 10713
  153.8272  135.3108  155.3415 H   0  0  0  0  0  0  0  0  0  0  0  0  # atno 10763 bound_to 10752
  154.7988  135.4739  154.0228 H   0  0  0  0  0  0  0  0  0  0  0  0  # atno 10764 bound_to 10752
  153.1656  135.6869  153.8770 H   0  0  0  0  0  0  0  0  0  0  0  0  # atno 10765 bound_to 10752
  140.3787  134.1944  155.7664 H   0  0  0  0  0  0  0  0  0  0  0  0  # atno 11005 bound_to 11000
  144.8504  139.5330  143.6859 LP  0  0  0  0  0  0  0  0  0  0  0  0  # atno 17320 bound_to 7965
  146.2840  139.6953  142.9209 LP  0  0  0  0  0  0  0  0  0  0  0  0  # atno 17321 bound_to 7965
  140.7817  143.4165  151.0909 LP  0  0  0  0  0  0  0  0  0  0  0  0  # atno 17342 bound_to 10162
  139.7831  143.8327  152.3140 LP  0  0  0  0  0  0  0  0  0  0  0  0  # atno 17343 bound_to 10162
  156.7110  130.8970  151.3609 LP  0  0  0  0  0  0  0  0  0  0  0  0  # atno 17370 bound_to 10713
  157.6930  130.9252  150.0565 LP  0  0  0  0  0  0  0  0  0  0  0  0  # atno 17371 bound_to 10713
  141.1930  133.8159  157.0814 LP  0  0  0  0  0  0  0  0  0  0  0  0  # atno 17394 bound_to 11000
  140.0495  134.9813  157.1110 LP  0  0  0  0  0  0  0  0  0  0  0  0  # atno 17395 bound_to 11000

$$$$
