AV-unprocessed.smi:2129|AV-procd|sdf|8684|dock4
  -GOLD-   2272011433D 1   1.00000     0.00000
 Structure written by MMmdl.
 33 33  0  0  0  0  0  0  0  0  2 V2000
  151.9698  144.6414  158.4898 C   0  0  0  0  0  0  0  0  0  0  0  0
  153.1290  143.7254  158.9216 C   0  0  0  0  0  0  0  0  0  0  0  0
  152.7525  142.5691  159.8892 C   0  0  0  0  0  0  0  0  0  0  0  0
  153.9996  141.7074  160.1865 C   0  0  0  0  0  0  0  0  0  0  0  0
  152.2381  143.1410  161.2248 C   0  0  0  0  0  0  0  0  0  0  0  0
  151.6785  141.7310  159.3405 N   0  0  0  0  0  0  0  0  0  0  0  0
  151.7637  140.7700  158.4037 C   0  0  0  0  0  0  0  0  0  0  0  0
  152.8180  140.4195  157.8729 O   0  0  0  0  0  0  0  0  0  0  0  0
  150.4432  140.0869  158.0256 C   0  0  0  0  0  0  0  0  0  0  0  0
  150.6209  139.0395  157.0074 N   0  0  0  0  0  0  0  0  0  0  0  0
  150.3711  137.7082  157.3847 C   0  0  0  0  0  0  0  0  0  0  0  0
  150.5123  136.6863  156.5192 C   0  0  0  0  0  0  0  0  0  0  0  0
  150.9372  136.9882  155.1578 C   0  0  0  0  0  0  0  0  0  0  0  0
  151.0676  136.0681  154.3529 O   0  0  0  0  0  0  0  0  0  0  0  0
  151.1713  138.2953  154.8411 N   0  5  0  0  0  0  0  0  0  0  0  0
  151.0245  139.3245  155.7322 C   0  0  0  0  0  0  0  0  0  0  0  0
  151.2409  140.4975  155.4254 O   0  0  0  0  0  0  0  0  0  0  0  0
  152.3278  145.4115  157.8067 H   0  0  0  0  0  0  0  0  0  0  0  0
  151.5157  145.1488  159.3403 H   0  0  0  0  0  0  0  0  0  0  0  0
  151.1875  144.0883  157.9699 H   0  0  0  0  0  0  0  0  0  0  0  0
  153.5891  143.3163  158.0216 H   0  0  0  0  0  0  0  0  0  0  0  0
  153.9035  144.3396  159.3827 H   0  0  0  0  0  0  0  0  0  0  0  0
  154.7715  142.2938  160.6862 H   0  0  0  0  0  0  0  0  0  0  0  0
  154.4462  141.3025  159.2784 H   0  0  0  0  0  0  0  0  0  0  0  0
  153.7569  140.8656  160.8362 H   0  0  0  0  0  0  0  0  0  0  0  0
  152.9710  143.8077  161.6803 H   0  0  0  0  0  0  0  0  0  0  0  0
  152.0305  142.3459  161.9421 H   0  0  0  0  0  0  0  0  0  0  0  0
  151.3143  143.7058  161.0979 H   0  0  0  0  0  0  0  0  0  0  0  0
  150.7541  141.9235  159.6980 H   0  0  0  0  0  0  0  0  0  0  0  0
  150.0060  139.6698  158.9334 H   0  0  0  0  0  0  0  0  0  0  0  0
  149.7230  140.8287  157.6749 H   0  0  0  0  0  0  0  0  0  0  0  0
  150.0670  137.5700  158.4118 H   0  0  0  0  0  0  0  0  0  0  0  0
  150.3188  135.6688  156.8254 H   0  0  0  0  0  0  0  0  0  0  0  0
  1  2  1  0  0  0  0
  1 18  1  0  0  0  0
  1 19  1  0  0  0  0
  1 20  1  0  0  0  0
  2  3  1  0  0  0  0
  2 21  1  0  0  0  0
  2 22  1  0  0  0  0
  3  4  1  0  0  0  0
  3  5  1  0  0  0  0
  3  6  1  0  0  0  0
  4 23  1  0  0  0  0
  4 24  1  0  0  0  0
  4 25  1  0  0  0  0
  5 26  1  0  0  0  0
  5 27  1  0  0  0  0
  5 28  1  0  0  0  0
  6  7  1  0  0  0  0
  6 29  1  0  0  0  0
  7  8  2  0  0  0  0
  7  9  1  0  0  0  0
  9 10  1  0  0  0  0
  9 30  1  0  0  0  0
  9 31  1  0  0  0  0
 10 16  1  0  0  0  0
 10 11  1  0  0  0  0
 11 12  2  0  0  0  0
 11 32  1  0  0  0  0
 12 13  1  0  0  0  0
 12 33  1  0  0  0  0
 13 14  2  0  0  0  0
 13 15  1  0  0  0  0
 15 16  1  0  0  0  0
 16 17  2  0  0  0  0
M  CHG  1  15  -1
M  END
> <s_m_source_file>
AV-unprocessed.smi

> <i_m_source_file_index>
2129

> <i_lp_mmshare_version>
43012

> <i_f3d_flags>
0

> <s_epik_input>
W0NIM11bQ0gyXUMoW0NIM10pKFtDSDNdKVtOSF1DKD1PKVtDSDJdbjFbY0hdW2NIXWMoPU8pW25IXWMxPU8=

> <s_epik_cmdline>
J2VwaWtfcHl0aG9uJywgJy1waCcsICc3LjAnLCAnLXRuJywgJzgnLCAnLW1hJywgJzIwMCcsICctbWV0YWxfYmluZGluZycsICctaW1hZScsICc8aW5maWxlLm1hZT4nLCAnLW9tYWUnLCAnPG91dGZpbGUubWFlPic=

> <r_lp_tautomer_probability>
0.999537

> <r_epik_Ionization_Penalty>
3.14534

> <r_epik_Ionization_Penalty_Charging>
2.92803e-08

> <r_epik_Ionization_Penalty_Neutral>
3.14534

> <r_epik_State_Penalty>
3.14446

> <r_epik_Charging_Adjusted_Penalty>
3.14446

> <i_epik_Tot_Q>
-1

> <i_epik_Tot_abs_Q>
1

> <r_epik_Metal_State_Penalty>
0.465837

> <b_epik_Metal_Only>
1

> <s_lp_Force_Field>
OPLS_2005

> <r_lp_Energy>
14.5296

> <b_lp_Chiralities_Consistent>
1

> <s_lp_Variant>
AV-unprocessed.smi:2129-2

> <Gold.Version>
5.8.1

> <Gold.Id.Protein>
6NUR|6NUR_protein|mol2

> <Gold.PLP.Fitness>
39.4393

> <Gold.PLP.PLP>
-31.7014

> <Gold.PLP.part.hbond>
-3.0000

> <Gold.PLP.part.metal>
0.0000

> <Gold.PLP.part.buried>
-4.6995

> <Gold.PLP.part.nonpolar>
-25.0975

> <Gold.PLP.part.repulsive>
1.1589

> <Gold.PLP.ligand.clash>
0.0000

> <Gold.PLP.ligand.torsion>
0.4081

> <Gold.PLP.Chemscore.Hbond>
2.8400

> <Gold.PLP.Chemscore.CHOScore>
0.0000

> <Gold.PLP.Chemscore.Metal>
0.0000

> <Gold.Chemscore.Hbonds>
donor molecule, donor type, donor heavy atom, donor atom, acceptor molecule, acceptor atom, score
      P1  H  7989  7998       L1    17  0.90
      P1  H  7997  8008       L1     8  0.88
      P1  H 10752 10764       L1    14  1.00

> <Gold.PLP.Chemscore.Internal.Correction>
0.0339

> <Gold.Rescore>
     Score         DG    S(hbond)    S(metal)    S(lipo)     H(rot)  DE(clash)    DE(int)     intcor
     16.18     -17.69       2.59        0.00      72.23       1.90       0.20       1.31       ----

> <Gold.Chemscore.Fitness>
16.1824

> <Gold.Chemscore.DG>
-17.6941

> <Gold.Chemscore.ZeroCoef>
-5.4800

> <Gold.Chemscore.Hbond>
2.5854

> <Gold.Chemscore.Metal>
0.0000

> <Gold.Chemscore.Lipo>
72.2298

> <Gold.Chemscore.Internal_Hbond>
0.0000

> <Gold.Chemscore.DEClash>
0.2014

> <Gold.Chemscore.DEInternal>
1.3103

> <Gold.Chemscore.Rot>
1.9031

> <Gold.Chemscore.Internal.Correction>
   9.000000E+99

> <Gold.Chemscore.Hbonds>
donor molecule, donor type, donor heavy atom, donor atom, acceptor molecule, acceptor atom, score
      P1  H  7989  7998       L1    17  0.82
      P1  H  7997  8008       L1     8  0.85
      P1  H 10752 10764       L1    14  0.55

> <Gold.Chemscore.Hbond.Weighted>
-8.6352

> <Gold.Chemscore.Metal.Weighted>
-0.0000

> <Gold.Chemscore.Lipo.Weighted>
-8.4509

> <Gold.Chemscore.Internal_Hbond.Weighted>
0.0000

> <Gold.Chemscore.DEClash.Weighted>
0.2014

> <Gold.Chemscore.DEInternal.Weighted>
1.3103

> <Gold.Chemscore.Rot.Weighted>
4.8720

> <Gold.Chemscore.Internal.Correction.Weighted>
   9.000000E+99

> <Gold.Protein.RotatedTorsions>
[ 6907 6896 6895 6894 ] final  -32.32 input  -60.11 | X-H torsion
[ 7974 7965 7964 7962 ] final  155.31 input  175.53 | X-H torsion
[ 8008 7997 7996 7995 ] final  -72.53 input   59.86 | X-H torsion
[ 10167 10162 10161 10158 ] final   94.73 input  -65.29 | X-H torsion
[ 10718 10713 10712 10709 ] final -141.28 input   66.30 | X-H torsion
[ 10763 10752 10751 10750 ] final  -73.66 input  -60.55 | X-H torsion
[ 11005 11000 10999 10996 ] final    0.63 input  -57.11 | X-H torsion

> <Gold.Protein.ActiveResidues>
 VAL166  LYS551  ARG553  GLY616  TRP617  ASP618  TYR619  PRO620  LYS621  CYS622 
 ASP623  PHE694  ASN695  SER759  ASP760  ASP761  ALA762  ILE779  LEU786  VAL792 
 PHE793  MET794  SER795  GLU796  ALA797  LYS798  CYS799  TRP800  GLU811  SER814 

> <Gold.Protein.RotatedAtoms>
  151.0804  134.9854  159.8352 H   0  0  0  0  0  0  0  0  0  0  0  0  # atno 6907 bound_to 6896
  152.5419  134.2189  159.8790 H   0  0  0  0  0  0  0  0  0  0  0  0  # atno 6908 bound_to 6896
  151.2219  133.4454  159.2634 H   0  0  0  0  0  0  0  0  0  0  0  0  # atno 6909 bound_to 6896
  144.8033  139.7051  143.6173 H   0  0  0  0  0  0  0  0  0  0  0  0  # atno 7974 bound_to 7965
  154.5174  140.0795  156.8106 H   0  0  0  0  0  0  0  0  0  0  0  0  # atno 8008 bound_to 7997
  155.3651  140.3420  155.4223 H   0  0  0  0  0  0  0  0  0  0  0  0  # atno 8009 bound_to 7997
  156.1642  140.1598  156.8546 H   0  0  0  0  0  0  0  0  0  0  0  0  # atno 8010 bound_to 7997
  139.8055  144.6795  150.9708 H   0  0  0  0  0  0  0  0  0  0  0  0  # atno 10167 bound_to 10162
  156.3322  130.7592  151.1712 H   0  0  0  0  0  0  0  0  0  0  0  0  # atno 10718 bound_to 10713
  154.4625  135.5890  153.6265 H   0  0  0  0  0  0  0  0  0  0  0  0  # atno 10763 bound_to 10752
  152.9825  135.6047  154.3468 H   0  0  0  0  0  0  0  0  0  0  0  0  # atno 10764 bound_to 10752
  154.3341  135.2842  155.2435 H   0  0  0  0  0  0  0  0  0  0  0  0  # atno 10765 bound_to 10752
  140.6245  133.9631  155.8242 H   0  0  0  0  0  0  0  0  0  0  0  0  # atno 11005 bound_to 11000
  146.2319  139.5830  142.9549 LP  0  0  0  0  0  0  0  0  0  0  0  0  # atno 17320 bound_to 7965
  145.5500  141.0414  143.2284 LP  0  0  0  0  0  0  0  0  0  0  0  0  # atno 17321 bound_to 7965
  140.7819  143.4237  151.0801 LP  0  0  0  0  0  0  0  0  0  0  0  0  # atno 17342 bound_to 10162
  139.7907  143.8223  152.3151 LP  0  0  0  0  0  0  0  0  0  0  0  0  # atno 17343 bound_to 10162
  157.7432  131.0478  150.4963 LP  0  0  0  0  0  0  0  0  0  0  0  0  # atno 17370 bound_to 10713
  156.5130  130.4144  149.6291 LP  0  0  0  0  0  0  0  0  0  0  0  0  # atno 17371 bound_to 10713
  141.0719  134.0192  157.3513 LP  0  0  0  0  0  0  0  0  0  0  0  0  # atno 17394 bound_to 11000
  139.9140  135.0194  156.7808 LP  0  0  0  0  0  0  0  0  0  0  0  0  # atno 17395 bound_to 11000

$$$$
