#       Name:                AV-unprocessed.smi:2872
#       Creating user name   scv26
#       Creation time:       Fri Mar 27 15:49:56 2020


#       File generated by GOLD software.
#

@<TRIPOS>MOLECULE
AV-unprocessed.smi:2872
    44    46     1
SMALL
NO_CHARGES


@<TRIPOS>ATOM
      1 ****        -2.8480   3.5297   3.3399 O.2            1 S1                 0.0000
      2 ****        -1.6489   3.2905   3.4723 C.2            1 S1                 0.0000
      3 ****        -0.8616   2.7956   2.5065 N.am           1 S1                 0.0000
      4 ****        -1.3011   2.4575   1.1566 C.3            1 S1                 0.0000
      5 ****        -1.8451   1.0583   1.1509 C.2            1 S1                 0.0000
      6 ****        -3.1535   0.8089   1.2168 N.2            1 S1                 0.0000
      7 ****        -3.2034  -0.5708   1.1774 C.ar           1 S1                 0.0000
      8 ****        -4.3078  -1.4518   1.2107 C.ar           1 S1                 0.0000
      9 ****        -4.1099  -2.8470   1.1502 C.ar           1 S1                 0.0000
     10 ****        -2.8081  -3.3802   1.0556 C.ar           1 S1                 0.0000
     11 ****        -1.6938  -2.5199   1.0227 C.ar           1 S1                 0.0000
     12 ****        -1.8967  -1.1283   1.0846 C.ar           1 S1                 0.0000
     13 ****        -1.0409  -0.0320   1.0736 N.pl3          1 S1                 0.0000
     14 ****         0.4098  -0.0781   0.9834 C.3            1 S1                 0.0000
     15 ****         0.8806  -0.0945  -0.4754 C.3            1 S1                 0.0000
     16 ****         2.3008  -0.1096  -0.4941 O.3            1 S1                 0.0000
     17 ****         2.9358  -0.1095  -1.7176 C.ar           1 S1                 0.0000
     18 ****         4.3462  -0.1015  -1.7072 C.ar           1 S1                 0.0000
     19 ****         5.0766  -0.0986  -2.9112 C.ar           1 S1                 0.0000
     20 ****         4.3996  -0.1043  -4.1446 C.ar           1 S1                 0.0000
     21 ****         2.9928  -0.1145  -4.1704 C.ar           1 S1                 0.0000
     22 ****         2.2623  -0.1172  -2.9659 C.ar           1 S1                 0.0000
     23 ****        -1.0770   3.4545   4.3987 H              1 S1                 0.0000
     24 ****         0.1112   2.6349   2.7235 H              1 S1                 0.0000
     25 ****        -2.0639   3.1545   0.8048 H              1 S1                 0.0000
     26 ****        -0.4614   2.5376   0.4665 H              1 S1                 0.0000
     27 ****        -5.3090  -1.0532   1.2819 H              1 S1                 0.0000
     28 ****        -4.9612  -3.5114   1.1754 H              1 S1                 0.0000
     29 ****        -2.6653  -4.4499   1.0084 H              1 S1                 0.0000
     30 ****        -0.6955  -2.9247   0.9493 H              1 S1                 0.0000
     31 ****         0.8357   0.7725   1.5153 H              1 S1                 0.0000
     32 ****         0.7626  -0.9704   1.5015 H              1 S1                 0.0000
     33 ****         0.4868  -0.9790  -0.9788 H              1 S1                 0.0000
     34 ****         0.5064   0.7889  -0.9950 H              1 S1                 0.0000
     35 ****         4.8742  -0.0966  -0.7649 H              1 S1                 0.0000
     36 ****         6.1563  -0.0920  -2.8881 H              1 S1                 0.0000
     37 ****         4.9582  -0.1015  -5.0690 H              1 S1                 0.0000
     38 ****         2.4717  -0.1205  -5.1164 H              1 S1                 0.0000
     39 ****         1.1848  -0.1256  -3.0274 H              1 S1                 0.0000
     40 ****        -3.2991   3.3548   2.4647 LP             1 S1                 0.0000
     41 ****        -3.3719   3.8991   4.1074 LP             1 S1                 0.0000
     42 ****        -3.9105   1.4593   1.2792 LP             1 S1                 0.0000
     43 ****         2.5951  -0.9321  -0.0073 LP             1 S1                 0.0000
     44 ****         2.6126   0.7008   0.0019 LP             1 S1                 0.0000
@<TRIPOS>BOND
    1    1    2 2     
    2    2    3 am    
    3    2   23 1     
    4    3    4 1     
    5    3   24 1     
    6    4    5 1     
    7    4   25 1     
    8    4   26 1     
    9    5   13 1     
   10    5    6 2     
   11    6    7 1     
   12    7   12 ar    
   13    7    8 ar    
   14    8    9 ar    
   15    8   27 1     
   16    9   10 ar    
   17    9   28 1     
   18   10   11 ar    
   19   10   29 1     
   20   11   12 ar    
   21   11   30 1     
   22   12   13 1     
   23   13   14 1     
   24   14   15 1     
   25   14   31 1     
   26   14   32 1     
   27   15   16 1     
   28   15   33 1     
   29   15   34 1     
   30   16   17 1     
   31   17   22 ar    
   32   17   18 ar    
   33   18   19 ar    
   34   18   35 1     
   35   19   20 ar    
   36   19   36 1     
   37   20   21 ar    
   38   20   37 1     
   39   21   22 ar    
   40   21   38 1     
   41   22   39 1     
   42    1   40 1     
   43    1   41 1     
   44    6   42 1     
   45   16   43 1     
   46   16   44 1     
@<TRIPOS>SUBSTRUCTURE
      1 S1             1
@<TRIPOS>SET
LONE_PAIRS      STATIC     ATOMS    <user>   **** ""
5 40 41 42 43 44
DONOR_HYDROGENS      STATIC     ATOMS    <user>   **** ""
1 24
ATOM$BLUE        STATIC     ATOMS    COLORGROUP SYSTEM
5 40 41 42 43 44
ATOM$RED        STATIC     ATOMS    COLORGROUP SYSTEM
1 24
