#       Name:                AV-unprocessed.smi:1356
#       Creating user name   scv26
#       Creation time:       Fri Mar 27 05:13:33 2020


#       File generated by GOLD software.
#

@<TRIPOS>MOLECULE
AV-unprocessed.smi:1356
    46    47     1
SMALL
NO_CHARGES


@<TRIPOS>ATOM
      1 ****        -2.3030   4.8980  -2.4584 C.3            1 S1                 0.0000
      2 ****        -3.2372   5.2061  -1.3013 C.3            1 S1                 0.0000
      3 ****        -2.6971   5.2579   0.1069 C.3            1 S1                 0.0000
      4 ****        -3.6933   4.1807  -0.2707 C.3            1 S1                 0.0000
      5 ****        -3.2049   2.7757  -0.3805 C.2            1 S1                 0.0000
      6 ****        -3.3133   2.1180  -1.4155 O.2            1 S1                 0.0000
      7 ****        -2.6985   2.2783   0.7582 N.am           1 S1                 0.0000
      8 ****        -2.1930   0.9207   0.9267 C.3            1 S1                 0.0000
      9 ****        -0.7695   0.7706   0.3559 C.3            1 S1                 0.0000
     10 ****        -0.1749  -0.6184   0.6052 C.2            1 S1                 0.0000
     11 ****        -0.8918  -1.6192   0.5784 O.2            1 S1                 0.0000
     12 ****         1.1454  -0.6675   0.8398 N.am           1 S1                 0.0000
     13 ****         1.9048  -1.8874   1.0898 C.3            1 S1                 0.0000
     14 ****         2.2452  -2.6190  -0.2192 C.3            1 S1                 0.0000
     15 ****         3.0428  -3.8865   0.0207 C.ar           1 S1                 0.0000
     16 ****         2.4113  -5.1484   0.0033 C.ar           1 S1                 0.0000
     17 ****         3.1961  -6.2945   0.2359 C.ar           1 S1                 0.0000
     18 ****         4.5743  -6.1354   0.4772 C.ar           1 S1                 0.0000
     19 ****         5.1087  -4.8314   0.4752 C.ar           1 S1                 0.0000
     20 ****         4.3652  -3.7259   0.2532 N.ar           1 S1                 0.0000
     21 ****        -1.4863   4.2463  -2.1467 H              1 S1                 0.0000
     22 ****        -1.8731   5.8222  -2.8448 H              1 S1                 0.0000
     23 ****        -2.8528   4.4096  -3.2631 H              1 S1                 0.0000
     24 ****        -3.9901   5.9482  -1.5596 H              1 S1                 0.0000
     25 ****        -1.6586   4.9677   0.2593 H              1 S1                 0.0000
     26 ****        -3.0518   6.0514   0.7611 H              1 S1                 0.0000
     27 ****        -4.7199   4.2897   0.0737 H              1 S1                 0.0000
     28 ****        -2.6676   2.8821   1.5672 H              1 S1                 0.0000
     29 ****        -2.1934   0.6949   1.9938 H              1 S1                 0.0000
     30 ****        -2.8785   0.2117   0.4586 H              1 S1                 0.0000
     31 ****        -0.7735   0.9497  -0.7200 H              1 S1                 0.0000
     32 ****        -0.1175   1.5266   0.7964 H              1 S1                 0.0000
     33 ****         1.6618   0.2003   0.8411 H              1 S1                 0.0000
     34 ****         2.8212  -1.6138   1.6136 H              1 S1                 0.0000
     35 ****         1.3482  -2.5442   1.7606 H              1 S1                 0.0000
     36 ****         1.3317  -2.8729  -0.7584 H              1 S1                 0.0000
     37 ****         2.8155  -1.9615  -0.8770 H              1 S1                 0.0000
     38 ****         1.3510  -5.2380  -0.1830 H              1 S1                 0.0000
     39 ****         2.7489  -7.2776   0.2297 H              1 S1                 0.0000
     40 ****         5.2067  -6.9917   0.6595 H              1 S1                 0.0000
     41 ****         6.1613  -4.6721   0.6571 H              1 S1                 0.0000
     42 ****        -3.7418   2.5234  -2.2230 LP             1 S1                 0.0000
     43 ****        -2.9729   1.1783  -1.4487 LP             1 S1                 0.0000
     44 ****        -1.8702  -1.5286   0.3928 LP             1 S1                 0.0000
     45 ****        -0.4956  -2.5226   0.7423 LP             1 S1                 0.0000
     46 ****         4.7801  -2.8161   0.2605 LP             1 S1                 0.0000
@<TRIPOS>BOND
    1    1    2 1     
    2    1   21 1     
    3    1   22 1     
    4    1   23 1     
    5    2    4 1     
    6    2    3 1     
    7    2   24 1     
    8    3    4 1     
    9    3   25 1     
   10    3   26 1     
   11    4    5 1     
   12    4   27 1     
   13    5    6 2     
   14    5    7 am    
   15    7    8 1     
   16    7   28 1     
   17    8    9 1     
   18    8   29 1     
   19    8   30 1     
   20    9   10 1     
   21    9   31 1     
   22    9   32 1     
   23   10   11 2     
   24   10   12 am    
   25   12   13 1     
   26   12   33 1     
   27   13   14 1     
   28   13   34 1     
   29   13   35 1     
   30   14   15 1     
   31   14   36 1     
   32   14   37 1     
   33   15   20 ar    
   34   15   16 ar    
   35   16   17 ar    
   36   16   38 1     
   37   17   18 ar    
   38   17   39 1     
   39   18   19 ar    
   40   18   40 1     
   41   19   20 ar    
   42   19   41 1     
   43    6   42 1     
   44    6   43 1     
   45   11   44 1     
   46   11   45 1     
   47   20   46 1     
@<TRIPOS>SUBSTRUCTURE
      1 S1             1
@<TRIPOS>SET
LONE_PAIRS      STATIC     ATOMS    <user>   **** ""
5 42 43 44 45 46
DONOR_HYDROGENS      STATIC     ATOMS    <user>   **** ""
2 28 33
ATOM$BLUE        STATIC     ATOMS    COLORGROUP SYSTEM
5 42 43 44 45 46
ATOM$RED        STATIC     ATOMS    COLORGROUP SYSTEM
2 28 33
