AV-unprocessed.smi:2104|AV-procd|sdf|8590|dock4
  -GOLD-   2272011323D 1   1.00000     0.00000
 Structure written by MMmdl.
 42 43  0  0  0  0  0  0  0  0  2 V2000
  145.9420  132.3346  161.2316 C   0  0  0  0  0  0  0  0  0  0  0  0
  146.4364  133.7325  161.0843 C   0  0  0  0  0  0  0  0  0  0  0  0
  147.0593  134.3962  160.0658 C   0  0  0  0  0  0  0  0  0  0  0  0
  147.2363  135.7051  160.5916 C   0  0  0  0  0  0  0  0  0  0  0  0
  147.8165  136.7388  159.9629 N   0  5  0  0  0  0  0  0  0  0  0  0
  148.8226  136.5207  159.0851 C   0  0  0  0  0  0  0  0  0  0  0  0
  149.2586  135.4220  158.7334 O   0  0  0  0  0  0  0  0  0  0  0  0
  149.3463  137.6442  158.5742 N   0  0  0  0  0  0  0  0  0  0  0  0
  150.3809  137.7180  157.5472 C   0  0  0  0  0  0  0  0  0  0  0  0
  150.8359  139.1671  157.3182 C   0  0  0  0  0  0  0  0  0  0  0  0
  151.0936  139.7843  158.5718 O   0  0  0  0  0  0  0  0  0  0  0  0
  151.7052  141.0658  158.4959 C   0  0  1  0  0  0  0  0  0  0  0  0
  150.7388  142.0709  157.8338 C   0  0  0  0  0  0  0  0  0  0  0  0
  151.3068  143.4974  157.8544 C   0  0  0  0  0  0  0  0  0  0  0  0
  151.6498  143.9329  159.2853 C   0  0  0  0  0  0  0  0  0  0  0  0
  152.6200  142.9414  159.9445 C   0  0  0  0  0  0  0  0  0  0  0  0
  152.0650  141.5028  159.9348 C   0  0  2  0  0  0  0  0  0  0  0  0
  153.0631  140.5361  160.5943 C   0  0  0  0  0  0  0  0  0  0  0  0
  146.7779  135.8199  161.8271 N   0  0  0  0  0  0  0  0  0  0  0  0
  146.2571  134.5608  162.1480 O   0  0  0  0  0  0  0  0  0  0  0  0
  146.1811  131.9400  162.2192 H   0  0  0  0  0  0  0  0  0  0  0  0
  146.3972  131.6808  160.4877 H   0  0  0  0  0  0  0  0  0  0  0  0
  144.8607  132.2934  161.1022 H   0  0  0  0  0  0  0  0  0  0  0  0
  147.3377  134.0115  159.0963 H   0  0  0  0  0  0  0  0  0  0  0  0
  148.9602  138.5198  158.8950 H   0  0  0  0  0  0  0  0  0  0  0  0
  151.2270  137.1250  157.8942 H   0  0  0  0  0  0  0  0  0  0  0  0
  150.0481  137.2623  156.6134 H   0  0  0  0  0  0  0  0  0  0  0  0
  151.7260  139.1786  156.6874 H   0  0  0  0  0  0  0  0  0  0  0  0
  150.0552  139.7146  156.7905 H   0  0  0  0  0  0  0  0  0  0  0  0
  152.6280  141.0075  157.9154 H   0  0  0  0  0  0  0  0  0  0  0  0
  150.5336  141.7836  156.8029 H   0  0  0  0  0  0  0  0  0  0  0  0
  149.7810  142.0539  158.3553 H   0  0  0  0  0  0  0  0  0  0  0  0
  152.2020  143.5435  157.2329 H   0  0  0  0  0  0  0  0  0  0  0  0
  150.5888  144.1909  157.4160 H   0  0  0  0  0  0  0  0  0  0  0  0
  152.0884  144.9311  159.2753 H   0  0  0  0  0  0  0  0  0  0  0  0
  150.7363  144.0011  159.8774 H   0  0  0  0  0  0  0  0  0  0  0  0
  153.5769  142.9695  159.4213 H   0  0  0  0  0  0  0  0  0  0  0  0
  152.8207  143.2566  160.9689 H   0  0  0  0  0  0  0  0  0  0  0  0
  151.1512  141.4926  160.5312 H   0  0  0  0  0  0  0  0  0  0  0  0
  153.9915  140.4736  160.0258 H   0  0  0  0  0  0  0  0  0  0  0  0
  152.6533  139.5294  160.6684 H   0  0  0  0  0  0  0  0  0  0  0  0
  153.3128  140.8569  161.6059 H   0  0  0  0  0  0  0  0  0  0  0  0
  1  2  1  0  0  0  0
  1 21  1  0  0  0  0
  1 22  1  0  0  0  0
  1 23  1  0  0  0  0
  2 20  1  0  0  0  0
  2  3  2  0  0  0  0
  3  4  1  0  0  0  0
  3 24  1  0  0  0  0
  4  5  1  0  0  0  0
  4 19  2  0  0  0  0
  5  6  1  0  0  0  0
  6  7  2  0  0  0  0
  6  8  1  0  0  0  0
  8  9  1  0  0  0  0
  8 25  1  0  0  0  0
  9 10  1  0  0  0  0
  9 26  1  0  0  0  0
  9 27  1  0  0  0  0
 10 11  1  0  0  0  0
 10 28  1  0  0  0  0
 10 29  1  0  0  0  0
 11 12  1  0  0  0  0
 12 17  1  0  0  0  0
 12 13  1  0  0  0  0
 12 30  1  0  0  0  0
 13 14  1  0  0  0  0
 13 31  1  0  0  0  0
 13 32  1  0  0  0  0
 14 15  1  0  0  0  0
 14 33  1  0  0  0  0
 14 34  1  0  0  0  0
 15 16  1  0  0  0  0
 15 35  1  0  0  0  0
 15 36  1  0  0  0  0
 16 17  1  0  0  0  0
 16 37  1  0  0  0  0
 16 38  1  0  0  0  0
 17 18  1  0  0  0  0
 17 39  1  0  0  0  0
 18 40  1  0  0  0  0
 18 41  1  0  0  0  0
 18 42  1  0  0  0  0
 19 20  1  0  0  0  0
M  CHG  1   5  -1
M  END
> <s_m_source_file>
AV-unprocessed.smi

> <i_m_source_file_index>
2104

> <i_lp_mmshare_version>
43012

> <i_f3d_flags>
0

> <s_epik_input>
W0NIM11jMVtjSF1jKG5vMSlbTkhdQyg9TylbTkhdW0NIMl1bQ0gyXU9bQ0BASF0yW0NIMl1bQ0gyXVtDSDJdW0NIMl1bQ0BIXTJbQ0gzXQ==

> <s_epik_cmdline>
J2VwaWtfcHl0aG9uJywgJy1waCcsICc3LjAnLCAnLXRuJywgJzgnLCAnLW1hJywgJzIwMCcsICctbWV0YWxfYmluZGluZycsICctaW1hZScsICc8aW5maWxlLm1hZT4nLCAnLW9tYWUnLCAnPG91dGZpbGUubWFlPic=

> <r_lp_tautomer_probability>
1

> <r_epik_Ionization_Penalty>
6.47137

> <r_epik_Ionization_Penalty_Charging>
6.47125

> <r_epik_Ionization_Penalty_Neutral>
0.000118933

> <r_epik_State_Penalty>
6.47124

> <r_epik_Charging_Adjusted_Penalty>
12.9425

> <i_epik_Tot_Q>
-1

> <i_epik_Tot_abs_Q>
1

> <r_epik_Metal_State_Penalty>
2.3995

> <b_epik_Metal_Only>
1

> <s_lp_Force_Field>
OPLS_2005

> <r_lp_Energy>
3.24625

> <b_lp_Chiralities_Consistent>
1

> <s_lp_Variant>
AV-unprocessed.smi:2104-8

> <Gold.Version>
5.8.1

> <Gold.Id.Protein>
6NUR|6NUR_protein|mol2

> <Gold.PLP.Fitness>
51.4716

> <Gold.PLP.PLP>
-40.6663

> <Gold.PLP.part.hbond>
-3.0000

> <Gold.PLP.part.metal>
0.0000

> <Gold.PLP.part.buried>
-6.3109

> <Gold.PLP.part.nonpolar>
-32.9496

> <Gold.PLP.part.repulsive>
0.2207

> <Gold.PLP.ligand.clash>
0.0000

> <Gold.PLP.ligand.torsion>
0.3135

> <Gold.PLP.Chemscore.Hbond>
3.8040

> <Gold.PLP.Chemscore.CHOScore>
0.0000

> <Gold.PLP.Chemscore.Metal>
0.0000

> <Gold.Chemscore.Hbonds>
donor molecule, donor type, donor heavy atom, donor atom, acceptor molecule, acceptor atom, score
      P1  H  6896  6908       L1     7  1.00

> <Gold.PLP.Chemscore.Internal.Correction>
0.0204

> <Gold.Rescore>
     Score         DG    S(hbond)    S(metal)    S(lipo)     H(rot)  DE(clash)    DE(int)     intcor
     17.27     -18.99       1.89        0.00      99.03       1.71       0.01       1.71       ----

> <Gold.Chemscore.Fitness>
17.2673

> <Gold.Chemscore.DG>
-18.9895

> <Gold.Chemscore.ZeroCoef>
-5.4800

> <Gold.Chemscore.Hbond>
1.8865

> <Gold.Chemscore.Metal>
0.0000

> <Gold.Chemscore.Lipo>
99.0339

> <Gold.Chemscore.Internal_Hbond>
0.0000

> <Gold.Chemscore.DEClash>
0.0102

> <Gold.Chemscore.DEInternal>
1.7119

> <Gold.Chemscore.Rot>
1.7103

> <Gold.Chemscore.Internal.Correction>
   9.000000E+99

> <Gold.Chemscore.Hbonds>
donor molecule, donor type, donor heavy atom, donor atom, acceptor molecule, acceptor atom, score
      P1  H  6896  6908       L1     7  0.94

> <Gold.Chemscore.Hbond.Weighted>
-6.3009

> <Gold.Chemscore.Metal.Weighted>
-0.0000

> <Gold.Chemscore.Lipo.Weighted>
-11.5870

> <Gold.Chemscore.Internal_Hbond.Weighted>
0.0000

> <Gold.Chemscore.DEClash.Weighted>
0.0102

> <Gold.Chemscore.DEInternal.Weighted>
1.7119

> <Gold.Chemscore.Rot.Weighted>
4.3784

> <Gold.Chemscore.Internal.Correction.Weighted>
   9.000000E+99

> <Gold.Protein.RotatedTorsions>
[ 6907 6896 6895 6894 ] final -176.90 input  -60.11 | X-H torsion
[ 7974 7965 7964 7962 ] final  145.96 input  175.53 | X-H torsion
[ 8008 7997 7996 7995 ] final   41.08 input   59.86 | X-H torsion
[ 10167 10162 10161 10158 ] final  -47.00 input  -65.29 | X-H torsion
[ 10718 10713 10712 10709 ] final -128.48 input   66.30 | X-H torsion
[ 10763 10752 10751 10750 ] final  121.31 input  -60.55 | X-H torsion
[ 11005 11000 10999 10996 ] final -153.35 input  -57.11 | X-H torsion

> <Gold.Protein.ActiveResidues>
 VAL166  LYS551  ARG553  GLY616  TRP617  ASP618  TYR619  PRO620  LYS621  CYS622 
 ASP623  PHE694  ASN695  SER759  ASP760  ASP761  ALA762  ILE779  LEU786  VAL792 
 PHE793  MET794  SER795  GLU796  ALA797  LYS798  CYS799  TRP800  GLU811  SER814 

> <Gold.Protein.RotatedAtoms>
  151.6123  133.3346  159.3069 H   0  0  0  0  0  0  0  0  0  0  0  0  # atno 6907 bound_to 6896
  150.8150  134.7330  159.6733 H   0  0  0  0  0  0  0  0  0  0  0  0  # atno 6908 bound_to 6896
  152.4246  134.5897  160.0022 H   0  0  0  0  0  0  0  0  0  0  0  0  # atno 6909 bound_to 6896
  144.8710  139.5846  143.5887 H   0  0  0  0  0  0  0  0  0  0  0  0  # atno 7974 bound_to 7965
  155.2637  140.3361  155.4271 H   0  0  0  0  0  0  0  0  0  0  0  0  # atno 8008 bound_to 7997
  156.2163  140.1790  156.7623 H   0  0  0  0  0  0  0  0  0  0  0  0  # atno 8009 bound_to 7997
  154.5758  140.0662  156.9017 H   0  0  0  0  0  0  0  0  0  0  0  0  # atno 8010 bound_to 7997
  140.6794  143.2804  151.3864 H   0  0  0  0  0  0  0  0  0  0  0  0  # atno 10167 bound_to 10162
  156.1955  130.6823  151.0476 H   0  0  0  0  0  0  0  0  0  0  0  0  # atno 10718 bound_to 10713
  153.6121  135.3428  155.2982 H   0  0  0  0  0  0  0  0  0  0  0  0  # atno 10763 bound_to 10752
  154.8616  135.4253  154.2298 H   0  0  0  0  0  0  0  0  0  0  0  0  # atno 10764 bound_to 10752
  153.3151  135.7034  153.7152 H   0  0  0  0  0  0  0  0  0  0  0  0  # atno 10765 bound_to 10752
  140.7091  134.3853  157.5200 H   0  0  0  0  0  0  0  0  0  0  0  0  # atno 11005 bound_to 11000
  146.2930  139.7195  142.9147 LP  0  0  0  0  0  0  0  0  0  0  0  0  # atno 17320 bound_to 7965
  145.4130  141.0398  143.3006 LP  0  0  0  0  0  0  0  0  0  0  0  0  # atno 17321 bound_to 7965
  139.6106  144.1106  152.2295 LP  0  0  0  0  0  0  0  0  0  0  0  0  # atno 17342 bound_to 10162
  140.0519  144.5926  150.7329 LP  0  0  0  0  0  0  0  0  0  0  0  0  # atno 17343 bound_to 10162
  157.6955  131.0795  150.6982 LP  0  0  0  0  0  0  0  0  0  0  0  0  # atno 17370 bound_to 10713
  156.7039  130.4631  149.5565 LP  0  0  0  0  0  0  0  0  0  0  0  0  # atno 17371 bound_to 10713
  139.8876  134.8877  156.2518 LP  0  0  0  0  0  0  0  0  0  0  0  0  # atno 17394 bound_to 11000
  141.0099  133.7101  156.1095 LP  0  0  0  0  0  0  0  0  0  0  0  0  # atno 17395 bound_to 11000

$$$$
