AV-unprocessed.smi:530|AV-procd|sdf|2842|dock4
  -GOLD-   2262023333D 1   1.00000     0.00000
 Structure written by MMmdl.
 35 37  0  0  0  0  0  0  0  0  1 V2000
  152.5741  139.0728  158.3288 C   0  0  0  0  0  0  0  0  0  0  0  0
  152.2751  140.4702  158.7703 C   0  0  0  0  0  0  0  0  0  0  0  0
  153.0547  141.1257  159.6311 N   0  0  0  0  0  0  0  0  0  0  0  0
  152.4203  142.3479  159.7444 C   0  0  0  0  0  0  0  0  0  0  0  0
  152.7512  143.4879  160.5114 C   0  0  0  0  0  0  0  0  0  0  0  0
  151.9409  144.6413  160.4620 C   0  0  0  0  0  0  0  0  0  0  0  0
  150.7911  144.6720  159.6463 C   0  0  0  0  0  0  0  0  0  0  0  0
  150.4423  143.5464  158.8756 C   0  0  0  0  0  0  0  0  0  0  0  0
  151.2536  142.3974  158.9300 C   0  0  0  0  0  0  0  0  0  0  0  0
  151.1930  141.1504  158.3171 N   0  0  0  0  0  0  0  0  0  0  0  0
  150.1657  140.7035  157.3860 C   0  0  0  0  0  0  0  0  0  0  0  0
  150.3787  141.2577  155.9633 C   0  0  2  0  0  0  0  0  0  0  0  0
  150.4982  142.6666  156.0064 O   0  0  0  0  0  0  0  0  0  0  0  0
  149.2764  140.8014  155.0203 C   0  0  0  0  0  0  0  0  0  0  0  0
  149.1456  139.4326  154.7015 C   0  0  0  0  0  0  0  0  0  0  0  0
  148.1243  138.9995  153.8338 C   0  0  0  0  0  0  0  0  0  0  0  0
  147.2263  139.9326  153.2814 C   0  0  0  0  0  0  0  0  0  0  0  0
  147.3482  141.2986  153.5997 C   0  0  0  0  0  0  0  0  0  0  0  0
  148.3691  141.7320  154.4679 C   0  0  0  0  0  0  0  0  0  0  0  0
  153.4452  138.6827  158.8562 H   0  0  0  0  0  0  0  0  0  0  0  0
  152.7833  139.0537  157.2592 H   0  0  0  0  0  0  0  0  0  0  0  0
  151.7272  138.4189  158.5360 H   0  0  0  0  0  0  0  0  0  0  0  0
  153.6302  143.4751  161.1384 H   0  0  0  0  0  0  0  0  0  0  0  0
  152.2030  145.5070  161.0523 H   0  0  0  0  0  0  0  0  0  0  0  0
  150.1766  145.5597  159.6130 H   0  0  0  0  0  0  0  0  0  0  0  0
  149.5619  143.5651  158.2506 H   0  0  0  0  0  0  0  0  0  0  0  0
  150.1879  139.6132  157.3653 H   0  0  0  0  0  0  0  0  0  0  0  0
  149.1807  140.9786  157.7633 H   0  0  0  0  0  0  0  0  0  0  0  0
  151.3274  140.8810  155.5789 H   0  0  0  0  0  0  0  0  0  0  0  0
  149.6509  143.0443  155.8264 H   0  0  0  0  0  0  0  0  0  0  0  0
  149.8277  138.7085  155.1226 H   0  0  0  0  0  0  0  0  0  0  0  0
  148.0293  137.9512  153.5923 H   0  0  0  0  0  0  0  0  0  0  0  0
  146.4433  139.6007  152.6154 H   0  0  0  0  0  0  0  0  0  0  0  0
  146.6577  142.0143  153.1784 H   0  0  0  0  0  0  0  0  0  0  0  0
  148.4522  142.7816  154.7096 H   0  0  0  0  0  0  0  0  0  0  0  0
  1  2  1  0  0  0  0
  1 20  1  0  0  0  0
  1 21  1  0  0  0  0
  1 22  1  0  0  0  0
  2 10  1  0  0  0  0
  2  3  2  0  0  0  0
  3  4  1  0  0  0  0
  4  9  2  0  0  0  0
  4  5  1  0  0  0  0
  5  6  2  0  0  0  0
  5 23  1  0  0  0  0
  6  7  1  0  0  0  0
  6 24  1  0  0  0  0
  7  8  2  0  0  0  0
  7 25  1  0  0  0  0
  8  9  1  0  0  0  0
  8 26  1  0  0  0  0
  9 10  1  0  0  0  0
 10 11  1  0  0  0  0
 11 12  1  0  0  0  0
 11 27  1  0  0  0  0
 11 28  1  0  0  0  0
 12 13  1  0  0  0  0
 12 14  1  0  0  0  0
 12 29  1  0  0  0  0
 13 30  1  0  0  0  0
 14 19  1  0  0  0  0
 14 15  2  0  0  0  0
 15 16  1  0  0  0  0
 15 31  1  0  0  0  0
 16 17  2  0  0  0  0
 16 32  1  0  0  0  0
 17 18  1  0  0  0  0
 17 33  1  0  0  0  0
 18 19  2  0  0  0  0
 18 34  1  0  0  0  0
 19 35  1  0  0  0  0
M  END
> <s_m_source_file>
AV-unprocessed.smi

> <i_m_source_file_index>
530

> <i_lp_mmshare_version>
43012

> <i_f3d_flags>
0

> <s_epik_input>
W2NIXTFbY0hdW2NIXVtjSF1jKGMxMiluKGMobjIpW0NIM10pW0NIMl1bQ0BIXShbT0hdKWMzW2NIXVtjSF1bY0hdW2NIXVtjSF0z

> <s_epik_cmdline>
J2VwaWtfcHl0aG9uJywgJy1waCcsICc3LjAnLCAnLXRuJywgJzgnLCAnLW1hJywgJzIwMCcsICctbWV0YWxfYmluZGluZycsICctaW1hZScsICc8aW5maWxlLm1hZT4nLCAnLW9tYWUnLCAnPG91dGZpbGUubWFlPic=

> <r_epik_Ionization_Penalty>
0.129663

> <r_epik_Ionization_Penalty_Charging>
0

> <r_epik_Ionization_Penalty_Neutral>
0.129663

> <r_epik_State_Penalty>
0.119073

> <r_epik_Charging_Adjusted_Penalty>
0.119073

> <i_epik_Tot_Q>
0

> <i_epik_Tot_abs_Q>
0

> <r_epik_Metal_State_Penalty>
0.000131867

> <b_epik_Metal_Only>
0

> <s_lp_Force_Field>
OPLS_2005

> <r_lp_Energy>
11.6946

> <b_lp_Chiralities_Consistent>
1

> <s_lp_Variant>
AV-unprocessed.smi:530-1

> <Gold.Version>
5.8.1

> <Gold.Id.Protein>
6NUR|6NUR_protein|mol2

> <Gold.PLP.Fitness>
43.6424

> <Gold.PLP.PLP>
-41.9077

> <Gold.PLP.part.hbond>
-1.0000

> <Gold.PLP.part.metal>
0.0000

> <Gold.PLP.part.buried>
-4.0844

> <Gold.PLP.part.nonpolar>
-36.2361

> <Gold.PLP.part.repulsive>
0.0000

> <Gold.PLP.ligand.clash>
0.0000

> <Gold.PLP.ligand.torsion>
0.3942

> <Gold.PLP.Chemscore.Hbond>
0.8320

> <Gold.PLP.Chemscore.CHOScore>
0.0000

> <Gold.PLP.Chemscore.Metal>
0.0000

> <Gold.Chemscore.Hbonds>
donor molecule, donor type, donor heavy atom, donor atom, acceptor molecule, acceptor atom, score
      L1  H    13    30       P1  8028  0.77

> <Gold.PLP.Chemscore.Internal.Correction>
0.0271

> <Gold.Rescore>
     Score         DG    S(hbond)    S(metal)    S(lipo)     H(rot)  DE(clash)    DE(int)     intcor
     17.13     -17.80       0.93        0.00     115.88       1.70       0.24       0.42       ----

> <Gold.Chemscore.Fitness>
17.1300

> <Gold.Chemscore.DG>
-17.7993

> <Gold.Chemscore.ZeroCoef>
-5.4800

> <Gold.Chemscore.Hbond>
0.9333

> <Gold.Chemscore.Metal>
0.0000

> <Gold.Chemscore.Lipo>
115.8761

> <Gold.Chemscore.Internal_Hbond>
0.0000

> <Gold.Chemscore.DEClash>
0.2450

> <Gold.Chemscore.DEInternal>
0.4243

> <Gold.Chemscore.Rot>
1.7013

> <Gold.Chemscore.Internal.Correction>
   9.000000E+99

> <Gold.Chemscore.Hbonds>
donor molecule, donor type, donor heavy atom, donor atom, acceptor molecule, acceptor atom, score
      L1  H    13    30       P1  8028  0.76

> <Gold.Chemscore.Hbond.Weighted>
-3.1171

> <Gold.Chemscore.Metal.Weighted>
-0.0000

> <Gold.Chemscore.Lipo.Weighted>
-13.5575

> <Gold.Chemscore.Internal_Hbond.Weighted>
0.0000

> <Gold.Chemscore.DEClash.Weighted>
0.2450

> <Gold.Chemscore.DEInternal.Weighted>
0.4243

> <Gold.Chemscore.Rot.Weighted>
4.3554

> <Gold.Chemscore.Internal.Correction.Weighted>
   9.000000E+99

> <Gold.Protein.RotatedTorsions>
[ 6907 6896 6895 6894 ] final -116.84 input  -60.11 | X-H torsion
[ 7974 7965 7964 7962 ] final   50.54 input  175.53 | X-H torsion
[ 8008 7997 7996 7995 ] final  -50.07 input   59.86 | X-H torsion
[ 10167 10162 10161 10158 ] final   68.93 input  -65.29 | X-H torsion
[ 10718 10713 10712 10709 ] final   76.92 input   66.30 | X-H torsion
[ 10763 10752 10751 10750 ] final  164.96 input  -60.55 | X-H torsion
[ 11005 11000 10999 10996 ] final -149.13 input  -57.11 | X-H torsion

> <Gold.Protein.ActiveResidues>
 VAL166  LYS551  ARG553  GLY616  TRP617  ASP618  TYR619  PRO620  LYS621  CYS622 
 ASP623  PHE694  ASN695  SER759  ASP760  ASP761  ALA762  ILE779  LEU786  VAL792 
 PHE793  MET794  SER795  GLU796  ALA797  LYS798  CYS799  TRP800  GLU811  SER814 

> <Gold.Protein.RotatedAtoms>
  150.8088  133.8460  159.3191 H   0  0  0  0  0  0  0  0  0  0  0  0  # atno 6907 bound_to 6896
  151.6251  135.1026  160.0119 H   0  0  0  0  0  0  0  0  0  0  0  0  # atno 6908 bound_to 6896
  152.4180  133.7029  159.6491 H   0  0  0  0  0  0  0  0  0  0  0  0  # atno 6909 bound_to 6896
  146.0002  139.4431  143.0020 H   0  0  0  0  0  0  0  0  0  0  0  0  # atno 7974 bound_to 7965
  154.4055  140.1281  156.4605 H   0  0  0  0  0  0  0  0  0  0  0  0  # atno 8008 bound_to 7997
  155.7277  140.3492  155.5025 H   0  0  0  0  0  0  0  0  0  0  0  0  # atno 8009 bound_to 7997
  155.9156  140.1043  157.1236 H   0  0  0  0  0  0  0  0  0  0  0  0  # atno 8010 bound_to 7997
  140.0733  144.5133  150.7212 H   0  0  0  0  0  0  0  0  0  0  0  0  # atno 10167 bound_to 10162
  157.6691  130.9797  150.1567 H   0  0  0  0  0  0  0  0  0  0  0  0  # atno 10718 bound_to 10713
  154.3168  135.2756  155.2539 H   0  0  0  0  0  0  0  0  0  0  0  0  # atno 10763 bound_to 10752
  154.4910  135.5833  153.6462 H   0  0  0  0  0  0  0  0  0  0  0  0  # atno 10764 bound_to 10752
  152.9881  135.6134  154.3350 H   0  0  0  0  0  0  0  0  0  0  0  0  # atno 10765 bound_to 10752
  140.7540  134.3375  157.5119 H   0  0  0  0  0  0  0  0  0  0  0  0  # atno 11005 bound_to 11000
  145.7499  140.9976  143.1256 LP  0  0  0  0  0  0  0  0  0  0  0  0  # atno 17320 bound_to 7965
  144.6917  139.9201  143.7467 LP  0  0  0  0  0  0  0  0  0  0  0  0  # atno 17321 bound_to 7965
  140.7114  143.2508  151.4568 LP  0  0  0  0  0  0  0  0  0  0  0  0  # atno 17342 bound_to 10162
  139.5823  144.1683  152.1983 LP  0  0  0  0  0  0  0  0  0  0  0  0  # atno 17343 bound_to 10162
  156.2353  130.3686  149.8398 LP  0  0  0  0  0  0  0  0  0  0  0  0  # atno 17370 bound_to 10713
  156.6214  130.8628  151.3476 LP  0  0  0  0  0  0  0  0  0  0  0  0  # atno 17371 bound_to 10713
  139.8782  134.9160  156.3143 LP  0  0  0  0  0  0  0  0  0  0  0  0  # atno 17394 bound_to 11000
  140.9725  133.7318  156.0555 LP  0  0  0  0  0  0  0  0  0  0  0  0  # atno 17395 bound_to 11000

$$$$
