AV-unprocessed.smi:1828|AV-procd|sdf|7425|dock3
  -GOLD-   22720 9103D 1   1.00000     0.00000
 Structure written by MMmdl.
 39 41  0  0  0  0  0  0  0  0  1 V2000
  151.7652  136.8226  154.1293 O   0  0  0  0  0  0  0  0  0  0  0  0
  152.0092  138.2011  154.3153 C   0  0  0  0  0  0  0  0  0  0  0  0
  150.7450  139.0015  154.4484 C   0  0  0  0  0  0  0  0  0  0  0  0
  149.6394  138.6528  153.7876 N   0  0  0  0  0  0  0  0  0  0  0  0
  148.7360  139.6267  154.1603 C   0  0  0  0  0  0  0  0  0  0  0  0
  147.3853  139.8164  153.7908 C   0  0  0  0  0  0  0  0  0  0  0  0
  146.6500  140.9034  154.3070 C   0  0  0  0  0  0  0  0  0  0  0  0
  147.2536  141.8141  155.1979 C   0  0  0  0  0  0  0  0  0  0  0  0
  148.5983  141.6423  155.5792 C   0  0  0  0  0  0  0  0  0  0  0  0
  149.3277  140.5548  155.0615 C   0  0  0  0  0  0  0  0  0  0  0  0
  150.6361  140.1105  155.2291 N   0  0  0  0  0  0  0  0  0  0  0  0
  151.6376  140.7515  156.0737 C   0  0  0  0  0  0  0  0  0  0  0  0
  151.9291  139.9437  157.3547 C   0  0  1  0  0  0  0  0  0  0  0  0
  152.9333  138.9940  157.0609 O   0  0  0  0  0  0  0  0  0  0  0  0
  152.2953  140.8309  158.5369 C   0  0  0  0  0  0  0  0  0  0  0  0
  153.1150  140.3481  159.5805 C   0  0  0  0  0  0  0  0  0  0  0  0
  153.4614  141.1888  160.6548 C   0  0  0  0  0  0  0  0  0  0  0  0
  152.9975  142.5175  160.6896 C   0  0  0  0  0  0  0  0  0  0  0  0
  152.1858  143.0156  159.6476 C   0  0  0  0  0  0  0  0  0  0  0  0
  151.6849  144.4517  159.6771 C   0  0  0  0  0  0  0  0  0  0  0  0
  152.1453  145.1331  158.6273 F   0  0  0  0  0  0  0  0  0  0  0  0
  150.3530  144.4515  159.6387 F   0  0  0  0  0  0  0  0  0  0  0  0
  152.0823  145.0763  160.7863 F   0  0  0  0  0  0  0  0  0  0  0  0
  151.8311  142.1632  158.5801 C   0  0  0  0  0  0  0  0  0  0  0  0
  151.4517  136.6897  153.2480 H   0  0  0  0  0  0  0  0  0  0  0  0
  152.6041  138.3351  155.2189 H   0  0  0  0  0  0  0  0  0  0  0  0
  152.6188  138.5415  153.4824 H   0  0  0  0  0  0  0  0  0  0  0  0
  146.9148  139.1249  153.1077 H   0  0  0  0  0  0  0  0  0  0  0  0
  145.6182  141.0393  154.0173 H   0  0  0  0  0  0  0  0  0  0  0  0
  146.6837  142.6445  155.5885 H   0  0  0  0  0  0  0  0  0  0  0  0
  149.0635  142.3389  156.2607 H   0  0  0  0  0  0  0  0  0  0  0  0
  152.5513  140.8379  155.4842 H   0  0  0  0  0  0  0  0  0  0  0  0
  151.3464  141.7754  156.3028 H   0  0  0  0  0  0  0  0  0  0  0  0
  151.0396  139.3705  157.6199 H   0  0  0  0  0  0  0  0  0  0  0  0
  152.6403  138.4639  156.3353 H   0  0  0  0  0  0  0  0  0  0  0  0
  153.4866  139.3341  159.5586 H   0  0  0  0  0  0  0  0  0  0  0  0
  154.0870  140.8156  161.4521 H   0  0  0  0  0  0  0  0  0  0  0  0
  153.2704  143.1525  161.5193 H   0  0  0  0  0  0  0  0  0  0  0  0
  151.2093  142.5373  157.7799 H   0  0  0  0  0  0  0  0  0  0  0  0
  1  2  1  0  0  0  0
  1 25  1  0  0  0  0
  2  3  1  0  0  0  0
  2 26  1  0  0  0  0
  2 27  1  0  0  0  0
  3 11  1  0  0  0  0
  3  4  2  0  0  0  0
  4  5  1  0  0  0  0
  5 10  2  0  0  0  0
  5  6  1  0  0  0  0
  6  7  2  0  0  0  0
  6 28  1  0  0  0  0
  7  8  1  0  0  0  0
  7 29  1  0  0  0  0
  8  9  2  0  0  0  0
  8 30  1  0  0  0  0
  9 10  1  0  0  0  0
  9 31  1  0  0  0  0
 10 11  1  0  0  0  0
 11 12  1  0  0  0  0
 12 13  1  0  0  0  0
 12 32  1  0  0  0  0
 12 33  1  0  0  0  0
 13 14  1  0  0  0  0
 13 15  1  0  0  0  0
 13 34  1  0  0  0  0
 14 35  1  0  0  0  0
 15 24  1  0  0  0  0
 15 16  2  0  0  0  0
 16 17  1  0  0  0  0
 16 36  1  0  0  0  0
 17 18  2  0  0  0  0
 17 37  1  0  0  0  0
 18 19  1  0  0  0  0
 18 38  1  0  0  0  0
 19 20  1  0  0  0  0
 19 24  2  0  0  0  0
 20 21  1  0  0  0  0
 20 22  1  0  0  0  0
 20 23  1  0  0  0  0
 24 39  1  0  0  0  0
M  END
> <s_m_source_file>
AV-unprocessed.smi

> <i_m_source_file_index>
1828

> <i_lp_mmshare_version>
43012

> <i_f3d_flags>
0

> <s_epik_input>
W2NIXTFbY0hdW2NIXVtjSF1jKGMxMiluKGMobjIpW0NIMl1bT0hdKVtDSDJdW0NASF0oW09IXSljM1tjSF1bY0hdW2NIXWMoQyhGKShGKUYpW2NIXTM=

> <s_epik_cmdline>
J2VwaWtfcHl0aG9uJywgJy1waCcsICc3LjAnLCAnLXRuJywgJzgnLCAnLW1hJywgJzIwMCcsICctbWV0YWxfYmluZGluZycsICctaW1hZScsICc8aW5maWxlLm1hZT4nLCAnLW9tYWUnLCAnPG91dGZpbGUubWFlPic=

> <r_epik_Ionization_Penalty>
0.0634719

> <r_epik_Ionization_Penalty_Charging>
0

> <r_epik_Ionization_Penalty_Neutral>
0.0634719

> <r_epik_State_Penalty>
0.0551572

> <r_epik_Charging_Adjusted_Penalty>
0.0551572

> <i_epik_Tot_Q>
0

> <i_epik_Tot_abs_Q>
0

> <r_epik_Metal_State_Penalty>
5.78034e-05

> <b_epik_Metal_Only>
0

> <s_lp_Force_Field>
OPLS_2005

> <r_lp_Energy>
14.211

> <b_lp_Chiralities_Consistent>
1

> <s_lp_Variant>
AV-unprocessed.smi:1828-2

> <Gold.Version>
5.8.1

> <Gold.Id.Protein>
6NUR|6NUR_protein|mol2

> <Gold.PLP.Fitness>
62.4453

> <Gold.PLP.PLP>
-56.6039

> <Gold.PLP.part.hbond>
-3.0000

> <Gold.PLP.part.metal>
0.0000

> <Gold.PLP.part.buried>
-5.0180

> <Gold.PLP.part.nonpolar>
-49.9798

> <Gold.PLP.part.repulsive>
1.2065

> <Gold.PLP.ligand.clash>
1.1115

> <Gold.PLP.ligand.torsion>
1.6227

> <Gold.PLP.Chemscore.Hbond>
3.0000

> <Gold.PLP.Chemscore.CHOScore>
0.0000

> <Gold.PLP.Chemscore.Metal>
0.0000

> <Gold.Chemscore.Hbonds>
donor molecule, donor type, donor heavy atom, donor atom, acceptor molecule, acceptor atom, score
      L1  H     1    25       P1  7949  1.00
      P1  H  7997  8008       L1    14  1.00
      P1  H 10752 10764       L1     1  1.00

> <Gold.PLP.Chemscore.Internal.Correction>
1.1983

> <Gold.Rescore>
     Score         DG    S(hbond)    S(metal)    S(lipo)     H(rot)  DE(clash)    DE(int)     intcor
     18.31     -20.45       2.55        0.00     118.88       2.91       0.79       1.35       ----

> <Gold.Chemscore.Fitness>
18.3120

> <Gold.Chemscore.DG>
-20.4542

> <Gold.Chemscore.ZeroCoef>
-5.4800

> <Gold.Chemscore.Hbond>
2.5526

> <Gold.Chemscore.Metal>
0.0000

> <Gold.Chemscore.Lipo>
118.8754

> <Gold.Chemscore.Internal_Hbond>
0.0000

> <Gold.Chemscore.DEClash>
0.7896

> <Gold.Chemscore.DEInternal>
1.3525

> <Gold.Chemscore.Rot>
2.9141

> <Gold.Chemscore.Internal.Correction>
   9.000000E+99

> <Gold.Chemscore.Hbonds>
donor molecule, donor type, donor heavy atom, donor atom, acceptor molecule, acceptor atom, score
      L1  H     1    25       P1  7949  0.85
      P1  H  7997  8008       L1    14  0.43
      P1  H 10752 10764       L1     1  0.58

> <Gold.Chemscore.Hbond.Weighted>
-8.5258

> <Gold.Chemscore.Metal.Weighted>
-0.0000

> <Gold.Chemscore.Lipo.Weighted>
-13.9084

> <Gold.Chemscore.Internal_Hbond.Weighted>
0.0000

> <Gold.Chemscore.DEClash.Weighted>
0.7896

> <Gold.Chemscore.DEInternal.Weighted>
1.3525

> <Gold.Chemscore.Rot.Weighted>
7.4600

> <Gold.Chemscore.Internal.Correction.Weighted>
   9.000000E+99

> <Gold.Protein.RotatedTorsions>
[ 6907 6896 6895 6894 ] final  -38.12 input  -60.11 | X-H torsion
[ 7974 7965 7964 7962 ] final   13.80 input  175.53 | X-H torsion
[ 8008 7997 7996 7995 ] final  -74.34 input   59.86 | X-H torsion
[ 10167 10162 10161 10158 ] final -150.62 input  -65.29 | X-H torsion
[ 10718 10713 10712 10709 ] final -146.96 input   66.30 | X-H torsion
[ 10763 10752 10751 10750 ] final  -67.31 input  -60.55 | X-H torsion
[ 11005 11000 10999 10996 ] final   53.02 input  -57.11 | X-H torsion

> <Gold.Protein.ActiveResidues>
 VAL166  LYS551  ARG553  GLY616  TRP617  ASP618  TYR619  PRO620  LYS621  CYS622 
 ASP623  PHE694  ASN695  SER759  ASP760  ASP761  ALA762  ILE779  LEU786  VAL792 
 PHE793  MET794  SER795  GLU796  ALA797  LYS798  CYS799  TRP800  GLU811  SER814 

> <Gold.Protein.RotatedAtoms>
  151.0063  134.9361  159.7981 H   0  0  0  0  0  0  0  0  0  0  0  0  # atno 6907 bound_to 6896
  152.5291  134.3088  159.9115 H   0  0  0  0  0  0  0  0  0  0  0  0  # atno 6908 bound_to 6896
  151.3093  133.4046  159.2680 H   0  0  0  0  0  0  0  0  0  0  0  0  # atno 6909 bound_to 6896
  146.2320  139.9135  142.8521 H   0  0  0  0  0  0  0  0  0  0  0  0  # atno 7974 bound_to 7965
  154.5323  140.0763  156.8366 H   0  0  0  0  0  0  0  0  0  0  0  0  # atno 8008 bound_to 7997
  155.3350  140.3404  155.4221 H   0  0  0  0  0  0  0  0  0  0  0  0  # atno 8009 bound_to 7997
  156.1793  140.1646  156.8290 H   0  0  0  0  0  0  0  0  0  0  0  0  # atno 8010 bound_to 7997
  139.7338  143.8767  152.2543 H   0  0  0  0  0  0  0  0  0  0  0  0  # atno 10167 bound_to 10162
  156.4015  130.7936  151.2147 H   0  0  0  0  0  0  0  0  0  0  0  0  # atno 10718 bound_to 10713
  154.3726  135.6092  153.5748 H   0  0  0  0  0  0  0  0  0  0  0  0  # atno 10763 bound_to 10752
  152.9790  135.5841  154.4504 H   0  0  0  0  0  0  0  0  0  0  0  0  # atno 10764 bound_to 10752
  154.4260  135.2847  155.1922 H   0  0  0  0  0  0  0  0  0  0  0  0  # atno 10765 bound_to 10752
  140.0801  134.5350  155.8955 H   0  0  0  0  0  0  0  0  0  0  0  0  # atno 11005 bound_to 11000
  145.2206  140.9933  143.4048 LP  0  0  0  0  0  0  0  0  0  0  0  0  # atno 17320 bound_to 7965
  144.9613  139.3977  143.6354 LP  0  0  0  0  0  0  0  0  0  0  0  0  # atno 17321 bound_to 7965
  139.8697  144.7074  150.9001 LP  0  0  0  0  0  0  0  0  0  0  0  0  # atno 17342 bound_to 10162
  140.7775  143.3748  151.1583 LP  0  0  0  0  0  0  0  0  0  0  0  0  # atno 17343 bound_to 10162
  157.7504  131.0285  150.4053 LP  0  0  0  0  0  0  0  0  0  0  0  0  # atno 17370 bound_to 10713
  156.4334  130.3976  149.6745 LP  0  0  0  0  0  0  0  0  0  0  0  0  # atno 17371 bound_to 10713
  141.2044  133.6638  156.6116 LP  0  0  0  0  0  0  0  0  0  0  0  0  # atno 17394 bound_to 11000
  140.3500  134.7777  157.4460 LP  0  0  0  0  0  0  0  0  0  0  0  0  # atno 17395 bound_to 11000

$$$$
