AV-unprocessed.smi:258|AV-procd|sdf|1968|dock5
  -GOLD-   2262021123D 1   1.00000     0.00000
 Structure written by MMmdl.
 57 60  0  0  0  0  0  0  0  0  1 V2000
  143.3573  131.9728  149.3764 O   0  0  0  0  0  0  0  0  0  0  0  0
  144.3641  132.4425  150.2479 C   0  0  0  0  0  0  0  0  0  0  0  0
  144.4329  133.9738  150.2020 C   0  0  0  0  0  0  0  0  0  0  0  0
  145.3094  134.4295  151.2230 O   0  0  0  0  0  0  0  0  0  0  0  0
  145.0077  135.7259  151.7222 C   0  0  1  0  0  0  0  0  0  0  0  0
  143.5536  135.8006  152.2305 C   0  0  0  0  0  0  0  0  0  0  0  0
  143.2939  137.1576  152.9019 C   0  0  0  0  0  0  0  0  0  0  0  0
  144.3176  137.4277  154.0163 C   0  0  0  0  0  0  0  0  0  0  0  0
  145.6853  137.2980  153.5101 N   0  0  0  0  0  0  0  0  0  0  0  0
  146.6909  137.8048  154.2683 C   0  0  0  0  0  0  0  0  0  0  0  0
  147.2730  137.0351  155.2269 N   0  0  0  0  0  0  0  0  0  0  0  0
  148.2723  137.5208  155.9692 C   0  0  0  0  0  0  0  0  0  0  0  0
  148.8354  138.7293  155.9222 N   0  0  0  0  0  0  0  0  0  0  0  0
  148.2518  139.5098  154.9685 C   0  0  0  0  0  0  0  0  0  0  0  0
  147.1828  139.1314  154.1076 C   0  0  0  0  0  0  0  0  0  0  0  0
  146.8442  140.1956  153.2795 N   0  0  0  0  0  0  0  0  0  0  0  0
  147.6735  141.1434  153.6218 C   0  0  0  0  0  0  0  0  0  0  0  0
  148.5602  140.8138  154.6212 N   0  0  0  0  0  0  0  0  0  0  0  0
  149.5859  141.6751  155.1846 C   0  0  0  0  0  0  0  0  0  0  0  0
  150.3533  141.0211  156.3598 C   0  0  1  0  0  0  0  0  0  0  0  0
  151.6812  140.3992  155.8658 C   0  0  0  0  0  0  0  0  0  0  0  0
  151.4668  139.6322  154.6995 O   0  0  0  0  0  0  0  0  0  0  0  0
  150.5292  141.9831  157.5690 C   0  0  2  0  0  0  0  0  0  0  0  0
  151.2546  143.2944  157.2704 C   0  0  0  0  0  0  0  0  0  0  0  0
  152.0269  143.5596  158.5556 C   0  0  0  0  0  0  0  0  0  0  0  0
  152.4241  142.2578  158.9490 O   0  0  0  0  0  0  0  0  0  0  0  0
  151.3083  141.3973  158.7604 C   0  0  0  0  0  0  0  0  0  0  0  0
  145.9879  136.0169  152.8717 C   0  0  0  0  0  0  0  0  0  0  0  0
  143.1987  132.6318  148.7180 H   0  0  0  0  0  0  0  0  0  0  0  0
  144.1913  132.0823  151.2625 H   0  0  0  0  0  0  0  0  0  0  0  0
  145.3115  132.0205  149.9123 H   0  0  0  0  0  0  0  0  0  0  0  0
  144.8385  134.2802  149.2367 H   0  0  0  0  0  0  0  0  0  0  0  0
  143.4372  134.4101  150.2864 H   0  0  0  0  0  0  0  0  0  0  0  0
  145.1668  136.4731  150.9424 H   0  0  0  0  0  0  0  0  0  0  0  0
  142.8460  135.6583  151.4143 H   0  0  0  0  0  0  0  0  0  0  0  0
  143.3719  134.9974  152.9457 H   0  0  0  0  0  0  0  0  0  0  0  0
  143.3519  137.9498  152.1546 H   0  0  0  0  0  0  0  0  0  0  0  0
  142.2829  137.1879  153.3088 H   0  0  0  0  0  0  0  0  0  0  0  0
  144.1590  138.4298  154.4173 H   0  0  0  0  0  0  0  0  0  0  0  0
  144.1690  136.7237  154.8364 H   0  0  0  0  0  0  0  0  0  0  0  0
  148.6798  136.8431  156.7049 H   0  0  0  0  0  0  0  0  0  0  0  0
  147.6648  142.1145  153.1485 H   0  0  0  0  0  0  0  0  0  0  0  0
  150.2729  141.9377  154.3798 H   0  0  0  0  0  0  0  0  0  0  0  0
  149.1237  142.6083  155.5085 H   0  0  0  0  0  0  0  0  0  0  0  0
  149.7368  140.1979  156.7248 H   0  0  0  0  0  0  0  0  0  0  0  0
  152.4213  141.1682  155.6449 H   0  0  0  0  0  0  0  0  0  0  0  0
  152.1206  139.7423  156.6153 H   0  0  0  0  0  0  0  0  0  0  0  0
  150.6300  139.1989  154.7742 H   0  0  0  0  0  0  0  0  0  0  0  0
  149.5425  142.2347  157.9593 H   0  0  0  0  0  0  0  0  0  0  0  0
  151.9603  143.1864  156.4482 H   0  0  0  0  0  0  0  0  0  0  0  0
  150.5746  144.1078  157.0177 H   0  0  0  0  0  0  0  0  0  0  0  0
  152.8836  144.2172  158.4066 H   0  0  0  0  0  0  0  0  0  0  0  0
  151.3813  143.9963  159.3195 H   0  0  0  0  0  0  0  0  0  0  0  0
  150.6924  141.4167  159.6609 H   0  0  0  0  0  0  0  0  0  0  0  0
  151.6320  140.3672  158.6120 H   0  0  0  0  0  0  0  0  0  0  0  0
  145.9209  135.2305  153.6248 H   0  0  0  0  0  0  0  0  0  0  0  0
  147.0075  135.9918  152.4886 H   0  0  0  0  0  0  0  0  0  0  0  0
  1  2  1  0  0  0  0
  1 29  1  0  0  0  0
  2  3  1  0  0  0  0
  2 30  1  0  0  0  0
  2 31  1  0  0  0  0
  3  4  1  0  0  0  0
  3 32  1  0  0  0  0
  3 33  1  0  0  0  0
  4  5  1  0  0  0  0
  5 28  1  0  0  0  0
  5  6  1  0  0  0  0
  5 34  1  0  0  0  0
  6  7  1  0  0  0  0
  6 35  1  0  0  0  0
  6 36  1  0  0  0  0
  7  8  1  0  0  0  0
  7 37  1  0  0  0  0
  7 38  1  0  0  0  0
  8  9  1  0  0  0  0
  8 39  1  0  0  0  0
  8 40  1  0  0  0  0
  9 10  1  0  0  0  0
  9 28  1  0  0  0  0
 10 15  1  0  0  0  0
 10 11  2  0  0  0  0
 11 12  1  0  0  0  0
 12 13  2  0  0  0  0
 12 41  1  0  0  0  0
 13 14  1  0  0  0  0
 14 18  1  0  0  0  0
 14 15  2  0  0  0  0
 15 16  1  0  0  0  0
 16 17  2  0  0  0  0
 17 18  1  0  0  0  0
 17 42  1  0  0  0  0
 18 19  1  0  0  0  0
 19 20  1  0  0  0  0
 19 43  1  0  0  0  0
 19 44  1  0  0  0  0
 20 21  1  0  0  0  0
 20 23  1  0  0  0  0
 20 45  1  0  0  0  0
 21 22  1  0  0  0  0
 21 46  1  0  0  0  0
 21 47  1  0  0  0  0
 22 48  1  0  0  0  0
 23 27  1  0  0  0  0
 23 24  1  0  0  0  0
 23 49  1  0  0  0  0
 24 25  1  0  0  0  0
 24 50  1  0  0  0  0
 24 51  1  0  0  0  0
 25 26  1  0  0  0  0
 25 52  1  0  0  0  0
 25 53  1  0  0  0  0
 26 27  1  0  0  0  0
 27 54  1  0  0  0  0
 27 55  1  0  0  0  0
 28 56  1  0  0  0  0
 28 57  1  0  0  0  0
M  END
> <s_m_source_file>
AV-unprocessed.smi

> <i_m_source_file_index>
258

> <i_lp_mmshare_version>
43012

> <i_f3d_flags>
0

> <s_epik_input>
W09IXVtDSDJdW0NIMl1PW0NAQEhdMVtDSDJdW0NIMl1bQ0gyXU4oW0NIMl0xKWMobltjSF1uMiljKGMyMyluW2NIXW4zW0NIMl1bQ0BIXShbQ0gyXVtPSF0pW0NAQEhdNFtDSDJdW0NIMl1PW0NIMl00

> <s_epik_cmdline>
J2VwaWtfcHl0aG9uJywgJy1waCcsICc3LjAnLCAnLXRuJywgJzgnLCAnLW1hJywgJzIwMCcsICctbWV0YWxfYmluZGluZycsICctaW1hZScsICc8aW5maWxlLm1hZT4nLCAnLW9tYWUnLCAnPG91dGZpbGUubWFlPic=

> <r_lp_tautomer_probability>
1

> <r_epik_Ionization_Penalty>
0.00349036

> <r_epik_Ionization_Penalty_Charging>
0

> <r_epik_Ionization_Penalty_Neutral>
0.00349036

> <r_epik_State_Penalty>
0.00229798

> <r_epik_Charging_Adjusted_Penalty>
0.00229798

> <i_epik_Tot_Q>
0

> <i_epik_Tot_abs_Q>
0

> <r_epik_Metal_State_Penalty>
-0

> <b_epik_Metal_Only>
0

> <s_lp_Force_Field>
OPLS_2005

> <r_lp_Energy>
48.0574

> <b_lp_Chiralities_Consistent>
1

> <s_lp_Variant>
AV-unprocessed.smi:258-4

> <Gold.Version>
5.8.1

> <Gold.Id.Protein>
6NUR|6NUR_protein|mol2

> <Gold.PLP.Fitness>
47.5049

> <Gold.PLP.PLP>
-43.4215

> <Gold.PLP.part.hbond>
-3.2607

> <Gold.PLP.part.metal>
0.0000

> <Gold.PLP.part.buried>
-6.6794

> <Gold.PLP.part.nonpolar>
-34.6250

> <Gold.PLP.part.repulsive>
0.5827

> <Gold.PLP.ligand.clash>
0.0000

> <Gold.PLP.ligand.torsion>
1.3041

> <Gold.PLP.Chemscore.Hbond>
2.0000

> <Gold.PLP.Chemscore.CHOScore>
0.0000

> <Gold.PLP.Chemscore.Metal>
0.0000

> <Gold.Chemscore.Hbonds>
donor molecule, donor type, donor heavy atom, donor atom, acceptor molecule, acceptor atom, score
      P1  H  7989  7998       L1    22  1.00
      P1  H 10785 10796       L1     1  1.00

> <Gold.PLP.Chemscore.Internal.Correction>
0.6916

> <Gold.Rescore>
     Score         DG    S(hbond)    S(metal)    S(lipo)     H(rot)  DE(clash)    DE(int)     intcor
      8.17     -10.98       1.69        0.00      91.11       4.22       0.04       2.76       ----

> <Gold.Chemscore.Fitness>
8.1740

> <Gold.Chemscore.DG>
-10.9752

> <Gold.Chemscore.ZeroCoef>
-5.4800

> <Gold.Chemscore.Hbond>
1.6918

> <Gold.Chemscore.Metal>
0.0000

> <Gold.Chemscore.Lipo>
91.1050

> <Gold.Chemscore.Internal_Hbond>
0.0000

> <Gold.Chemscore.DEClash>
0.0371

> <Gold.Chemscore.DEInternal>
2.7642

> <Gold.Chemscore.Rot>
4.2246

> <Gold.Chemscore.Internal.Correction>
   9.000000E+99

> <Gold.Chemscore.Hbonds>
donor molecule, donor type, donor heavy atom, donor atom, acceptor molecule, acceptor atom, score
      P1  H  7989  7998       L1    22  0.24
      P1  H 10785 10796       L1     1  0.85

> <Gold.Chemscore.Hbond.Weighted>
-5.6508

> <Gold.Chemscore.Metal.Weighted>
-0.0000

> <Gold.Chemscore.Lipo.Weighted>
-10.6593

> <Gold.Chemscore.Internal_Hbond.Weighted>
0.0000

> <Gold.Chemscore.DEClash.Weighted>
0.0371

> <Gold.Chemscore.DEInternal.Weighted>
2.7642

> <Gold.Chemscore.Rot.Weighted>
10.8149

> <Gold.Chemscore.Internal.Correction.Weighted>
   9.000000E+99

> <Gold.Protein.RotatedTorsions>
[ 6907 6896 6895 6894 ] final    8.33 input  -60.11 | X-H torsion
[ 7974 7965 7964 7962 ] final -178.97 input  175.53 | X-H torsion
[ 8008 7997 7996 7995 ] final  177.90 input   59.86 | X-H torsion
[ 10167 10162 10161 10158 ] final   19.58 input  -65.29 | X-H torsion
[ 10718 10713 10712 10709 ] final -108.10 input   66.30 | X-H torsion
[ 10763 10752 10751 10750 ] final   39.82 input  -60.55 | X-H torsion
[ 11005 11000 10999 10996 ] final  -93.14 input  -57.11 | X-H torsion

> <Gold.Protein.ActiveResidues>
 VAL166  LYS551  ARG553  GLY616  TRP617  ASP618  TYR619  PRO620  LYS621  CYS622 
 ASP623  PHE694  ASN695  SER759  ASP760  ASP761  ALA762  ILE779  LEU786  VAL792 
 PHE793  MET794  SER795  GLU796  ALA797  LYS798  CYS799  TRP800  GLU811  SER814 

> <Gold.Protein.RotatedAtoms>
  151.7042  135.0924  160.0256 H   0  0  0  0  0  0  0  0  0  0  0  0  # atno 6907 bound_to 6896
  152.3701  133.6404  159.6089 H   0  0  0  0  0  0  0  0  0  0  0  0  # atno 6908 bound_to 6896
  150.7667  133.9200  159.3436 H   0  0  0  0  0  0  0  0  0  0  0  0  # atno 6909 bound_to 6896
  144.7134  140.0788  143.6426 H   0  0  0  0  0  0  0  0  0  0  0  0  # atno 7974 bound_to 7965
  156.0606  140.1347  156.9945 H   0  0  0  0  0  0  0  0  0  0  0  0  # atno 8008 bound_to 7997
  154.4480  140.0992  156.6582 H   0  0  0  0  0  0  0  0  0  0  0  0  # atno 8009 bound_to 7997
  155.5383  140.3460  155.4443 H   0  0  0  0  0  0  0  0  0  0  0  0  # atno 8010 bound_to 7997
  140.5568  143.9410  150.6615 H   0  0  0  0  0  0  0  0  0  0  0  0  # atno 10167 bound_to 10162
  156.0469  130.5696  150.7915 H   0  0  0  0  0  0  0  0  0  0  0  0  # atno 10718 bound_to 10713
  152.9955  135.6209  154.2527 H   0  0  0  0  0  0  0  0  0  0  0  0  # atno 10763 bound_to 10752
  154.2265  135.2794  155.2907 H   0  0  0  0  0  0  0  0  0  0  0  0  # atno 10764 bound_to 10752
  154.5485  135.5740  153.6959 H   0  0  0  0  0  0  0  0  0  0  0  0  # atno 10765 bound_to 10752
  141.1504  133.7868  157.0118 H   0  0  0  0  0  0  0  0  0  0  0  0  # atno 11005 bound_to 11000
  145.9720  139.2877  143.1093 LP  0  0  0  0  0  0  0  0  0  0  0  0  # atno 17320 bound_to 7965
  145.9106  140.9183  143.0456 LP  0  0  0  0  0  0  0  0  0  0  0  0  # atno 17321 bound_to 7965
  140.2850  143.3363  152.1116 LP  0  0  0  0  0  0  0  0  0  0  0  0  # atno 17342 bound_to 10162
  139.5052  144.6789  151.6058 LP  0  0  0  0  0  0  0  0  0  0  0  0  # atno 17343 bound_to 10162
  157.5354  131.0938  150.9899 LP  0  0  0  0  0  0  0  0  0  0  0  0  # atno 17370 bound_to 10713
  157.0195  130.5668  149.5330 LP  0  0  0  0  0  0  0  0  0  0  0  0  # atno 17371 bound_to 10713
  140.0873  134.9613  157.1720 LP  0  0  0  0  0  0  0  0  0  0  0  0  # atno 17394 bound_to 11000
  140.3495  134.2615  155.7200 LP  0  0  0  0  0  0  0  0  0  0  0  0  # atno 17395 bound_to 11000

$$$$
