AV-unprocessed.smi:3329|AV-procd|sdf|12799|dock8
  -GOLD-   2272019163D 1   1.00000     0.00000
 Structure written by MMmdl.
 41 42  0  0  0  0  0  0  0  0  3 V2000
  151.0548  141.3805  158.1535 C   0  0  0  0  0  0  0  0  0  0  0  0
  150.6002  141.0623  156.7580 C   0  0  0  0  0  0  0  0  0  0  0  0
  151.1448  140.0987  155.8622 C   0  0  0  0  0  0  0  0  0  0  0  0
  150.5096  140.0590  154.7020 N   0  0  0  0  0  0  0  0  0  0  0  0
  149.5410  140.9918  154.8154 N   0  0  0  0  0  0  0  0  0  0  0  0
  148.6294  141.2230  153.7094 C   0  0  0  0  0  0  0  0  0  0  0  0
  147.2275  140.6539  153.9812 C   0  0  0  0  0  0  0  0  0  0  0  0
  146.5260  140.3268  152.7246 N   0  3  0  0  0  0  0  0  0  0  0  0
  146.9192  139.0353  152.1301 C   0  0  0  0  0  0  0  0  0  0  0  0
  146.0686  137.9088  152.7252 C   0  0  0  0  0  0  0  0  0  0  0  0
  145.5632  138.0455  153.8400 O   0  0  0  0  0  0  0  0  0  0  0  0
  145.9921  136.8508  151.8829 N   0  5  0  0  0  0  0  0  0  0  0  0
  145.1772  135.6597  152.1549 C   0  0  1  0  0  0  0  0  0  0  0  0
  145.3551  134.6356  151.0151 C   0  0  0  0  0  0  0  0  0  0  0  0
  145.5522  135.0583  153.4506 C   0  0  0  0  0  0  0  0  0  0  0  0
  145.8465  134.5861  154.4660 N   0  0  0  0  0  0  0  0  0  0  0  0
  143.6963  136.0384  152.2570 C   0  0  0  0  0  0  0  0  0  0  0  0
  143.0627  136.6566  153.4834 C   0  0  0  0  0  0  0  0  0  0  0  0
  142.6885  135.2480  153.0604 C   0  0  0  0  0  0  0  0  0  0  0  0
  149.5755  141.6164  156.0443 C   0  0  0  0  0  0  0  0  0  0  0  0
  152.1243  141.5882  158.1906 H   0  0  0  0  0  0  0  0  0  0  0  0
  150.8643  140.5518  158.8355 H   0  0  0  0  0  0  0  0  0  0  0  0
  150.5438  142.2544  158.5588 H   0  0  0  0  0  0  0  0  0  0  0  0
  151.9776  139.4294  156.0211 H   0  0  0  0  0  0  0  0  0  0  0  0
  148.5752  142.2950  153.5149 H   0  0  0  0  0  0  0  0  0  0  0  0
  149.0526  140.7636  152.8149 H   0  0  0  0  0  0  0  0  0  0  0  0
  147.3090  139.7494  154.5852 H   0  0  0  0  0  0  0  0  0  0  0  0
  146.6346  141.3670  154.5559 H   0  0  0  0  0  0  0  0  0  0  0  0
  145.5329  140.2938  152.9066 H   0  0  0  0  0  0  0  0  0  0  0  0
  146.8004  139.0910  151.0462 H   0  0  0  0  0  0  0  0  0  0  0  0
  147.9710  138.8356  152.3390 H   0  0  0  0  0  0  0  0  0  0  0  0
  144.7205  133.7630  151.1721 H   0  0  0  0  0  0  0  0  0  0  0  0
  146.3808  134.2731  150.9442 H   0  0  0  0  0  0  0  0  0  0  0  0
  145.0872  135.0654  150.0491 H   0  0  0  0  0  0  0  0  0  0  0  0
  143.3104  136.4157  151.3112 H   0  0  0  0  0  0  0  0  0  0  0  0
  143.6661  136.7680  154.3821 H   0  0  0  0  0  0  0  0  0  0  0  0
  142.3270  137.4416  153.3221 H   0  0  0  0  0  0  0  0  0  0  0  0
  141.7042  135.1004  152.6207 H   0  0  0  0  0  0  0  0  0  0  0  0
  143.0468  134.4265  153.6774 H   0  0  0  0  0  0  0  0  0  0  0  0
  148.8721  142.3923  156.3097 H   0  0  0  0  0  0  0  0  0  0  0  0
  146.7043  141.0546  152.0476 H   0  0  0  0  0  0  0  0  0  0  0  0
  1  2  1  0  0  0  0
  1 21  1  0  0  0  0
  1 22  1  0  0  0  0
  1 23  1  0  0  0  0
  2 20  2  0  0  0  0
  2  3  1  0  0  0  0
  3  4  2  0  0  0  0
  3 24  1  0  0  0  0
  4  5  1  0  0  0  0
  5  6  1  0  0  0  0
  5 20  1  0  0  0  0
  6  7  1  0  0  0  0
  6 25  1  0  0  0  0
  6 26  1  0  0  0  0
  7  8  1  0  0  0  0
  7 27  1  0  0  0  0
  7 28  1  0  0  0  0
  8  9  1  0  0  0  0
  8 29  1  0  0  0  0
  8 41  1  0  0  0  0
  9 10  1  0  0  0  0
  9 30  1  0  0  0  0
  9 31  1  0  0  0  0
 10 11  2  0  0  0  0
 10 12  1  0  0  0  0
 12 13  1  0  0  0  0
 13 14  1  0  0  0  0
 13 15  1  0  0  0  0
 13 17  1  0  0  0  0
 14 32  1  0  0  0  0
 14 33  1  0  0  0  0
 14 34  1  0  0  0  0
 15 16  3  0  0  0  0
 17 19  1  0  0  0  0
 17 18  1  0  0  0  0
 17 35  1  0  0  0  0
 18 19  1  0  0  0  0
 18 36  1  0  0  0  0
 18 37  1  0  0  0  0
 19 38  1  0  0  0  0
 19 39  1  0  0  0  0
 20 40  1  0  0  0  0
M  CHG  1   8   1
M  CHG  1  12  -1
M  END
> <s_m_source_file>
AV-unprocessed.smi

> <i_m_source_file_index>
3329

> <i_lp_mmshare_version>
43012

> <i_f3d_flags>
0

> <s_epik_input>
W0NIM11jMVtjSF1ubihbY0hdMSlbQ0gyXVtDSDJdW05IXVtDSDJdQyg9TylbTkhdW0NAQF0oW0NIM10pKEMjTilbQ0hdMltDSDJdW0NIMl0y

> <s_epik_cmdline>
J2VwaWtfcHl0aG9uJywgJy1waCcsICc3LjAnLCAnLXRuJywgJzgnLCAnLW1hJywgJzIwMCcsICctbWV0YWxfYmluZGluZycsICctaW1hZScsICc8aW5maWxlLm1hZT4nLCAnLW9tYWUnLCAnPG91dGZpbGUubWFlPic=

> <r_lp_tautomer_probability>
1

> <r_epik_Ionization_Penalty>
5.61187

> <r_epik_Ionization_Penalty_Charging>
5.61186

> <r_epik_Ionization_Penalty_Neutral>
4.91277e-06

> <r_epik_State_Penalty>
5.94522

> <r_epik_Charging_Adjusted_Penalty>
11.5571

> <i_epik_Tot_Q>
0

> <i_epik_Tot_abs_Q>
2

> <r_epik_Metal_State_Penalty>
1.9215

> <b_epik_Metal_Only>
1

> <s_lp_Force_Field>
OPLS_2005

> <r_lp_Energy>
13.6964

> <b_lp_Chiralities_Consistent>
1

> <s_lp_Variant>
AV-unprocessed.smi:3329-5

> <Gold.Version>
5.8.1

> <Gold.Id.Protein>
6NUR|6NUR_protein|mol2

> <Gold.PLP.Fitness>
43.5443

> <Gold.PLP.PLP>
-33.2612

> <Gold.PLP.part.hbond>
-2.0000

> <Gold.PLP.part.metal>
0.0000

> <Gold.PLP.part.buried>
0.3585

> <Gold.PLP.part.nonpolar>
-31.8520

> <Gold.PLP.part.repulsive>
0.6563

> <Gold.PLP.ligand.clash>
0.0000

> <Gold.PLP.ligand.torsion>
1.6529

> <Gold.PLP.Chemscore.Hbond>
3.0000

> <Gold.PLP.Chemscore.CHOScore>
0.9881

> <Gold.PLP.Chemscore.Metal>
0.0000

> <Gold.Chemscore.Hbonds>
donor molecule, donor type, donor heavy atom, donor atom, acceptor molecule, acceptor atom, score
      L1  H     8    29       P1 10175  2.00
      P1  H  7989  7998       L1     4  1.00
      L1  C    20    40       P1  8028  0.98

> <Gold.PLP.Chemscore.Internal.Correction>
1.6246

> <Gold.Rescore>
     Score         DG    S(hbond)    S(metal)    S(lipo)     H(rot)  DE(clash)    DE(int)     intcor
      8.92     -12.89       1.64        0.00      67.04       2.31       0.27       3.70       ----

> <Gold.Chemscore.Fitness>
8.9210

> <Gold.Chemscore.DG>
-12.8893

> <Gold.Chemscore.ZeroCoef>
-5.4800

> <Gold.Chemscore.Hbond>
1.6434

> <Gold.Chemscore.Metal>
0.0000

> <Gold.Chemscore.Lipo>
67.0445

> <Gold.Chemscore.Internal_Hbond>
0.0000

> <Gold.Chemscore.DEClash>
0.2664

> <Gold.Chemscore.DEInternal>
3.7018

> <Gold.Chemscore.Rot>
2.3140

> <Gold.Chemscore.Internal.Correction>
   9.000000E+99

> <Gold.Chemscore.Hbonds>
donor molecule, donor type, donor heavy atom, donor atom, acceptor molecule, acceptor atom, score
      L1  H     8    29       P1 10175  0.92
      P1  H  7989  7998       L1     4  0.17

> <Gold.Chemscore.Hbond.Weighted>
-5.4888

> <Gold.Chemscore.Metal.Weighted>
-0.0000

> <Gold.Chemscore.Lipo.Weighted>
-7.8442

> <Gold.Chemscore.Internal_Hbond.Weighted>
0.0000

> <Gold.Chemscore.DEClash.Weighted>
0.2664

> <Gold.Chemscore.DEInternal.Weighted>
3.7018

> <Gold.Chemscore.Rot.Weighted>
5.9238

> <Gold.Chemscore.Internal.Correction.Weighted>
   9.000000E+99

> <Gold.Protein.RotatedTorsions>
[ 6907 6896 6895 6894 ] final   19.86 input  -60.11 | X-H torsion
[ 7974 7965 7964 7962 ] final   28.70 input  175.53 | X-H torsion
[ 8008 7997 7996 7995 ] final  -92.61 input   59.86 | X-H torsion
[ 10167 10162 10161 10158 ] final   46.20 input  -65.29 | X-H torsion
[ 10718 10713 10712 10709 ] final   -1.15 input   66.30 | X-H torsion
[ 10763 10752 10751 10750 ] final -146.27 input  -60.55 | X-H torsion
[ 11005 11000 10999 10996 ] final  137.31 input  -57.11 | X-H torsion

> <Gold.Protein.ActiveResidues>
 VAL166  LYS551  ARG553  GLY616  TRP617  ASP618  TYR619  PRO620  LYS621  CYS622 
 ASP623  PHE694  ASN695  SER759  ASP760  ASP761  ALA762  ILE779  LEU786  VAL792 
 PHE793  MET794  SER795  GLU796  ALA797  LYS798  CYS799  TRP800  GLU811  SER814 

> <Gold.Protein.RotatedAtoms>
  151.8874  135.0430  160.0494 H   0  0  0  0  0  0  0  0  0  0  0  0  # atno 6907 bound_to 6896
  152.2463  133.5173  159.5308 H   0  0  0  0  0  0  0  0  0  0  0  0  # atno 6908 bound_to 6896
  150.7069  134.0937  159.3983 H   0  0  0  0  0  0  0  0  0  0  0  0  # atno 6909 bound_to 6896
  146.1714  139.7020  142.8965 H   0  0  0  0  0  0  0  0  0  0  0  0  # atno 7974 bound_to 7965
  154.7253  140.0507  157.0677 H   0  0  0  0  0  0  0  0  0  0  0  0  # atno 8008 bound_to 7997
  155.0374  140.3165  155.4717 H   0  0  0  0  0  0  0  0  0  0  0  0  # atno 8009 bound_to 7997
  156.2827  140.2139  156.5496 H   0  0  0  0  0  0  0  0  0  0  0  0  # atno 8010 bound_to 7997
  140.3164  144.2758  150.6190 H   0  0  0  0  0  0  0  0  0  0  0  0  # atno 10167 bound_to 10162
  156.8098  130.5420  149.5710 H   0  0  0  0  0  0  0  0  0  0  0  0  # atno 10718 bound_to 10713
  154.8344  135.3391  154.6635 H   0  0  0  0  0  0  0  0  0  0  0  0  # atno 10763 bound_to 10752
  153.7251  135.6955  153.5007 H   0  0  0  0  0  0  0  0  0  0  0  0  # atno 10764 bound_to 10752
  153.2353  135.4403  155.0592 H   0  0  0  0  0  0  0  0  0  0  0  0  # atno 10765 bound_to 10752
  140.0106  134.9441  157.0268 H   0  0  0  0  0  0  0  0  0  0  0  0  # atno 11005 bound_to 11000
  145.4330  141.0416  143.2900 LP  0  0  0  0  0  0  0  0  0  0  0  0  # atno 17320 bound_to 7965
  144.8168  139.5862  143.7004 LP  0  0  0  0  0  0  0  0  0  0  0  0  # atno 17321 bound_to 7965
  140.5523  143.2204  151.7907 LP  0  0  0  0  0  0  0  0  0  0  0  0  # atno 17342 bound_to 10162
  139.4883  144.4460  151.9709 LP  0  0  0  0  0  0  0  0  0  0  0  0  # atno 17343 bound_to 10162
  156.1051  130.5998  150.9958 LP  0  0  0  0  0  0  0  0  0  0  0  0  # atno 17370 bound_to 10713
  157.6511  131.0896  150.8047 LP  0  0  0  0  0  0  0  0  0  0  0  0  # atno 17371 bound_to 10713
  140.4562  134.1531  155.7186 LP  0  0  0  0  0  0  0  0  0  0  0  0  # atno 17394 bound_to 11000
  141.1708  133.8613  157.1577 LP  0  0  0  0  0  0  0  0  0  0  0  0  # atno 17395 bound_to 11000

$$$$
