AV-unprocessed.smi:1304|AV-procd|sdf|5430|dock7
  -GOLD-   22720 4593D 1   1.00000     0.00000
 Structure written by MMmdl.
 47 48  0  0  0  0  0  0  0  0  1 V2000
  148.7245  141.4175  154.0828 C   0  0  0  0  0  0  0  0  0  0  0  0
  148.3300  141.0241  155.5168 C   0  0  0  0  0  0  0  0  0  0  0  0
  148.5380  139.5164  155.8803 C   0  0  2  0  0  0  0  0  0  0  0  0
  147.7167  138.6953  154.8507 C   0  0  0  0  0  0  0  0  0  0  0  0
  147.9212  139.2560  157.2928 C   0  0  0  0  0  0  0  0  0  0  0  0
  148.4512  138.0619  157.9385 N   0  0  0  0  0  0  0  0  0  0  0  0
  147.9125  137.4410  158.9986 C   0  0  0  0  0  0  0  0  0  0  0  0
  146.9100  137.8576  159.5771 O   0  0  0  0  0  0  0  0  0  0  0  0
  148.5852  136.1470  159.4898 C   0  0  0  0  0  0  0  0  0  0  0  0
  147.9053  135.4961  160.6256 N   0  0  0  0  0  0  0  0  0  0  0  0
  147.5861  134.1310  160.4830 C   0  0  0  0  0  0  0  0  0  0  0  0
  146.9437  133.4477  161.4433 C   0  0  0  0  0  0  0  0  0  0  0  0
  146.5795  134.1483  162.6520 C   0  0  0  0  0  0  0  0  0  0  0  0
  146.8776  135.4546  162.7980 C   0  0  0  0  0  0  0  0  0  0  0  0
  147.5739  136.2070  161.7482 C   0  0  0  0  0  0  0  0  0  0  0  0
  147.8321  137.4049  161.8650 O   0  0  0  0  0  0  0  0  0  0  0  0
  149.9859  139.1501  155.8695 N   0  0  0  0  0  0  0  0  0  0  0  0
  150.6115  139.1234  154.5401 C   0  0  0  0  0  0  0  0  0  0  0  0
  152.0661  138.6250  154.5867 C   0  0  0  0  0  0  0  0  0  0  0  0
  152.8232  139.4324  155.4787 O   0  0  0  0  0  0  0  0  0  0  0  0
  152.2888  139.4250  156.7959 C   0  0  0  0  0  0  0  0  0  0  0  0
  150.8394  139.9384  156.7692 C   0  0  0  0  0  0  0  0  0  0  0  0
  148.5039  142.4693  153.9020 H   0  0  0  0  0  0  0  0  0  0  0  0
  148.1784  140.8363  153.3399 H   0  0  0  0  0  0  0  0  0  0  0  0
  149.7904  141.2768  153.9044 H   0  0  0  0  0  0  0  0  0  0  0  0
  148.8855  141.6631  156.2035 H   0  0  0  0  0  0  0  0  0  0  0  0
  147.2965  141.3204  155.6910 H   0  0  0  0  0  0  0  0  0  0  0  0
  146.6676  138.9933  154.8456 H   0  0  0  0  0  0  0  0  0  0  0  0
  147.7353  137.6276  155.0682 H   0  0  0  0  0  0  0  0  0  0  0  0
  148.0776  138.8319  153.8321 H   0  0  0  0  0  0  0  0  0  0  0  0
  148.1282  140.0852  157.9694 H   0  0  0  0  0  0  0  0  0  0  0  0
  146.8353  139.1747  157.2225 H   0  0  0  0  0  0  0  0  0  0  0  0
  149.2780  137.6561  157.5250 H   0  0  0  0  0  0  0  0  0  0  0  0
  148.6479  135.4589  158.6457 H   0  0  0  0  0  0  0  0  0  0  0  0
  149.6218  136.3708  159.7474 H   0  0  0  0  0  0  0  0  0  0  0  0
  147.8864  133.6839  159.5461 H   0  0  0  0  0  0  0  0  0  0  0  0
  146.7025  132.4027  161.3140 H   0  0  0  0  0  0  0  0  0  0  0  0
  146.0651  133.6228  163.4431 H   0  0  0  0  0  0  0  0  0  0  0  0
  146.5966  135.9626  163.7088 H   0  0  0  0  0  0  0  0  0  0  0  0
  150.0687  138.4660  153.8643 H   0  0  0  0  0  0  0  0  0  0  0  0
  150.5968  140.1189  154.0965 H   0  0  0  0  0  0  0  0  0  0  0  0
  152.1077  137.5817  154.9035 H   0  0  0  0  0  0  0  0  0  0  0  0
  152.5145  138.6762  153.5945 H   0  0  0  0  0  0  0  0  0  0  0  0
  152.3345  138.4167  157.2107 H   0  0  0  0  0  0  0  0  0  0  0  0
  152.9034  140.0612  157.4328 H   0  0  0  0  0  0  0  0  0  0  0  0
  150.8452  140.9852  156.4659 H   0  0  0  0  0  0  0  0  0  0  0  0
  150.4689  139.9050  157.7914 H   0  0  0  0  0  0  0  0  0  0  0  0
  1  2  1  0  0  0  0
  1 23  1  0  0  0  0
  1 24  1  0  0  0  0
  1 25  1  0  0  0  0
  2  3  1  0  0  0  0
  2 26  1  0  0  0  0
  2 27  1  0  0  0  0
  3  4  1  0  0  0  0
  3  5  1  0  0  0  0
  3 17  1  0  0  0  0
  4 28  1  0  0  0  0
  4 29  1  0  0  0  0
  4 30  1  0  0  0  0
  5  6  1  0  0  0  0
  5 31  1  0  0  0  0
  5 32  1  0  0  0  0
  6  7  1  0  0  0  0
  6 33  1  0  0  0  0
  7  8  2  0  0  0  0
  7  9  1  0  0  0  0
  9 10  1  0  0  0  0
  9 34  1  0  0  0  0
  9 35  1  0  0  0  0
 10 15  1  0  0  0  0
 10 11  1  0  0  0  0
 11 12  2  0  0  0  0
 11 36  1  0  0  0  0
 12 13  1  0  0  0  0
 12 37  1  0  0  0  0
 13 14  2  0  0  0  0
 13 38  1  0  0  0  0
 14 15  1  0  0  0  0
 14 39  1  0  0  0  0
 15 16  2  0  0  0  0
 17 22  1  0  0  0  0
 17 18  1  0  0  0  0
 18 19  1  0  0  0  0
 18 40  1  0  0  0  0
 18 41  1  0  0  0  0
 19 20  1  0  0  0  0
 19 42  1  0  0  0  0
 19 43  1  0  0  0  0
 20 21  1  0  0  0  0
 21 22  1  0  0  0  0
 21 44  1  0  0  0  0
 21 45  1  0  0  0  0
 22 46  1  0  0  0  0
 22 47  1  0  0  0  0
M  END
> <s_m_source_file>
AV-unprocessed.smi

> <i_m_source_file_index>
1304

> <i_lp_mmshare_version>
43012

> <i_f3d_flags>
0

> <s_epik_input>
W0NIMl0xW0NIMl1PW0NIMl1bQ0gyXU4xW0NAQF0oW0NIM10pKFtDSDJdW0NIM10pW0NIMl1bTkhdQyg9TylbQ0gyXW4yW2NIXVtjSF1bY0hdW2NIXWMyPU8=

> <s_epik_cmdline>
J2VwaWtfcHl0aG9uJywgJy1waCcsICc3LjAnLCAnLXRuJywgJzgnLCAnLW1hJywgJzIwMCcsICctbWV0YWxfYmluZGluZycsICctaW1hZScsICc8aW5maWxlLm1hZT4nLCAnLW9tYWUnLCAnPG91dGZpbGUubWFlPic=

> <r_lp_tautomer_probability>
1

> <r_epik_Ionization_Penalty>
0.318667

> <r_epik_Ionization_Penalty_Charging>
3.55364e-07

> <r_epik_Ionization_Penalty_Neutral>
0.318667

> <r_epik_State_Penalty>
0.313095

> <r_epik_Charging_Adjusted_Penalty>
0.313095

> <i_epik_Tot_Q>
0

> <i_epik_Tot_abs_Q>
0

> <r_epik_Metal_State_Penalty>
0.313065

> <b_epik_Metal_Only>
0

> <s_lp_Force_Field>
OPLS_2005

> <r_lp_Energy>
51.8872

> <b_lp_Chiralities_Consistent>
1

> <s_lp_Variant>
AV-unprocessed.smi:1304-2

> <Gold.Version>
5.8.1

> <Gold.Id.Protein>
6NUR|6NUR_protein|mol2

> <Gold.PLP.Fitness>
45.5761

> <Gold.PLP.PLP>
-38.1056

> <Gold.PLP.part.hbond>
-4.0000

> <Gold.PLP.part.metal>
0.0000

> <Gold.PLP.part.buried>
-3.0651

> <Gold.PLP.part.nonpolar>
-31.1329

> <Gold.PLP.part.repulsive>
0.0994

> <Gold.PLP.ligand.clash>
0.0000

> <Gold.PLP.ligand.torsion>
0.6401

> <Gold.PLP.Chemscore.Hbond>
2.8800

> <Gold.PLP.Chemscore.CHOScore>
0.0000

> <Gold.PLP.Chemscore.Metal>
0.0000

> <Gold.Chemscore.Hbonds>
donor molecule, donor type, donor heavy atom, donor atom, acceptor molecule, acceptor atom, score
      P1  H  6931  6943       L1    16  0.80
      P1  H  6934  6947       L1     8  0.80
      P1  H  7997  8008       L1    20  0.85

> <Gold.PLP.Chemscore.Internal.Correction>
0.1108

> <Gold.Rescore>
     Score         DG    S(hbond)    S(metal)    S(lipo)     H(rot)  DE(clash)    DE(int)     intcor
     17.91     -18.76       2.85        0.00      74.94       1.95       0.30       0.54       ----

> <Gold.Chemscore.Fitness>
17.9136

> <Gold.Chemscore.DG>
-18.7578

> <Gold.Chemscore.ZeroCoef>
-5.4800

> <Gold.Chemscore.Hbond>
2.8461

> <Gold.Chemscore.Metal>
0.0000

> <Gold.Chemscore.Lipo>
74.9382

> <Gold.Chemscore.Internal_Hbond>
0.0000

> <Gold.Chemscore.DEClash>
0.3035

> <Gold.Chemscore.DEInternal>
0.5408

> <Gold.Chemscore.Rot>
1.9515

> <Gold.Chemscore.Internal.Correction>
   9.000000E+99

> <Gold.Chemscore.Hbonds>
donor molecule, donor type, donor heavy atom, donor atom, acceptor molecule, acceptor atom, score
      P1  H  6931  6943       L1    16  0.76
      P1  H  6934  6947       L1     8  0.75
      P1  H  7997  8008       L1    20  0.15

> <Gold.Chemscore.Hbond.Weighted>
-9.5059

> <Gold.Chemscore.Metal.Weighted>
-0.0000

> <Gold.Chemscore.Lipo.Weighted>
-8.7678

> <Gold.Chemscore.Internal_Hbond.Weighted>
0.0000

> <Gold.Chemscore.DEClash.Weighted>
0.3035

> <Gold.Chemscore.DEInternal.Weighted>
0.5408

> <Gold.Chemscore.Rot.Weighted>
4.9958

> <Gold.Chemscore.Internal.Correction.Weighted>
   9.000000E+99

> <Gold.Protein.RotatedTorsions>
[ 6907 6896 6895 6894 ] final -128.30 input  -60.11 | X-H torsion
[ 7974 7965 7964 7962 ] final   81.94 input  175.53 | X-H torsion
[ 8008 7997 7996 7995 ] final  -16.54 input   59.86 | X-H torsion
[ 10167 10162 10161 10158 ] final -142.81 input  -65.29 | X-H torsion
[ 10718 10713 10712 10709 ] final  -57.24 input   66.30 | X-H torsion
[ 10763 10752 10751 10750 ] final -120.22 input  -60.55 | X-H torsion
[ 11005 11000 10999 10996 ] final   49.32 input  -57.11 | X-H torsion

> <Gold.Protein.ActiveResidues>
 VAL166  LYS551  ARG553  GLY616  TRP617  ASP618  TYR619  PRO620  LYS621  CYS622 
 ASP623  PHE694  ASN695  SER759  ASP760  ASP761  ALA762  ILE779  LEU786  VAL792 
 PHE793  MET794  SER795  GLU796  ALA797  LYS798  CYS799  TRP800  GLU811  SER814 

> <Gold.Protein.RotatedAtoms>
  150.9164  133.6934  159.2842 H   0  0  0  0  0  0  0  0  0  0  0  0  # atno 6907 bound_to 6896
  151.4403  135.1018  159.9678 H   0  0  0  0  0  0  0  0  0  0  0  0  # atno 6908 bound_to 6896
  152.4957  133.8574  159.7287 H   0  0  0  0  0  0  0  0  0  0  0  0  # atno 6909 bound_to 6896
  145.6316  139.2406  143.2081 H   0  0  0  0  0  0  0  0  0  0  0  0  # atno 7974 bound_to 7965
  154.5045  140.2167  155.9279 H   0  0  0  0  0  0  0  0  0  0  0  0  # atno 8008 bound_to 7997
  156.1476  140.3167  155.8563 H   0  0  0  0  0  0  0  0  0  0  0  0  # atno 8009 bound_to 7997
  155.4000  140.0483  157.3028 H   0  0  0  0  0  0  0  0  0  0  0  0  # atno 8010 bound_to 7997
  139.8052  143.7778  152.2660 H   0  0  0  0  0  0  0  0  0  0  0  0  # atno 10167 bound_to 10162
  156.1226  130.4165  150.0414 H   0  0  0  0  0  0  0  0  0  0  0  0  # atno 10718 bound_to 10713
  154.8638  135.4210  154.2424 H   0  0  0  0  0  0  0  0  0  0  0  0  # atno 10763 bound_to 10752
  153.3387  135.6992  153.6891 H   0  0  0  0  0  0  0  0  0  0  0  0  # atno 10764 bound_to 10752
  153.5878  135.3560  155.2872 H   0  0  0  0  0  0  0  0  0  0  0  0  # atno 10765 bound_to 10752
  140.1114  134.4950  155.8675 H   0  0  0  0  0  0  0  0  0  0  0  0  # atno 11005 bound_to 11000
  146.1352  140.7132  142.9393 LP  0  0  0  0  0  0  0  0  0  0  0  0  # atno 17320 bound_to 7965
  144.7191  140.4313  143.7021 LP  0  0  0  0  0  0  0  0  0  0  0  0  # atno 17321 bound_to 7965
  139.7910  144.7410  150.9955 LP  0  0  0  0  0  0  0  0  0  0  0  0  # atno 17342 bound_to 10162
  140.7819  143.4442  151.0507 LP  0  0  0  0  0  0  0  0  0  0  0  0  # atno 17343 bound_to 10162
  156.8348  130.9405  151.3635 LP  0  0  0  0  0  0  0  0  0  0  0  0  # atno 17370 bound_to 10713
  157.6409  130.8805  149.9446 LP  0  0  0  0  0  0  0  0  0  0  0  0  # atno 17371 bound_to 10713
  141.2131  133.6728  156.6711 LP  0  0  0  0  0  0  0  0  0  0  0  0  # atno 17394 bound_to 11000
  140.3086  134.8104  157.4158 LP  0  0  0  0  0  0  0  0  0  0  0  0  # atno 17395 bound_to 11000

$$$$
