AV-unprocessed.smi:2464|AV-procd|sdf|9721|dock4
  -GOLD-   2272013363D 1   1.00000     0.00000
 Structure written by MMmdl.
 32 33  0  0  0  0  0  0  0  0  3 V2000
  152.9332  144.6960  157.9358 C   0  0  0  0  0  0  0  0  0  0  0  0
  151.6501  144.1096  158.5339 C   0  0  0  0  0  0  0  0  0  0  0  0
  150.7776  143.6230  157.4630 N   0  0  0  0  0  0  0  0  0  0  0  0
  150.7037  142.3623  157.0081 C   0  0  0  0  0  0  0  0  0  0  0  0
  151.3779  141.4340  157.4550 O   0  0  0  0  0  0  0  0  0  0  0  0
  149.8208  142.2617  156.0003 N   0  0  0  0  0  0  0  0  0  0  0  0
  149.4858  141.1064  155.2387 C   0  0  0  0  0  0  0  0  0  0  0  0
  150.4066  140.0461  155.0554 C   0  0  0  0  0  0  0  0  0  0  0  0
  150.0005  138.9050  154.3394 C   0  0  0  0  0  0  0  0  0  0  0  0
  148.7646  138.7563  153.8241 N   0  0  0  0  0  0  0  0  0  0  0  0
  147.8810  139.7584  154.0113 C   0  0  0  0  0  0  0  0  0  0  0  0
  148.1762  140.9548  154.7051 C   0  0  0  0  0  0  0  0  0  0  0  0
  147.1287  141.9846  154.8444 N   0  3  0  0  0  0  0  0  0  0  0  0
  146.5367  142.3643  153.8393 O   0  0  0  0  0  0  0  0  0  0  0  0
  146.8846  142.3954  155.9736 O   0  5  0  0  0  0  0  0  0  0  0  0
  151.7665  143.1011  159.6974 C   0  0  0  0  0  0  0  0  0  0  0  0
  151.5752  144.2746  160.6614 C   0  0  0  0  0  0  0  0  0  0  0  0
  150.8503  144.9869  159.5156 C   0  0  0  0  0  0  0  0  0  0  0  0
  153.5523  145.1679  158.6989 H   0  0  0  0  0  0  0  0  0  0  0  0
  152.7121  145.4551  157.1846 H   0  0  0  0  0  0  0  0  0  0  0  0
  153.5430  143.9285  157.4586 H   0  0  0  0  0  0  0  0  0  0  0  0
  150.1831  144.3125  157.0267 H   0  0  0  0  0  0  0  0  0  0  0  0
  149.4218  143.1293  155.6731 H   0  0  0  0  0  0  0  0  0  0  0  0
  151.4049  140.0807  155.4646 H   0  0  0  0  0  0  0  0  0  0  0  0
  150.6851  138.0837  154.1876 H   0  0  0  0  0  0  0  0  0  0  0  0
  146.9025  139.5988  153.5824 H   0  0  0  0  0  0  0  0  0  0  0  0
  150.9433  142.3850  159.7474 H   0  0  0  0  0  0  0  0  0  0  0  0
  152.7330  142.6024  159.7760 H   0  0  0  0  0  0  0  0  0  0  0  0
  150.9547  144.0568  161.5308 H   0  0  0  0  0  0  0  0  0  0  0  0
  152.5140  144.7554  160.9412 H   0  0  0  0  0  0  0  0  0  0  0  0
  151.0539  146.0561  159.4474 H   0  0  0  0  0  0  0  0  0  0  0  0
  149.7770  144.7850  159.5150 H   0  0  0  0  0  0  0  0  0  0  0  0
  1  2  1  0  0  0  0
  1 19  1  0  0  0  0
  1 20  1  0  0  0  0
  1 21  1  0  0  0  0
  2 18  1  0  0  0  0
  2  3  1  0  0  0  0
  2 16  1  0  0  0  0
  3  4  1  0  0  0  0
  3 22  1  0  0  0  0
  4  5  2  0  0  0  0
  4  6  1  0  0  0  0
  6  7  1  0  0  0  0
  6 23  1  0  0  0  0
  7 12  1  0  0  0  0
  7  8  2  0  0  0  0
  8  9  1  0  0  0  0
  8 24  1  0  0  0  0
  9 10  2  0  0  0  0
  9 25  1  0  0  0  0
 10 11  1  0  0  0  0
 11 12  2  0  0  0  0
 11 26  1  0  0  0  0
 12 13  1  0  0  0  0
 13 14  2  0  0  0  0
 13 15  1  0  0  0  0
 16 17  1  0  0  0  0
 16 27  1  0  0  0  0
 16 28  1  0  0  0  0
 17 18  1  0  0  0  0
 17 29  1  0  0  0  0
 17 30  1  0  0  0  0
 18 31  1  0  0  0  0
 18 32  1  0  0  0  0
M  CHG  1  13   1
M  CHG  1  15  -1
M  END
> <s_m_source_file>
AV-unprocessed.smi

> <i_m_source_file_index>
2464

> <i_lp_mmshare_version>
43012

> <i_f3d_flags>
0

> <s_epik_input>
W0NIMl0xW0NIMl1bQ0gyXUMxKFtDSDNdKVtOSF1DKD1PKVtOSF1jMltjSF1bY0hdbltjSF1jMltOK10oPU8pW08tXQ==

> <s_epik_cmdline>
J2VwaWtfcHl0aG9uJywgJy1waCcsICc3LjAnLCAnLXRuJywgJzgnLCAnLW1hJywgJzIwMCcsICctbWV0YWxfYmluZGluZycsICctaW1hZScsICc8aW5maWxlLm1hZT4nLCAnLW9tYWUnLCAnPG91dGZpbGUubWFlPic=

> <r_lp_tautomer_probability>
1

> <r_epik_Ionization_Penalty>
0.000161487

> <r_epik_Ionization_Penalty_Charging>
0

> <r_epik_Ionization_Penalty_Neutral>
0.000161487

> <r_epik_State_Penalty>
-0

> <r_epik_Charging_Adjusted_Penalty>
0

> <i_epik_Tot_Q>
0

> <i_epik_Tot_abs_Q>
2

> <r_epik_Metal_State_Penalty>
-0

> <b_epik_Metal_Only>
0

> <s_lp_Force_Field>
OPLS_2005

> <r_lp_Energy>
25.6435

> <b_lp_Chiralities_Consistent>
1

> <s_lp_Variant>
AV-unprocessed.smi:2464-1

> <Gold.Version>
5.8.1

> <Gold.Id.Protein>
6NUR|6NUR_protein|mol2

> <Gold.PLP.Fitness>
40.4401

> <Gold.PLP.PLP>
-37.1861

> <Gold.PLP.part.hbond>
-2.0000

> <Gold.PLP.part.metal>
0.0000

> <Gold.PLP.part.buried>
-5.8222

> <Gold.PLP.part.nonpolar>
-32.0010

> <Gold.PLP.part.repulsive>
1.8288

> <Gold.PLP.ligand.clash>
0.0000

> <Gold.PLP.ligand.torsion>
1.5116

> <Gold.PLP.Chemscore.Hbond>
1.9920

> <Gold.PLP.Chemscore.CHOScore>
0.0000

> <Gold.PLP.Chemscore.Metal>
0.0000

> <Gold.Chemscore.Hbonds>
donor molecule, donor type, donor heavy atom, donor atom, acceptor molecule, acceptor atom, score
      L1  H     3    22       P1  8028  0.99
      L1  H     6    23       P1  8028  1.00

> <Gold.PLP.Chemscore.Internal.Correction>
0.3012

> <Gold.Rescore>
     Score         DG    S(hbond)    S(metal)    S(lipo)     H(rot)  DE(clash)    DE(int)     intcor
     14.62     -20.09       1.86        0.00      93.55       1.00       0.22       5.25       ----

> <Gold.Chemscore.Fitness>
14.6182

> <Gold.Chemscore.DG>
-20.0888

> <Gold.Chemscore.ZeroCoef>
-5.4800

> <Gold.Chemscore.Hbond>
1.8631

> <Gold.Chemscore.Metal>
0.0000

> <Gold.Chemscore.Lipo>
93.5549

> <Gold.Chemscore.Internal_Hbond>
0.0000

> <Gold.Chemscore.DEClash>
0.2188

> <Gold.Chemscore.DEInternal>
5.2518

> <Gold.Chemscore.Rot>
1.0000

> <Gold.Chemscore.Internal.Correction>
   9.000000E+99

> <Gold.Chemscore.Hbonds>
donor molecule, donor type, donor heavy atom, donor atom, acceptor molecule, acceptor atom, score
      L1  H     3    22       P1  8028  0.77
      L1  H     6    23       P1  8028  1.00

> <Gold.Chemscore.Hbond.Weighted>
-6.2229

> <Gold.Chemscore.Metal.Weighted>
-0.0000

> <Gold.Chemscore.Lipo.Weighted>
-10.9459

> <Gold.Chemscore.Internal_Hbond.Weighted>
0.0000

> <Gold.Chemscore.DEClash.Weighted>
0.2188

> <Gold.Chemscore.DEInternal.Weighted>
5.2518

> <Gold.Chemscore.Rot.Weighted>
2.5600

> <Gold.Chemscore.Internal.Correction.Weighted>
   9.000000E+99

> <Gold.Protein.RotatedTorsions>
[ 6907 6896 6895 6894 ] final  134.41 input  -60.11 | X-H torsion
[ 7974 7965 7964 7962 ] final  127.81 input  175.53 | X-H torsion
[ 8008 7997 7996 7995 ] final   29.34 input   59.86 | X-H torsion
[ 10167 10162 10161 10158 ] final   70.10 input  -65.29 | X-H torsion
[ 10718 10713 10712 10709 ] final -105.18 input   66.30 | X-H torsion
[ 10763 10752 10751 10750 ] final  -39.65 input  -60.55 | X-H torsion
[ 11005 11000 10999 10996 ] final -171.45 input  -57.11 | X-H torsion

> <Gold.Protein.ActiveResidues>
 VAL166  LYS551  ARG553  GLY616  TRP617  ASP618  TYR619  PRO620  LYS621  CYS622 
 ASP623  PHE694  ASN695  SER759  ASP760  ASP761  ALA762  ILE779  LEU786  VAL792 
 PHE793  MET794  SER795  GLU796  ALA797  LYS798  CYS799  TRP800  GLU811  SER814 

> <Gold.Protein.RotatedAtoms>
  152.3116  133.5759  159.5684 H   0  0  0  0  0  0  0  0  0  0  0  0  # atno 6907 bound_to 6896
  150.7326  134.0144  159.3689 H   0  0  0  0  0  0  0  0  0  0  0  0  # atno 6908 bound_to 6896
  151.8036  135.0702  160.0454 H   0  0  0  0  0  0  0  0  0  0  0  0  # atno 6909 bound_to 6896
  145.0465  139.3919  143.5076 H   0  0  0  0  0  0  0  0  0  0  0  0  # atno 7974 bound_to 7965
  155.0729  140.3202  155.4625 H   0  0  0  0  0  0  0  0  0  0  0  0  # atno 8008 bound_to 7997
  156.2786  140.2108  156.5802 H   0  0  0  0  0  0  0  0  0  0  0  0  # atno 8009 bound_to 7997
  154.7040  140.0504  157.0473 H   0  0  0  0  0  0  0  0  0  0  0  0  # atno 8010 bound_to 7997
  140.0606  144.5236  150.7297 H   0  0  0  0  0  0  0  0  0  0  0  0  # atno 10167 bound_to 10162
  156.0335  130.5551  150.7503 H   0  0  0  0  0  0  0  0  0  0  0  0  # atno 10718 bound_to 10713
  153.9329  135.6770  153.4745 H   0  0  0  0  0  0  0  0  0  0  0  0  # atno 10763 bound_to 10752
  153.0970  135.4846  154.8794 H   0  0  0  0  0  0  0  0  0  0  0  0  # atno 10764 bound_to 10752
  154.7418  135.3162  154.8672 H   0  0  0  0  0  0  0  0  0  0  0  0  # atno 10765 bound_to 10752
  140.5081  134.5829  157.5010 H   0  0  0  0  0  0  0  0  0  0  0  0  # atno 11005 bound_to 11000
  146.3514  140.0093  142.8668 LP  0  0  0  0  0  0  0  0  0  0  0  0  # atno 17320 bound_to 7965
  145.1582  140.9659  143.4393 LP  0  0  0  0  0  0  0  0  0  0  0  0  # atno 17321 bound_to 7965
  140.7174  143.2556  151.4391 LP  0  0  0  0  0  0  0  0  0  0  0  0  # atno 17342 bound_to 10162
  139.5896  144.1528  152.2072 LP  0  0  0  0  0  0  0  0  0  0  0  0  # atno 17343 bound_to 10162
  157.5049  131.0921  151.0269 LP  0  0  0  0  0  0  0  0  0  0  0  0  # atno 17370 bound_to 10713
  157.0640  130.5837  149.5391 LP  0  0  0  0  0  0  0  0  0  0  0  0  # atno 17371 bound_to 10713
  139.9675  134.7349  156.0109 LP  0  0  0  0  0  0  0  0  0  0  0  0  # atno 17394 bound_to 11000
  141.1400  133.6566  156.3703 LP  0  0  0  0  0  0  0  0  0  0  0  0  # atno 17395 bound_to 11000

$$$$
