#       Name:                AV-unprocessed.smi:1496
#       Creating user name   scv26
#       Creation time:       Fri Mar 27 06:17:28 2020


#       File generated by GOLD software.
#

@<TRIPOS>MOLECULE
AV-unprocessed.smi:1496
    48    49     1
SMALL
NO_CHARGES


@<TRIPOS>ATOM
      1 ****        -4.4524  -2.2830  -2.2220 C.3            1 S1                 0.0000
      2 ****        -3.9258  -1.6261  -0.9360 C.3            1 S1                 0.0000
      3 ****        -4.3775  -2.4633   0.2801 C.3            1 S1                 0.0000
      4 ****        -2.3861  -1.4936  -1.0077 C.3            1 S1                 0.0000
      5 ****        -1.8605  -0.6248   0.0726 N.4            1 S1                 1.0000
      6 ****        -0.3787  -0.5452   0.0632 C.3            1 S1                 0.0000
      7 ****         0.1952  -0.1203   1.4285 C.3            1 S1                 0.0000
      8 ****         1.6531  -0.0869   1.4083 N.am           1 S1                 0.0000
      9 ****         2.3882   0.8900   0.8581 C.2            1 S1                 0.0000
     10 ****         1.8971   1.8738   0.3049 O.2            1 S1                 0.0000
     11 ****         3.7030   0.6546   1.0075 N.am           1 S1                 0.0000
     12 ****         4.7988   1.4395   0.5569 C.ar           1 S1                 0.0000
     13 ****         4.7279   2.3734  -0.5054 C.ar           1 S1                 0.0000
     14 ****         5.8919   3.0765  -0.8713 C.ar           1 S1                 0.0000
     15 ****         7.0840   2.8169  -0.1679 C.ar           1 S1                 0.0000
     16 ****         7.1694   1.9204   0.8374 N.ar           1 S1                 0.0000
     17 ****         6.0498   1.2492   1.1818 C.ar           1 S1                 0.0000
     18 ****        -2.5228   0.7005   0.0293 C.3            1 S1                 0.0000
     19 ****        -4.0462   0.5373   0.1244 C.3            1 S1                 0.0000
     20 ****        -4.5127  -0.3222  -0.9113 O.3            1 S1                 0.0000
     21 ****        -4.0524  -3.2897  -2.3465 H              1 S1                 0.0000
     22 ****        -4.1747  -1.7055  -3.1045 H              1 S1                 0.0000
     23 ****        -5.5404  -2.3582  -2.2100 H              1 S1                 0.0000
     24 ****        -4.0193  -3.4901   0.2005 H              1 S1                 0.0000
     25 ****        -5.4652  -2.5002   0.3495 H              1 S1                 0.0000
     26 ****        -3.9997  -2.0693   1.2231 H              1 S1                 0.0000
     27 ****        -1.9280  -2.4820  -0.9471 H              1 S1                 0.0000
     28 ****        -2.0894  -1.0692  -1.9685 H              1 S1                 0.0000
     29 ****         0.0309  -1.5261  -0.1830 H              1 S1                 0.0000
     30 ****        -0.0549   0.1307  -0.7298 H              1 S1                 0.0000
     31 ****        -0.1788   0.8572   1.7340 H              1 S1                 0.0000
     32 ****        -0.1176  -0.8262   2.1984 H              1 S1                 0.0000
     33 ****         2.1355  -0.8574   1.8483 H              1 S1                 0.0000
     34 ****         3.9503  -0.1555   1.5570 H              1 S1                 0.0000
     35 ****         3.8161   2.5530  -1.0533 H              1 S1                 0.0000
     36 ****         5.8720   3.7960  -1.6765 H              1 S1                 0.0000
     37 ****         7.9942   3.3390  -0.4234 H              1 S1                 0.0000
     38 ****         6.1562   0.5384   1.9883 H              1 S1                 0.0000
     39 ****        -2.1792   1.3309   0.8484 H              1 S1                 0.0000
     40 ****        -2.2601   1.2123  -0.8980 H              1 S1                 0.0000
     41 ****        -4.3398   0.1606   1.1041 H              1 S1                 0.0000
     42 ****        -4.5300   1.5077   0.0120 H              1 S1                 0.0000
     43 ****        -2.1231  -1.0639   0.9436 H              1 S1                 0.0000
     44 ****         0.9035   1.9726   0.2501 LP             1 S1                 0.0000
     45 ****         2.4918   2.5743  -0.0896 LP             1 S1                 0.0000
     46 ****         8.0346   1.7585   1.3121 LP             1 S1                 0.0000
     47 ****        -5.5007  -0.4304  -0.8010 LP             1 S1                 0.0000
     48 ****        -4.3215   0.1190  -1.7881 LP             1 S1                 0.0000
@<TRIPOS>BOND
    1    1    2 1     
    2    1   21 1     
    3    1   22 1     
    4    1   23 1     
    5    2   20 1     
    6    2    3 1     
    7    2    4 1     
    8    3   24 1     
    9    3   25 1     
   10    3   26 1     
   11    4    5 1     
   12    4   27 1     
   13    4   28 1     
   14    5    6 1     
   15    5   18 1     
   16    5   43 1     
   17    6    7 1     
   18    6   29 1     
   19    6   30 1     
   20    7    8 1     
   21    7   31 1     
   22    7   32 1     
   23    8    9 am    
   24    8   33 1     
   25    9   10 2     
   26    9   11 am    
   27   11   12 1     
   28   11   34 1     
   29   12   17 ar    
   30   12   13 ar    
   31   13   14 ar    
   32   13   35 1     
   33   14   15 ar    
   34   14   36 1     
   35   15   16 ar    
   36   15   37 1     
   37   16   17 ar    
   38   17   38 1     
   39   18   19 1     
   40   18   39 1     
   41   18   40 1     
   42   19   20 1     
   43   19   41 1     
   44   19   42 1     
   45   10   44 1     
   46   10   45 1     
   47   16   46 1     
   48   20   47 1     
   49   20   48 1     
@<TRIPOS>SUBSTRUCTURE
      1 S1             1
@<TRIPOS>SET
LONE_PAIRS      STATIC     ATOMS    <user>   **** ""
5 44 45 46 47 48
DONOR_HYDROGENS      STATIC     ATOMS    <user>   **** ""
3 43 33 34
ATOM$BLUE        STATIC     ATOMS    COLORGROUP SYSTEM
5 44 45 46 47 48
ATOM$RED        STATIC     ATOMS    COLORGROUP SYSTEM
3 43 33 34
