#       Name:                AV-unprocessed.smi:1988
#       Creating user name   scv26
#       Creation time:       Fri Mar 27 10:26:33 2020


#       File generated by GOLD software.
#

@<TRIPOS>MOLECULE
AV-unprocessed.smi:1988
    42    43     1
SMALL
NO_CHARGES


@<TRIPOS>ATOM
      1 ****        -3.0332   3.4948  -1.1153 C.3            1 S1                 0.0000
      2 ****        -3.4062   2.0407  -1.1606 C.2            1 S1                 0.0000
      3 ****        -4.6489   1.6775  -0.8915 N.2            1 S1                 0.0000
      4 ****        -4.6771   0.2855  -1.0188 O.3            1 S1                 0.0000
      5 ****        -3.4356  -0.1400  -1.3641 C.2            1 S1                 0.0000
      6 ****        -3.2634  -1.6099  -1.5478 C.3            1 S1                 0.0000
      7 ****        -2.5797   0.9223  -1.4709 C.2            1 S1                 0.0000
      8 ****        -1.1155   0.9236  -1.8307 C.3            1 S1                 0.0000
      9 ****        -0.2640   0.9515  -0.5608 C.2            1 S1                 0.0000
     10 ****         0.3622   1.9679  -0.2627 O.2            1 S1                 0.0000
     11 ****        -0.2439  -0.1731   0.1720 N.am           1 S1                 0.0000
     12 ****         0.4870  -0.3618   1.4209 C.3            1 S1                 0.0000
     13 ****         1.8237  -1.0986   1.2072 C.3            1 S1                 0.0000
     14 ****         2.8384  -0.3208   0.3417 C.3            1 S1                 0.0000
     15 ****         4.2044  -1.0061   0.4476 C.3            1 S1                 0.0000
     16 ****         4.2901  -1.6791   2.1478 S.o2           1 S1                 0.0000
     17 ****         4.5883  -3.1177   2.0781 O.2            1 S1                 0.0000
     18 ****         5.0900  -0.7799   2.9932 O.2            1 S1                 0.0000
     19 ****         2.5152  -1.4392   2.5369 C.3            1 S1                 0.0000
     20 ****        -2.0510   3.6340  -0.6639 H              1 S1                 0.0000
     21 ****        -3.7478   4.0766  -0.5318 H              1 S1                 0.0000
     22 ****        -3.0004   3.9183  -2.1191 H              1 S1                 0.0000
     23 ****        -2.2165  -1.8974  -1.4507 H              1 S1                 0.0000
     24 ****        -3.6084  -1.9171  -2.5350 H              1 S1                 0.0000
     25 ****        -3.8339  -2.1638  -0.8020 H              1 S1                 0.0000
     26 ****        -0.8457   0.0448  -2.4175 H              1 S1                 0.0000
     27 ****        -0.8631   1.7861  -2.4488 H              1 S1                 0.0000
     28 ****        -0.7925  -0.9555  -0.1541 H              1 S1                 0.0000
     29 ****         0.6508   0.5914   1.9265 H              1 S1                 0.0000
     30 ****        -0.1487  -0.9494   2.0837 H              1 S1                 0.0000
     31 ****         1.6196  -2.0422   0.6988 H              1 S1                 0.0000
     32 ****         2.5184  -0.2478  -0.6979 H              1 S1                 0.0000
     33 ****         2.9243   0.6985   0.7206 H              1 S1                 0.0000
     34 ****         4.2740  -1.8413  -0.2497 H              1 S1                 0.0000
     35 ****         5.0382  -0.3277   0.2659 H              1 S1                 0.0000
     36 ****         2.4410  -0.6103   3.2415 H              1 S1                 0.0000
     37 ****         2.1097  -2.3330   3.0111 H              1 S1                 0.0000
     38 ****        -5.4120   2.2757  -0.6471 LP             1 S1                 0.0000
     39 ****        -5.3325   0.0247  -1.7277 LP             1 S1                 0.0000
     40 ****        -4.9454  -0.1276  -0.1485 LP             1 S1                 0.0000
     41 ****         0.3142   2.7752  -0.8508 LP             1 S1                 0.0000
     42 ****         0.9191   1.9865   0.5676 LP             1 S1                 0.0000
@<TRIPOS>BOND
    1    1    2 1     
    2    1   20 1     
    3    1   21 1     
    4    1   22 1     
    5    2    7 1     
    6    2    3 2     
    7    3    4 1     
    8    4    5 1     
    9    5    6 1     
   10    5    7 2     
   11    6   23 1     
   12    6   24 1     
   13    6   25 1     
   14    7    8 1     
   15    8    9 1     
   16    8   26 1     
   17    8   27 1     
   18    9   10 2     
   19    9   11 am    
   20   11   12 1     
   21   11   28 1     
   22   12   13 1     
   23   12   29 1     
   24   12   30 1     
   25   13   19 1     
   26   13   14 1     
   27   13   31 1     
   28   14   15 1     
   29   14   32 1     
   30   14   33 1     
   31   15   16 1     
   32   15   34 1     
   33   15   35 1     
   34   16   17 2     
   35   16   18 2     
   36   16   19 1     
   37   19   36 1     
   38   19   37 1     
   39    3   38 1     
   40    4   39 1     
   41    4   40 1     
   42   10   41 1     
   43   10   42 1     
@<TRIPOS>SUBSTRUCTURE
      1 S1             1
@<TRIPOS>SET
LONE_PAIRS      STATIC     ATOMS    <user>   **** ""
7 38 39 40 41 42 17 18
DONOR_HYDROGENS      STATIC     ATOMS    <user>   **** ""
1 28
ATOM$BLUE        STATIC     ATOMS    COLORGROUP SYSTEM
7 38 39 40 41 42 17 18
ATOM$RED        STATIC     ATOMS    COLORGROUP SYSTEM
1 28
