#       Name:                AV-unprocessed.smi:54
#       Creating user name   scv26
#       Creation time:       Thu Mar 26 16:40:35 2020


#       File generated by GOLD software.
#

@<TRIPOS>MOLECULE
AV-unprocessed.smi:54
    58    60     1
SMALL
NO_CHARGES


@<TRIPOS>ATOM
      1 ****        -0.8564   5.5031  -1.0630 C.3            1 S1                 0.0000
      2 ****        -1.1249   4.8528   0.3036 C.3            1 S1                 0.0000
      3 ****        -0.2482   5.4775   1.4012 C.3            1 S1                 0.0000
      4 ****        -0.9058   3.3372   0.2309 C.2            1 S1                 0.0000
      5 ****         0.2012   2.8469   0.0053 O.2            1 S1                 0.0000
      6 ****        -2.0928   2.5270   0.4362 N.am           1 S1                 0.0000
      7 ****        -2.1783   1.1767   0.4197 C.2            1 S1                 0.0000
      8 ****        -1.1177   0.3815   0.4447 N.2            1 S1                 0.0000
      9 ****        -1.4101  -0.9539   0.4285 C.2            1 S1                 0.0000
     10 ****        -2.6660  -1.5222   0.3915 C.2            1 S1                 0.0000
     11 ****        -2.5643  -2.9088   0.3765 N.2            1 S1                 0.0000
     12 ****        -1.2797  -3.1326   0.4040 C.2            1 S1                 0.0000
     13 ****        -0.5073  -1.9948   0.4358 N.pl3          1 S1                 0.0000
     14 ****         0.9839  -1.8566   0.4748 C.3            1 S1                 0.0000
     15 ****         1.5251  -3.0793   0.8836 O.3            1 S1                 0.0000
     16 ****         2.1774  -3.7005  -0.2156 C.3            1 S1                 0.0000
     17 ****         3.1879  -4.7535   0.2734 C.3            1 S1                 0.0000
     18 ****         4.3304  -4.1631   0.8580 O.3            1 S1                 0.0000
     19 ****         2.7292  -2.5198  -1.0157 C.3            1 S1                 0.0000
     20 ****         3.0636  -2.8582  -2.3487 O.3            1 S1                 0.0000
     21 ****         1.5836  -1.5167  -0.9141 C.3            1 S1                 0.0000
     22 ****         0.6582  -1.6508  -1.9842 O.3            1 S1                 0.0000
     23 ****        -3.8233  -0.6751   0.3743 C.2            1 S1                 0.0000
     24 ****        -5.0075  -1.0028   0.3469 O.2            1 S1                 0.0000
     25 ****        -3.4831   0.6838   0.3926 N.am           1 S1                 0.0000
     26 ****         1.1736  -1.0952   1.2324 H              1 S1                 0.0000
     27 ****         1.4053  -4.2039  -0.8008 H              1 S1                 0.0000
     28 ****         3.6072  -2.1017  -0.5226 H              1 S1                 0.0000
     29 ****         1.9527  -0.4904  -0.9087 H              1 S1                 0.0000
     30 ****        -1.4796   5.0615  -1.8419 H              1 S1                 0.0000
     31 ****         0.1856   5.3885  -1.3646 H              1 S1                 0.0000
     32 ****        -1.0761   6.5708  -1.0362 H              1 S1                 0.0000
     33 ****        -2.1688   5.0334   0.5644 H              1 S1                 0.0000
     34 ****        -0.4291   5.0086   2.3693 H              1 S1                 0.0000
     35 ****        -0.4596   6.5417   1.5095 H              1 S1                 0.0000
     36 ****         0.8138   5.3747   1.1740 H              1 S1                 0.0000
     37 ****        -2.9542   3.0342   0.5761 H              1 S1                 0.0000
     38 ****        -0.8673  -4.1309   0.4014 H              1 S1                 0.0000
     39 ****         2.7201  -5.4306   0.9884 H              1 S1                 0.0000
     40 ****         3.5213  -5.3598  -0.5689 H              1 S1                 0.0000
     41 ****         4.9202  -4.8508   1.1270 H              1 S1                 0.0000
     42 ****         2.2728  -3.1241  -2.7932 H              1 S1                 0.0000
     43 ****        -0.0639  -1.0618  -1.8263 H              1 S1                 0.0000
     44 ****        -4.2502   1.3398   0.3807 H              1 S1                 0.0000
     45 ****         0.9921   3.4421  -0.1372 LP             1 S1                 0.0000
     46 ****         0.3092   1.8535  -0.0354 LP             1 S1                 0.0000
     47 ****        -0.1808   0.7299   0.4731 LP             1 S1                 0.0000
     48 ****        -3.3053  -3.5798   0.3506 LP             1 S1                 0.0000
     49 ****         0.7926  -3.6736   1.2156 LP             1 S1                 0.0000
     50 ****         2.1857  -2.9225   1.6178 LP             1 S1                 0.0000
     51 ****         4.0599  -3.6208   1.6534 LP             1 S1                 0.0000
     52 ****         4.7836  -3.5725   0.1903 LP             1 S1                 0.0000
     53 ****         3.7229  -3.6101  -2.3519 LP             1 S1                 0.0000
     54 ****         3.4608  -2.0648  -2.8099 LP             1 S1                 0.0000
     55 ****         0.3239  -2.5924  -2.0265 LP             1 S1                 0.0000
     56 ****         1.1037  -1.4161  -2.8482 LP             1 S1                 0.0000
     57 ****        -5.2582  -1.9708   0.3337 LP             1 S1                 0.0000
     58 ****        -5.7203  -0.3015   0.3378 LP             1 S1                 0.0000
@<TRIPOS>BOND
    1    1    2 1     
    2    1   30 1     
    3    1   31 1     
    4    1   32 1     
    5    2    3 1     
    6    2    4 1     
    7    2   33 1     
    8    3   34 1     
    9    3   35 1     
   10    3   36 1     
   11    4    5 2     
   12    4    6 am    
   13    6   37 1     
   14    6    7 1     
   15    7   25 1     
   16    7    8 2     
   17    8    9 1     
   18    9   13 1     
   19    9   10 2     
   20   10   11 1     
   21   10   23 1     
   22   11   12 2     
   23   12   13 1     
   24   12   38 1     
   25   13   14 1     
   26   14   26 1     
   27   14   21 1     
   28   14   15 1     
   29   15   16 1     
   30   16   27 1     
   31   16   17 1     
   32   16   19 1     
   33   17   18 1     
   34   17   39 1     
   35   17   40 1     
   36   18   41 1     
   37   19   28 1     
   38   19   20 1     
   39   19   21 1     
   40   20   42 1     
   41   21   29 1     
   42   21   22 1     
   43   22   43 1     
   44   23   24 2     
   45   23   25 am    
   46   25   44 1     
   47    5   45 1     
   48    5   46 1     
   49    8   47 1     
   50   11   48 1     
   51   15   49 1     
   52   15   50 1     
   53   18   51 1     
   54   18   52 1     
   55   20   53 1     
   56   20   54 1     
   57   22   55 1     
   58   22   56 1     
   59   24   57 1     
   60   24   58 1     
@<TRIPOS>SUBSTRUCTURE
      1 S1             1
@<TRIPOS>SET
LONE_PAIRS      STATIC     ATOMS    <user>   **** ""
14 45 46 47 48 49 50 51 52 53 54 55 56 57 58
DONOR_HYDROGENS      STATIC     ATOMS    <user>   **** ""
5 37 41 42 43 44
ATOM$BLUE        STATIC     ATOMS    COLORGROUP SYSTEM
14 45 46 47 48 49 50 51 52 53 54 55 56 57 58
ATOM$RED        STATIC     ATOMS    COLORGROUP SYSTEM
5 37 41 42 43 44
