#       Name:                AV-unprocessed.smi:2135
#       Creating user name   scv26
#       Creation time:       Fri Mar 27 11:46:04 2020


#       File generated by GOLD software.
#

@<TRIPOS>MOLECULE
AV-unprocessed.smi:2135
    45    46     1
SMALL
NO_CHARGES


@<TRIPOS>ATOM
      1 ****        -4.4581   0.3224   1.5294 C.3            1 S1                 0.0000
      2 ****        -4.2653  -1.5066   1.5634 S.o2           1 S1                 0.0000
      3 ****        -3.3759  -1.8527   2.6828 O.2            1 S1                 0.0000
      4 ****        -5.6046  -2.1093   1.4829 O.2            1 S1                 0.0000
      5 ****        -3.4276  -1.8757   0.0832 N.pl3          1 S1                 0.0000
      6 ****        -4.1544  -1.8536  -1.2025 C.3            1 S1                 0.0000
      7 ****        -3.8663  -0.5669  -1.9959 C.3            1 S1                 0.0000
      8 ****        -2.3591  -0.3488  -2.1723 C.3            1 S1                 0.0000
      9 ****        -1.6726  -0.3246  -0.7948 C.3            1 S1                 0.0000
     10 ****        -0.1583  -0.1180  -0.9310 C.2            1 S1                 0.0000
     11 ****         0.5152  -0.8854  -1.6197 O.2            1 S1                 0.0000
     12 ****         0.3675   0.9213  -0.2640 N.am           1 S1                 0.0000
     13 ****         1.7810   1.2775  -0.2530 C.3            1 S1                 0.0000
     14 ****         2.5827   0.3823   0.7063 C.3            1 S1                 0.0000
     15 ****         4.0538   0.7470   0.7301 C.ar           1 S1                 0.0000
     16 ****         4.5666   1.6124   1.7215 C.ar           1 S1                 0.0000
     17 ****         5.9395   1.9363   1.7132 C.ar           1 S1                 0.0000
     18 ****         6.7682   1.3881   0.7128 C.ar           1 S1                 0.0000
     19 ****         6.2417   0.5638  -0.2194 N.pl3          1 S1                 1.0000
     20 ****         4.9330   0.2288  -0.2453 C.ar           1 S1                 0.0000
     21 ****        -1.9751  -1.6297  -0.0258 C.3            1 S1                 0.0000
     22 ****        -4.9969   0.6389   2.4222 H              1 S1                 0.0000
     23 ****        -5.0274   0.6188   0.6502 H              1 S1                 0.0000
     24 ****        -3.4800   0.7995   1.5209 H              1 S1                 0.0000
     25 ****        -3.8423  -2.7193  -1.7878 H              1 S1                 0.0000
     26 ****        -5.2254  -1.9653  -1.0362 H              1 S1                 0.0000
     27 ****        -4.3479  -0.6230  -2.9725 H              1 S1                 0.0000
     28 ****        -4.3042   0.2932  -1.4911 H              1 S1                 0.0000
     29 ****        -1.9471  -1.1465  -2.7927 H              1 S1                 0.0000
     30 ****        -2.1811   0.5866  -2.7043 H              1 S1                 0.0000
     31 ****        -2.0771   0.5167  -0.2323 H              1 S1                 0.0000
     32 ****        -0.2559   1.5031   0.2770 H              1 S1                 0.0000
     33 ****         2.1869   1.2166  -1.2643 H              1 S1                 0.0000
     34 ****         1.8658   2.3206   0.0531 H              1 S1                 0.0000
     35 ****         2.1763   0.4565   1.7161 H              1 S1                 0.0000
     36 ****         2.4902  -0.6650   0.4154 H              1 S1                 0.0000
     37 ****         3.9171   2.0250   2.4799 H              1 S1                 0.0000
     38 ****         6.3507   2.5963   2.4631 H              1 S1                 0.0000
     39 ****         7.8279   1.5825   0.6307 H              1 S1                 0.0000
     40 ****         4.6307  -0.4371  -1.0408 H              1 S1                 0.0000
     41 ****        -1.5248  -1.6024   0.9665 H              1 S1                 0.0000
     42 ****        -1.5262  -2.4807  -0.5401 H              1 S1                 0.0000
     43 ****         6.8585   0.1778  -0.9348 H              1 S1                 0.0000
     44 ****         0.0755  -1.6482  -2.0939 LP             1 S1                 0.0000
     45 ****         1.5017  -0.7458  -1.7047 LP             1 S1                 0.0000
@<TRIPOS>BOND
    1    1    2 1     
    2    1   22 1     
    3    1   23 1     
    4    1   24 1     
    5    2    3 2     
    6    2    4 2     
    7    2    5 1     
    8    5   21 1     
    9    5    6 1     
   10    6    7 1     
   11    6   25 1     
   12    6   26 1     
   13    7    8 1     
   14    7   27 1     
   15    7   28 1     
   16    8    9 1     
   17    8   29 1     
   18    8   30 1     
   19    9   10 1     
   20    9   21 1     
   21    9   31 1     
   22   10   11 2     
   23   10   12 am    
   24   12   13 1     
   25   12   32 1     
   26   13   14 1     
   27   13   33 1     
   28   13   34 1     
   29   14   15 1     
   30   14   35 1     
   31   14   36 1     
   32   15   20 ar    
   33   15   16 ar    
   34   16   17 ar    
   35   16   37 1     
   36   17   18 ar    
   37   17   38 1     
   38   18   19 ar    
   39   18   39 1     
   40   19   20 ar    
   41   19   43 1     
   42   20   40 1     
   43   21   41 1     
   44   21   42 1     
   45   11   44 1     
   46   11   45 1     
@<TRIPOS>SUBSTRUCTURE
      1 S1             1
@<TRIPOS>SET
LONE_PAIRS      STATIC     ATOMS    <user>   **** ""
4 3 4 44 45
DONOR_HYDROGENS      STATIC     ATOMS    <user>   **** ""
2 32 43
ATOM$BLUE        STATIC     ATOMS    COLORGROUP SYSTEM
4 3 4 44 45
ATOM$RED        STATIC     ATOMS    COLORGROUP SYSTEM
2 32 43
