AV-unprocessed.smi:978|AV-procd|sdf|4309|dock5
  -GOLD-   22720 2213D 1   1.00000     0.00000
 Structure written by MMmdl.
 39 40  0  0  0  0  0  0  0  0  2 V2000
  152.0959  139.1514  154.9695 C   0  0  0  0  0  0  0  0  0  0  0  0
  152.1089  139.9260  156.2580 C   0  0  0  0  0  0  0  0  0  0  0  0
  152.9772  139.5907  157.2009 N   0  0  0  0  0  0  0  0  0  0  0  0
  152.7205  140.4237  158.3007 O   0  0  0  0  0  0  0  0  0  0  0  0
  151.6906  141.2543  157.9923 C   0  0  0  0  0  0  0  0  0  0  0  0
  151.2541  142.2136  159.0475 C   0  0  0  0  0  0  0  0  0  0  0  0
  151.2902  141.0011  156.7134 C   0  0  0  0  0  0  0  0  0  0  0  0
  150.2190  141.6593  156.0591 N   0  0  0  0  0  0  0  0  0  0  0  0
  149.4030  141.1376  155.1307 C   0  0  0  0  0  0  0  0  0  0  0  0
  149.4829  139.9933  154.6854 O   0  0  0  0  0  0  0  0  0  0  0  0
  148.4905  142.0309  154.7222 N   0  0  0  0  0  0  0  0  0  0  0  0
  147.4768  141.7918  153.6952 C   0  0  2  0  0  0  0  0  0  0  0  0
  146.3438  142.8277  153.8057 C   0  0  0  0  0  0  0  0  0  0  0  0
  145.4572  142.5863  155.0413 C   0  0  0  0  0  0  0  0  0  0  0  0
  144.9169  141.2041  155.0507 N   0  3  2  0  0  0  0  0  0  0  0  0
  143.9632  140.9797  156.1582 C   0  0  0  0  0  0  0  0  0  0  0  0
  145.9949  140.1849  155.0192 C   0  0  0  0  0  0  0  0  0  0  0  0
  146.8916  140.3670  153.7818 C   0  0  0  0  0  0  0  0  0  0  0  0
  151.0831  139.0537  154.5786 H   0  0  0  0  0  0  0  0  0  0  0  0
  152.4894  138.1436  155.1054 H   0  0  0  0  0  0  0  0  0  0  0  0
  152.7047  139.6432  154.2107 H   0  0  0  0  0  0  0  0  0  0  0  0
  150.3377  142.7274  158.7574 H   0  0  0  0  0  0  0  0  0  0  0  0
  152.0220  142.9671  159.2233 H   0  0  0  0  0  0  0  0  0  0  0  0
  151.0668  141.6950  159.9878 H   0  0  0  0  0  0  0  0  0  0  0  0
  150.1279  142.6474  156.2441 H   0  0  0  0  0  0  0  0  0  0  0  0
  148.5112  142.9501  155.1387 H   0  0  0  0  0  0  0  0  0  0  0  0
  147.9538  141.9167  152.7211 H   0  0  0  0  0  0  0  0  0  0  0  0
  146.7544  143.8380  153.8291 H   0  0  0  0  0  0  0  0  0  0  0  0
  145.7243  142.7748  152.9093 H   0  0  0  0  0  0  0  0  0  0  0  0
  146.0246  142.7639  155.9563 H   0  0  0  0  0  0  0  0  0  0  0  0
  144.6321  143.2999  155.0390 H   0  0  0  0  0  0  0  0  0  0  0  0
  144.4587  141.0699  157.1259 H   0  0  0  0  0  0  0  0  0  0  0  0
  143.5217  139.9849  156.0904 H   0  0  0  0  0  0  0  0  0  0  0  0
  143.1508  141.7062  156.1205 H   0  0  0  0  0  0  0  0  0  0  0  0
  146.5902  140.2508  155.9313 H   0  0  0  0  0  0  0  0  0  0  0  0
  145.5536  139.1877  155.0020 H   0  0  0  0  0  0  0  0  0  0  0  0
  146.3015  140.1712  152.8855 H   0  0  0  0  0  0  0  0  0  0  0  0
  147.6873  139.6212  153.7833 H   0  0  0  0  0  0  0  0  0  0  0  0
  144.3917  141.0942  154.1948 H   0  0  0  0  0  0  0  0  0  0  0  0
  1  2  1  0  0  0  0
  1 19  1  0  0  0  0
  1 20  1  0  0  0  0
  1 21  1  0  0  0  0
  2  7  1  0  0  0  0
  2  3  2  0  0  0  0
  3  4  1  0  0  0  0
  4  5  1  0  0  0  0
  5  6  1  0  0  0  0
  5  7  2  0  0  0  0
  6 22  1  0  0  0  0
  6 23  1  0  0  0  0
  6 24  1  0  0  0  0
  7  8  1  0  0  0  0
  8  9  1  0  0  0  0
  8 25  1  0  0  0  0
  9 10  2  0  0  0  0
  9 11  1  0  0  0  0
 11 12  1  0  0  0  0
 11 26  1  0  0  0  0
 12 18  1  0  0  0  0
 12 13  1  0  0  0  0
 12 27  1  0  0  0  0
 13 14  1  0  0  0  0
 13 28  1  0  0  0  0
 13 29  1  0  0  0  0
 14 15  1  0  0  0  0
 14 30  1  0  0  0  0
 14 31  1  0  0  0  0
 15 16  1  0  0  0  0
 15 17  1  0  0  0  0
 15 39  1  0  0  0  0
 16 32  1  0  0  0  0
 16 33  1  0  0  0  0
 16 34  1  0  0  0  0
 17 18  1  0  0  0  0
 17 35  1  0  0  0  0
 17 36  1  0  0  0  0
 18 37  1  0  0  0  0
 18 38  1  0  0  0  0
M  CHG  1  15   1
M  END
> <s_m_source_file>
AV-unprocessed.smi

> <i_m_source_file_index>
978

> <i_lp_mmshare_version>
43012

> <i_f3d_flags>
0

> <s_epik_input>
W0NIM11jMW5vYyhbQ0gzXSljMVtOSF1DKD1PKVtOSF1bQ0hdMltDSDJdW0NIMl1OKFtDSDNdKVtDSDJdW0NIMl0y

> <s_epik_cmdline>
J2VwaWtfcHl0aG9uJywgJy1waCcsICc3LjAnLCAnLXRuJywgJzgnLCAnLW1hJywgJzIwMCcsICctbWV0YWxfYmluZGluZycsICctaW1hZScsICc8aW5maWxlLm1hZT4nLCAnLW9tYWUnLCAnPG91dGZpbGUubWFlPic=

> <r_epik_Ionization_Penalty>
0.00369783

> <r_epik_Ionization_Penalty_Charging>
0.00366825

> <r_epik_Ionization_Penalty_Neutral>
2.95799e-05

> <r_epik_State_Penalty>
0.00261101

> <r_epik_Charging_Adjusted_Penalty>
0.00627926

> <i_epik_Tot_Q>
1

> <i_epik_Tot_abs_Q>
1

> <r_epik_Metal_State_Penalty>
-0

> <b_epik_Metal_Only>
0

> <s_lp_Force_Field>
OPLS_2005

> <r_lp_Energy>
17.545

> <b_lp_Chiralities_Consistent>
1

> <s_lp_Variant>
AV-unprocessed.smi:978-2

> <Gold.Version>
5.8.1

> <Gold.Id.Protein>
6NUR|6NUR_protein|mol2

> <Gold.PLP.Fitness>
41.6327

> <Gold.PLP.PLP>
-30.2953

> <Gold.PLP.part.hbond>
-3.5968

> <Gold.PLP.part.metal>
0.0000

> <Gold.PLP.part.buried>
-5.3880

> <Gold.PLP.part.nonpolar>
-21.5168

> <Gold.PLP.part.repulsive>
0.3981

> <Gold.PLP.ligand.clash>
0.0000

> <Gold.PLP.ligand.torsion>
0.4659

> <Gold.PLP.Chemscore.Hbond>
4.0000

> <Gold.PLP.Chemscore.CHOScore>
0.0000

> <Gold.PLP.Chemscore.Metal>
0.0000

> <Gold.Chemscore.Hbonds>
donor molecule, donor type, donor heavy atom, donor atom, acceptor molecule, acceptor atom, score
      L1  H    11    26       P1  8028  1.00
      L1  H    15    39       P1 10175  2.00
      P1  H  7997  8009       L1     3  1.00

> <Gold.PLP.Chemscore.Internal.Correction>
0.2691

> <Gold.Rescore>
     Score         DG    S(hbond)    S(metal)    S(lipo)     H(rot)  DE(clash)    DE(int)     intcor
     17.88     -22.12       3.55        0.00      62.80       1.00       0.23       4.00       ----

> <Gold.Chemscore.Fitness>
17.8793

> <Gold.Chemscore.DG>
-22.1183

> <Gold.Chemscore.ZeroCoef>
-5.4800

> <Gold.Chemscore.Hbond>
3.5481

> <Gold.Chemscore.Metal>
0.0000

> <Gold.Chemscore.Lipo>
62.8005

> <Gold.Chemscore.Internal_Hbond>
0.0000

> <Gold.Chemscore.DEClash>
0.2349

> <Gold.Chemscore.DEInternal>
4.0041

> <Gold.Chemscore.Rot>
1.0000

> <Gold.Chemscore.Internal.Correction>
   9.000000E+99

> <Gold.Chemscore.Hbonds>
donor molecule, donor type, donor heavy atom, donor atom, acceptor molecule, acceptor atom, score
      L1  H     8    25       P1  8028  0.02
      L1  H    11    26       P1  8028  1.00
      L1  H    15    39       P1 10175  0.82
      P1  H  7997  8009       L1     3  0.21

> <Gold.Chemscore.Hbond.Weighted>
-11.8506

> <Gold.Chemscore.Metal.Weighted>
-0.0000

> <Gold.Chemscore.Lipo.Weighted>
-7.3477

> <Gold.Chemscore.Internal_Hbond.Weighted>
0.0000

> <Gold.Chemscore.DEClash.Weighted>
0.2349

> <Gold.Chemscore.DEInternal.Weighted>
4.0041

> <Gold.Chemscore.Rot.Weighted>
2.5600

> <Gold.Chemscore.Internal.Correction.Weighted>
   9.000000E+99

> <Gold.Protein.RotatedTorsions>
[ 6907 6896 6895 6894 ] final -119.16 input  -60.11 | X-H torsion
[ 7974 7965 7964 7962 ] final   35.08 input  175.53 | X-H torsion
[ 8008 7997 7996 7995 ] final  166.69 input   59.86 | X-H torsion
[ 10167 10162 10161 10158 ] final  113.78 input  -65.29 | X-H torsion
[ 10718 10713 10712 10709 ] final   14.84 input   66.30 | X-H torsion
[ 10763 10752 10751 10750 ] final -174.93 input  -60.55 | X-H torsion
[ 11005 11000 10999 10996 ] final  124.85 input  -57.11 | X-H torsion

> <Gold.Protein.ActiveResidues>
 VAL166  LYS551  ARG553  GLY616  TRP617  ASP618  TYR619  PRO620  LYS621  CYS622 
 ASP623  PHE694  ASN695  SER759  ASP760  ASP761  ALA762  ILE779  LEU786  VAL792 
 PHE793  MET794  SER795  GLU796  ALA797  LYS798  CYS799  TRP800  GLU811  SER814 

> <Gold.Protein.RotatedAtoms>
  150.8281  133.8137  159.3109 H   0  0  0  0  0  0  0  0  0  0  0  0  # atno 6907 bound_to 6896
  151.5875  135.1053  160.0041 H   0  0  0  0  0  0  0  0  0  0  0  0  # atno 6908 bound_to 6896
  152.4364  133.7327  159.6653 H   0  0  0  0  0  0  0  0  0  0  0  0  # atno 6909 bound_to 6896
  146.1308  139.6187  142.9228 H   0  0  0  0  0  0  0  0  0  0  0  0  # atno 7974 bound_to 7965
  156.1697  140.1637  156.8468 H   0  0  0  0  0  0  0  0  0  0  0  0  # atno 8008 bound_to 7997
  154.5244  140.0771  156.8266 H   0  0  0  0  0  0  0  0  0  0  0  0  # atno 8009 bound_to 7997
  155.3537  140.3391  155.4242 H   0  0  0  0  0  0  0  0  0  0  0  0  # atno 8010 bound_to 7997
  139.6436  144.7125  151.2187 H   0  0  0  0  0  0  0  0  0  0  0  0  # atno 10167 bound_to 10162
  157.0449  130.6246  149.5757 H   0  0  0  0  0  0  0  0  0  0  0  0  # atno 10718 bound_to 10713
  154.5904  135.2844  155.0641 H   0  0  0  0  0  0  0  0  0  0  0  0  # atno 10763 bound_to 10752
  154.1944  135.6435  153.5073 H   0  0  0  0  0  0  0  0  0  0  0  0  # atno 10764 bound_to 10752
  153.0119  135.5454  154.6588 H   0  0  0  0  0  0  0  0  0  0  0  0  # atno 10765 bound_to 10752
  139.9378  134.9638  156.8471 H   0  0  0  0  0  0  0  0  0  0  0  0  # atno 11005 bound_to 11000
  145.5265  141.0429  143.2406 LP  0  0  0  0  0  0  0  0  0  0  0  0  # atno 17320 bound_to 7965
  144.7688  139.6782  143.7203 LP  0  0  0  0  0  0  0  0  0  0  0  0  # atno 17321 bound_to 7965
  140.7503  143.6269  150.8460 LP  0  0  0  0  0  0  0  0  0  0  0  0  # atno 17342 bound_to 10162
  139.9909  143.5848  152.2910 LP  0  0  0  0  0  0  0  0  0  0  0  0  # atno 17343 bound_to 10162
  156.0026  130.5108  150.7717 LP  0  0  0  0  0  0  0  0  0  0  0  0  # atno 17370 bound_to 10713
  157.5075  131.0923  151.0238 LP  0  0  0  0  0  0  0  0  0  0  0  0  # atno 17371 bound_to 10713
  140.6029  134.0155  155.7545 LP  0  0  0  0  0  0  0  0  0  0  0  0  # atno 17394 bound_to 11000
  141.1000  133.9783  157.3095 LP  0  0  0  0  0  0  0  0  0  0  0  0  # atno 17395 bound_to 11000

$$$$
