AV-unprocessed.smi:2881|AV-procd|sdf|11063|dock10
  -GOLD-   2272015533D 1   1.00000     0.00000
 Structure written by MMmdl.
 40 42  0  0  0  0  0  0  0  0  1 V2000
  145.1709  132.6215  151.1286 C   0  0  0  0  0  0  0  0  0  0  0  0
  145.1769  134.0965  150.8533 C   0  0  0  0  0  0  0  0  0  0  0  0
  146.1475  135.0621  151.2515 C   0  0  0  0  0  0  0  0  0  0  0  0
  145.6782  136.2421  150.7455 C   0  0  0  0  0  0  0  0  0  0  0  0
  146.2272  137.6310  150.8064 C   0  0  0  0  0  0  0  0  0  0  0  0
  146.3735  138.0921  152.2561 C   0  0  0  0  0  0  0  0  0  0  0  0
  145.4602  137.8944  153.0570 O   0  0  0  0  0  0  0  0  0  0  0  0
  147.5203  138.7122  152.5730 N   0  0  0  0  0  0  0  0  0  0  0  0
  147.8590  139.2462  153.8902 C   0  0  2  0  0  0  0  0  0  0  0  0
  146.9233  140.4223  154.2475 C   0  0  1  0  0  0  0  0  0  0  0  0
  147.0296  140.6978  155.7579 C   0  0  0  0  0  0  0  0  0  0  0  0
  148.4250  141.3382  155.8807 C   0  0  0  0  0  0  0  0  0  0  0  0
  148.9368  141.3372  154.4235 C   0  0  2  0  0  0  0  0  0  0  0  0
  147.6505  141.6295  153.6621 C   0  0  0  0  0  0  0  0  0  0  0  0
  149.2617  139.9082  153.9255 C   0  0  1  0  0  0  0  0  0  0  0  0
  150.3159  139.1575  154.7629 C   0  0  0  0  0  0  0  0  0  0  0  0
  151.5564  139.8274  154.7037 O   0  0  0  0  0  0  0  0  0  0  0  0
  144.4997  135.9402  150.1012 N   0  0  0  0  0  0  0  0  0  0  0  0
  144.1835  134.6334  150.1605 N   0  0  0  0  0  0  0  0  0  0  0  0
  143.9131  136.6064  149.6184 H   0  0  0  0  0  0  0  0  0  0  0  0
  146.1628  132.2712  151.4152 H   0  0  0  0  0  0  0  0  0  0  0  0
  144.8621  132.0550  150.2494 H   0  0  0  0  0  0  0  0  0  0  0  0
  144.4851  132.3787  151.9405 H   0  0  0  0  0  0  0  0  0  0  0  0
  147.0528  134.9096  151.8203 H   0  0  0  0  0  0  0  0  0  0  0  0
  145.5755  138.3168  150.2631 H   0  0  0  0  0  0  0  0  0  0  0  0
  147.2000  137.6734  150.3150 H   0  0  0  0  0  0  0  0  0  0  0  0
  148.2094  138.8318  151.8449 H   0  0  0  0  0  0  0  0  0  0  0  0
  147.7644  138.4580  154.6399 H   0  0  0  0  0  0  0  0  0  0  0  0
  145.8950  140.2927  153.9074 H   0  0  0  0  0  0  0  0  0  0  0  0
  146.2575  141.3972  156.0808 H   0  0  0  0  0  0  0  0  0  0  0  0
  146.9299  139.7917  156.3568 H   0  0  0  0  0  0  0  0  0  0  0  0
  148.3377  142.3602  156.2518 H   0  0  0  0  0  0  0  0  0  0  0  0
  149.0763  140.8007  156.5691 H   0  0  0  0  0  0  0  0  0  0  0  0
  149.7412  142.0515  154.2448 H   0  0  0  0  0  0  0  0  0  0  0  0
  147.7666  141.5844  152.5777 H   0  0  0  0  0  0  0  0  0  0  0  0
  147.1931  142.5835  153.9314 H   0  0  0  0  0  0  0  0  0  0  0  0
  149.6491  140.0073  152.9092 H   0  0  0  0  0  0  0  0  0  0  0  0
  150.0049  139.1079  155.8067 H   0  0  0  0  0  0  0  0  0  0  0  0
  150.4521  138.1342  154.4138 H   0  0  0  0  0  0  0  0  0  0  0  0
  151.9757  139.7608  155.5480 H   0  0  0  0  0  0  0  0  0  0  0  0
  1 21  1  0  0  0  0
  1 22  1  0  0  0  0
  1 23  1  0  0  0  0
  1  2  1  0  0  0  0
  2 19  2  0  0  0  0
  2  3  1  0  0  0  0
  3  4  2  0  0  0  0
  3 24  1  0  0  0  0
  4 18  1  0  0  0  0
  4  5  1  0  0  0  0
  5  6  1  0  0  0  0
  5 25  1  0  0  0  0
  5 26  1  0  0  0  0
  6  7  2  0  0  0  0
  6  8  1  0  0  0  0
  8  9  1  0  0  0  0
  8 27  1  0  0  0  0
  9 15  1  0  0  0  0
  9 10  1  0  0  0  0
  9 28  1  0  0  0  0
 10 14  1  0  0  0  0
 10 11  1  0  0  0  0
 10 29  1  0  0  0  0
 11 12  1  0  0  0  0
 11 30  1  0  0  0  0
 11 31  1  0  0  0  0
 12 13  1  0  0  0  0
 12 32  1  0  0  0  0
 12 33  1  0  0  0  0
 13 14  1  0  0  0  0
 13 15  1  0  0  0  0
 13 34  1  0  0  0  0
 14 35  1  0  0  0  0
 14 36  1  0  0  0  0
 15 16  1  0  0  0  0
 15 37  1  0  0  0  0
 16 17  1  0  0  0  0
 16 38  1  0  0  0  0
 16 39  1  0  0  0  0
 17 40  1  0  0  0  0
 18 19  1  0  0  0  0
 18 20  1  0  0  0  0
M  END
> <s_m_source_file>
AV-unprocessed.smi

> <i_m_source_file_index>
2881

> <i_lp_mmshare_version>
43012

> <i_f3d_flags>
0

> <s_epik_input>
W0NIM11jMVtjSF1jKG5bbkhdMSlbQ0gyXUMoPU8pW05IXVtDQEhdKFtDQEBIXTIzKVtDQEhdKFtDSDJdW09IXSlbQ0BASF0oW0NIMl0zKVtDSDJdW0NIMl0y

> <s_epik_cmdline>
J2VwaWtfcHl0aG9uJywgJy1waCcsICc3LjAnLCAnLXRuJywgJzgnLCAnLW1hJywgJzIwMCcsICctbWV0YWxfYmluZGluZycsICctaW1hZScsICc8aW5maWxlLm1hZT4nLCAnLW9tYWUnLCAnPG91dGZpbGUubWFlPic=

> <r_lp_tautomer_probability>
0.5

> <r_epik_Ionization_Penalty>
0.00013396

> <r_epik_Ionization_Penalty_Charging>
0

> <r_epik_Ionization_Penalty_Neutral>
0.00013396

> <r_epik_State_Penalty>
0.41068

> <r_epik_Charging_Adjusted_Penalty>
0.41068

> <i_epik_Tot_Q>
0

> <i_epik_Tot_abs_Q>
0

> <r_epik_Metal_State_Penalty>
0.41066

> <b_epik_Metal_Only>
0

> <s_lp_Force_Field>
OPLS_2005

> <r_lp_Energy>
47.2043

> <b_lp_Chiralities_Consistent>
1

> <s_lp_Variant>
AV-unprocessed.smi:2881-9

> <Gold.Version>
5.8.1

> <Gold.Id.Protein>
6NUR|6NUR_protein|mol2

> <Gold.PLP.Fitness>
38.6104

> <Gold.PLP.PLP>
-31.4902

> <Gold.PLP.part.hbond>
-4.1521

> <Gold.PLP.part.metal>
0.0000

> <Gold.PLP.part.buried>
3.0331

> <Gold.PLP.part.nonpolar>
-30.5241

> <Gold.PLP.part.repulsive>
0.5817

> <Gold.PLP.ligand.clash>
0.0000

> <Gold.PLP.ligand.torsion>
0.2094

> <Gold.PLP.Chemscore.Hbond>
2.5040

> <Gold.PLP.Chemscore.CHOScore>
0.0000

> <Gold.PLP.Chemscore.Metal>
0.0000

> <Gold.Chemscore.Hbonds>
donor molecule, donor type, donor heavy atom, donor atom, acceptor molecule, acceptor atom, score
      L1  H     8    27       P1  7957  0.91
      L1  H    18    20       P1 10171  0.61
      P1  H  7989  7998       L1    17  1.00

> <Gold.PLP.Chemscore.Internal.Correction>
0.0269

> <Gold.Rescore>
     Score         DG    S(hbond)    S(metal)    S(lipo)     H(rot)  DE(clash)    DE(int)     intcor
     13.90     -16.69       2.21        0.00      82.49       2.28       2.29       0.50       ----

> <Gold.Chemscore.Fitness>
13.9028

> <Gold.Chemscore.DG>
-16.6904

> <Gold.Chemscore.ZeroCoef>
-5.4800

> <Gold.Chemscore.Hbond>
2.2107

> <Gold.Chemscore.Metal>
0.0000

> <Gold.Chemscore.Lipo>
82.4948

> <Gold.Chemscore.Internal_Hbond>
0.0000

> <Gold.Chemscore.DEClash>
2.2888

> <Gold.Chemscore.DEInternal>
0.4988

> <Gold.Chemscore.Rot>
2.2755

> <Gold.Chemscore.Internal.Correction>
   9.000000E+99

> <Gold.Chemscore.Hbonds>
donor molecule, donor type, donor heavy atom, donor atom, acceptor molecule, acceptor atom, score
      L1  H     8    27       P1  7957  0.77
      L1  H    18    20       P1 10171  0.58
      P1  H  7989  7998       L1    17  0.83

> <Gold.Chemscore.Hbond.Weighted>
-7.3837

> <Gold.Chemscore.Metal.Weighted>
-0.0000

> <Gold.Chemscore.Lipo.Weighted>
-9.6519

> <Gold.Chemscore.Internal_Hbond.Weighted>
0.0000

> <Gold.Chemscore.DEClash.Weighted>
2.2888

> <Gold.Chemscore.DEInternal.Weighted>
0.4988

> <Gold.Chemscore.Rot.Weighted>
5.8252

> <Gold.Chemscore.Internal.Correction.Weighted>
   9.000000E+99

> <Gold.Protein.RotatedTorsions>
[ 6907 6896 6895 6894 ] final  159.34 input  -60.11 | X-H torsion
[ 7974 7965 7964 7962 ] final -143.57 input  175.53 | X-H torsion
[ 8008 7997 7996 7995 ] final -106.24 input   59.86 | X-H torsion
[ 10167 10162 10161 10158 ] final   86.28 input  -65.29 | X-H torsion
[ 10718 10713 10712 10709 ] final   -4.37 input   66.30 | X-H torsion
[ 10763 10752 10751 10750 ] final -138.66 input  -60.55 | X-H torsion
[ 11005 11000 10999 10996 ] final   35.62 input  -57.11 | X-H torsion

> <Gold.Protein.ActiveResidues>
 VAL166  LYS551  ARG553  GLY616  TRP617  ASP618  TYR619  PRO620  LYS621  CYS622 
 ASP623  PHE694  ASN695  SER759  ASP760  ASP761  ALA762  ILE779  LEU786  VAL792 
 PHE793  MET794  SER795  GLU796  ALA797  LYS798  CYS799  TRP800  GLU811  SER814 

> <Gold.Protein.RotatedAtoms>
  151.9871  133.3778  159.4129 H   0  0  0  0  0  0  0  0  0  0  0  0  # atno 6907 bound_to 6896
  150.6927  134.3977  159.5114 H   0  0  0  0  0  0  0  0  0  0  0  0  # atno 6908 bound_to 6896
  152.1704  134.8838  160.0585 H   0  0  0  0  0  0  0  0  0  0  0  0  # atno 6909 bound_to 6896
  144.8360  140.5818  143.5484 H   0  0  0  0  0  0  0  0  0  0  0  0  # atno 7974 bound_to 7965
  154.9117  140.0410  157.1950 H   0  0  0  0  0  0  0  0  0  0  0  0  # atno 8008 bound_to 7997
  154.8342  140.2904  155.5681 H   0  0  0  0  0  0  0  0  0  0  0  0  # atno 8009 bound_to 7997
  156.2988  140.2495  156.3272 H   0  0  0  0  0  0  0  0  0  0  0  0  # atno 8010 bound_to 7997
  139.8891  144.6396  150.8758 H   0  0  0  0  0  0  0  0  0  0  0  0  # atno 10167 bound_to 10162
  156.7623  130.5273  149.5783 H   0  0  0  0  0  0  0  0  0  0  0  0  # atno 10718 bound_to 10713
  154.8631  135.3605  154.5421 H   0  0  0  0  0  0  0  0  0  0  0  0  # atno 10763 bound_to 10752
  153.6042  135.7011  153.5377 H   0  0  0  0  0  0  0  0  0  0  0  0  # atno 10764 bound_to 10752
  153.3264  135.4136  155.1421 H   0  0  0  0  0  0  0  0  0  0  0  0  # atno 10765 bound_to 10752
  140.2408  134.3417  155.7926 H   0  0  0  0  0  0  0  0  0  0  0  0  # atno 11005 bound_to 11000
  145.4794  139.1496  143.3770 LP  0  0  0  0  0  0  0  0  0  0  0  0  # atno 17320 bound_to 7965
  146.2658  140.4930  142.8834 LP  0  0  0  0  0  0  0  0  0  0  0  0  # atno 17321 bound_to 7965
  140.7730  143.3524  151.1988 LP  0  0  0  0  0  0  0  0  0  0  0  0  # atno 17342 bound_to 10162
  139.7126  143.9353  152.2953 LP  0  0  0  0  0  0  0  0  0  0  0  0  # atno 17343 bound_to 10162
  156.1331  130.6192  151.0362 LP  0  0  0  0  0  0  0  0  0  0  0  0  # atno 17370 bound_to 10713
  157.6729  131.0857  150.7567 LP  0  0  0  0  0  0  0  0  0  0  0  0  # atno 17371 bound_to 10713
  141.2210  133.7298  156.8883 LP  0  0  0  0  0  0  0  0  0  0  0  0  # atno 17394 bound_to 11000
  140.1655  134.9136  157.2768 LP  0  0  0  0  0  0  0  0  0  0  0  0  # atno 17395 bound_to 11000

$$$$
