AV-unprocessed.smi:2079|AV-procd|sdf|8482|dock3
  -GOLD-   2272011183D 1   1.00000     0.00000
 Structure written by MMmdl.
 41 42  0  0  0  0  0  0  0  0  3 V2000
  145.5245  144.0495  153.3308 C   0  0  0  0  0  0  0  0  0  0  0  0
  146.1466  142.8255  153.9112 C   0  0  0  0  0  0  0  0  0  0  0  0
  147.3397  142.1981  153.6901 C   0  0  0  0  0  0  0  0  0  0  0  0
  147.2908  141.0859  154.5742 C   0  0  0  0  0  0  0  0  0  0  0  0
  148.2533  140.1644  154.7343 N   0  5  0  0  0  0  0  0  0  0  0  0
  149.5457  140.5439  154.8583 C   0  0  0  0  0  0  0  0  0  0  0  0
  150.4956  140.1476  154.1792 O   0  0  0  0  0  0  0  0  0  0  0  0
  149.7514  141.4415  155.8309 N   0  0  0  0  0  0  0  0  0  0  0  0
  151.0435  142.0135  156.1828 C   0  0  0  0  0  0  0  0  0  0  0  0
  151.4103  141.6510  157.6328 C   0  0  0  0  0  0  0  0  0  0  0  0
  151.9194  142.8138  158.4166 N   0  3  1  0  0  0  0  0  0  0  0  0
  151.0754  144.0265  158.2059 C   0  0  0  0  0  0  0  0  0  0  0  0
  151.6563  145.2655  158.9010 C   0  0  0  0  0  0  0  0  0  0  0  0
  151.8214  145.0111  160.3985 C   0  0  0  0  0  0  0  0  0  0  0  0
  152.6903  143.7688  160.6050 C   0  0  0  0  0  0  0  0  0  0  0  0
  152.1195  142.5302  159.8773 C   0  0  2  0  0  0  0  0  0  0  0  0
  153.0561  141.3336  160.1474 C   0  0  0  0  0  0  0  0  0  0  0  0
  146.1735  141.0503  155.2811 N   0  0  0  0  0  0  0  0  0  0  0  0
  145.4312  142.1589  154.8568 O   0  0  0  0  0  0  0  0  0  0  0  0
  146.2056  144.8979  153.4000 H   0  0  0  0  0  0  0  0  0  0  0  0
  144.6055  144.3110  153.8559 H   0  0  0  0  0  0  0  0  0  0  0  0
  145.2810  143.8952  152.2797 H   0  0  0  0  0  0  0  0  0  0  0  0
  148.1222  142.4863  153.0042 H   0  0  0  0  0  0  0  0  0  0  0  0
  148.9488  141.7416  156.3648 H   0  0  0  0  0  0  0  0  0  0  0  0
  151.8025  141.6349  155.4963 H   0  0  0  0  0  0  0  0  0  0  0  0
  150.9833  143.0920  156.0409 H   0  0  0  0  0  0  0  0  0  0  0  0
  150.5562  141.2077  158.1470 H   0  0  0  0  0  0  0  0  0  0  0  0
  152.1634  140.8701  157.5643 H   0  0  0  0  0  0  0  0  0  0  0  0
  150.9824  144.2570  157.1466 H   0  0  0  0  0  0  0  0  0  0  0  0
  150.0662  143.8335  158.5734 H   0  0  0  0  0  0  0  0  0  0  0  0
  152.6198  145.5210  158.4582 H   0  0  0  0  0  0  0  0  0  0  0  0
  151.0029  146.1237  158.7400 H   0  0  0  0  0  0  0  0  0  0  0  0
  152.2759  145.8764  160.8821 H   0  0  0  0  0  0  0  0  0  0  0  0
  150.8455  144.8662  160.8638 H   0  0  0  0  0  0  0  0  0  0  0  0
  153.7015  143.9721  160.2484 H   0  0  0  0  0  0  0  0  0  0  0  0
  152.7778  143.5690  161.6736 H   0  0  0  0  0  0  0  0  0  0  0  0
  151.1442  142.3007  160.3101 H   0  0  0  0  0  0  0  0  0  0  0  0
  153.3135  141.2733  161.2053 H   0  0  0  0  0  0  0  0  0  0  0  0
  153.9886  141.4222  159.5892 H   0  0  0  0  0  0  0  0  0  0  0  0
  152.5966  140.3775  159.9005 H   0  0  0  0  0  0  0  0  0  0  0  0
  152.8342  143.0258  158.0446 H   0  0  0  0  0  0  0  0  0  0  0  0
  1  2  1  0  0  0  0
  1 20  1  0  0  0  0
  1 21  1  0  0  0  0
  1 22  1  0  0  0  0
  2 19  1  0  0  0  0
  2  3  2  0  0  0  0
  3  4  1  0  0  0  0
  3 23  1  0  0  0  0
  4  5  1  0  0  0  0
  4 18  2  0  0  0  0
  5  6  1  0  0  0  0
  6  7  2  0  0  0  0
  6  8  1  0  0  0  0
  8  9  1  0  0  0  0
  8 24  1  0  0  0  0
  9 10  1  0  0  0  0
  9 25  1  0  0  0  0
  9 26  1  0  0  0  0
 10 11  1  0  0  0  0
 10 27  1  0  0  0  0
 10 28  1  0  0  0  0
 11 16  1  0  0  0  0
 11 12  1  0  0  0  0
 11 41  1  0  0  0  0
 12 13  1  0  0  0  0
 12 29  1  0  0  0  0
 12 30  1  0  0  0  0
 13 14  1  0  0  0  0
 13 31  1  0  0  0  0
 13 32  1  0  0  0  0
 14 15  1  0  0  0  0
 14 33  1  0  0  0  0
 14 34  1  0  0  0  0
 15 16  1  0  0  0  0
 15 35  1  0  0  0  0
 15 36  1  0  0  0  0
 16 17  1  0  0  0  0
 16 37  1  0  0  0  0
 17 38  1  0  0  0  0
 17 39  1  0  0  0  0
 17 40  1  0  0  0  0
 18 19  1  0  0  0  0
M  CHG  1   5  -1
M  CHG  1  11   1
M  END
> <s_m_source_file>
AV-unprocessed.smi

> <i_m_source_file_index>
2079

> <i_lp_mmshare_version>
43012

> <i_f3d_flags>
0

> <s_epik_input>
W0NIM11jMVtjSF1jKG5vMSlbTkhdQyg9TylbTkhdW0NIMl1bQ0gyXU4yW0NIMl1bQ0gyXVtDSDJdW0NIMl1bQ0BIXTJbQ0gzXQ==

> <s_epik_cmdline>
J2VwaWtfcHl0aG9uJywgJy1waCcsICc3LjAnLCAnLXRuJywgJzgnLCAnLW1hJywgJzIwMCcsICctbWV0YWxfYmluZGluZycsICctaW1hZScsICc8aW5maWxlLm1hZT4nLCAnLW9tYWUnLCAnPG91dGZpbGUubWFlPic=

> <r_epik_Ionization_Penalty>
6.22371

> <r_epik_Ionization_Penalty_Charging>
6.22362

> <r_epik_Ionization_Penalty_Neutral>
9.40454e-05

> <r_epik_State_Penalty>
6.22363

> <r_epik_Charging_Adjusted_Penalty>
12.4472

> <i_epik_Tot_Q>
0

> <i_epik_Tot_abs_Q>
2

> <r_epik_Metal_State_Penalty>
2.16675

> <b_epik_Metal_Only>
1

> <s_lp_Force_Field>
OPLS_2005

> <r_lp_Energy>
8.88901

> <b_lp_Chiralities_Consistent>
1

> <s_lp_Variant>
AV-unprocessed.smi:2079-8

> <Gold.Version>
5.8.1

> <Gold.Id.Protein>
6NUR|6NUR_protein|mol2

> <Gold.PLP.Fitness>
42.7475

> <Gold.PLP.PLP>
-42.2562

> <Gold.PLP.part.hbond>
-0.9818

> <Gold.PLP.part.metal>
0.0000

> <Gold.PLP.part.buried>
-8.5829

> <Gold.PLP.part.nonpolar>
-31.6953

> <Gold.PLP.part.repulsive>
0.5994

> <Gold.PLP.ligand.clash>
0.0000

> <Gold.PLP.ligand.torsion>
1.2796

> <Gold.PLP.Chemscore.Hbond>
1.0000

> <Gold.PLP.Chemscore.CHOScore>
0.0000

> <Gold.PLP.Chemscore.Metal>
0.0000

> <Gold.Chemscore.Hbonds>
donor molecule, donor type, donor heavy atom, donor atom, acceptor molecule, acceptor atom, score
      P1  H  7989  7998       L1     7  0.93

> <Gold.PLP.Chemscore.Internal.Correction>
0.0505

> <Gold.Rescore>
     Score         DG    S(hbond)    S(metal)    S(lipo)     H(rot)  DE(clash)    DE(int)     intcor
     15.99     -17.29       1.00        0.00     106.19       1.54       0.09       1.21       ----

> <Gold.Chemscore.Fitness>
15.9851

> <Gold.Chemscore.DG>
-17.2863

> <Gold.Chemscore.ZeroCoef>
-5.4800

> <Gold.Chemscore.Hbond>
0.9960

> <Gold.Chemscore.Metal>
0.0000

> <Gold.Chemscore.Lipo>
106.1915

> <Gold.Chemscore.Internal_Hbond>
0.0000

> <Gold.Chemscore.DEClash>
0.0898

> <Gold.Chemscore.DEInternal>
1.2114

> <Gold.Chemscore.Rot>
1.5409

> <Gold.Chemscore.Internal.Correction>
   9.000000E+99

> <Gold.Chemscore.Hbonds>
donor molecule, donor type, donor heavy atom, donor atom, acceptor molecule, acceptor atom, score
      P1  H  7989  7998       L1     7  0.87

> <Gold.Chemscore.Hbond.Weighted>
-3.3266

> <Gold.Chemscore.Metal.Weighted>
-0.0000

> <Gold.Chemscore.Lipo.Weighted>
-12.4244

> <Gold.Chemscore.Internal_Hbond.Weighted>
0.0000

> <Gold.Chemscore.DEClash.Weighted>
0.0898

> <Gold.Chemscore.DEInternal.Weighted>
1.2114

> <Gold.Chemscore.Rot.Weighted>
3.9446

> <Gold.Chemscore.Internal.Correction.Weighted>
   9.000000E+99

> <Gold.Protein.RotatedTorsions>
[ 6907 6896 6895 6894 ] final  175.97 input  -60.11 | X-H torsion
[ 7974 7965 7964 7962 ] final   -8.60 input  175.53 | X-H torsion
[ 8008 7997 7996 7995 ] final  100.84 input   59.86 | X-H torsion
[ 10167 10162 10161 10158 ] final -102.18 input  -65.29 | X-H torsion
[ 10718 10713 10712 10709 ] final -164.60 input   66.30 | X-H torsion
[ 10763 10752 10751 10750 ] final   71.17 input  -60.55 | X-H torsion
[ 11005 11000 10999 10996 ] final  139.16 input  -57.11 | X-H torsion

> <Gold.Protein.ActiveResidues>
 VAL166  LYS551  ARG553  GLY616  TRP617  ASP618  TYR619  PRO620  LYS621  CYS622 
 ASP623  PHE694  ASN695  SER759  ASP760  ASP761  ALA762  ILE779  LEU786  VAL792 
 PHE793  MET794  SER795  GLU796  ALA797  LYS798  CYS799  TRP800  GLU811  SER814 

> <Gold.Protein.RotatedAtoms>
  151.7277  133.3316  159.3331 H   0  0  0  0  0  0  0  0  0  0  0  0  # atno 6907 bound_to 6896
  150.7626  134.6391  159.6237 H   0  0  0  0  0  0  0  0  0  0  0  0  # atno 6908 bound_to 6896
  152.3611  134.6872  160.0258 H   0  0  0  0  0  0  0  0  0  0  0  0  # atno 6909 bound_to 6896
  146.2276  140.2492  142.8346 H   0  0  0  0  0  0  0  0  0  0  0  0  # atno 7974 bound_to 7965
  156.1242  140.3207  155.8253 H   0  0  0  0  0  0  0  0  0  0  0  0  # atno 8008 bound_to 7997
  155.4450  140.0528  157.3024 H   0  0  0  0  0  0  0  0  0  0  0  0  # atno 8009 bound_to 7997
  154.4850  140.2069  155.9690 H   0  0  0  0  0  0  0  0  0  0  0  0  # atno 8010 bound_to 7997
  140.2334  143.3590  152.0866 H   0  0  0  0  0  0  0  0  0  0  0  0  # atno 10167 bound_to 10162
  156.6414  130.8970  151.2997 H   0  0  0  0  0  0  0  0  0  0  0  0  # atno 10718 bound_to 10713
  153.0383  135.5146  154.7553 H   0  0  0  0  0  0  0  0  0  0  0  0  # atno 10763 bound_to 10752
  154.6511  135.2925  154.9988 H   0  0  0  0  0  0  0  0  0  0  0  0  # atno 10764 bound_to 10752
  154.0872  135.6655  153.4899 H   0  0  0  0  0  0  0  0  0  0  0  0  # atno 10765 bound_to 10752
  140.0235  134.9385  157.0522 H   0  0  0  0  0  0  0  0  0  0  0  0  # atno 11005 bound_to 11000
  144.9424  140.8093  143.5622 LP  0  0  0  0  0  0  0  0  0  0  0  0  # atno 17320 bound_to 7965
  145.2445  139.2058  143.4975 LP  0  0  0  0  0  0  0  0  0  0  0  0  # atno 17321 bound_to 7965
  139.5102  144.6880  151.5836 LP  0  0  0  0  0  0  0  0  0  0  0  0  # atno 17342 bound_to 10162
  140.6168  143.9333  150.6495 LP  0  0  0  0  0  0  0  0  0  0  0  0  # atno 17343 bound_to 10162
  157.7170  130.9509  150.1291 LP  0  0  0  0  0  0  0  0  0  0  0  0  # atno 17370 bound_to 10713
  156.2156  130.3670  149.8618 LP  0  0  0  0  0  0  0  0  0  0  0  0  # atno 17371 bound_to 10713
  140.4346  134.1744  155.7170 LP  0  0  0  0  0  0  0  0  0  0  0  0  # atno 17394 bound_to 11000
  141.1788  133.8457  157.1328 LP  0  0  0  0  0  0  0  0  0  0  0  0  # atno 17395 bound_to 11000

$$$$
