#       Name:                AV-unprocessed.smi:2664
#       Creating user name   scv26
#       Creation time:       Fri Mar 27 14:34:38 2020


#       File generated by GOLD software.
#

@<TRIPOS>MOLECULE
AV-unprocessed.smi:2664
    48    49     1
SMALL
NO_CHARGES


@<TRIPOS>ATOM
      1 ****        -0.5572  -1.7729  -0.7087 O.2            1 S1                 0.0000
      2 ****        -0.1704  -1.2700   0.3455 C.2            1 S1                 0.0000
      3 ****        -0.4910  -1.7073   1.5756 N.am           1 S1                 0.0000
      4 ****        -1.2744  -2.8364   1.9398 C.ar           1 S1                 0.0000
      5 ****        -1.8218  -2.8583   3.2419 C.ar           1 S1                 0.0000
      6 ****        -2.5910  -3.9652   3.6552 C.ar           1 S1                 0.0000
      7 ****        -2.7914  -4.9982   2.8092 N.pl3          1 S1                 1.0000
      8 ****        -2.2781  -5.0292   1.5607 C.ar           1 S1                 0.0000
      9 ****        -1.4997  -3.9512   1.0920 C.ar           1 S1                 0.0000
     10 ****         0.6207  -0.1880   0.4093 N.am           1 S1                 0.0000
     11 ****         1.1699   0.5480  -0.7334 C.3            1 S1                 0.0000
     12 ****         2.7170   0.4643  -0.6878 C.3            1 S1                 0.0000
     13 ****         3.2956  -0.9633  -0.6578 C.3            1 S1                 0.0000
     14 ****         2.9816  -1.6517  -1.8498 O.3            1 S1                 0.0000
     15 ****         0.6264   2.0066  -0.7401 C.3            1 S1                 0.0000
     16 ****        -0.9230   2.0575  -0.6875 C.3            1 S1                 0.0000
     17 ****        -1.4638   3.4962  -0.6987 C.3            1 S1                 0.0000
     18 ****        -0.9594   4.2713  -1.9217 C.3            1 S1                 0.0000
     19 ****         0.5728   4.2539  -1.9765 C.3            1 S1                 0.0000
     20 ****         1.1198   2.8173  -1.9644 C.3            1 S1                 0.0000
     21 ****        -0.1700  -1.1367   2.3441 H              1 S1                 0.0000
     22 ****        -1.6605  -2.0326   3.9199 H              1 S1                 0.0000
     23 ****        -3.0468  -4.0550   4.6305 H              1 S1                 0.0000
     24 ****        -2.4979  -5.9127   0.9791 H              1 S1                 0.0000
     25 ****        -1.0828  -4.0082   0.0983 H              1 S1                 0.0000
     26 ****         0.8760   0.1551   1.3237 H              1 S1                 0.0000
     27 ****         0.8437   0.0784  -1.6629 H              1 S1                 0.0000
     28 ****         3.1494   0.9718  -1.5488 H              1 S1                 0.0000
     29 ****         3.0762   1.0040   0.1893 H              1 S1                 0.0000
     30 ****         4.3810  -0.9197  -0.5650 H              1 S1                 0.0000
     31 ****         2.9307  -1.5300   0.1987 H              1 S1                 0.0000
     32 ****         3.3715  -2.5119  -1.8135 H              1 S1                 0.0000
     33 ****         1.0001   2.5033   0.1569 H              1 S1                 0.0000
     34 ****        -1.3359   1.5081  -1.5348 H              1 S1                 0.0000
     35 ****        -1.2980   1.5636   0.2086 H              1 S1                 0.0000
     36 ****        -2.5541   3.4831  -0.6922 H              1 S1                 0.0000
     37 ****        -1.1554   4.0096   0.2129 H              1 S1                 0.0000
     38 ****        -1.3663   3.8296  -2.8323 H              1 S1                 0.0000
     39 ****        -1.3197   5.2998  -1.8864 H              1 S1                 0.0000
     40 ****         0.9174   4.7742  -2.8707 H              1 S1                 0.0000
     41 ****         0.9751   4.8042  -1.1252 H              1 S1                 0.0000
     42 ****         2.2066   2.8789  -1.9776 H              1 S1                 0.0000
     43 ****         0.8271   2.3090  -2.8842 H              1 S1                 0.0000
     44 ****        -3.3499  -5.7905   3.1280 H              1 S1                 0.0000
     45 ****        -1.1589  -2.5714  -0.6905 LP             1 S1                 0.0000
     46 ****        -0.2698  -1.3831  -1.5836 LP             1 S1                 0.0000
     47 ****         3.3456  -1.1498  -2.6344 LP             1 S1                 0.0000
     48 ****         1.9891  -1.7353  -1.9389 LP             1 S1                 0.0000
@<TRIPOS>BOND
    1    1    2 2     
    2    2    3 am    
    3    2   10 am    
    4    3    4 1     
    5    3   21 1     
    6    4    9 ar    
    7    4    5 ar    
    8    5    6 ar    
    9    5   22 1     
   10    6    7 ar    
   11    6   23 1     
   12    7    8 ar    
   13    7   44 1     
   14    8    9 ar    
   15    8   24 1     
   16    9   25 1     
   17   10   11 1     
   18   10   26 1     
   19   11   12 1     
   20   11   15 1     
   21   11   27 1     
   22   12   13 1     
   23   12   28 1     
   24   12   29 1     
   25   13   14 1     
   26   13   30 1     
   27   13   31 1     
   28   14   32 1     
   29   15   20 1     
   30   15   16 1     
   31   15   33 1     
   32   16   17 1     
   33   16   34 1     
   34   16   35 1     
   35   17   18 1     
   36   17   36 1     
   37   17   37 1     
   38   18   19 1     
   39   18   38 1     
   40   18   39 1     
   41   19   20 1     
   42   19   40 1     
   43   19   41 1     
   44   20   42 1     
   45   20   43 1     
   46    1   45 1     
   47    1   46 1     
   48   14   47 1     
   49   14   48 1     
@<TRIPOS>SUBSTRUCTURE
      1 S1             1
@<TRIPOS>SET
LONE_PAIRS      STATIC     ATOMS    <user>   **** ""
4 45 46 47 48
DONOR_HYDROGENS      STATIC     ATOMS    <user>   **** ""
4 21 44 26 32
ATOM$BLUE        STATIC     ATOMS    COLORGROUP SYSTEM
4 45 46 47 48
ATOM$RED        STATIC     ATOMS    COLORGROUP SYSTEM
4 21 44 26 32
