#       Name:                AV-unprocessed.smi:142
#       Creating user name   scv26
#       Creation time:       Thu Mar 26 18:34:33 2020


#       File generated by GOLD software.
#

@<TRIPOS>MOLECULE
AV-unprocessed.smi:142
    60    63     1
SMALL
NO_CHARGES


@<TRIPOS>ATOM
      1 ****        -3.3715   3.6240   0.2656 C.3            1 S1                 0.0000
      2 ****        -2.8068   2.1971   0.2489 C.3            1 S1                 0.0000
      3 ****        -1.3504   2.2543   0.3599 N.am           1 S1                 0.0000
      4 ****        -0.5637   1.2384   0.7461 C.2            1 S1                 0.0000
      5 ****        -1.0022   0.1359   1.0776 O.2            1 S1                 0.0000
      6 ****         0.9453   1.5266   0.7580 C.3            1 S1                 0.0000
      7 ****         1.7719   0.3003   0.7839 N.am           1 S1                 0.0000
      8 ****         2.0986  -0.3202  -0.4473 C.2            1 S1                 0.0000
      9 ****         1.7215   0.1534  -1.5205 O.2            1 S1                 0.0000
     10 ****         2.8905  -1.5409  -0.3470 C.2            1 S1                 0.0000
     11 ****         3.2516  -2.1931  -1.4650 F              1 S1                 0.0000
     12 ****         3.2661  -2.0295   0.8531 C.2            1 S1                 0.0000
     13 ****         2.9344  -1.4162   2.0481 N.am           1 S1                 0.0000
     14 ****         3.3472  -1.9880   3.3877 C.3            1 S1                 0.0000
     15 ****         4.5075  -1.1747   3.9896 C.3            1 S1                 0.0000
     16 ****         5.5087  -2.2499   4.3611 C.3            1 S1                 0.0000
     17 ****         5.2241  -3.3164   3.3142 C.3            1 S1                 0.0000
     18 ****         3.8055  -3.3002   3.2242 O.3            1 S1                 0.0000
     19 ****         2.1704  -0.2291   2.0343 C.2            1 S1                 0.0000
     20 ****         1.8568   0.3270   3.0892 O.2            1 S1                 0.0000
     21 ****        -3.2903   1.4340  -0.9816 C.ar           1 S1                 0.0000
     22 ****        -4.5102   0.7269  -0.9220 C.ar           1 S1                 0.0000
     23 ****        -4.9843   0.0227  -2.0455 C.ar           1 S1                 0.0000
     24 ****        -4.2424   0.0215  -3.2437 C.ar           1 S1                 0.0000
     25 ****        -4.7121  -0.6805  -4.3733 C.2            1 S1                 0.0000
     26 ****        -3.9644  -0.6772  -5.5671 C.2            1 S1                 0.0000
     27 ****        -2.7465   0.0265  -5.6352 C.2            1 S1                 0.0000
     28 ****        -2.2737   0.7308  -4.5109 C.2            1 S1                 0.0000
     29 ****        -3.0183   0.7314  -3.3133 C.ar           1 S1                 0.0000
     30 ****        -2.5499   1.4365  -2.1862 C.ar           1 S1                 0.0000
     31 ****        -4.4619   3.6136   0.2593 H              1 S1                 0.0000
     32 ****        -3.0400   4.1924  -0.6041 H              1 S1                 0.0000
     33 ****        -3.0541   4.1639   1.1583 H              1 S1                 0.0000
     34 ****        -3.1875   1.6828   1.1335 H              1 S1                 0.0000
     35 ****        -0.9083   3.1262   0.1075 H              1 S1                 0.0000
     36 ****         1.1962   2.1390  -0.1100 H              1 S1                 0.0000
     37 ****         1.1634   2.1734   1.6089 H              1 S1                 0.0000
     38 ****         3.8468  -2.9390   0.8578 H              1 S1                 0.0000
     39 ****         2.4432  -1.9983   3.9996 H              1 S1                 0.0000
     40 ****         4.9295  -0.5066   3.2372 H              1 S1                 0.0000
     41 ****         4.1717  -0.5836   4.8419 H              1 S1                 0.0000
     42 ****         6.5406  -1.8985   4.3438 H              1 S1                 0.0000
     43 ****         5.2931  -2.6365   5.3580 H              1 S1                 0.0000
     44 ****         5.6655  -3.0448   2.3543 H              1 S1                 0.0000
     45 ****         5.5966  -4.3004   3.5993 H              1 S1                 0.0000
     46 ****        -5.0885   0.7220  -0.0096 H              1 S1                 0.0000
     47 ****        -5.9193  -0.5147  -1.9825 H              1 S1                 0.0000
     48 ****        -5.6454  -1.2230  -4.3298 H              1 S1                 0.0000
     49 ****        -4.3252  -1.2158  -6.4309 H              1 S1                 0.0000
     50 ****        -2.1739   0.0267  -6.5509 H              1 S1                 0.0000
     51 ****        -1.3384   1.2682  -4.5719 H              1 S1                 0.0000
     52 ****        -1.6191   1.9811  -2.2511 H              1 S1                 0.0000
     53 ****        -1.9875  -0.0342   1.0665 LP             1 S1                 0.0000
     54 ****        -0.3728  -0.5889   1.3577 LP             1 S1                 0.0000
     55 ****         1.1746   0.9905  -1.5330 LP             1 S1                 0.0000
     56 ****         1.9624  -0.2993  -2.3790 LP             1 S1                 0.0000
     57 ****         3.5236  -3.6434   2.3282 LP             1 S1                 0.0000
     58 ****         3.4186  -3.8810   3.9404 LP             1 S1                 0.0000
     59 ****         1.3125   1.1657   3.0697 LP             1 S1                 0.0000
     60 ****         2.1468  -0.0606   3.9642 LP             1 S1                 0.0000
@<TRIPOS>BOND
    1    1    2 1     
    2    1   31 1     
    3    1   32 1     
    4    1   33 1     
    5    2    3 1     
    6    2   21 1     
    7    2   34 1     
    8    3    4 am    
    9    3   35 1     
   10    4    5 2     
   11    4    6 1     
   12    6    7 1     
   13    6   36 1     
   14    6   37 1     
   15    7   19 am    
   16    7    8 am    
   17    8    9 2     
   18    8   10 1     
   19   10   11 1     
   20   10   12 2     
   21   12   13 1     
   22   12   38 1     
   23   13   14 1     
   24   13   19 am    
   25   14   18 1     
   26   14   15 1     
   27   14   39 1     
   28   15   16 1     
   29   15   40 1     
   30   15   41 1     
   31   16   17 1     
   32   16   42 1     
   33   16   43 1     
   34   17   18 1     
   35   17   44 1     
   36   17   45 1     
   37   19   20 2     
   38   21   30 ar    
   39   21   22 ar    
   40   22   23 ar    
   41   22   46 1     
   42   23   24 ar    
   43   23   47 1     
   44   24   29 ar    
   45   24   25 1     
   46   25   26 2     
   47   25   48 1     
   48   26   27 1     
   49   26   49 1     
   50   27   28 2     
   51   27   50 1     
   52   28   29 1     
   53   28   51 1     
   54   29   30 ar    
   55   30   52 1     
   56    5   53 1     
   57    5   54 1     
   58    9   55 1     
   59    9   56 1     
   60   18   57 1     
   61   18   58 1     
   62   20   59 1     
   63   20   60 1     
@<TRIPOS>SUBSTRUCTURE
      1 S1             1
@<TRIPOS>SET
LONE_PAIRS      STATIC     ATOMS    <user>   **** ""
8 53 54 55 56 57 58 59 60
DONOR_HYDROGENS      STATIC     ATOMS    <user>   **** ""
1 35
ATOM$BLUE        STATIC     ATOMS    COLORGROUP SYSTEM
8 53 54 55 56 57 58 59 60
ATOM$RED        STATIC     ATOMS    COLORGROUP SYSTEM
1 35
