#       Name:                AV-unprocessed.smi:2799
#       Creating user name   scv26
#       Creation time:       Fri Mar 27 15:22:33 2020


#       File generated by GOLD software.
#

@<TRIPOS>MOLECULE
AV-unprocessed.smi:2799
    56    57     1
SMALL
NO_CHARGES


@<TRIPOS>ATOM
      1 ****        -3.9600   0.9214  -3.9373 C.3            1 S1                 0.0000
      2 ****        -2.4797   1.0163  -3.5385 C.3            1 S1                 0.0000
      3 ****        -1.7306   1.9708  -4.4837 C.3            1 S1                 0.0000
      4 ****        -1.8393  -0.3896  -3.5069 C.3            1 S1                 0.0000
      5 ****        -0.4141  -0.4080  -3.0725 N.4            1 S1                 1.0000
      6 ****         0.2301  -1.7231  -3.3400 C.3            1 S1                 0.0000
      7 ****         1.7497  -1.6610  -3.1199 C.3            1 S1                 0.0000
      8 ****         2.0832  -1.1566  -1.7125 C.3            1 S1                 0.0000
      9 ****         1.3919   0.1912  -1.4696 C.3            1 S1                 0.0000
     10 ****        -0.1374   0.1105  -1.6940 C.3            1 S1                 0.0000
     11 ****        -0.9020  -0.6619  -0.5847 C.3            1 S1                 0.0000
     12 ****        -0.6564  -0.1112   0.7457 N.am           1 S1                 0.0000
     13 ****         0.0819  -0.6885   1.7050 C.2            1 S1                 0.0000
     14 ****         0.6497  -1.7708   1.5616 O.2            1 S1                 0.0000
     15 ****         0.1295   0.0856   2.8045 N.am           1 S1                 0.0000
     16 ****         0.7762  -0.1509   4.0300 C.2            1 S1                 0.0000
     17 ****         1.1875  -1.3702   4.4606 C.2            1 S1                 0.0000
     18 ****         1.8351  -1.5249   5.7410 C.2            1 S1                 0.0000
     19 ****         2.0126  -0.4354   6.5012 C.2            1 S1                 0.0000
     20 ****         1.5853   0.8352   6.0799 N.am           1 S1                 0.0000
     21 ****         1.8242   1.9647   6.9819 C.3            1 S1                 0.0000
     22 ****         0.9685   1.0416   4.8783 C.2            1 S1                 0.0000
     23 ****         0.6005   2.1678   4.5344 O.2            1 S1                 0.0000
     24 ****        -4.0766   0.5077  -4.9397 H              1 S1                 0.0000
     25 ****        -4.4345   1.9031  -3.9262 H              1 S1                 0.0000
     26 ****        -4.5134   0.2832  -3.2477 H              1 S1                 0.0000
     27 ****        -2.4621   1.4437  -2.5365 H              1 S1                 0.0000
     28 ****        -1.7188   1.5895  -5.5053 H              1 S1                 0.0000
     29 ****        -0.6967   2.1160  -4.1701 H              1 S1                 0.0000
     30 ****        -2.2031   2.9533  -4.5027 H              1 S1                 0.0000
     31 ****        -2.4253  -1.0634  -2.8818 H              1 S1                 0.0000
     32 ****        -1.8961  -0.8053  -4.5141 H              1 S1                 0.0000
     33 ****        -0.2144  -2.4954  -2.7118 H              1 S1                 0.0000
     34 ****         0.0405  -2.0200  -4.3722 H              1 S1                 0.0000
     35 ****         2.1903  -2.6460  -3.2772 H              1 S1                 0.0000
     36 ****         2.1994  -0.9993  -3.8615 H              1 S1                 0.0000
     37 ****         1.7619  -1.8865  -0.9693 H              1 S1                 0.0000
     38 ****         3.1624  -1.0513  -1.5973 H              1 S1                 0.0000
     39 ****         1.6283   0.5602  -0.4718 H              1 S1                 0.0000
     40 ****         1.8108   0.9276  -2.1570 H              1 S1                 0.0000
     41 ****        -0.4840   1.1424  -1.6564 H              1 S1                 0.0000
     42 ****        -1.9768  -0.5880  -0.7451 H              1 S1                 0.0000
     43 ****        -0.6680  -1.7264  -0.6118 H              1 S1                 0.0000
     44 ****        -1.0818   0.7810   0.9525 H              1 S1                 0.0000
     45 ****        -0.3262   0.9845   2.7408 H              1 S1                 0.0000
     46 ****         1.0314  -2.2625   3.8762 H              1 S1                 0.0000
     47 ****         2.1689  -2.4952   6.0780 H              1 S1                 0.0000
     48 ****         2.4884  -0.4688   7.4705 H              1 S1                 0.0000
     49 ****         2.4628   2.7082   6.5026 H              1 S1                 0.0000
     50 ****         2.3126   1.6672   7.9107 H              1 S1                 0.0000
     51 ****         0.8829   2.4467   7.2508 H              1 S1                 0.0000
     52 ****         0.0533   0.2383  -3.6922 H              1 S1                 0.0000
     53 ****         0.5725  -2.2650   0.6957 LP             1 S1                 0.0000
     54 ****         1.1882  -2.1560   2.3110 LP             1 S1                 0.0000
     55 ****         0.1523   2.2991   3.6501 LP             1 S1                 0.0000
     56 ****         0.7503   2.9494   5.1400 LP             1 S1                 0.0000
@<TRIPOS>BOND
    1    1    2 1     
    2    1   24 1     
    3    1   25 1     
    4    1   26 1     
    5    2    3 1     
    6    2    4 1     
    7    2   27 1     
    8    3   28 1     
    9    3   29 1     
   10    3   30 1     
   11    4    5 1     
   12    4   31 1     
   13    4   32 1     
   14    5   10 1     
   15    5    6 1     
   16    5   52 1     
   17    6    7 1     
   18    6   33 1     
   19    6   34 1     
   20    7    8 1     
   21    7   35 1     
   22    7   36 1     
   23    8    9 1     
   24    8   37 1     
   25    8   38 1     
   26    9   10 1     
   27    9   39 1     
   28    9   40 1     
   29   10   11 1     
   30   10   41 1     
   31   11   12 1     
   32   11   42 1     
   33   11   43 1     
   34   12   13 am    
   35   12   44 1     
   36   13   14 2     
   37   13   15 am    
   38   15   16 1     
   39   15   45 1     
   40   16   22 1     
   41   16   17 2     
   42   17   18 1     
   43   17   46 1     
   44   18   19 2     
   45   18   47 1     
   46   19   20 1     
   47   19   48 1     
   48   20   21 1     
   49   20   22 am    
   50   21   49 1     
   51   21   50 1     
   52   21   51 1     
   53   22   23 2     
   54   14   53 1     
   55   14   54 1     
   56   23   55 1     
   57   23   56 1     
@<TRIPOS>SUBSTRUCTURE
      1 S1             1
@<TRIPOS>SET
LONE_PAIRS      STATIC     ATOMS    <user>   **** ""
4 53 54 55 56
DONOR_HYDROGENS      STATIC     ATOMS    <user>   **** ""
3 52 44 45
ATOM$BLUE        STATIC     ATOMS    COLORGROUP SYSTEM
4 53 54 55 56
ATOM$RED        STATIC     ATOMS    COLORGROUP SYSTEM
3 52 44 45
