AV-unprocessed.smi:1575|AV-procd|sdf|6341|dock8
  -GOLD-   22720 6563D 1   1.00000     0.00000
 Structure written by MMmdl.
 40 40  0  0  0  0  0  0  0  0  2 V2000
  146.8476  140.8620  153.9667 C   0  0  0  0  0  0  0  0  0  0  0  0
  145.6908  141.5733  154.4881 N   0  0  0  0  0  0  0  0  0  0  0  0
  145.6875  142.2728  155.6319 C   0  0  0  0  0  0  0  0  0  0  0  0
  146.6798  142.3840  156.3542 O   0  0  0  0  0  0  0  0  0  0  0  0
  144.3654  142.9676  156.0001 C   0  0  2  0  0  0  0  0  0  0  0  0
  144.0808  144.0502  154.9308 C   0  0  0  0  0  0  0  0  0  0  0  0
  143.0284  145.1137  155.3247 C   0  0  0  0  0  0  0  0  0  0  0  0
  142.0810  145.4650  154.1660 C   0  0  0  0  0  0  0  0  0  0  0  0
  143.7150  146.3789  155.8605 C   0  0  0  0  0  0  0  0  0  0  0  0
  144.4810  143.6230  157.3001 N   0  0  0  0  0  0  0  0  0  0  0  0
  143.6510  143.4654  158.3448 C   0  0  0  0  0  0  0  0  0  0  0  0
  142.6996  142.6848  158.3300 O   0  0  0  0  0  0  0  0  0  0  0  0
  143.9094  144.3159  159.6005 C   0  0  0  0  0  0  0  0  0  0  0  0
  145.3190  144.3564  160.0335 N   0  0  0  0  0  0  0  0  0  0  0  0
  145.9191  145.6191  160.1847 C   0  0  0  0  0  0  0  0  0  0  0  0
  147.1934  145.7550  160.5986 C   0  0  0  0  0  0  0  0  0  0  0  0
  147.9562  144.5484  160.8935 C   0  0  0  0  0  0  0  0  0  0  0  0
  149.1206  144.6536  161.2739 O   0  0  0  0  0  0  0  0  0  0  0  0
  147.3300  143.3462  160.7310 N   0  5  0  0  0  0  0  0  0  0  0  0
  146.0329  143.2229  160.3107 C   0  0  0  0  0  0  0  0  0  0  0  0
  145.4830  142.1286  160.1834 O   0  0  0  0  0  0  0  0  0  0  0  0
  146.5782  140.3353  153.0515 H   0  0  0  0  0  0  0  0  0  0  0  0
  147.2126  140.1291  154.6876 H   0  0  0  0  0  0  0  0  0  0  0  0
  147.6563  141.5564  153.7355 H   0  0  0  0  0  0  0  0  0  0  0  0
  144.8380  141.5296  153.9492 H   0  0  0  0  0  0  0  0  0  0  0  0
  143.5582  142.2336  156.0229 H   0  0  0  0  0  0  0  0  0  0  0  0
  145.0126  144.5651  154.6880 H   0  0  0  0  0  0  0  0  0  0  0  0
  143.7606  143.5674  154.0060 H   0  0  0  0  0  0  0  0  0  0  0  0
  142.4204  144.7208  156.1404 H   0  0  0  0  0  0  0  0  0  0  0  0
  142.6322  145.8238  153.2965 H   0  0  0  0  0  0  0  0  0  0  0  0
  141.3782  146.2453  154.4595 H   0  0  0  0  0  0  0  0  0  0  0  0
  141.4885  144.6039  153.8576 H   0  0  0  0  0  0  0  0  0  0  0  0
  144.3436  146.8419  155.0995 H   0  0  0  0  0  0  0  0  0  0  0  0
  144.3454  146.1502  156.7204 H   0  0  0  0  0  0  0  0  0  0  0  0
  142.9812  147.1184  156.1823 H   0  0  0  0  0  0  0  0  0  0  0  0
  145.2370  144.2845  157.4048 H   0  0  0  0  0  0  0  0  0  0  0  0
  143.5447  145.3282  159.4175 H   0  0  0  0  0  0  0  0  0  0  0  0
  143.2803  143.9295  160.4034 H   0  0  0  0  0  0  0  0  0  0  0  0
  145.2838  146.4612  159.9531 H   0  0  0  0  0  0  0  0  0  0  0  0
  147.6386  146.7323  160.7132 H   0  0  0  0  0  0  0  0  0  0  0  0
  1  2  1  0  0  0  0
  1 22  1  0  0  0  0
  1 23  1  0  0  0  0
  1 24  1  0  0  0  0
  2  3  1  0  0  0  0
  2 25  1  0  0  0  0
  3  4  2  0  0  0  0
  3  5  1  0  0  0  0
  5  6  1  0  0  0  0
  5 10  1  0  0  0  0
  5 26  1  0  0  0  0
  6  7  1  0  0  0  0
  6 27  1  0  0  0  0
  6 28  1  0  0  0  0
  7  8  1  0  0  0  0
  7  9  1  0  0  0  0
  7 29  1  0  0  0  0
  8 30  1  0  0  0  0
  8 31  1  0  0  0  0
  8 32  1  0  0  0  0
  9 33  1  0  0  0  0
  9 34  1  0  0  0  0
  9 35  1  0  0  0  0
 10 11  1  0  0  0  0
 10 36  1  0  0  0  0
 11 12  2  0  0  0  0
 11 13  1  0  0  0  0
 13 14  1  0  0  0  0
 13 37  1  0  0  0  0
 13 38  1  0  0  0  0
 14 20  1  0  0  0  0
 14 15  1  0  0  0  0
 15 16  2  0  0  0  0
 15 39  1  0  0  0  0
 16 17  1  0  0  0  0
 16 40  1  0  0  0  0
 17 18  2  0  0  0  0
 17 19  1  0  0  0  0
 19 20  1  0  0  0  0
 20 21  2  0  0  0  0
M  CHG  1  19  -1
M  END
> <s_m_source_file>
AV-unprocessed.smi

> <i_m_source_file_index>
1575

> <i_lp_mmshare_version>
43012

> <i_f3d_flags>
0

> <s_epik_input>
W0NIM11bTkhdQyg9TylbQ0BIXShbQ0gyXVtDSF0oW0NIM10pW0NIM10pW05IXUMoPU8pW0NIMl1uMVtjSF1bY0hdYyg9TylbbkhdYzE9Tw==

> <s_epik_cmdline>
J2VwaWtfcHl0aG9uJywgJy1waCcsICc3LjAnLCAnLXRuJywgJzgnLCAnLW1hJywgJzIwMCcsICctbWV0YWxfYmluZGluZycsICctaW1hZScsICc8aW5maWxlLm1hZT4nLCAnLW9tYWUnLCAnPG91dGZpbGUubWFlPic=

> <r_lp_tautomer_probability>
0.999537

> <r_epik_Ionization_Penalty>
3.03017

> <r_epik_Ionization_Penalty_Charging>
2.35557e-08

> <r_epik_Ionization_Penalty_Neutral>
3.03017

> <r_epik_State_Penalty>
3.02913

> <r_epik_Charging_Adjusted_Penalty>
3.02913

> <i_epik_Tot_Q>
-1

> <i_epik_Tot_abs_Q>
1

> <r_epik_Metal_State_Penalty>
0.455824

> <b_epik_Metal_Only>
1

> <s_lp_Force_Field>
OPLS_2005

> <r_lp_Energy>
14.6611

> <b_lp_Chiralities_Consistent>
1

> <s_lp_Variant>
AV-unprocessed.smi:1575-3

> <Gold.Version>
5.8.1

> <Gold.Id.Protein>
6NUR|6NUR_protein|mol2

> <Gold.PLP.Fitness>
35.9587

> <Gold.PLP.PLP>
-26.4253

> <Gold.PLP.part.hbond>
-3.6412

> <Gold.PLP.part.metal>
0.0000

> <Gold.PLP.part.buried>
-6.6812

> <Gold.PLP.part.nonpolar>
-17.6543

> <Gold.PLP.part.repulsive>
0.5895

> <Gold.PLP.ligand.clash>
0.0000

> <Gold.PLP.ligand.torsion>
0.9465

> <Gold.PLP.Chemscore.Hbond>
3.7930

> <Gold.PLP.Chemscore.CHOScore>
0.0000

> <Gold.PLP.Chemscore.Metal>
0.0000

> <Gold.Chemscore.Hbonds>
donor molecule, donor type, donor heavy atom, donor atom, acceptor molecule, acceptor atom, score
      L1  H     2    25       P1 10175  0.76
      P1  H  6933  6944       L1    19  1.90
      P1  H  6934  6946       L1    21  1.00

> <Gold.PLP.Chemscore.Internal.Correction>
0.0474

> <Gold.Rescore>
     Score         DG    S(hbond)    S(metal)    S(lipo)     H(rot)  DE(clash)    DE(int)     intcor
      9.58     -11.91       2.60        0.00      40.80       2.74       0.05       2.28       ----

> <Gold.Chemscore.Fitness>
9.5802

> <Gold.Chemscore.DG>
-11.9072

> <Gold.Chemscore.ZeroCoef>
-5.4800

> <Gold.Chemscore.Hbond>
2.5978

> <Gold.Chemscore.Metal>
0.0000

> <Gold.Chemscore.Lipo>
40.8009

> <Gold.Chemscore.Internal_Hbond>
0.0000

> <Gold.Chemscore.DEClash>
0.0520

> <Gold.Chemscore.DEInternal>
2.2750

> <Gold.Chemscore.Rot>
2.7435

> <Gold.Chemscore.Internal.Correction>
   9.000000E+99

> <Gold.Chemscore.Hbonds>
donor molecule, donor type, donor heavy atom, donor atom, acceptor molecule, acceptor atom, score
      L1  H     2    25       P1 10175  0.18
      P1  H  6933  6944       L1    19  0.22
      P1  H  6934  6946       L1    21  0.39

> <Gold.Chemscore.Hbond.Weighted>
-8.6768

> <Gold.Chemscore.Metal.Weighted>
-0.0000

> <Gold.Chemscore.Lipo.Weighted>
-4.7737

> <Gold.Chemscore.Internal_Hbond.Weighted>
0.0000

> <Gold.Chemscore.DEClash.Weighted>
0.0520

> <Gold.Chemscore.DEInternal.Weighted>
2.2750

> <Gold.Chemscore.Rot.Weighted>
7.0233

> <Gold.Chemscore.Internal.Correction.Weighted>
   9.000000E+99

> <Gold.Protein.RotatedTorsions>
[ 6907 6896 6895 6894 ] final   59.57 input  -60.11 | X-H torsion
[ 7974 7965 7964 7962 ] final -137.03 input  175.53 | X-H torsion
[ 8008 7997 7996 7995 ] final   93.67 input   59.86 | X-H torsion
[ 10167 10162 10161 10158 ] final  -41.30 input  -65.29 | X-H torsion
[ 10718 10713 10712 10709 ] final   98.36 input   66.30 | X-H torsion
[ 10763 10752 10751 10750 ] final   76.17 input  -60.55 | X-H torsion
[ 11005 11000 10999 10996 ] final -128.81 input  -57.11 | X-H torsion

> <Gold.Protein.ActiveResidues>
 VAL166  LYS551  ARG553  GLY616  TRP617  ASP618  TYR619  PRO620  LYS621  CYS622 
 ASP623  PHE694  ASN695  SER759  ASP760  ASP761  ALA762  ILE779  LEU786  VAL792 
 PHE793  MET794  SER795  GLU796  ALA797  LYS798  CYS799  TRP800  GLU811  SER814 

> <Gold.Protein.RotatedAtoms>
  152.3926  134.6416  160.0101 H   0  0  0  0  0  0  0  0  0  0  0  0  # atno 6907 bound_to 6896
  151.6645  133.3310  159.3190 H   0  0  0  0  0  0  0  0  0  0  0  0  # atno 6908 bound_to 6896
  150.7840  134.6852  159.6511 H   0  0  0  0  0  0  0  0  0  0  0  0  # atno 6909 bound_to 6896
  144.8877  140.6597  143.5165 H   0  0  0  0  0  0  0  0  0  0  0  0  # atno 7974 bound_to 7965
  156.0493  140.3310  155.7332 H   0  0  0  0  0  0  0  0  0  0  0  0  # atno 8008 bound_to 7997
  155.5625  140.0620  157.2843 H   0  0  0  0  0  0  0  0  0  0  0  0  # atno 8009 bound_to 7997
  154.4428  140.1875  156.0786 H   0  0  0  0  0  0  0  0  0  0  0  0  # atno 8010 bound_to 7997
  140.7007  143.3102  151.3047 H   0  0  0  0  0  0  0  0  0  0  0  0  # atno 10167 bound_to 10162
  157.6897  131.0637  150.4784 H   0  0  0  0  0  0  0  0  0  0  0  0  # atno 10718 bound_to 10713
  153.0706  135.4961  154.8296 H   0  0  0  0  0  0  0  0  0  0  0  0  # atno 10763 bound_to 10752
  154.7017  135.3003  154.9333 H   0  0  0  0  0  0  0  0  0  0  0  0  # atno 10764 bound_to 10752
  154.0055  135.6761  153.4815 H   0  0  0  0  0  0  0  0  0  0  0  0  # atno 10765 bound_to 10752
  140.9485  134.1098  157.4085 H   0  0  0  0  0  0  0  0  0  0  0  0  # atno 11005 bound_to 11000
  145.3840  139.1631  143.4265 LP  0  0  0  0  0  0  0  0  0  0  0  0  # atno 17320 bound_to 7965
  146.3034  140.3923  142.8696 LP  0  0  0  0  0  0  0  0  0  0  0  0  # atno 17321 bound_to 7965
  139.6523  144.0340  152.2635 LP  0  0  0  0  0  0  0  0  0  0  0  0  # atno 17342 bound_to 10162
  139.9881  144.6381  150.7839 LP  0  0  0  0  0  0  0  0  0  0  0  0  # atno 17343 bound_to 10162
  156.5117  130.4141  149.6297 LP  0  0  0  0  0  0  0  0  0  0  0  0  # atno 17370 bound_to 10713
  156.3234  130.7293  151.2209 LP  0  0  0  0  0  0  0  0  0  0  0  0  # atno 17371 bound_to 10713
  139.8840  135.0058  156.6341 LP  0  0  0  0  0  0  0  0  0  0  0  0  # atno 17394 bound_to 11000
  140.7636  133.8797  155.8437 LP  0  0  0  0  0  0  0  0  0  0  0  0  # atno 17395 bound_to 11000

$$$$
