AV-unprocessed.smi:1824|AV-procd|sdf|7400|dock4
  -GOLD-   22720 9 73D 1   1.00000     0.00000
 Structure written by MMmdl.
 45 47  0  0  0  0  0  0  0  0  2 V2000
  147.0495  139.7133  152.8296 C   0  0  0  0  0  0  0  0  0  0  0  0
  147.2823  140.2407  154.2496 C   0  0  1  0  0  0  0  0  0  0  0  0
  148.2111  141.4714  154.2654 C   0  0  0  0  0  0  0  0  0  0  0  0
  148.3574  142.0181  155.6361 N   0  3  2  0  0  0  0  0  0  0  0  0
  149.2891  141.2384  156.4956 C   0  0  0  0  0  0  0  0  0  0  0  0
  150.7608  141.3959  156.0647 C   0  0  2  0  0  0  0  0  0  0  0  0
  151.0195  140.5006  154.9999 O   0  0  0  0  0  0  0  0  0  0  0  0
  151.7302  141.1007  157.2258 C   0  0  0  0  0  0  0  0  0  0  0  0
  151.6852  142.1212  158.2584 N   0  0  0  0  0  0  0  0  0  0  0  0
  150.9719  143.2636  158.2345 C   0  0  0  0  0  0  0  0  0  0  0  0
  151.0763  144.0692  159.2870 N   0  0  0  0  0  0  0  0  0  0  0  0
  151.9566  143.3664  160.0916 C   0  0  0  0  0  0  0  0  0  0  0  0
  152.4840  143.6787  161.3648 C   0  0  0  0  0  0  0  0  0  0  0  0
  153.3811  142.7973  162.0032 C   0  0  0  0  0  0  0  0  0  0  0  0
  153.8762  143.1120  163.2238 F   0  0  0  0  0  0  0  0  0  0  0  0
  153.7651  141.5924  161.3777 C   0  0  0  0  0  0  0  0  0  0  0  0
  154.6284  140.7526  161.9964 F   0  0  0  0  0  0  0  0  0  0  0  0
  153.2526  141.2596  160.1089 C   0  0  0  0  0  0  0  0  0  0  0  0
  152.3566  142.1414  159.4767 C   0  0  0  0  0  0  0  0  0  0  0  0
  147.0236  142.2788  156.2353 C   0  0  0  0  0  0  0  0  0  0  0  0
  146.1063  141.0392  156.1497 C   0  0  1  0  0  0  0  0  0  0  0  0
  144.6868  141.3397  156.6426 C   0  0  0  0  0  0  0  0  0  0  0  0
  146.0204  140.6104  154.7950 O   0  0  0  0  0  0  0  0  0  0  0  0
  147.9880  139.4110  152.3640 H   0  0  0  0  0  0  0  0  0  0  0  0
  146.5910  140.4729  152.1956 H   0  0  0  0  0  0  0  0  0  0  0  0
  146.3894  138.8457  152.8390 H   0  0  0  0  0  0  0  0  0  0  0  0
  147.7138  139.4372  154.8490 H   0  0  0  0  0  0  0  0  0  0  0  0
  149.1876  141.2309  153.8432 H   0  0  0  0  0  0  0  0  0  0  0  0
  147.7900  142.2530  153.6315 H   0  0  0  0  0  0  0  0  0  0  0  0
  149.1677  141.5298  157.5387 H   0  0  0  0  0  0  0  0  0  0  0  0
  149.0307  140.1792  156.4499 H   0  0  0  0  0  0  0  0  0  0  0  0
  150.9463  142.4092  155.7094 H   0  0  0  0  0  0  0  0  0  0  0  0
  150.2264  140.0221  154.8091 H   0  0  0  0  0  0  0  0  0  0  0  0
  151.4844  140.1423  157.6855 H   0  0  0  0  0  0  0  0  0  0  0  0
  152.7546  141.0155  156.8606 H   0  0  0  0  0  0  0  0  0  0  0  0
  150.3422  143.5197  157.3949 H   0  0  0  0  0  0  0  0  0  0  0  0
  152.1980  144.5989  161.8525 H   0  0  0  0  0  0  0  0  0  0  0  0
  153.5466  140.3380  159.6292 H   0  0  0  0  0  0  0  0  0  0  0  0
  147.1157  142.6184  157.2660 H   0  0  0  0  0  0  0  0  0  0  0  0
  146.5665  143.1031  155.6857 H   0  0  0  0  0  0  0  0  0  0  0  0
  146.5091  140.2269  156.7556 H   0  0  0  0  0  0  0  0  0  0  0  0
  144.6925  141.6665  157.6827 H   0  0  0  0  0  0  0  0  0  0  0  0
  144.0562  140.4526  156.5774 H   0  0  0  0  0  0  0  0  0  0  0  0
  144.2194  142.1246  156.0471 H   0  0  0  0  0  0  0  0  0  0  0  0
  148.8058  142.9168  155.5245 H   0  0  0  0  0  0  0  0  0  0  0  0
  1  2  1  0  0  0  0
  1 24  1  0  0  0  0
  1 25  1  0  0  0  0
  1 26  1  0  0  0  0
  2 23  1  0  0  0  0
  2  3  1  0  0  0  0
  2 27  1  0  0  0  0
  3  4  1  0  0  0  0
  3 28  1  0  0  0  0
  3 29  1  0  0  0  0
  4  5  1  0  0  0  0
  4 20  1  0  0  0  0
  4 45  1  0  0  0  0
  5  6  1  0  0  0  0
  5 30  1  0  0  0  0
  5 31  1  0  0  0  0
  6  7  1  0  0  0  0
  6  8  1  0  0  0  0
  6 32  1  0  0  0  0
  7 33  1  0  0  0  0
  8  9  1  0  0  0  0
  8 34  1  0  0  0  0
  8 35  1  0  0  0  0
  9 19  1  0  0  0  0
  9 10  1  0  0  0  0
 10 11  2  0  0  0  0
 10 36  1  0  0  0  0
 11 12  1  0  0  0  0
 12 19  2  0  0  0  0
 12 13  1  0  0  0  0
 13 14  2  0  0  0  0
 13 37  1  0  0  0  0
 14 15  1  0  0  0  0
 14 16  1  0  0  0  0
 16 17  1  0  0  0  0
 16 18  2  0  0  0  0
 18 19  1  0  0  0  0
 18 38  1  0  0  0  0
 20 21  1  0  0  0  0
 20 39  1  0  0  0  0
 20 40  1  0  0  0  0
 21 22  1  0  0  0  0
 21 23  1  0  0  0  0
 21 41  1  0  0  0  0
 22 42  1  0  0  0  0
 22 43  1  0  0  0  0
 22 44  1  0  0  0  0
M  CHG  1   4   1
M  END
> <s_m_source_file>
AV-unprocessed.smi

> <i_m_source_file_index>
1824

> <i_lp_mmshare_version>
43012

> <i_f3d_flags>
0

> <s_epik_input>
W0NIM11bQ0BASF0xW0NIMl1OKFtDSDJdW0NASF0oTzEpW0NIM10pW0NIMl1bQ0BIXShbT0hdKVtDSDJdbihbY0hdbjIpYyhjMjMpW2NIXWMoRiljKEYpW2NIXTM=

> <s_epik_cmdline>
J2VwaWtfcHl0aG9uJywgJy1waCcsICc3LjAnLCAnLXRuJywgJzgnLCAnLW1hJywgJzIwMCcsICctbWV0YWxfYmluZGluZycsICctaW1hZScsICc8aW5maWxlLm1hZT4nLCAnLW9tYWUnLCAnPG91dGZpbGUubWFlPic=

> <r_epik_Ionization_Penalty>
0.61967

> <r_epik_Ionization_Penalty_Charging>
0.608065

> <r_epik_Ionization_Penalty_Neutral>
0.0116057

> <r_epik_State_Penalty>
0.664205

> <r_epik_Charging_Adjusted_Penalty>
1.27227

> <i_epik_Tot_Q>
1

> <i_epik_Tot_abs_Q>
1

> <r_epik_Metal_State_Penalty>
0.654947

> <b_epik_Metal_Only>
0

> <s_lp_Force_Field>
OPLS_2005

> <r_lp_Energy>
21.7037

> <b_lp_Chiralities_Consistent>
1

> <s_lp_Variant>
AV-unprocessed.smi:1824-8

> <Gold.Version>
5.8.1

> <Gold.Id.Protein>
6NUR|6NUR_protein|mol2

> <Gold.PLP.Fitness>
59.1785

> <Gold.PLP.PLP>
-48.0240

> <Gold.PLP.part.hbond>
-2.0000

> <Gold.PLP.part.metal>
0.0000

> <Gold.PLP.part.buried>
-4.3101

> <Gold.PLP.part.nonpolar>
-41.1528

> <Gold.PLP.part.repulsive>
0.3128

> <Gold.PLP.ligand.clash>
0.0000

> <Gold.PLP.ligand.torsion>
0.4286

> <Gold.PLP.Chemscore.Hbond>
2.9920

> <Gold.PLP.Chemscore.CHOScore>
1.0000

> <Gold.PLP.Chemscore.Metal>
0.0000

> <Gold.Chemscore.Hbonds>
donor molecule, donor type, donor heavy atom, donor atom, acceptor molecule, acceptor atom, score
      L1  H     4    45       P1  8028  2.00
      P1  H  7989  7998       L1     7  1.00
      L1  C    10    36       P1  8028  0.95

> <Gold.PLP.Chemscore.Internal.Correction>
0.0357

> <Gold.Rescore>
     Score         DG    S(hbond)    S(metal)    S(lipo)     H(rot)  DE(clash)    DE(int)     intcor
     13.95     -15.32       0.99        0.00     106.74       2.33       0.16       1.21       ----

> <Gold.Chemscore.Fitness>
13.9496

> <Gold.Chemscore.DG>
-15.3225

> <Gold.Chemscore.ZeroCoef>
-5.4800

> <Gold.Chemscore.Hbond>
0.9900

> <Gold.Chemscore.Metal>
0.0000

> <Gold.Chemscore.Lipo>
106.7360

> <Gold.Chemscore.Internal_Hbond>
0.0000

> <Gold.Chemscore.DEClash>
0.1634

> <Gold.Chemscore.DEInternal>
1.2095

> <Gold.Chemscore.Rot>
2.3251

> <Gold.Chemscore.Internal.Correction>
   9.000000E+99

> <Gold.Chemscore.Hbonds>
donor molecule, donor type, donor heavy atom, donor atom, acceptor molecule, acceptor atom, score
      L1  H     4    45       P1  8028  0.97
      P1  H  7989  7998       L1     7  0.43

> <Gold.Chemscore.Hbond.Weighted>
-3.3067

> <Gold.Chemscore.Metal.Weighted>
-0.0000

> <Gold.Chemscore.Lipo.Weighted>
-12.4881

> <Gold.Chemscore.Internal_Hbond.Weighted>
0.0000

> <Gold.Chemscore.DEClash.Weighted>
0.1634

> <Gold.Chemscore.DEInternal.Weighted>
1.2095

> <Gold.Chemscore.Rot.Weighted>
5.9523

> <Gold.Chemscore.Internal.Correction.Weighted>
   9.000000E+99

> <Gold.Protein.RotatedTorsions>
[ 6907 6896 6895 6894 ] final  -99.88 input  -60.11 | X-H torsion
[ 7974 7965 7964 7962 ] final -117.38 input  175.53 | X-H torsion
[ 8008 7997 7996 7995 ] final  -58.27 input   59.86 | X-H torsion
[ 10167 10162 10161 10158 ] final  -26.61 input  -65.29 | X-H torsion
[ 10718 10713 10712 10709 ] final -167.50 input   66.30 | X-H torsion
[ 10763 10752 10751 10750 ] final -119.14 input  -60.55 | X-H torsion
[ 11005 11000 10999 10996 ] final  134.92 input  -57.11 | X-H torsion

> <Gold.Protein.ActiveResidues>
 VAL166  LYS551  ARG553  GLY616  TRP617  ASP618  TYR619  PRO620  LYS621  CYS622 
 ASP623  PHE694  ASN695  SER759  ASP760  ASP761  ALA762  ILE779  LEU786  VAL792 
 PHE793  MET794  SER795  GLU796  ALA797  LYS798  CYS799  TRP800  GLU811  SER814 

> <Gold.Protein.RotatedAtoms>
  150.7096  134.0972  159.3952 H   0  0  0  0  0  0  0  0  0  0  0  0  # atno 6907 bound_to 6896
  151.8958  135.0396  160.0511 H   0  0  0  0  0  0  0  0  0  0  0  0  # atno 6908 bound_to 6896
  152.2454  133.5135  159.5331 H   0  0  0  0  0  0  0  0  0  0  0  0  # atno 6909 bound_to 6896
  145.0859  140.8457  143.4011 H   0  0  0  0  0  0  0  0  0  0  0  0  # atno 7974 bound_to 7965
  154.4302  140.1088  156.5931 H   0  0  0  0  0  0  0  0  0  0  0  0  # atno 8008 bound_to 7997
  155.5991  140.3493  155.4570 H   0  0  0  0  0  0  0  0  0  0  0  0  # atno 8009 bound_to 7997
  156.0187  140.1235  157.0369 H   0  0  0  0  0  0  0  0  0  0  0  0  # atno 8010 bound_to 7997
  140.7282  143.4164  151.1022 H   0  0  0  0  0  0  0  0  0  0  0  0  # atno 10167 bound_to 10162
  156.6832  130.9130  151.3060 H   0  0  0  0  0  0  0  0  0  0  0  0  # atno 10718 bound_to 10713
  154.8608  135.4249  154.2251 H   0  0  0  0  0  0  0  0  0  0  0  0  # atno 10763 bound_to 10752
  153.3248  135.6984  153.7005 H   0  0  0  0  0  0  0  0  0  0  0  0  # atno 10764 bound_to 10752
  153.6045  135.3530  155.2931 H   0  0  0  0  0  0  0  0  0  0  0  0  # atno 10765 bound_to 10752
  139.9946  134.9502  156.9934 H   0  0  0  0  0  0  0  0  0  0  0  0  # atno 11005 bound_to 11000
  145.1123  139.2749  143.5631 LP  0  0  0  0  0  0  0  0  0  0  0  0  # atno 17320 bound_to 7965
  146.3531  140.0722  142.8622 LP  0  0  0  0  0  0  0  0  0  0  0  0  # atno 17321 bound_to 7965
  139.7804  143.8364  152.3136 LP  0  0  0  0  0  0  0  0  0  0  0  0  # atno 17342 bound_to 10162
  139.8313  144.7252  150.9447 LP  0  0  0  0  0  0  0  0  0  0  0  0  # atno 17343 bound_to 10162
  157.7036  130.9360  150.0860 LP  0  0  0  0  0  0  0  0  0  0  0  0  # atno 17370 bound_to 10713
  156.1852  130.3652  149.8982 LP  0  0  0  0  0  0  0  0  0  0  0  0  # atno 17371 bound_to 10713
  140.4843  134.1257  155.7222 LP  0  0  0  0  0  0  0  0  0  0  0  0  # atno 17394 bound_to 11000
  141.1594  133.8822  157.1890 LP  0  0  0  0  0  0  0  0  0  0  0  0  # atno 17395 bound_to 11000

$$$$
