AV-unprocessed.smi:2866|AV-procd|sdf|11020|dock7
  -GOLD-   2272015483D 1   1.00000     0.00000
 Structure written by MMmdl.
 41 43  0  0  0  0  0  0  0  0  1 V2000
  153.0710  142.9079  161.6910 C   0  0  0  0  0  0  0  0  0  0  0  0
  152.5493  142.4407  160.3438 C   0  0  0  0  0  0  0  0  0  0  0  0
  153.0665  141.2519  159.7815 C   0  0  0  0  0  0  0  0  0  0  0  0
  152.6035  140.7798  158.5338 C   0  0  0  0  0  0  0  0  0  0  0  0
  152.9597  139.6546  157.8101 N   0  0  0  0  0  0  0  0  0  0  0  0
  152.1773  139.7651  156.7405 C   0  0  0  0  0  0  0  0  0  0  0  0
  151.3555  140.8306  156.6850 N   0  0  0  0  0  0  0  0  0  0  0  0
  150.4178  141.1536  155.6245 C   0  0  0  0  0  0  0  0  0  0  0  0
  148.9557  141.1766  156.1190 C   0  0  1  0  0  0  0  0  0  0  0  0
  148.6307  142.4641  156.6046 O   0  0  0  0  0  0  0  0  0  0  0  0
  147.9310  140.8031  155.0294 C   0  0  0  0  0  0  0  0  0  0  0  0
  146.9859  141.8694  154.7495 N   0  0  0  0  0  0  0  0  0  0  0  0
  146.8365  142.6004  153.5910 C   0  0  0  0  0  0  0  0  0  0  0  0
  145.8309  143.4984  153.8055 C   0  0  0  0  0  0  0  0  0  0  0  0
  145.4205  143.2467  155.1470 C   0  0  0  0  0  0  0  0  0  0  0  0
  144.3401  143.9354  155.9388 C   0  0  0  0  0  0  0  0  0  0  0  0
  144.8356  144.4088  157.0821 F   0  0  0  0  0  0  0  0  0  0  0  0
  143.8393  144.9510  155.2355 F   0  0  0  0  0  0  0  0  0  0  0  0
  143.3611  143.0751  156.2187 F   0  0  0  0  0  0  0  0  0  0  0  0
  146.1221  142.2702  155.7066 N   0  0  0  0  0  0  0  0  0  0  0  0
  151.6035  141.5372  157.8569 C   0  0  0  0  0  0  0  0  0  0  0  0
  151.0832  142.7230  158.4046 C   0  0  0  0  0  0  0  0  0  0  0  0
  151.5542  143.1789  159.6537 C   0  0  0  0  0  0  0  0  0  0  0  0
  150.9813  144.4572  160.2395 C   0  0  0  0  0  0  0  0  0  0  0  0
  153.8374  142.2346  162.0760 H   0  0  0  0  0  0  0  0  0  0  0  0
  152.2620  142.9466  162.4208 H   0  0  0  0  0  0  0  0  0  0  0  0
  153.5109  143.9020  161.6076 H   0  0  0  0  0  0  0  0  0  0  0  0
  153.8238  140.6887  160.3067 H   0  0  0  0  0  0  0  0  0  0  0  0
  152.1999  139.0275  155.9514 H   0  0  0  0  0  0  0  0  0  0  0  0
  150.6927  142.1182  155.1961 H   0  0  0  0  0  0  0  0  0  0  0  0
  150.5436  140.4157  154.8314 H   0  0  0  0  0  0  0  0  0  0  0  0
  148.8543  140.4809  156.9530 H   0  0  0  0  0  0  0  0  0  0  0  0
  149.0936  143.1051  156.0864 H   0  0  0  0  0  0  0  0  0  0  0  0
  148.4417  140.5479  154.0997 H   0  0  0  0  0  0  0  0  0  0  0  0
  147.3691  139.9176  155.3301 H   0  0  0  0  0  0  0  0  0  0  0  0
  147.4495  142.4218  152.7198 H   0  0  0  0  0  0  0  0  0  0  0  0
  145.4464  144.2288  153.1090 H   0  0  0  0  0  0  0  0  0  0  0  0
  150.3243  143.2742  157.8692 H   0  0  0  0  0  0  0  0  0  0  0  0
  150.2296  144.8946  159.5817 H   0  0  0  0  0  0  0  0  0  0  0  0
  151.7683  145.1974  160.3864 H   0  0  0  0  0  0  0  0  0  0  0  0
  150.5087  144.2582  161.2015 H   0  0  0  0  0  0  0  0  0  0  0  0
  1  2  1  0  0  0  0
  1 25  1  0  0  0  0
  1 26  1  0  0  0  0
  1 27  1  0  0  0  0
  2 23  1  0  0  0  0
  2  3  2  0  0  0  0
  3  4  1  0  0  0  0
  3 28  1  0  0  0  0
  4 21  2  0  0  0  0
  4  5  1  0  0  0  0
  5  6  2  0  0  0  0
  6  7  1  0  0  0  0
  6 29  1  0  0  0  0
  7  8  1  0  0  0  0
  7 21  1  0  0  0  0
  8  9  1  0  0  0  0
  8 30  1  0  0  0  0
  8 31  1  0  0  0  0
  9 10  1  0  0  0  0
  9 11  1  0  0  0  0
  9 32  1  0  0  0  0
 10 33  1  0  0  0  0
 11 12  1  0  0  0  0
 11 34  1  0  0  0  0
 11 35  1  0  0  0  0
 12 20  1  0  0  0  0
 12 13  1  0  0  0  0
 13 14  2  0  0  0  0
 13 36  1  0  0  0  0
 14 15  1  0  0  0  0
 14 37  1  0  0  0  0
 15 16  1  0  0  0  0
 15 20  2  0  0  0  0
 16 17  1  0  0  0  0
 16 18  1  0  0  0  0
 16 19  1  0  0  0  0
 21 22  1  0  0  0  0
 22 23  2  0  0  0  0
 22 38  1  0  0  0  0
 23 24  1  0  0  0  0
 24 39  1  0  0  0  0
 24 40  1  0  0  0  0
 24 41  1  0  0  0  0
M  END
> <s_m_source_file>
AV-unprocessed.smi

> <i_m_source_file_index>
2866

> <i_lp_mmshare_version>
43012

> <i_f3d_flags>
0

> <s_epik_input>
W0NIM11jKFtjSF0xKWMoW0NIM10pW2NIXWMoYzEyKW4oW2NIXW4yKVtDSDJdW0NASF0oW09IXSlbQ0gyXW4zW2NIXVtjSF1jKG4zKUMoRikoRilG

> <s_epik_cmdline>
J2VwaWtfcHl0aG9uJywgJy1waCcsICc3LjAnLCAnLXRuJywgJzgnLCAnLW1hJywgJzIwMCcsICctbWV0YWxfYmluZGluZycsICctaW1hZScsICc8aW5maWxlLm1hZT4nLCAnLW9tYWUnLCAnPG91dGZpbGUubWFlPic=

> <r_lp_tautomer_probability>
1

> <r_epik_Ionization_Penalty>
0.1021

> <r_epik_Ionization_Penalty_Charging>
0

> <r_epik_Ionization_Penalty_Neutral>
0.1021

> <r_epik_State_Penalty>
0.0920694

> <r_epik_Charging_Adjusted_Penalty>
0.0920694

> <i_epik_Tot_Q>
0

> <i_epik_Tot_abs_Q>
0

> <r_epik_Metal_State_Penalty>
0.0784291

> <b_epik_Metal_Only>
0

> <s_lp_Force_Field>
OPLS_2005

> <r_lp_Energy>
10.7654

> <b_lp_Chiralities_Consistent>
1

> <s_lp_Variant>
AV-unprocessed.smi:2866-2

> <Gold.Version>
5.8.1

> <Gold.Id.Protein>
6NUR|6NUR_protein|mol2

> <Gold.PLP.Fitness>
50.0784

> <Gold.PLP.PLP>
-47.2395

> <Gold.PLP.part.hbond>
-1.7427

> <Gold.PLP.part.metal>
0.0000

> <Gold.PLP.part.buried>
-6.7260

> <Gold.PLP.part.nonpolar>
-38.0129

> <Gold.PLP.part.repulsive>
0.1347

> <Gold.PLP.ligand.clash>
0.0000

> <Gold.PLP.ligand.torsion>
1.2050

> <Gold.PLP.Chemscore.Hbond>
1.7360

> <Gold.PLP.Chemscore.CHOScore>
0.0000

> <Gold.PLP.Chemscore.Metal>
0.0000

> <Gold.Chemscore.Hbonds>
donor molecule, donor type, donor heavy atom, donor atom, acceptor molecule, acceptor atom, score
      L1  H    10    33       P1  8028  0.74
      P1  H  7997  8009       L1     5  1.00

> <Gold.PLP.Chemscore.Internal.Correction>
0.0409

> <Gold.Rescore>
     Score         DG    S(hbond)    S(metal)    S(lipo)     H(rot)  DE(clash)    DE(int)     intcor
     11.84     -14.61       0.70        0.00     111.26       2.42       0.09       2.68       ----

> <Gold.Chemscore.Fitness>
11.8442

> <Gold.Chemscore.DG>
-14.6138

> <Gold.Chemscore.ZeroCoef>
-5.4800

> <Gold.Chemscore.Hbond>
0.6956

> <Gold.Chemscore.Metal>
0.0000

> <Gold.Chemscore.Lipo>
111.2555

> <Gold.Chemscore.Internal_Hbond>
0.0000

> <Gold.Chemscore.DEClash>
0.0853

> <Gold.Chemscore.DEInternal>
2.6844

> <Gold.Chemscore.Rot>
2.4243

> <Gold.Chemscore.Internal.Correction>
   9.000000E+99

> <Gold.Chemscore.Hbonds>
donor molecule, donor type, donor heavy atom, donor atom, acceptor molecule, acceptor atom, score
      L1  H    10    33       P1  8028  0.72
      P1  H  7997  8009       L1     5  0.19

> <Gold.Chemscore.Hbond.Weighted>
-2.3232

> <Gold.Chemscore.Metal.Weighted>
-0.0000

> <Gold.Chemscore.Lipo.Weighted>
-13.0169

> <Gold.Chemscore.Internal_Hbond.Weighted>
0.0000

> <Gold.Chemscore.DEClash.Weighted>
0.0853

> <Gold.Chemscore.DEInternal.Weighted>
2.6844

> <Gold.Chemscore.Rot.Weighted>
6.2063

> <Gold.Chemscore.Internal.Correction.Weighted>
   9.000000E+99

> <Gold.Protein.RotatedTorsions>
[ 6907 6896 6895 6894 ] final   87.77 input  -60.11 | X-H torsion
[ 7974 7965 7964 7962 ] final  -78.77 input  175.53 | X-H torsion
[ 8008 7997 7996 7995 ] final  148.63 input   59.86 | X-H torsion
[ 10167 10162 10161 10158 ] final   37.49 input  -65.29 | X-H torsion
[ 10718 10713 10712 10709 ] final   16.78 input   66.30 | X-H torsion
[ 10763 10752 10751 10750 ] final  -20.53 input  -60.55 | X-H torsion
[ 11005 11000 10999 10996 ] final  -46.19 input  -57.11 | X-H torsion

> <Gold.Protein.ActiveResidues>
 VAL166  LYS551  ARG553  GLY616  TRP617  ASP618  TYR619  PRO620  LYS621  CYS622 
 ASP623  PHE694  ASN695  SER759  ASP760  ASP761  ALA762  ILE779  LEU786  VAL792 
 PHE793  MET794  SER795  GLU796  ALA797  LYS798  CYS799  TRP800  GLU811  SER814 

> <Gold.Protein.RotatedAtoms>
  152.5416  134.2225  159.8792 H   0  0  0  0  0  0  0  0  0  0  0  0  # atno 6907 bound_to 6896
  151.2201  133.4500  159.2608 H   0  0  0  0  0  0  0  0  0  0  0  0  # atno 6908 bound_to 6896
  151.0814  134.9873  159.8413 H   0  0  0  0  0  0  0  0  0  0  0  0  # atno 6909 bound_to 6896
  145.5821  140.9446  143.1338 H   0  0  0  0  0  0  0  0  0  0  0  0  # atno 7974 bound_to 7965
  156.2784  140.2123  156.5729 H   0  0  0  0  0  0  0  0  0  0  0  0  # atno 8008 bound_to 7997
  154.7121  140.0511  157.0583 H   0  0  0  0  0  0  0  0  0  0  0  0  # atno 8009 bound_to 7997
  155.0592  140.3164  155.4669 H   0  0  0  0  0  0  0  0  0  0  0  0  # atno 8010 bound_to 7997
  140.4028  144.1700  150.6134 H   0  0  0  0  0  0  0  0  0  0  0  0  # atno 10167 bound_to 10162
  157.0727  130.6355  149.5809 H   0  0  0  0  0  0  0  0  0  0  0  0  # atno 10718 bound_to 10713
  153.6219  135.6992  153.5307 H   0  0  0  0  0  0  0  0  0  0  0  0  # atno 10763 bound_to 10752
  153.2930  135.4151  155.1184 H   0  0  0  0  0  0  0  0  0  0  0  0  # atno 10764 bound_to 10752
  154.8541  135.3630  154.5760 H   0  0  0  0  0  0  0  0  0  0  0  0  # atno 10765 bound_to 10752
  141.0563  133.6724  156.3120 H   0  0  0  0  0  0  0  0  0  0  0  0  # atno 11005 bound_to 11000
  144.7389  139.7505  143.7318 LP  0  0  0  0  0  0  0  0  0  0  0  0  # atno 17320 bound_to 7965
  146.1709  139.4859  142.9928 LP  0  0  0  0  0  0  0  0  0  0  0  0  # atno 17321 bound_to 7965
  140.4722  143.2409  151.9073 LP  0  0  0  0  0  0  0  0  0  0  0  0  # atno 17342 bound_to 10162
  139.4784  144.5358  151.8601 LP  0  0  0  0  0  0  0  0  0  0  0  0  # atno 17343 bound_to 10162
  155.9946  130.5010  150.7425 LP  0  0  0  0  0  0  0  0  0  0  0  0  # atno 17370 bound_to 10713
  157.4865  131.0907  151.0477 LP  0  0  0  0  0  0  0  0  0  0  0  0  # atno 17371 bound_to 10713
  140.5956  134.5606  157.5508 LP  0  0  0  0  0  0  0  0  0  0  0  0  # atno 17394 bound_to 11000
  139.9393  134.7816  156.0719 LP  0  0  0  0  0  0  0  0  0  0  0  0  # atno 17395 bound_to 11000

$$$$
