#       Name:                AV-unprocessed.smi:3131
#       Creating user name   scv26
#       Creation time:       Fri Mar 27 17:31:19 2020


#       File generated by GOLD software.
#

@<TRIPOS>MOLECULE
AV-unprocessed.smi:3131
    46    46     1
SMALL
NO_CHARGES


@<TRIPOS>ATOM
      1 ****        -4.1304   0.6993   0.7241 C.3            1 S1                 0.0000
      2 ****        -3.6315   1.1374  -0.6611 C.3            1 S1                 0.0000
      3 ****        -2.0923   1.1245  -0.8197 C.3            1 S1                 0.0000
      4 ****        -1.6559   1.8748  -2.1018 C.3            1 S1                 0.0000
      5 ****        -1.8343   3.3990  -2.0357 C.3            1 S1                 0.0000
      6 ****        -1.5443  -0.3203  -0.8203 C.3            1 S1                 0.0000
      7 ****        -0.0732  -0.3482  -0.6956 N.4            1 S1                 1.0000
      8 ****         0.5109  -1.7063  -0.6872 C.3            1 S1                 0.0000
      9 ****         2.0483  -1.6709  -0.5490 C.3            1 S1                 0.0000
     10 ****         2.6181  -3.0995  -0.5031 C.3            1 S1                 0.0000
     11 ****         2.5640  -1.0858  -1.7303 O.3            1 S1                 0.0000
     12 ****         2.4644  -0.9044   0.6889 C.2            1 S1                 0.0000
     13 ****         3.1922   0.3197   0.7701 C.2            1 S1                 0.0000
     14 ****         3.3770   0.7313   2.0133 N.2            1 S1                 0.0000
     15 ****         2.7843  -0.2126   2.7709 N.pl3          1 S1                 0.0000
     16 ****         2.7978  -0.0833   4.2122 C.3            1 S1                 0.0000
     17 ****         2.2269  -1.2100   2.0012 C.2            1 S1                 0.0000
     18 ****        -5.2110   0.8249   0.7979 H              1 S1                 0.0000
     19 ****        -3.6758   1.2972   1.5143 H              1 S1                 0.0000
     20 ****        -3.9154  -0.3492   0.9269 H              1 S1                 0.0000
     21 ****        -4.0897   0.5141  -1.4300 H              1 S1                 0.0000
     22 ****        -4.0121   2.1435  -0.8306 H              1 S1                 0.0000
     23 ****        -1.6631   1.6461   0.0375 H              1 S1                 0.0000
     24 ****        -0.6004   1.6864  -2.2986 H              1 S1                 0.0000
     25 ****        -2.1930   1.4797  -2.9650 H              1 S1                 0.0000
     26 ****        -1.4219   3.8714  -2.9277 H              1 S1                 0.0000
     27 ****        -1.3181   3.8199  -1.1725 H              1 S1                 0.0000
     28 ****        -2.8828   3.6883  -1.9752 H              1 S1                 0.0000
     29 ****        -1.9506  -0.8874   0.0159 H              1 S1                 0.0000
     30 ****        -1.8465  -0.8391  -1.7311 H              1 S1                 0.0000
     31 ****         0.3264   0.1636  -1.4694 H              1 S1                 0.0000
     32 ****         0.0779  -2.2630   0.1453 H              1 S1                 0.0000
     33 ****         0.2215  -2.2300  -1.5998 H              1 S1                 0.0000
     34 ****         2.2464  -3.6490   0.3624 H              1 S1                 0.0000
     35 ****         3.7073  -3.0903  -0.4421 H              1 S1                 0.0000
     36 ****         2.3432  -3.6689  -1.3919 H              1 S1                 0.0000
     37 ****         2.3494  -1.6422  -2.4638 H              1 S1                 0.0000
     38 ****         3.5848   0.9228  -0.0354 H              1 S1                 0.0000
     39 ****         2.1993  -0.8747   4.6647 H              1 S1                 0.0000
     40 ****         2.3834   0.8832   4.5015 H              1 S1                 0.0000
     41 ****         3.8218  -0.1592   4.5793 H              1 S1                 0.0000
     42 ****         1.7093  -2.0472   2.4459 H              1 S1                 0.0000
     43 ****         0.1875   0.1155   0.1631 H              1 S1                 0.0000
     44 ****         3.5572  -0.9963  -1.6553 LP             1 S1                 0.0000
     45 ****         2.1570  -0.1821  -1.8633 LP             1 S1                 0.0000
     46 ****         3.8499   1.5567   2.3216 LP             1 S1                 0.0000
@<TRIPOS>BOND
    1    1    2 1     
    2    1   18 1     
    3    1   19 1     
    4    1   20 1     
    5    2    3 1     
    6    2   21 1     
    7    2   22 1     
    8    3    4 1     
    9    3    6 1     
   10    3   23 1     
   11    4    5 1     
   12    4   24 1     
   13    4   25 1     
   14    5   26 1     
   15    5   27 1     
   16    5   28 1     
   17    6    7 1     
   18    6   29 1     
   19    6   30 1     
   20    7    8 1     
   21    7   31 1     
   22    7   43 1     
   23    8    9 1     
   24    8   32 1     
   25    8   33 1     
   26    9   10 1     
   27    9   11 1     
   28    9   12 1     
   29   10   34 1     
   30   10   35 1     
   31   10   36 1     
   32   11   37 1     
   33   12   17 2     
   34   12   13 1     
   35   13   14 2     
   36   13   38 1     
   37   14   15 1     
   38   15   16 1     
   39   15   17 1     
   40   16   39 1     
   41   16   40 1     
   42   16   41 1     
   43   17   42 1     
   44   11   44 1     
   45   11   45 1     
   46   14   46 1     
@<TRIPOS>SUBSTRUCTURE
      1 S1             1
@<TRIPOS>SET
LONE_PAIRS      STATIC     ATOMS    <user>   **** ""
3 44 45 46
DONOR_HYDROGENS      STATIC     ATOMS    <user>   **** ""
3 31 43 37
ATOM$BLUE        STATIC     ATOMS    COLORGROUP SYSTEM
3 44 45 46
ATOM$RED        STATIC     ATOMS    COLORGROUP SYSTEM
3 31 43 37
