AV-unprocessed.smi:2226|AV-procd|sdf|9019|dock7
  -GOLD-   2272012223D 1   1.00000     0.00000
 Structure written by MMmdl.
 39 41  0  0  0  0  0  0  0  0  3 V2000
  146.4263  142.9909  153.3157 C   0  0  0  0  0  0  0  0  0  0  0  0
  147.4357  142.4652  154.2653 N   0  3  2  0  0  0  0  0  0  0  0  0
  148.2116  141.3025  153.7702 C   0  0  2  0  0  0  0  0  0  0  0  0
  147.3307  140.0301  153.6874 C   0  0  0  0  0  0  0  0  0  0  0  0
  146.5726  139.7091  154.9892 C   0  0  0  0  0  0  0  0  0  0  0  0
  145.9785  140.9682  155.6484 C   0  0  0  0  0  0  0  0  0  0  0  0
  146.9259  142.1946  155.6313 C   0  0  1  0  0  0  0  0  0  0  0  0
  148.1261  142.0980  156.5995 C   0  0  0  0  0  0  0  0  0  0  0  0
  149.2347  141.1083  156.1555 C   0  0  2  0  0  0  0  0  0  0  0  0
  150.4836  141.4117  156.8504 N   0  0  0  0  0  0  0  0  0  0  0  0
  150.6460  141.5123  158.1779 C   0  0  0  0  0  0  0  0  0  0  0  0
  149.6843  141.3403  158.9304 O   0  0  0  0  0  0  0  0  0  0  0  0
  151.9117  141.8089  158.5476 N   0  5  0  0  0  0  0  0  0  0  0  0
  152.1284  142.6245  159.5920 C   0  0  0  0  0  0  0  0  0  0  0  0
  151.8093  143.9178  159.6641 N   0  0  0  0  0  0  0  0  0  0  0  0
  152.2258  144.3416  160.9165 C   0  0  0  0  0  0  0  0  0  0  0  0
  152.7905  143.2718  161.5554 C   0  0  0  0  0  0  0  0  0  0  0  0
  152.7390  142.1839  160.7284 O   0  0  0  0  0  0  0  0  0  0  0  0
  149.4879  141.1533  154.6292 C   0  0  0  0  0  0  0  0  0  0  0  0
  145.6320  142.2723  153.1160 H   0  0  0  0  0  0  0  0  0  0  0  0
  146.8963  143.2465  152.3657 H   0  0  0  0  0  0  0  0  0  0  0  0
  145.9694  143.8984  153.7112 H   0  0  0  0  0  0  0  0  0  0  0  0
  148.5463  141.5313  152.7572 H   0  0  0  0  0  0  0  0  0  0  0  0
  146.6015  140.1587  152.8872 H   0  0  0  0  0  0  0  0  0  0  0  0
  147.9361  139.1727  153.3916 H   0  0  0  0  0  0  0  0  0  0  0  0
  145.7734  138.9978  154.7786 H   0  0  0  0  0  0  0  0  0  0  0  0
  147.2222  139.1875  155.6871 H   0  0  0  0  0  0  0  0  0  0  0  0
  145.0573  141.2278  155.1265 H   0  0  0  0  0  0  0  0  0  0  0  0
  145.6771  140.7409  156.6715 H   0  0  0  0  0  0  0  0  0  0  0  0
  146.3423  143.0602  155.9483 H   0  0  0  0  0  0  0  0  0  0  0  0
  148.5638  143.0947  156.6780 H   0  0  0  0  0  0  0  0  0  0  0  0
  147.7797  141.8503  157.6035 H   0  0  0  0  0  0  0  0  0  0  0  0
  148.9513  140.0951  156.4301 H   0  0  0  0  0  0  0  0  0  0  0  0
  151.3014  141.5594  156.2770 H   0  0  0  0  0  0  0  0  0  0  0  0
  152.0892  145.3595  161.2499 H   0  0  0  0  0  0  0  0  0  0  0  0
  153.2430  143.1257  162.5246 H   0  0  0  0  0  0  0  0  0  0  0  0
  150.0536  140.2742  154.3184 H   0  0  0  0  0  0  0  0  0  0  0  0
  150.1290  142.0087  154.4085 H   0  0  0  0  0  0  0  0  0  0  0  0
  148.1050  143.2145  154.3696 H   0  0  0  0  0  0  0  0  0  0  0  0
  1  2  1  0  0  0  0
  1 20  1  0  0  0  0
  1 21  1  0  0  0  0
  1 22  1  0  0  0  0
  2  7  1  0  0  0  0
  2  3  1  0  0  0  0
  2 39  1  0  0  0  0
  3 19  1  0  0  0  0
  3  4  1  0  0  0  0
  3 23  1  0  0  0  0
  4  5  1  0  0  0  0
  4 24  1  0  0  0  0
  4 25  1  0  0  0  0
  5  6  1  0  0  0  0
  5 26  1  0  0  0  0
  5 27  1  0  0  0  0
  6  7  1  0  0  0  0
  6 28  1  0  0  0  0
  6 29  1  0  0  0  0
  7  8  1  0  0  0  0
  7 30  1  0  0  0  0
  8  9  1  0  0  0  0
  8 31  1  0  0  0  0
  8 32  1  0  0  0  0
  9 10  1  0  0  0  0
  9 19  1  0  0  0  0
  9 33  1  0  0  0  0
 10 34  1  0  0  0  0
 10 11  1  0  0  0  0
 11 13  1  0  0  0  0
 11 12  2  0  0  0  0
 13 14  1  0  0  0  0
 14 18  1  0  0  0  0
 14 15  2  0  0  0  0
 15 16  1  0  0  0  0
 16 35  1  0  0  0  0
 16 17  2  0  0  0  0
 17 36  1  0  0  0  0
 17 18  1  0  0  0  0
 19 37  1  0  0  0  0
 19 38  1  0  0  0  0
M  CHG  1   2   1
M  CHG  1  13  -1
M  END
> <s_m_source_file>
AV-unprocessed.smi

> <i_m_source_file_index>
2226

> <i_lp_mmshare_version>
43012

> <i_f3d_flags>
0

> <s_epik_input>
W0NIMl0xW0NIMl1bQ0gyXVtDQEhdKE4oW0NIM10pW0NIXTEyKVtDSDJdW0NASF0oW0NIMl0yKVtOSF1DKD1PKVtOSF1jM25bY0hdW2NIXW8z

> <s_epik_cmdline>
J2VwaWtfcHl0aG9uJywgJy1waCcsICc3LjAnLCAnLXRuJywgJzgnLCAnLW1hJywgJzIwMCcsICctbWV0YWxfYmluZGluZycsICctaW1hZScsICc8aW5maWxlLm1hZT4nLCAnLW9tYWUnLCAnPG91dGZpbGUubWFlPic=

> <r_lp_tautomer_probability>
0.107061

> <r_epik_Ionization_Penalty>
10.5612

> <r_epik_Ionization_Penalty_Charging>
7.48913

> <r_epik_Ionization_Penalty_Neutral>
3.07202

> <r_epik_State_Penalty>
5.6431

> <r_epik_Charging_Adjusted_Penalty>
13.1322

> <i_epik_Tot_Q>
0

> <i_epik_Tot_abs_Q>
2

> <r_epik_Metal_State_Penalty>
1.58163

> <b_epik_Metal_Only>
1

> <s_lp_Force_Field>
OPLS_2005

> <r_lp_Energy>
24.9808

> <b_lp_Chiralities_Consistent>
1

> <s_lp_Variant>
AV-unprocessed.smi:2226-19

> <Gold.Version>
5.8.1

> <Gold.Id.Protein>
6NUR|6NUR_protein|mol2

> <Gold.PLP.Fitness>
36.3322

> <Gold.PLP.PLP>
-32.1432

> <Gold.PLP.part.hbond>
-2.2806

> <Gold.PLP.part.metal>
0.0000

> <Gold.PLP.part.buried>
-3.4780

> <Gold.PLP.part.nonpolar>
-26.5982

> <Gold.PLP.part.repulsive>
0.2046

> <Gold.PLP.ligand.clash>
0.0000

> <Gold.PLP.ligand.torsion>
0.9090

> <Gold.PLP.Chemscore.Hbond>
2.0000

> <Gold.PLP.Chemscore.CHOScore>
0.0000

> <Gold.PLP.Chemscore.Metal>
0.0000

> <Gold.Chemscore.Hbonds>
donor molecule, donor type, donor heavy atom, donor atom, acceptor molecule, acceptor atom, score
      L1  H     2    39       P1  8028  1.60

> <Gold.PLP.Chemscore.Internal.Correction>
0.0070

> <Gold.Rescore>
     Score         DG    S(hbond)    S(metal)    S(lipo)     H(rot)  DE(clash)    DE(int)     intcor
     11.61     -12.81       0.53        0.00      69.55       1.00       0.07       1.13       ----

> <Gold.Chemscore.Fitness>
11.6111

> <Gold.Chemscore.DG>
-12.8119

> <Gold.Chemscore.ZeroCoef>
-5.4800

> <Gold.Chemscore.Hbond>
0.5255

> <Gold.Chemscore.Metal>
0.0000

> <Gold.Chemscore.Lipo>
69.5459

> <Gold.Chemscore.Internal_Hbond>
0.0000

> <Gold.Chemscore.DEClash>
0.0675

> <Gold.Chemscore.DEInternal>
1.1332

> <Gold.Chemscore.Rot>
1.0000

> <Gold.Chemscore.Internal.Correction>
   9.000000E+99

> <Gold.Chemscore.Hbonds>
donor molecule, donor type, donor heavy atom, donor atom, acceptor molecule, acceptor atom, score
      L1  H     2    39       P1  8028  0.72

> <Gold.Chemscore.Hbond.Weighted>
-1.7550

> <Gold.Chemscore.Metal.Weighted>
-0.0000

> <Gold.Chemscore.Lipo.Weighted>
-8.1369

> <Gold.Chemscore.Internal_Hbond.Weighted>
0.0000

> <Gold.Chemscore.DEClash.Weighted>
0.0675

> <Gold.Chemscore.DEInternal.Weighted>
1.1332

> <Gold.Chemscore.Rot.Weighted>
2.5600

> <Gold.Chemscore.Internal.Correction.Weighted>
   9.000000E+99

> <Gold.Protein.RotatedTorsions>
[ 6907 6896 6895 6894 ] final  119.04 input  -60.11 | X-H torsion
[ 7974 7965 7964 7962 ] final  126.30 input  175.53 | X-H torsion
[ 8008 7997 7996 7995 ] final -150.97 input   59.86 | X-H torsion
[ 10167 10162 10161 10158 ] final  -80.06 input  -65.29 | X-H torsion
[ 10718 10713 10712 10709 ] final   90.52 input   66.30 | X-H torsion
[ 10763 10752 10751 10750 ] final -174.25 input  -60.55 | X-H torsion
[ 11005 11000 10999 10996 ] final -125.18 input  -57.11 | X-H torsion

> <Gold.Protein.ActiveResidues>
 VAL166  LYS551  ARG553  GLY616  TRP617  ASP618  TYR619  PRO620  LYS621  CYS622 
 ASP623  PHE694  ASN695  SER759  ASP760  ASP761  ALA762  ILE779  LEU786  VAL792 
 PHE793  MET794  SER795  GLU796  ALA797  LYS798  CYS799  TRP800  GLU811  SER814 

> <Gold.Protein.RotatedAtoms>
  152.4501  133.7611  159.6747 H   0  0  0  0  0  0  0  0  0  0  0  0  # atno 6907 bound_to 6896
  150.8410  133.7926  159.3067 H   0  0  0  0  0  0  0  0  0  0  0  0  # atno 6908 bound_to 6896
  151.5551  135.1069  160.0011 H   0  0  0  0  0  0  0  0  0  0  0  0  # atno 6909 bound_to 6896
  145.0633  139.3787  143.4995 H   0  0  0  0  0  0  0  0  0  0  0  0  # atno 7974 bound_to 7965
  155.6319  140.0692  157.2646 H   0  0  0  0  0  0  0  0  0  0  0  0  # atno 8008 bound_to 7997
  154.4204  140.1766  156.1530 H   0  0  0  0  0  0  0  0  0  0  0  0  # atno 8009 bound_to 7997
  155.9926  140.3344  155.6770 H   0  0  0  0  0  0  0  0  0  0  0  0  # atno 8010 bound_to 7997
  140.4537  143.2475  151.8451 H   0  0  0  0  0  0  0  0  0  0  0  0  # atno 10167 bound_to 10162
  157.6959  131.0374  150.3590 H   0  0  0  0  0  0  0  0  0  0  0  0  # atno 10718 bound_to 10713
  154.5984  135.2852  155.0561 H   0  0  0  0  0  0  0  0  0  0  0  0  # atno 10763 bound_to 10752
  154.1836  135.6452  153.5044 H   0  0  0  0  0  0  0  0  0  0  0  0  # atno 10764 bound_to 10752
  153.0147  135.5429  154.6694 H   0  0  0  0  0  0  0  0  0  0  0  0  # atno 10765 bound_to 10752
  140.9782  134.0710  157.3794 H   0  0  0  0  0  0  0  0  0  0  0  0  # atno 11005 bound_to 11000
  146.3525  140.0342  142.8648 LP  0  0  0  0  0  0  0  0  0  0  0  0  # atno 17320 bound_to 7965
  145.1382  140.9556  143.4504 LP  0  0  0  0  0  0  0  0  0  0  0  0  # atno 17321 bound_to 7965
  139.4799  144.5089  151.8959 LP  0  0  0  0  0  0  0  0  0  0  0  0  # atno 17342 bound_to 10162
  140.4176  144.2286  150.5887 LP  0  0  0  0  0  0  0  0  0  0  0  0  # atno 17343 bound_to 10162
  156.4029  130.3919  149.6947 LP  0  0  0  0  0  0  0  0  0  0  0  0  # atno 17370 bound_to 10713
  156.4258  130.7791  151.2809 LP  0  0  0  0  0  0  0  0  0  0  0  0  # atno 17371 bound_to 10713
  139.8939  135.0133  156.6924 LP  0  0  0  0  0  0  0  0  0  0  0  0  # atno 17394 bound_to 11000
  140.7226  133.9127  155.8157 LP  0  0  0  0  0  0  0  0  0  0  0  0  # atno 17395 bound_to 11000

$$$$
