AV-unprocessed.smi:2618|AV-procd|sdf|10218|dock5
  -GOLD-   2272014223D 1   1.00000     0.00000
 Structure written by MMmdl.
 39 40  0  0  0  0  0  0  0  0  1 V2000
  146.1414  143.1985  153.8778 C   0  0  0  0  0  0  0  0  0  0  0  0
  146.6414  142.5920  155.0563 O   0  0  0  0  0  0  0  0  0  0  0  0
  147.1222  141.2762  154.8298 C   0  0  0  0  0  0  0  0  0  0  0  0
  148.4733  141.3256  154.0990 C   0  0  0  0  0  0  0  0  0  0  0  0
  149.6317  141.0373  155.0159 C   0  0  0  0  0  0  0  0  0  0  0  0
  149.9565  141.8052  155.9881 N   0  0  0  0  0  0  0  0  0  0  0  0
  151.0099  141.3199  156.6453 N   0  0  0  0  0  0  0  0  0  0  0  0
  151.6155  141.9880  157.7154 C   0  0  0  0  0  0  0  0  0  0  0  0
  151.2257  143.2421  157.9767 N   0  0  0  0  0  0  0  0  0  0  0  0
  151.8127  143.8807  159.0115 C   0  0  0  0  0  0  0  0  0  0  0  0
  151.3568  145.2978  159.2851 C   0  0  0  0  0  0  0  0  0  0  0  0
  152.7982  143.2594  159.8042 C   0  0  0  0  0  0  0  0  0  0  0  0
  153.1324  141.9373  159.4488 C   0  0  0  0  0  0  0  0  0  0  0  0
  154.1783  141.1537  160.2126 C   0  0  0  0  0  0  0  0  0  0  0  0
  152.5422  141.3098  158.4086 N   0  0  0  0  0  0  0  0  0  0  0  0
  151.4202  140.0072  156.1238 C   0  0  1  0  0  0  0  0  0  0  0  0
  152.7597  139.9191  155.6652 O   0  0  0  0  0  0  0  0  0  0  0  0
  151.1658  138.8553  157.1366 C   0  0  0  0  0  0  0  0  0  0  0  0
  149.9351  138.9501  157.6433 F   0  0  0  0  0  0  0  0  0  0  0  0
  151.2677  137.6752  156.5227 F   0  0  0  0  0  0  0  0  0  0  0  0
  152.0297  138.8761  158.1508 F   0  0  0  0  0  0  0  0  0  0  0  0
  150.5259  139.8563  154.8857 C   0  0  0  0  0  0  0  0  0  0  0  0
  145.7935  144.2062  154.1042 H   0  0  0  0  0  0  0  0  0  0  0  0
  145.3000  142.6355  153.4714 H   0  0  0  0  0  0  0  0  0  0  0  0
  146.9158  143.2734  153.1133 H   0  0  0  0  0  0  0  0  0  0  0  0
  147.2147  140.7310  155.7712 H   0  0  0  0  0  0  0  0  0  0  0  0
  146.4007  140.7354  154.2157 H   0  0  0  0  0  0  0  0  0  0  0  0
  148.4596  140.5884  153.2949 H   0  0  0  0  0  0  0  0  0  0  0  0
  148.6095  142.2951  153.6192 H   0  0  0  0  0  0  0  0  0  0  0  0
  152.1220  145.8544  159.8266 H   0  0  0  0  0  0  0  0  0  0  0  0
  150.4470  145.2900  159.8856 H   0  0  0  0  0  0  0  0  0  0  0  0
  151.1504  145.8255  158.3530 H   0  0  0  0  0  0  0  0  0  0  0  0
  153.2686  143.7661  160.6341 H   0  0  0  0  0  0  0  0  0  0  0  0
  154.3477  141.5869  161.1989 H   0  0  0  0  0  0  0  0  0  0  0  0
  155.1229  141.1586  159.6682 H   0  0  0  0  0  0  0  0  0  0  0  0
  153.8631  140.1183  160.3467 H   0  0  0  0  0  0  0  0  0  0  0  0
  152.8066  139.2427  155.0075 H   0  0  0  0  0  0  0  0  0  0  0  0
  149.9520  138.9294  154.8840 H   0  0  0  0  0  0  0  0  0  0  0  0
  151.0853  139.9102  153.9507 H   0  0  0  0  0  0  0  0  0  0  0  0
  1  2  1  0  0  0  0
  1 23  1  0  0  0  0
  1 24  1  0  0  0  0
  1 25  1  0  0  0  0
  2  3  1  0  0  0  0
  3  4  1  0  0  0  0
  3 26  1  0  0  0  0
  3 27  1  0  0  0  0
  4  5  1  0  0  0  0
  4 28  1  0  0  0  0
  4 29  1  0  0  0  0
  5 22  1  0  0  0  0
  5  6  2  0  0  0  0
  6  7  1  0  0  0  0
  7  8  1  0  0  0  0
  7 16  1  0  0  0  0
  8 15  1  0  0  0  0
  8  9  2  0  0  0  0
  9 10  1  0  0  0  0
 10 11  1  0  0  0  0
 10 12  2  0  0  0  0
 11 30  1  0  0  0  0
 11 31  1  0  0  0  0
 11 32  1  0  0  0  0
 12 13  1  0  0  0  0
 12 33  1  0  0  0  0
 13 14  1  0  0  0  0
 13 15  2  0  0  0  0
 14 34  1  0  0  0  0
 14 35  1  0  0  0  0
 14 36  1  0  0  0  0
 16 17  1  0  0  0  0
 16 18  1  0  0  0  0
 16 22  1  0  0  0  0
 17 37  1  0  0  0  0
 18 19  1  0  0  0  0
 18 20  1  0  0  0  0
 18 21  1  0  0  0  0
 22 38  1  0  0  0  0
 22 39  1  0  0  0  0
M  END
> <s_m_source_file>
AV-unprocessed.smi

> <i_m_source_file_index>
2618

> <i_lp_mmshare_version>
43012

> <i_f3d_flags>
0

> <s_epik_input>
W0NIM11PW0NIMl1bQ0gyXUMoW0NIMl0xKT1OTihbQ0BAXTEoW09IXSlDKEYpKEYpRiljMm5jKFtDSDNdKVtjSF1jKG4yKVtDSDNd

> <s_epik_cmdline>
J2VwaWtfcHl0aG9uJywgJy1waCcsICc3LjAnLCAnLXRuJywgJzgnLCAnLW1hJywgJzIwMCcsICctbWV0YWxfYmluZGluZycsICctaW1hZScsICc8aW5maWxlLm1hZT4nLCAnLW9tYWUnLCAnPG91dGZpbGUubWFlPic=

> <r_lp_tautomer_probability>
1

> <r_epik_Ionization_Penalty>
0.0648608

> <r_epik_Ionization_Penalty_Charging>
0

> <r_epik_Ionization_Penalty_Neutral>
0.0648608

> <r_epik_State_Penalty>
0.0551477

> <r_epik_Charging_Adjusted_Penalty>
0.0551477

> <i_epik_Tot_Q>
0

> <i_epik_Tot_abs_Q>
0

> <r_epik_Metal_State_Penalty>
0.0550619

> <b_epik_Metal_Only>
0

> <s_epik_Chemistry_Notes>
This compound has an imine and may undergo hydrolysis.

> <s_lp_Force_Field>
OPLS_2005

> <r_lp_Energy>
16.027

> <b_lp_Chiralities_Consistent>
1

> <s_lp_Variant>
AV-unprocessed.smi:2618-1

> <Gold.Version>
5.8.1

> <Gold.Id.Protein>
6NUR|6NUR_protein|mol2

> <Gold.PLP.Fitness>
46.5151

> <Gold.PLP.PLP>
-44.6303

> <Gold.PLP.part.hbond>
-1.0000

> <Gold.PLP.part.metal>
0.0000

> <Gold.PLP.part.buried>
-5.8651

> <Gold.PLP.part.nonpolar>
-37.8550

> <Gold.PLP.part.repulsive>
0.5512

> <Gold.PLP.ligand.clash>
0.0000

> <Gold.PLP.ligand.torsion>
0.6004

> <Gold.PLP.Chemscore.Hbond>
1.0000

> <Gold.PLP.Chemscore.CHOScore>
0.0000

> <Gold.PLP.Chemscore.Metal>
0.0000

> <Gold.Chemscore.Hbonds>
donor molecule, donor type, donor heavy atom, donor atom, acceptor molecule, acceptor atom, score
      P1  H  7997  8008       L1    17  1.00

> <Gold.PLP.Chemscore.Internal.Correction>
0.0857

> <Gold.Rescore>
     Score         DG    S(hbond)    S(metal)    S(lipo)     H(rot)  DE(clash)    DE(int)     intcor
     12.06     -14.39       0.92        0.00      94.51       2.03       0.00       2.33       ----

> <Gold.Chemscore.Fitness>
12.0581

> <Gold.Chemscore.DG>
-14.3906

> <Gold.Chemscore.ZeroCoef>
-5.4800

> <Gold.Chemscore.Hbond>
0.9162

> <Gold.Chemscore.Metal>
0.0000

> <Gold.Chemscore.Lipo>
94.5089

> <Gold.Chemscore.Internal_Hbond>
0.0000

> <Gold.Chemscore.DEClash>
0.0046

> <Gold.Chemscore.DEInternal>
2.3279

> <Gold.Chemscore.Rot>
2.0340

> <Gold.Chemscore.Internal.Correction>
   9.000000E+99

> <Gold.Chemscore.Hbonds>
donor molecule, donor type, donor heavy atom, donor atom, acceptor molecule, acceptor atom, score
      P1  H  7997  8008       L1    17  0.60

> <Gold.Chemscore.Hbond.Weighted>
-3.0602

> <Gold.Chemscore.Metal.Weighted>
-0.0000

> <Gold.Chemscore.Lipo.Weighted>
-11.0575

> <Gold.Chemscore.Internal_Hbond.Weighted>
0.0000

> <Gold.Chemscore.DEClash.Weighted>
0.0046

> <Gold.Chemscore.DEInternal.Weighted>
2.3279

> <Gold.Chemscore.Rot.Weighted>
5.2071

> <Gold.Chemscore.Internal.Correction.Weighted>
   9.000000E+99

> <Gold.Protein.RotatedTorsions>
[ 6907 6896 6895 6894 ] final  125.91 input  -60.11 | X-H torsion
[ 7974 7965 7964 7962 ] final   96.34 input  175.53 | X-H torsion
[ 8008 7997 7996 7995 ] final  -40.98 input   59.86 | X-H torsion
[ 10167 10162 10161 10158 ] final  148.40 input  -65.29 | X-H torsion
[ 10718 10713 10712 10709 ] final   75.71 input   66.30 | X-H torsion
[ 10763 10752 10751 10750 ] final -158.50 input  -60.55 | X-H torsion
[ 11005 11000 10999 10996 ] final -107.92 input  -57.11 | X-H torsion

> <Gold.Protein.ActiveResidues>
 VAL166  LYS551  ARG553  GLY616  TRP617  ASP618  TYR619  PRO620  LYS621  CYS622 
 ASP623  PHE694  ASN695  SER759  ASP760  ASP761  ALA762  ILE779  LEU786  VAL792 
 PHE793  MET794  SER795  GLU796  ALA797  LYS798  CYS799  TRP800  GLU811  SER814 

> <Gold.Protein.RotatedAtoms>
  152.3950  133.6734  159.6268 H   0  0  0  0  0  0  0  0  0  0  0  0  # atno 6907 bound_to 6896
  150.7851  133.8889  159.3316 H   0  0  0  0  0  0  0  0  0  0  0  0  # atno 6908 bound_to 6896
  151.6668  135.0983  160.0241 H   0  0  0  0  0  0  0  0  0  0  0  0  # atno 6909 bound_to 6896
  145.4401  139.2302  143.3097 H   0  0  0  0  0  0  0  0  0  0  0  0  # atno 7974 bound_to 7965
  154.4007  140.1511  156.3115 H   0  0  0  0  0  0  0  0  0  0  0  0  # atno 8008 bound_to 7997
  155.8611  140.3453  155.5735 H   0  0  0  0  0  0  0  0  0  0  0  0  # atno 8009 bound_to 7997
  155.7879  140.0852  157.2015 H   0  0  0  0  0  0  0  0  0  0  0  0  # atno 8010 bound_to 7997
  139.4875  144.5682  151.7105 H   0  0  0  0  0  0  0  0  0  0  0  0  # atno 10167 bound_to 10162
  157.6645  130.9739  150.1392 H   0  0  0  0  0  0  0  0  0  0  0  0  # atno 10718 bound_to 10713
  154.7551  135.3102  154.8485 H   0  0  0  0  0  0  0  0  0  0  0  0  # atno 10763 bound_to 10752
  153.9261  135.6790  153.4750 H   0  0  0  0  0  0  0  0  0  0  0  0  # atno 10764 bound_to 10752
  153.1148  135.4849  154.9026 H   0  0  0  0  0  0  0  0  0  0  0  0  # atno 10765 bound_to 10752
  141.0929  133.9023  157.2033 H   0  0  0  0  0  0  0  0  0  0  0  0  # atno 11005 bound_to 11000
  146.2561  140.5148  142.8873 LP  0  0  0  0  0  0  0  0  0  0  0  0  # atno 17320 bound_to 7965
  144.8127  140.6414  143.6405 LP  0  0  0  0  0  0  0  0  0  0  0  0  # atno 17321 bound_to 7965
  140.5264  144.0799  150.6039 LP  0  0  0  0  0  0  0  0  0  0  0  0  # atno 17342 bound_to 10162
  140.3774  143.2821  152.0209 LP  0  0  0  0  0  0  0  0  0  0  0  0  # atno 17343 bound_to 10162
  156.2219  130.3674  149.8546 LP  0  0  0  0  0  0  0  0  0  0  0  0  # atno 17370 bound_to 10713
  156.6396  130.8699  151.3511 LP  0  0  0  0  0  0  0  0  0  0  0  0  # atno 17371 bound_to 10713
  139.9758  135.0114  156.9628 LP  0  0  0  0  0  0  0  0  0  0  0  0  # atno 17394 bound_to 11000
  140.5210  134.0907  155.7292 LP  0  0  0  0  0  0  0  0  0  0  0  0  # atno 17395 bound_to 11000

$$$$
