#       Name:                AV-unprocessed.smi:826
#       Creating user name   scv26
#       Creation time:       Fri Mar 27 01:30:24 2020


#       File generated by GOLD software.
#

@<TRIPOS>MOLECULE
AV-unprocessed.smi:826
    45    46     1
SMALL
NO_CHARGES


@<TRIPOS>ATOM
      1 ****        -6.4459   2.5543  -1.6774 C.3            1 S1                 0.0000
      2 ****        -5.4928   1.4828  -1.2723 C.2            1 S1                 0.0000
      3 ****        -5.3511   1.0798  -0.0072 N.2            1 S1                 0.0000
      4 ****        -4.4027   0.0749   0.1180 N.2            1 S1                 0.0000
      5 ****        -3.8327  -0.2587  -1.0486 C.2            1 S1                 0.0000
      6 ****        -2.8898  -1.2107  -1.1439 N.pl3          1 S1                -1.0000
      7 ****        -1.5827  -0.8653  -1.1794 C.2            1 S1                 0.0000
      8 ****        -1.1289   0.2810  -1.1369 O.2            1 S1                 0.0000
      9 ****        -0.7483  -1.9120  -1.2725 N.am           1 S1                 0.0000
     10 ****         0.7117  -1.8445  -1.3276 C.3            1 S1                 0.0000
     11 ****         1.2302  -3.1792  -1.8889 C.3            1 S1                 0.0000
     12 ****         1.2926  -1.6533   0.0822 C.2            1 S1                 0.0000
     13 ****         0.9342  -2.3769   1.0131 O.2            1 S1                 0.0000
     14 ****         2.2007  -0.6756   0.2197 N.am           1 S1                 0.0000
     15 ****         2.8599  -0.3148   1.4711 C.3            1 S1                 0.0000
     16 ****         1.9295   0.5035   2.3910 C.3            1 S1                 0.0000
     17 ****         2.7430   1.7171   2.8435 C.3            1 S1                 0.0000
     18 ****         3.7018   1.9765   1.6862 C.3            1 S1                 0.0000
     19 ****         4.0851   0.5780   1.2008 C.3            1 S1                 0.0000
     20 ****        -4.4590   0.6523  -2.4224 S.3            1 S1                 0.0000
     21 ****        -5.9515   3.5248  -1.6377 H              1 S1                 0.0000
     22 ****        -7.3077   2.5708  -1.0094 H              1 S1                 0.0000
     23 ****        -6.7973   2.3802  -2.6945 H              1 S1                 0.0000
     24 ****        -1.1620  -2.8322  -1.2959 H              1 S1                 0.0000
     25 ****         1.0231  -1.0293  -1.9840 H              1 S1                 0.0000
     26 ****         2.3194  -3.1875  -1.9480 H              1 S1                 0.0000
     27 ****         0.8495  -3.3503  -2.8964 H              1 S1                 0.0000
     28 ****         0.9229  -4.0268  -1.2742 H              1 S1                 0.0000
     29 ****         2.4333  -0.1277  -0.5958 H              1 S1                 0.0000
     30 ****         3.1909  -1.2222   1.9793 H              1 S1                 0.0000
     31 ****         1.0534   0.8512   1.8405 H              1 S1                 0.0000
     32 ****         1.5651  -0.0833   3.2348 H              1 S1                 0.0000
     33 ****         2.1169   2.5795   3.0739 H              1 S1                 0.0000
     34 ****         3.3104   1.4667   3.7408 H              1 S1                 0.0000
     35 ****         3.1810   2.5124   0.8914 H              1 S1                 0.0000
     36 ****         4.5669   2.5715   1.9803 H              1 S1                 0.0000
     37 ****         4.9292   0.2151   1.7888 H              1 S1                 0.0000
     38 ****         4.4010   0.5788   0.1567 H              1 S1                 0.0000
     39 ****        -5.8682   1.4581   0.7605 LP             1 S1                 0.0000
     40 ****        -4.1683  -0.3564   0.9893 LP             1 S1                 0.0000
     41 ****        -3.1541  -2.1741  -1.1885 LP             1 S1                 0.0000
     42 ****        -1.7495   1.0622  -1.0695 LP             1 S1                 0.0000
     43 ****        -0.1404   0.4290  -1.1698 LP             1 S1                 0.0000
     44 ****         0.2589  -3.0973   0.8551 LP             1 S1                 0.0000
     45 ****         1.3187  -2.2437   1.9266 LP             1 S1                 0.0000
@<TRIPOS>BOND
    1    1    2 1     
    2    1   21 1     
    3    1   22 1     
    4    1   23 1     
    5    2   20 1     
    6    2    3 2     
    7    3    4 1     
    8    4    5 2     
    9    5    6 1     
   10    5   20 1     
   11    6    7 1     
   12    7    8 2     
   13    7    9 am    
   14    9   10 1     
   15    9   24 1     
   16   10   11 1     
   17   10   12 1     
   18   10   25 1     
   19   11   26 1     
   20   11   27 1     
   21   11   28 1     
   22   12   13 2     
   23   12   14 am    
   24   14   15 1     
   25   14   29 1     
   26   15   19 1     
   27   15   16 1     
   28   15   30 1     
   29   16   17 1     
   30   16   31 1     
   31   16   32 1     
   32   17   18 1     
   33   17   33 1     
   34   17   34 1     
   35   18   19 1     
   36   18   35 1     
   37   18   36 1     
   38   19   37 1     
   39   19   38 1     
   40    3   39 1     
   41    4   40 1     
   42    6   41 1     
   43    8   42 1     
   44    8   43 1     
   45   13   44 1     
   46   13   45 1     
@<TRIPOS>SUBSTRUCTURE
      1 S1             1
@<TRIPOS>SET
LONE_PAIRS      STATIC     ATOMS    <user>   **** ""
7 39 40 41 42 43 44 45
DONOR_HYDROGENS      STATIC     ATOMS    <user>   **** ""
2 24 29
ATOM$BLUE        STATIC     ATOMS    COLORGROUP SYSTEM
7 39 40 41 42 43 44 45
ATOM$RED        STATIC     ATOMS    COLORGROUP SYSTEM
2 24 29
