AV-unprocessed.smi:748|AV-procd|sdf|3582|dock7
  -GOLD-   22720 0573D 1   1.00000     0.00000
 Structure written by MMmdl.
 50 51  0  0  0  0  0  0  0  0  1 V2000
  146.5605  134.1247  152.0098 C   0  0  0  0  0  0  0  0  0  0  0  0
  145.4880  135.1989  151.7656 C   0  0  0  0  0  0  0  0  0  0  0  0
  144.5689  134.8226  150.5955 C   0  0  0  0  0  0  0  0  0  0  0  0
  146.1066  136.4941  151.4977 N   0  0  0  0  0  0  0  0  0  0  0  0
  146.2782  137.4772  152.3955 C   0  0  0  0  0  0  0  0  0  0  0  0
  145.9254  137.3893  153.5716 O   0  0  0  0  0  0  0  0  0  0  0  0
  146.9466  138.7563  151.8864 C   0  0  0  0  0  0  0  0  0  0  0  0
  147.0326  139.8430  152.9737 C   0  0  0  0  0  0  0  0  0  0  0  0
  148.2776  139.7402  153.7252 N   0  0  0  0  0  0  0  0  0  0  0  0
  148.6261  140.5297  154.7542 C   0  0  0  0  0  0  0  0  0  0  0  0
  147.9235  141.4514  155.1703 O   0  0  0  0  0  0  0  0  0  0  0  0
  149.9841  140.2679  155.3426 C   0  0  0  0  0  0  0  0  0  0  0  0
  150.8829  139.3542  154.7483 C   0  0  0  0  0  0  0  0  0  0  0  0
  152.1277  139.1392  155.3670 C   0  0  0  0  0  0  0  0  0  0  0  0
  152.5067  139.7583  156.5035 N   0  0  0  0  0  0  0  0  0  0  0  0
  151.6539  140.6332  157.0910 C   0  0  0  0  0  0  0  0  0  0  0  0
  152.0631  141.2641  158.2864 N   0  0  0  0  0  0  0  0  0  0  0  0
  153.2853  140.7892  158.9325 C   0  0  0  0  0  0  0  0  0  0  0  0
  153.3956  141.3627  160.3547 C   0  0  0  0  0  0  0  0  0  0  0  0
  153.3111  142.7832  160.3066 O   0  0  0  0  0  0  0  0  0  0  0  0
  152.0651  143.2284  159.7777 C   0  0  1  0  0  0  0  0  0  0  0  0
  152.0294  144.7582  159.8532 C   0  0  0  0  0  0  0  0  0  0  0  0
  151.9134  142.7166  158.3320 C   0  0  0  0  0  0  0  0  0  0  0  0
  150.3791  140.9067  156.5391 C   0  0  0  0  0  0  0  0  0  0  0  0
  146.1037  133.1545  152.2071 H   0  0  0  0  0  0  0  0  0  0  0  0
  147.1831  134.3721  152.8702 H   0  0  0  0  0  0  0  0  0  0  0  0
  147.2159  134.0139  151.1454 H   0  0  0  0  0  0  0  0  0  0  0  0
  144.8697  135.2832  152.6612 H   0  0  0  0  0  0  0  0  0  0  0  0
  144.0674  133.8726  150.7815 H   0  0  0  0  0  0  0  0  0  0  0  0
  145.1292  134.7257  149.6647 H   0  0  0  0  0  0  0  0  0  0  0  0
  143.7963  135.5771  150.4428 H   0  0  0  0  0  0  0  0  0  0  0  0
  146.4252  136.6564  150.5534 H   0  0  0  0  0  0  0  0  0  0  0  0
  147.9469  138.5259  151.5162 H   0  0  0  0  0  0  0  0  0  0  0  0
  146.3752  139.1230  151.0328 H   0  0  0  0  0  0  0  0  0  0  0  0
  146.9383  140.8402  152.5390 H   0  0  0  0  0  0  0  0  0  0  0  0
  146.2072  139.7335  153.6782 H   0  0  0  0  0  0  0  0  0  0  0  0
  148.9280  139.0228  153.4390 H   0  0  0  0  0  0  0  0  0  0  0  0
  150.6343  138.8183  153.8439 H   0  0  0  0  0  0  0  0  0  0  0  0
  152.8378  138.4472  154.9394 H   0  0  0  0  0  0  0  0  0  0  0  0
  153.2906  139.6995  158.9830 H   0  0  0  0  0  0  0  0  0  0  0  0
  154.1483  141.0938  158.3389 H   0  0  0  0  0  0  0  0  0  0  0  0
  152.6105  140.9620  160.9980 H   0  0  0  0  0  0  0  0  0  0  0  0
  154.3484  141.0780  160.8011 H   0  0  0  0  0  0  0  0  0  0  0  0
  151.2545  142.8329  160.3927 H   0  0  0  0  0  0  0  0  0  0  0  0
  151.0882  145.1483  159.4654 H   0  0  0  0  0  0  0  0  0  0  0  0
  152.8399  145.2012  159.2736 H   0  0  0  0  0  0  0  0  0  0  0  0
  152.1312  145.0993  160.8837 H   0  0  0  0  0  0  0  0  0  0  0  0
  152.6742  143.1658  157.6923 H   0  0  0  0  0  0  0  0  0  0  0  0
  150.9475  143.0361  157.9442 H   0  0  0  0  0  0  0  0  0  0  0  0
  149.6996  141.5865  157.0318 H   0  0  0  0  0  0  0  0  0  0  0  0
  1  2  1  0  0  0  0
  1 25  1  0  0  0  0
  1 26  1  0  0  0  0
  1 27  1  0  0  0  0
  2  3  1  0  0  0  0
  2  4  1  0  0  0  0
  2 28  1  0  0  0  0
  3 29  1  0  0  0  0
  3 30  1  0  0  0  0
  3 31  1  0  0  0  0
  4  5  1  0  0  0  0
  4 32  1  0  0  0  0
  5  6  2  0  0  0  0
  5  7  1  0  0  0  0
  7  8  1  0  0  0  0
  7 33  1  0  0  0  0
  7 34  1  0  0  0  0
  8  9  1  0  0  0  0
  8 35  1  0  0  0  0
  8 36  1  0  0  0  0
  9 10  1  0  0  0  0
  9 37  1  0  0  0  0
 10 11  2  0  0  0  0
 10 12  1  0  0  0  0
 12 24  1  0  0  0  0
 12 13  2  0  0  0  0
 13 14  1  0  0  0  0
 13 38  1  0  0  0  0
 14 15  2  0  0  0  0
 14 39  1  0  0  0  0
 15 16  1  0  0  0  0
 16 17  1  0  0  0  0
 16 24  2  0  0  0  0
 17 23  1  0  0  0  0
 17 18  1  0  0  0  0
 18 19  1  0  0  0  0
 18 40  1  0  0  0  0
 18 41  1  0  0  0  0
 19 20  1  0  0  0  0
 19 42  1  0  0  0  0
 19 43  1  0  0  0  0
 20 21  1  0  0  0  0
 21 22  1  0  0  0  0
 21 23  1  0  0  0  0
 21 44  1  0  0  0  0
 22 45  1  0  0  0  0
 22 46  1  0  0  0  0
 22 47  1  0  0  0  0
 23 48  1  0  0  0  0
 23 49  1  0  0  0  0
 24 50  1  0  0  0  0
M  END
> <s_m_source_file>
AV-unprocessed.smi

> <i_m_source_file_index>
748

> <i_lp_mmshare_version>
43012

> <i_f3d_flags>
0

> <s_epik_input>
W0NIM11bQ0hdKFtDSDNdKVtOSF1DKD1PKVtDSDJdW0NIMl1bTkhdQyg9TyljMVtjSF1bY0hdbmMoW2NIXTEpTjJbQ0gyXVtDSDJdT1tDQEBIXShbQ0gzXSlbQ0gyXTI=

> <s_epik_cmdline>
J2VwaWtfcHl0aG9uJywgJy1waCcsICc3LjAnLCAnLXRuJywgJzgnLCAnLW1hJywgJzIwMCcsICctbWV0YWxfYmluZGluZycsICctaW1hZScsICc8aW5maWxlLm1hZT4nLCAnLW9tYWUnLCAnPG91dGZpbGUubWFlPic=

> <r_lp_tautomer_probability>
1

> <r_epik_Ionization_Penalty>
1.38678e-05

> <r_epik_Ionization_Penalty_Charging>
0

> <r_epik_Ionization_Penalty_Neutral>
1.38678e-05

> <r_epik_State_Penalty>
-0

> <r_epik_Charging_Adjusted_Penalty>
0

> <i_epik_Tot_Q>
0

> <i_epik_Tot_abs_Q>
0

> <r_epik_Metal_State_Penalty>
-0

> <b_epik_Metal_Only>
0

> <s_lp_Force_Field>
OPLS_2005

> <r_lp_Energy>
16.8499

> <b_lp_Chiralities_Consistent>
1

> <s_lp_Variant>
AV-unprocessed.smi:748-1

> <Gold.Version>
5.8.1

> <Gold.Id.Protein>
6NUR|6NUR_protein|mol2

> <Gold.PLP.Fitness>
51.5411

> <Gold.PLP.PLP>
-49.4894

> <Gold.PLP.part.hbond>
-3.8040

> <Gold.PLP.part.metal>
0.0000

> <Gold.PLP.part.buried>
1.1769

> <Gold.PLP.part.nonpolar>
-46.4960

> <Gold.PLP.part.repulsive>
0.5270

> <Gold.PLP.ligand.clash>
0.0000

> <Gold.PLP.ligand.torsion>
0.7025

> <Gold.PLP.Chemscore.Hbond>
1.0000

> <Gold.PLP.Chemscore.CHOScore>
0.0000

> <Gold.PLP.Chemscore.Metal>
0.0000

> <Gold.Chemscore.Hbonds>
donor molecule, donor type, donor heavy atom, donor atom, acceptor molecule, acceptor atom, score
      P1  H  7997  8009       L1    15  1.00

> <Gold.PLP.Chemscore.Internal.Correction>
0.4568

> <Gold.Rescore>
     Score         DG    S(hbond)    S(metal)    S(lipo)     H(rot)  DE(clash)    DE(int)     intcor
     15.39     -16.23       0.76        0.00     111.03       1.87       0.31       0.53       ----

> <Gold.Chemscore.Fitness>
15.3908

> <Gold.Chemscore.DG>
-16.2284

> <Gold.Chemscore.ZeroCoef>
-5.4800

> <Gold.Chemscore.Hbond>
0.7613

> <Gold.Chemscore.Metal>
0.0000

> <Gold.Chemscore.Lipo>
111.0330

> <Gold.Chemscore.Internal_Hbond>
0.0000

> <Gold.Chemscore.DEClash>
0.3107

> <Gold.Chemscore.DEInternal>
0.5269

> <Gold.Chemscore.Rot>
1.8692

> <Gold.Chemscore.Internal.Correction>
   9.000000E+99

> <Gold.Chemscore.Hbonds>
donor molecule, donor type, donor heavy atom, donor atom, acceptor molecule, acceptor atom, score
      P1  H  7997  8009       L1    15  0.54

> <Gold.Chemscore.Hbond.Weighted>
-2.5427

> <Gold.Chemscore.Metal.Weighted>
-0.0000

> <Gold.Chemscore.Lipo.Weighted>
-12.9909

> <Gold.Chemscore.Internal_Hbond.Weighted>
0.0000

> <Gold.Chemscore.DEClash.Weighted>
0.3107

> <Gold.Chemscore.DEInternal.Weighted>
0.5269

> <Gold.Chemscore.Rot.Weighted>
4.7852

> <Gold.Chemscore.Internal.Correction.Weighted>
   9.000000E+99

> <Gold.Protein.RotatedTorsions>
[ 6907 6896 6895 6894 ] final  157.74 input  -60.11 | X-H torsion
[ 7974 7965 7964 7962 ] final   13.49 input  175.53 | X-H torsion
[ 8008 7997 7996 7995 ] final -158.69 input   59.86 | X-H torsion
[ 10167 10162 10161 10158 ] final  106.45 input  -65.29 | X-H torsion
[ 10718 10713 10712 10709 ] final   80.94 input   66.30 | X-H torsion
[ 10763 10752 10751 10750 ] final   27.43 input  -60.55 | X-H torsion
[ 11005 11000 10999 10996 ] final  -99.22 input  -57.11 | X-H torsion

> <Gold.Protein.ActiveResidues>
 VAL166  LYS551  ARG553  GLY616  TRP617  ASP618  TYR619  PRO620  LYS621  CYS622 
 ASP623  PHE694  ASN695  SER759  ASP760  ASP761  ALA762  ILE779  LEU786  VAL792 
 PHE793  MET794  SER795  GLU796  ALA797  LYS798  CYS799  TRP800  GLU811  SER814 

> <Gold.Protein.RotatedAtoms>
  152.0107  133.3860  159.4218 H   0  0  0  0  0  0  0  0  0  0  0  0  # atno 6907 bound_to 6896
  150.6900  134.3733  159.5011 H   0  0  0  0  0  0  0  0  0  0  0  0  # atno 6908 bound_to 6896
  152.1493  134.9000  160.0599 H   0  0  0  0  0  0  0  0  0  0  0  0  # atno 6909 bound_to 6896
  146.2328  139.9181  142.8514 H   0  0  0  0  0  0  0  0  0  0  0  0  # atno 7974 bound_to 7965
  155.7513  140.0827  157.2200 H   0  0  0  0  0  0  0  0  0  0  0  0  # atno 8008 bound_to 7997
  154.4012  140.1560  156.2783 H   0  0  0  0  0  0  0  0  0  0  0  0  # atno 8009 bound_to 7997
  155.8928  140.3414  155.5971 H   0  0  0  0  0  0  0  0  0  0  0  0  # atno 8010 bound_to 7997
  139.7008  144.7094  151.1189 H   0  0  0  0  0  0  0  0  0  0  0  0  # atno 10167 bound_to 10162
  157.6820  130.9982  150.2153 H   0  0  0  0  0  0  0  0  0  0  0  0  # atno 10718 bound_to 10713
  153.0556  135.6537  154.0585 H   0  0  0  0  0  0  0  0  0  0  0  0  # atno 10763 bound_to 10752
  154.0264  135.2915  155.3376 H   0  0  0  0  0  0  0  0  0  0  0  0  # atno 10764 bound_to 10752
  154.6869  135.5298  153.8406 H   0  0  0  0  0  0  0  0  0  0  0  0  # atno 10765 bound_to 10752
  141.1316  133.8305  157.0943 H   0  0  0  0  0  0  0  0  0  0  0  0  # atno 11005 bound_to 11000
  145.2163  140.9917  143.4071 LP  0  0  0  0  0  0  0  0  0  0  0  0  # atno 17320 bound_to 7965
  144.9648  139.3942  143.6338 LP  0  0  0  0  0  0  0  0  0  0  0  0  # atno 17321 bound_to 7965
  140.7709  143.5426  150.9295 LP  0  0  0  0  0  0  0  0  0  0  0  0  # atno 17342 bound_to 10162
  139.9108  143.6722  152.3115 LP  0  0  0  0  0  0  0  0  0  0  0  0  # atno 17343 bound_to 10162
  156.2816  130.3734  149.7930 LP  0  0  0  0  0  0  0  0  0  0  0  0  # atno 17370 bound_to 10713
  156.5616  130.8386  151.3330 LP  0  0  0  0  0  0  0  0  0  0  0  0  # atno 17371 bound_to 10713
  140.0373  134.9872  157.0894 LP  0  0  0  0  0  0  0  0  0  0  0  0  # atno 17394 bound_to 11000
  140.4191  134.1900  155.7164 LP  0  0  0  0  0  0  0  0  0  0  0  0  # atno 17395 bound_to 11000

$$$$
