#       Name:                AV-unprocessed.smi:1762
#       Creating user name   scv26
#       Creation time:       Fri Mar 27 08:33:05 2020


#       File generated by GOLD software.
#

@<TRIPOS>MOLECULE
AV-unprocessed.smi:1762
    58    59     1
SMALL
NO_CHARGES


@<TRIPOS>ATOM
      1 ****        -2.8368  -3.2873   2.8244 C.3            1 S1                 0.0000
      2 ****        -2.9355  -1.7517   2.8213 C.3            1 S1                 0.0000
      3 ****        -2.4840  -1.1131   1.4930 C.3            1 S1                 0.0000
      4 ****        -1.0279  -1.1249   1.2992 N.3            1 S1                 0.0000
      5 ****        -0.6197  -0.5422  -0.0107 C.3            1 S1                 0.0000
      6 ****         0.9013  -0.2730  -0.1253 C.2            1 S1                 0.0000
      7 ****         1.6968  -1.2051  -0.2396 O.2            1 S1                 0.0000
      8 ****         1.2920   1.0102  -0.0565 N.am           1 S1                 0.0000
      9 ****         2.6791   1.4656  -0.0687 C.3            1 S1                 0.0000
     10 ****         3.3027   1.4879  -1.4779 C.3            1 S1                 0.0000
     11 ****         2.5466   2.3591  -2.4657 C.ar           1 S1                 0.0000
     12 ****         2.8427   3.7293  -2.6336 C.ar           1 S1                 0.0000
     13 ****         2.0955   4.4879  -3.5589 C.ar           1 S1                 0.0000
     14 ****         1.0690   3.8616  -4.2960 C.ar           1 S1                 0.0000
     15 ****         0.8158   2.4904  -4.0888 C.ar           1 S1                 0.0000
     16 ****         1.5531   1.7988  -3.1925 N.pl3          1 S1                 1.0000
     17 ****        -1.1631  -1.3172  -1.2595 C.3            1 S1                 0.0000
     18 ****        -0.8374  -2.8247  -1.2538 C.3            1 S1                 0.0000
     19 ****        -0.7614  -0.6853  -2.6062 C.3            1 S1                 0.0000
     20 ****        -0.3955  -0.5131   2.4792 C.3            1 S1                 0.0000
     21 ****        -0.8160  -1.1894   3.7971 C.3            1 S1                 0.0000
     22 ****        -0.2279  -0.4807   5.0225 C.3            1 S1                 0.0000
     23 ****        -2.2341  -1.1679   3.9165 O.3            1 S1                 0.0000
     24 ****        -3.4812  -3.7180   2.0576 H              1 S1                 0.0000
     25 ****        -3.1504  -3.6947   3.7855 H              1 S1                 0.0000
     26 ****        -1.8229  -3.6348   2.6271 H              1 S1                 0.0000
     27 ****        -3.9871  -1.5042   2.9694 H              1 S1                 0.0000
     28 ****        -2.9940  -1.6436   0.6917 H              1 S1                 0.0000
     29 ****        -2.8458  -0.0840   1.4582 H              1 S1                 0.0000
     30 ****        -1.0806   0.4463  -0.0664 H              1 S1                 0.0000
     31 ****         0.5788   1.7169   0.0542 H              1 S1                 0.0000
     32 ****         2.7019   2.4701   0.3548 H              1 S1                 0.0000
     33 ****         3.2790   0.8419   0.5961 H              1 S1                 0.0000
     34 ****         4.3313   1.8442  -1.4133 H              1 S1                 0.0000
     35 ****         3.3630   0.4728  -1.8737 H              1 S1                 0.0000
     36 ****         3.6304   4.1954  -2.0596 H              1 S1                 0.0000
     37 ****         2.3066   5.5380  -3.7007 H              1 S1                 0.0000
     38 ****         0.4851   4.4249  -5.0093 H              1 S1                 0.0000
     39 ****         0.0515   1.9302  -4.6074 H              1 S1                 0.0000
     40 ****        -2.2485  -1.2335  -1.2491 H              1 S1                 0.0000
     41 ****         0.2307  -3.0151  -1.3518 H              1 S1                 0.0000
     42 ****        -1.3323  -3.3305  -2.0831 H              1 S1                 0.0000
     43 ****        -1.1779  -3.3062  -0.3370 H              1 S1                 0.0000
     44 ****         0.3020  -0.8055  -2.8136 H              1 S1                 0.0000
     45 ****        -0.9948   0.3793  -2.6244 H              1 S1                 0.0000
     46 ****        -1.3039  -1.1506  -3.4297 H              1 S1                 0.0000
     47 ****         0.6905  -0.5867   2.4301 H              1 S1                 0.0000
     48 ****        -0.6379   0.5504   2.5169 H              1 S1                 0.0000
     49 ****        -0.4675  -2.2225   3.8027 H              1 S1                 0.0000
     50 ****         0.8620  -0.4861   4.9938 H              1 S1                 0.0000
     51 ****        -0.5380  -0.9739   5.9439 H              1 S1                 0.0000
     52 ****        -0.5564   0.5579   5.0737 H              1 S1                 0.0000
     53 ****         1.3508   0.8079  -3.0562 H              1 S1                 0.0000
     54 ****        -0.6955  -2.0659   1.2359 LP             1 S1                 0.0000
     55 ****         1.3632  -2.1476  -0.2592 LP             1 S1                 0.0000
     56 ****         2.6768  -1.0200  -0.3128 LP             1 S1                 0.0000
     57 ****        -2.4839  -1.6660   4.7469 LP             1 S1                 0.0000
     58 ****        -2.5248  -0.2147   3.9994 LP             1 S1                 0.0000
@<TRIPOS>BOND
    1    1    2 1     
    2    1   24 1     
    3    1   25 1     
    4    1   26 1     
    5    2   23 1     
    6    2    3 1     
    7    2   27 1     
    8    3    4 1     
    9    3   28 1     
   10    3   29 1     
   11    4    5 1     
   12    4   20 1     
   13    5    6 1     
   14    5   17 1     
   15    5   30 1     
   16    6    7 2     
   17    6    8 am    
   18    8    9 1     
   19    8   31 1     
   20    9   10 1     
   21    9   32 1     
   22    9   33 1     
   23   10   11 1     
   24   10   34 1     
   25   10   35 1     
   26   11   16 ar    
   27   11   12 ar    
   28   12   13 ar    
   29   12   36 1     
   30   13   14 ar    
   31   13   37 1     
   32   14   15 ar    
   33   14   38 1     
   34   15   16 ar    
   35   15   39 1     
   36   16   53 1     
   37   17   18 1     
   38   17   19 1     
   39   17   40 1     
   40   18   41 1     
   41   18   42 1     
   42   18   43 1     
   43   19   44 1     
   44   19   45 1     
   45   19   46 1     
   46   20   21 1     
   47   20   47 1     
   48   20   48 1     
   49   21   22 1     
   50   21   23 1     
   51   21   49 1     
   52   22   50 1     
   53   22   51 1     
   54   22   52 1     
   55    4   54 1     
   56    7   55 1     
   57    7   56 1     
   58   23   57 1     
   59   23   58 1     
@<TRIPOS>SUBSTRUCTURE
      1 S1             1
@<TRIPOS>SET
LONE_PAIRS      STATIC     ATOMS    <user>   **** ""
5 54 55 56 57 58
DONOR_HYDROGENS      STATIC     ATOMS    <user>   **** ""
2 31 53
ATOM$BLUE        STATIC     ATOMS    COLORGROUP SYSTEM
5 54 55 56 57 58
ATOM$RED        STATIC     ATOMS    COLORGROUP SYSTEM
2 31 53
