AV-unprocessed.smi:1586|AV-procd|sdf|6381|dock3
  -GOLD-   22720 7 13D 1   1.00000     0.00000
 Structure written by MMmdl.
 46 47  0  0  0  0  0  0  0  0  3 V2000
  143.8821  132.3877  149.9140 C   0  0  0  0  0  0  0  0  0  0  0  0
  144.1165  133.3554  151.0831 C   0  0  0  0  0  0  0  0  0  0  0  0
  145.2383  134.2623  150.8287 N   0  0  0  0  0  0  0  0  0  0  0  0
  145.4293  135.3144  151.8337 C   0  0  0  0  0  0  0  0  0  0  0  0
  145.9303  134.7509  153.1793 C   0  0  0  0  0  0  0  0  0  0  0  0
  147.2103  134.0133  152.9840 N   0  3  0  0  0  0  0  0  0  0  0  0
  147.9129  133.5481  154.2199 C   0  0  2  0  0  0  0  0  0  0  0  0
  147.2927  132.2608  154.8195 C   0  0  0  0  0  0  0  0  0  0  0  0
  148.0618  134.7150  155.2355 C   0  0  0  0  0  0  0  0  0  0  0  0
  148.8648  134.3103  156.3910 N   0  5  0  0  0  0  0  0  0  0  0  0
  148.4858  134.4596  157.6907 C   0  0  0  0  0  0  0  0  0  0  0  0
  148.5165  133.6041  158.5835 O   0  0  0  0  0  0  0  0  0  0  0  0
  148.0332  135.6993  157.9521 N   0  0  0  0  0  0  0  0  0  0  0  0
  147.5510  136.2291  159.1783 C   0  0  0  0  0  0  0  0  0  0  0  0
  147.7634  135.5367  160.4002 C   0  0  0  0  0  0  0  0  0  0  0  0
  147.1665  136.3484  161.3232 C   0  0  0  0  0  0  0  0  0  0  0  0
  147.0025  136.2547  162.8014 C   0  0  0  0  0  0  0  0  0  0  0  0
  146.6364  137.4451  160.7177 O   0  0  0  0  0  0  0  0  0  0  0  0
  146.8856  137.3627  159.3428 N   0  0  0  0  0  0  0  0  0  0  0  0
  147.0296  132.9462  151.9682 C   0  0  0  0  0  0  0  0  0  0  0  0
  146.5026  133.5450  150.6470 C   0  0  0  0  0  0  0  0  0  0  0  0
  143.1367  131.6393  150.1835 H   0  0  0  0  0  0  0  0  0  0  0  0
  144.7977  131.8585  149.6480 H   0  0  0  0  0  0  0  0  0  0  0  0
  143.5143  132.9002  149.0253 H   0  0  0  0  0  0  0  0  0  0  0  0
  143.2008  133.8991  151.3124 H   0  0  0  0  0  0  0  0  0  0  0  0
  144.3504  132.7609  151.9673 H   0  0  0  0  0  0  0  0  0  0  0  0
  146.1588  136.0286  151.4490 H   0  0  0  0  0  0  0  0  0  0  0  0
  144.5089  135.8788  151.9774 H   0  0  0  0  0  0  0  0  0  0  0  0
  146.0767  135.5791  153.8729 H   0  0  0  0  0  0  0  0  0  0  0  0
  145.1737  134.1055  153.6252 H   0  0  0  0  0  0  0  0  0  0  0  0
  148.9271  133.2884  153.9122 H   0  0  0  0  0  0  0  0  0  0  0  0
  147.9098  131.8499  155.6206 H   0  0  0  0  0  0  0  0  0  0  0  0
  147.2108  131.4803  154.0630 H   0  0  0  0  0  0  0  0  0  0  0  0
  146.2953  132.4238  155.2314 H   0  0  0  0  0  0  0  0  0  0  0  0
  148.5035  135.5723  154.7251 H   0  0  0  0  0  0  0  0  0  0  0  0
  147.0697  135.0488  155.5395 H   0  0  0  0  0  0  0  0  0  0  0  0
  148.0395  136.3404  157.1729 H   0  0  0  0  0  0  0  0  0  0  0  0
  148.2694  134.5986  160.5727 H   0  0  0  0  0  0  0  0  0  0  0  0
  147.2130  135.2447  163.1533 H   0  0  0  0  0  0  0  0  0  0  0  0
  145.9842  136.5091  163.0957 H   0  0  0  0  0  0  0  0  0  0  0  0
  147.6831  136.9388  163.3084 H   0  0  0  0  0  0  0  0  0  0  0  0
  147.9866  132.4624  151.7700 H   0  0  0  0  0  0  0  0  0  0  0  0
  146.3617  132.1723  152.3476 H   0  0  0  0  0  0  0  0  0  0  0  0
  146.3790  132.7619  149.8983 H   0  0  0  0  0  0  0  0  0  0  0  0
  147.2410  134.2388  150.2430 H   0  0  0  0  0  0  0  0  0  0  0  0
  147.8495  134.6711  152.5609 H   0  0  0  0  0  0  0  0  0  0  0  0
  1  2  1  0  0  0  0
  1 22  1  0  0  0  0
  1 23  1  0  0  0  0
  1 24  1  0  0  0  0
  2  3  1  0  0  0  0
  2 25  1  0  0  0  0
  2 26  1  0  0  0  0
  3 21  1  0  0  0  0
  3  4  1  0  0  0  0
  4  5  1  0  0  0  0
  4 27  1  0  0  0  0
  4 28  1  0  0  0  0
  5  6  1  0  0  0  0
  5 29  1  0  0  0  0
  5 30  1  0  0  0  0
  6  7  1  0  0  0  0
  6 20  1  0  0  0  0
  6 46  1  0  0  0  0
  7  8  1  0  0  0  0
  7  9  1  0  0  0  0
  7 31  1  0  0  0  0
  8 32  1  0  0  0  0
  8 33  1  0  0  0  0
  8 34  1  0  0  0  0
  9 10  1  0  0  0  0
  9 35  1  0  0  0  0
  9 36  1  0  0  0  0
 10 11  1  0  0  0  0
 11 12  2  0  0  0  0
 11 13  1  0  0  0  0
 13 14  1  0  0  0  0
 13 37  1  0  0  0  0
 14 19  2  0  0  0  0
 14 15  1  0  0  0  0
 15 16  2  0  0  0  0
 15 38  1  0  0  0  0
 16 17  1  0  0  0  0
 16 18  1  0  0  0  0
 17 39  1  0  0  0  0
 17 40  1  0  0  0  0
 17 41  1  0  0  0  0
 18 19  1  0  0  0  0
 20 21  1  0  0  0  0
 20 42  1  0  0  0  0
 20 43  1  0  0  0  0
 21 44  1  0  0  0  0
 21 45  1  0  0  0  0
M  CHG  1   6   1
M  CHG  1  10  -1
M  END
> <s_m_source_file>
AV-unprocessed.smi

> <i_m_source_file_index>
1586

> <i_lp_mmshare_version>
43012

> <i_f3d_flags>
0

> <s_epik_input>
W0NIM11bQ0gyXU4xW0NIMl1bQ0gyXU4oW0NIMl1bQ0gyXTEpW0NASF0oW0NIM10pW0NIMl1bTkhdQyg9TylbTkhdYzJbY0hdYyhbQ0gzXSlvbjI=

> <s_epik_cmdline>
J2VwaWtfcHl0aG9uJywgJy1waCcsICc3LjAnLCAnLXRuJywgJzgnLCAnLW1hJywgJzIwMCcsICctbWV0YWxfYmluZGluZycsICctaW1hZScsICc8aW5maWxlLm1hZT4nLCAnLW9tYWUnLCAnPG91dGZpbGUubWFlPic=

> <r_epik_Ionization_Penalty>
6.72969

> <r_epik_Ionization_Penalty_Charging>
6.72741

> <r_epik_Ionization_Penalty_Neutral>
0.00227419

> <r_epik_State_Penalty>
7.72748

> <r_epik_Charging_Adjusted_Penalty>
14.4549

> <i_epik_Tot_Q>
0

> <i_epik_Tot_abs_Q>
2

> <r_epik_Metal_State_Penalty>
3.65268

> <b_epik_Metal_Only>
1

> <s_lp_Force_Field>
OPLS_2005

> <r_lp_Energy>
18.0395

> <b_lp_Chiralities_Consistent>
1

> <s_lp_Variant>
AV-unprocessed.smi:1586-9

> <Gold.Version>
5.8.1

> <Gold.Id.Protein>
6NUR|6NUR_protein|mol2

> <Gold.PLP.Fitness>
43.5032

> <Gold.PLP.PLP>
-32.5059

> <Gold.PLP.part.hbond>
-4.7065

> <Gold.PLP.part.metal>
0.0000

> <Gold.PLP.part.buried>
-4.7375

> <Gold.PLP.part.nonpolar>
-23.7429

> <Gold.PLP.part.repulsive>
0.2224

> <Gold.PLP.ligand.clash>
0.0000

> <Gold.PLP.ligand.torsion>
0.6518

> <Gold.PLP.Chemscore.Hbond>
4.0000

> <Gold.PLP.Chemscore.CHOScore>
0.0000

> <Gold.PLP.Chemscore.Metal>
0.0000

> <Gold.Chemscore.Hbonds>
donor molecule, donor type, donor heavy atom, donor atom, acceptor molecule, acceptor atom, score
      L1  H     6    46       P1  7948  2.00
      P1  H  6896  6907       L1    12  0.25
      P1  H  6934  6947       L1    18  0.85

> <Gold.PLP.Chemscore.Internal.Correction>
0.3010

> <Gold.Rescore>
     Score         DG    S(hbond)    S(metal)    S(lipo)     H(rot)  DE(clash)    DE(int)     intcor
     16.25     -18.48       2.68        0.00      72.30       1.73       0.33       1.89       ----

> <Gold.Chemscore.Fitness>
16.2510

> <Gold.Chemscore.DG>
-18.4754

> <Gold.Chemscore.ZeroCoef>
-5.4800

> <Gold.Chemscore.Hbond>
2.6805

> <Gold.Chemscore.Metal>
0.0000

> <Gold.Chemscore.Lipo>
72.2969

> <Gold.Chemscore.Internal_Hbond>
0.0000

> <Gold.Chemscore.DEClash>
0.3343

> <Gold.Chemscore.DEInternal>
1.8901

> <Gold.Chemscore.Rot>
1.7250

> <Gold.Chemscore.Internal.Correction>
   9.000000E+99

> <Gold.Chemscore.Hbonds>
donor molecule, donor type, donor heavy atom, donor atom, acceptor molecule, acceptor atom, score
      L1  H     6    46       P1  7948  0.72
      P1  H  6896  6907       L1    12  0.05
      P1  H  6934  6947       L1    18  0.15

> <Gold.Chemscore.Hbond.Weighted>
-8.9528

> <Gold.Chemscore.Metal.Weighted>
-0.0000

> <Gold.Chemscore.Lipo.Weighted>
-8.4587

> <Gold.Chemscore.Internal_Hbond.Weighted>
0.0000

> <Gold.Chemscore.DEClash.Weighted>
0.3343

> <Gold.Chemscore.DEInternal.Weighted>
1.8901

> <Gold.Chemscore.Rot.Weighted>
4.4161

> <Gold.Chemscore.Internal.Correction.Weighted>
   9.000000E+99

> <Gold.Protein.RotatedTorsions>
[ 6907 6896 6895 6894 ] final -103.23 input  -60.11 | X-H torsion
[ 7974 7965 7964 7962 ] final  105.26 input  175.53 | X-H torsion
[ 8008 7997 7996 7995 ] final  -93.24 input   59.86 | X-H torsion
[ 10167 10162 10161 10158 ] final  -29.49 input  -65.29 | X-H torsion
[ 10718 10713 10712 10709 ] final  152.35 input   66.30 | X-H torsion
[ 10763 10752 10751 10750 ] final  -84.61 input  -60.55 | X-H torsion
[ 11005 11000 10999 10996 ] final   73.90 input  -57.11 | X-H torsion

> <Gold.Protein.ActiveResidues>
 VAL166  LYS551  ARG553  GLY616  TRP617  ASP618  TYR619  PRO620  LYS621  CYS622 
 ASP623  PHE694  ASN695  SER759  ASP760  ASP761  ALA762  ILE779  LEU786  VAL792 
 PHE793  MET794  SER795  GLU796  ALA797  LYS798  CYS799  TRP800  GLU811  SER814 

> <Gold.Protein.RotatedAtoms>
  150.7231  134.0461  159.3781 H   0  0  0  0  0  0  0  0  0  0  0  0  # atno 6907 bound_to 6896
  151.8436  135.0580  160.0460 H   0  0  0  0  0  0  0  0  0  0  0  0  # atno 6908 bound_to 6896
  152.2844  133.5465  159.5554 H   0  0  0  0  0  0  0  0  0  0  0  0  # atno 6909 bound_to 6896
  145.3219  139.2510  143.3707 H   0  0  0  0  0  0  0  0  0  0  0  0  # atno 7974 bound_to 7965
  154.7331  140.0501  157.0744 H   0  0  0  0  0  0  0  0  0  0  0  0  # atno 8008 bound_to 7997
  155.0275  140.3154  155.4751 H   0  0  0  0  0  0  0  0  0  0  0  0  # atno 8009 bound_to 7997
  156.2846  140.2156  156.5395 H   0  0  0  0  0  0  0  0  0  0  0  0  # atno 8010 bound_to 7997
  140.7260  143.3924  151.1406 H   0  0  0  0  0  0  0  0  0  0  0  0  # atno 10167 bound_to 10162
  157.2589  131.0794  151.1679 H   0  0  0  0  0  0  0  0  0  0  0  0  # atno 10718 bound_to 10713
  154.6015  135.5514  153.7379 H   0  0  0  0  0  0  0  0  0  0  0  0  # atno 10763 bound_to 10752
  153.0157  135.6367  154.1707 H   0  0  0  0  0  0  0  0  0  0  0  0  # atno 10764 bound_to 10752
  154.1647  135.2895  155.3078 H   0  0  0  0  0  0  0  0  0  0  0  0  # atno 10765 bound_to 10752
  139.9417  134.7387  156.1082 H   0  0  0  0  0  0  0  0  0  0  0  0  # atno 11005 bound_to 11000
  146.3079  140.3779  142.8681 LP  0  0  0  0  0  0  0  0  0  0  0  0  # atno 17320 bound_to 7965
  144.8932  140.7550  143.5913 LP  0  0  0  0  0  0  0  0  0  0  0  0  # atno 17321 bound_to 7965
  139.7531  143.8748  152.3082 LP  0  0  0  0  0  0  0  0  0  0  0  0  # atno 17342 bound_to 10162
  139.8608  144.7118  150.9101 LP  0  0  0  0  0  0  0  0  0  0  0  0  # atno 17343 bound_to 10162
  157.3197  130.6931  149.6262 LP  0  0  0  0  0  0  0  0  0  0  0  0  # atno 17370 bound_to 10713
  155.9664  130.4339  150.5026 LP  0  0  0  0  0  0  0  0  0  0  0  0  # atno 17371 bound_to 10713
  141.1054  133.6662  156.2851 LP  0  0  0  0  0  0  0  0  0  0  0  0  # atno 17394 bound_to 11000
  140.5935  134.5627  157.5504 LP  0  0  0  0  0  0  0  0  0  0  0  0  # atno 17395 bound_to 11000

$$$$
