AV-unprocessed.smi:1765|AV-procd|sdf|7134|dock7
  -GOLD-   22720 8373D 1   1.00000     0.00000
 Structure written by MMmdl.
 39 40  0  0  0  0  0  0  0  0  1 V2000
  154.5481  135.7860  158.9994 C   0  0  0  0  0  0  0  0  0  0  0  0
  153.7953  136.6534  158.1060 N   0  0  0  0  0  0  0  0  0  0  0  0
  152.6285  137.2408  158.4195 C   0  0  0  0  0  0  0  0  0  0  0  0
  152.0978  137.0780  159.5196 O   0  0  0  0  0  0  0  0  0  0  0  0
  152.0761  138.0709  157.3462 C   0  0  0  0  0  0  0  0  0  0  0  0
  152.3811  137.8587  155.9388 C   0  0  0  0  0  0  0  0  0  0  0  0
  151.8399  138.6515  154.9931 C   0  0  0  0  0  0  0  0  0  0  0  0
  150.9320  139.7503  155.3337 C   0  0  0  0  0  0  0  0  0  0  0  0
  150.4340  140.4766  154.4731 O   0  0  0  0  0  0  0  0  0  0  0  0
  150.6753  139.9181  156.6665 N   0  0  0  0  0  0  0  0  0  0  0  0
  149.7791  140.9911  157.1293 C   0  0  0  0  0  0  0  0  0  0  0  0
  150.4821  142.0225  158.0229 C   0  0  0  0  0  0  0  0  0  0  0  0
  151.0425  141.6763  159.0637 O   0  0  0  0  0  0  0  0  0  0  0  0
  150.4614  143.2903  157.5849 N   0  0  0  0  0  0  0  0  0  0  0  0
  151.0670  144.4290  158.2702 C   0  0  0  0  0  0  0  0  0  0  0  0
  152.4612  144.0617  158.8148 C   0  0  0  0  0  0  0  0  0  0  0  0
  152.4793  144.5129  160.2764 C   0  0  0  0  0  0  0  0  0  0  0  0
  151.0232  144.4194  160.7203 C   0  0  0  0  0  0  0  0  0  0  0  0
  150.2302  144.8612  159.4904 C   0  0  0  0  0  0  0  0  0  0  0  0
  151.2415  139.0842  157.6508 C   0  0  0  0  0  0  0  0  0  0  0  0
  155.4677  135.4604  158.5135 H   0  0  0  0  0  0  0  0  0  0  0  0
  153.9680  134.9000  159.2605 H   0  0  0  0  0  0  0  0  0  0  0  0
  154.8153  136.3113  159.9172 H   0  0  0  0  0  0  0  0  0  0  0  0
  154.1853  136.8225  157.1903 H   0  0  0  0  0  0  0  0  0  0  0  0
  153.0419  137.0663  155.6198 H   0  0  0  0  0  0  0  0  0  0  0  0
  152.0801  138.4740  153.9550 H   0  0  0  0  0  0  0  0  0  0  0  0
  149.3429  141.5211  156.2816 H   0  0  0  0  0  0  0  0  0  0  0  0
  148.9286  140.5629  157.6635 H   0  0  0  0  0  0  0  0  0  0  0  0
  149.9854  143.4830  156.7155 H   0  0  0  0  0  0  0  0  0  0  0  0
  151.1596  145.2677  157.5772 H   0  0  0  0  0  0  0  0  0  0  0  0
  152.6207  142.9829  158.7736 H   0  0  0  0  0  0  0  0  0  0  0  0
  153.2623  144.5258  158.2388 H   0  0  0  0  0  0  0  0  0  0  0  0
  153.1474  143.9112  160.8932 H   0  0  0  0  0  0  0  0  0  0  0  0
  152.8138  145.5495  160.3364 H   0  0  0  0  0  0  0  0  0  0  0  0
  150.7786  143.3848  160.9641 H   0  0  0  0  0  0  0  0  0  0  0  0
  150.8106  145.0292  161.5988 H   0  0  0  0  0  0  0  0  0  0  0  0
  150.1391  145.9481  159.4940 H   0  0  0  0  0  0  0  0  0  0  0  0
  149.2171  144.4569  159.4904 H   0  0  0  0  0  0  0  0  0  0  0  0
  150.9443  139.3246  158.6621 H   0  0  0  0  0  0  0  0  0  0  0  0
  1  2  1  0  0  0  0
  1 21  1  0  0  0  0
  1 22  1  0  0  0  0
  1 23  1  0  0  0  0
  2  3  1  0  0  0  0
  2 24  1  0  0  0  0
  3  4  2  0  0  0  0
  3  5  1  0  0  0  0
  5 20  2  0  0  0  0
  5  6  1  0  0  0  0
  6  7  2  0  0  0  0
  6 25  1  0  0  0  0
  7  8  1  0  0  0  0
  7 26  1  0  0  0  0
  8  9  2  0  0  0  0
  8 10  1  0  0  0  0
 10 11  1  0  0  0  0
 10 20  1  0  0  0  0
 11 12  1  0  0  0  0
 11 27  1  0  0  0  0
 11 28  1  0  0  0  0
 12 13  2  0  0  0  0
 12 14  1  0  0  0  0
 14 15  1  0  0  0  0
 14 29  1  0  0  0  0
 15 19  1  0  0  0  0
 15 16  1  0  0  0  0
 15 30  1  0  0  0  0
 16 17  1  0  0  0  0
 16 31  1  0  0  0  0
 16 32  1  0  0  0  0
 17 18  1  0  0  0  0
 17 33  1  0  0  0  0
 17 34  1  0  0  0  0
 18 19  1  0  0  0  0
 18 35  1  0  0  0  0
 18 36  1  0  0  0  0
 19 37  1  0  0  0  0
 19 38  1  0  0  0  0
 20 39  1  0  0  0  0
M  END
> <s_m_source_file>
AV-unprocessed.smi

> <i_m_source_file_index>
1765

> <i_lp_mmshare_version>
43012

> <i_f3d_flags>
0

> <s_epik_input>
W0NIM11bTkhdQyg9TyljMVtjSF1bY0hdYyg9TyluKFtjSF0xKVtDSDJdQyg9TylbTkhdW0NIXTJbQ0gyXVtDSDJdW0NIMl1bQ0gyXTI=

> <s_epik_cmdline>
J2VwaWtfcHl0aG9uJywgJy1waCcsICc3LjAnLCAnLXRuJywgJzgnLCAnLW1hJywgJzIwMCcsICctbWV0YWxfYmluZGluZycsICctaW1hZScsICc8aW5maWxlLm1hZT4nLCAnLW9tYWUnLCAnPG91dGZpbGUubWFlPic=

> <r_lp_tautomer_probability>
1

> <r_epik_Ionization_Penalty>
3.69544e-07

> <r_epik_Ionization_Penalty_Charging>
4.98828e-08

> <r_epik_Ionization_Penalty_Neutral>
3.19661e-07

> <r_epik_State_Penalty>
-0

> <r_epik_Charging_Adjusted_Penalty>
4.98828e-08

> <i_epik_Tot_Q>
0

> <i_epik_Tot_abs_Q>
0

> <r_epik_Metal_State_Penalty>
-0

> <b_epik_Metal_Only>
0

> <s_lp_Force_Field>
OPLS_2005

> <r_lp_Energy>
30.5558

> <b_lp_Chiralities_Consistent>
1

> <s_lp_Variant>
AV-unprocessed.smi:1765-1

> <Gold.Version>
5.8.1

> <Gold.Id.Protein>
6NUR|6NUR_protein|mol2

> <Gold.PLP.Fitness>
42.6565

> <Gold.PLP.PLP>
-34.8025

> <Gold.PLP.part.hbond>
-3.0873

> <Gold.PLP.part.metal>
0.0000

> <Gold.PLP.part.buried>
-6.2708

> <Gold.PLP.part.nonpolar>
-25.7664

> <Gold.PLP.part.repulsive>
0.2738

> <Gold.PLP.ligand.clash>
0.0000

> <Gold.PLP.ligand.torsion>
0.4923

> <Gold.PLP.Chemscore.Hbond>
2.9433

> <Gold.PLP.Chemscore.CHOScore>
0.0000

> <Gold.PLP.Chemscore.Metal>
0.0000

> <Gold.Chemscore.Hbonds>
donor molecule, donor type, donor heavy atom, donor atom, acceptor molecule, acceptor atom, score
      L1  H    14    29       P1  8028  0.94
      P1  H  6896  6909       L1     4  1.00
      P1  H  7989  7998       L1     9  0.99

> <Gold.PLP.Chemscore.Internal.Correction>
0.0087

> <Gold.Rescore>
     Score         DG    S(hbond)    S(metal)    S(lipo)     H(rot)  DE(clash)    DE(int)     intcor
     17.18     -20.24       2.67        0.00      83.24       1.52       0.03       3.03       ----

> <Gold.Chemscore.Fitness>
17.1839

> <Gold.Chemscore.DG>
-20.2425

> <Gold.Chemscore.ZeroCoef>
-5.4800

> <Gold.Chemscore.Hbond>
2.6727

> <Gold.Chemscore.Metal>
0.0000

> <Gold.Chemscore.Lipo>
83.2447

> <Gold.Chemscore.Internal_Hbond>
0.0000

> <Gold.Chemscore.DEClash>
0.0294

> <Gold.Chemscore.DEInternal>
3.0291

> <Gold.Chemscore.Rot>
1.5250

> <Gold.Chemscore.Internal.Correction>
   9.000000E+99

> <Gold.Chemscore.Hbonds>
donor molecule, donor type, donor heavy atom, donor atom, acceptor molecule, acceptor atom, score
      L1  H    14    29       P1  8028  0.90
      P1  H  6896  6909       L1     4  0.87
      P1  H  7989  7998       L1     9  0.56

> <Gold.Chemscore.Hbond.Weighted>
-8.9268

> <Gold.Chemscore.Metal.Weighted>
-0.0000

> <Gold.Chemscore.Lipo.Weighted>
-9.7396

> <Gold.Chemscore.Internal_Hbond.Weighted>
0.0000

> <Gold.Chemscore.DEClash.Weighted>
0.0294

> <Gold.Chemscore.DEInternal.Weighted>
3.0291

> <Gold.Chemscore.Rot.Weighted>
3.9039

> <Gold.Chemscore.Internal.Correction.Weighted>
   9.000000E+99

> <Gold.Protein.RotatedTorsions>
[ 6907 6896 6895 6894 ] final  125.31 input  -60.11 | X-H torsion
[ 7974 7965 7964 7962 ] final  -35.90 input  175.53 | X-H torsion
[ 8008 7997 7996 7995 ] final   16.31 input   59.86 | X-H torsion
[ 10167 10162 10161 10158 ] final -165.99 input  -65.29 | X-H torsion
[ 10718 10713 10712 10709 ] final  -54.18 input   66.30 | X-H torsion
[ 10763 10752 10751 10750 ] final  -81.95 input  -60.55 | X-H torsion
[ 11005 11000 10999 10996 ] final -118.66 input  -57.11 | X-H torsion

> <Gold.Protein.ActiveResidues>
 VAL166  LYS551  ARG553  GLY616  TRP617  ASP618  TYR619  PRO620  LYS621  CYS622 
 ASP623  PHE694  ASN695  SER759  ASP760  ASP761  ALA762  ILE779  LEU786  VAL792 
 PHE793  MET794  SER795  GLU796  ALA797  LYS798  CYS799  TRP800  GLU811  SER814 

> <Gold.Protein.RotatedAtoms>
  152.4003  133.6807  159.6310 H   0  0  0  0  0  0  0  0  0  0  0  0  # atno 6907 bound_to 6896
  150.7895  133.8803  159.3293 H   0  0  0  0  0  0  0  0  0  0  0  0  # atno 6908 bound_to 6896
  151.6570  135.0996  160.0223 H   0  0  0  0  0  0  0  0  0  0  0  0  # atno 6909 bound_to 6896
  146.0707  140.6214  142.8954 H   0  0  0  0  0  0  0  0  0  0  0  0  # atno 7974 bound_to 7965
  154.8751  140.2964  155.5458 H   0  0  0  0  0  0  0  0  0  0  0  0  # atno 8008 bound_to 7997
  156.3022  140.2453  156.3679 H   0  0  0  0  0  0  0  0  0  0  0  0  # atno 8009 bound_to 7997
  154.8776  140.0399  157.1752 H   0  0  0  0  0  0  0  0  0  0  0  0  # atno 8010 bound_to 7997
  139.6145  144.0747  152.1874 H   0  0  0  0  0  0  0  0  0  0  0  0  # atno 10167 bound_to 10162
  156.1473  130.4152  150.0003 H   0  0  0  0  0  0  0  0  0  0  0  0  # atno 10718 bound_to 10713
  154.5698  135.5608  153.7084 H   0  0  0  0  0  0  0  0  0  0  0  0  # atno 10763 bound_to 10752
  153.0045  135.6294  154.2130 H   0  0  0  0  0  0  0  0  0  0  0  0  # atno 10764 bound_to 10752
  154.2070  135.2875  155.2951 H   0  0  0  0  0  0  0  0  0  0  0  0  # atno 10765 bound_to 10752
  141.0270  134.0038  157.3199 H   0  0  0  0  0  0  0  0  0  0  0  0  # atno 11005 bound_to 11000
  144.7230  140.4435  143.6994 LP  0  0  0  0  0  0  0  0  0  0  0  0  # atno 17320 bound_to 7965
  145.6396  139.1548  143.2923 LP  0  0  0  0  0  0  0  0  0  0  0  0  # atno 17321 bound_to 7965
  140.0374  144.6034  150.7438 LP  0  0  0  0  0  0  0  0  0  0  0  0  # atno 17342 bound_to 10162
  140.7342  143.2725  151.3842 LP  0  0  0  0  0  0  0  0  0  0  0  0  # atno 17343 bound_to 10162
  156.7872  130.9242  151.3646 LP  0  0  0  0  0  0  0  0  0  0  0  0  # atno 17370 bound_to 10713
  157.6627  130.8980  149.9864 LP  0  0  0  0  0  0  0  0  0  0  0  0  # atno 17371 bound_to 10713
  139.9182  135.0198  156.7965 LP  0  0  0  0  0  0  0  0  0  0  0  0  # atno 17394 bound_to 11000
  140.6473  133.9763  155.7737 LP  0  0  0  0  0  0  0  0  0  0  0  0  # atno 17395 bound_to 11000

$$$$
