AV-unprocessed.smi:2603|AV-procd|sdf|10187|dock5
  -GOLD-   2272014203D 1   1.00000     0.00000
 Structure written by MMmdl.
 35 36  0  0  0  0  0  0  0  0  1 V2000
  154.1246  142.7948  161.5763 C   0  0  0  0  0  0  0  0  0  0  0  0
  152.9845  143.7841  161.3235 C   0  0  0  0  0  0  0  0  0  0  0  0
  152.5711  143.6743  159.9736 O   0  0  0  0  0  0  0  0  0  0  0  0
  152.8350  144.8561  159.2345 C   0  0  2  0  0  0  0  0  0  0  0  0
  151.6958  145.8367  159.2301 C   0  0  0  0  0  0  0  0  0  0  0  0
  151.9753  144.9957  157.9965 C   0  0  2  0  0  0  0  0  0  0  0  0
  151.0621  143.9425  157.6944 N   0  0  0  0  0  0  0  0  0  0  0  0
  151.3450  142.6318  157.6922 C   0  0  0  0  0  0  0  0  0  0  0  0
  152.4668  142.1755  157.9113 O   0  0  0  0  0  0  0  0  0  0  0  0
  150.1759  141.6874  157.4065 C   0  0  0  0  0  0  0  0  0  0  0  0
  150.5019  140.8043  156.2266 C   0  0  0  0  0  0  0  0  0  0  0  0
  149.7852  140.6824  155.0012 C   0  0  0  0  0  0  0  0  0  0  0  0
  148.5312  141.3897  154.5744 C   0  0  0  0  0  0  0  0  0  0  0  0
  150.3544  139.8168  154.1796 N   0  0  0  0  0  0  0  0  0  0  0  0
  151.4861  139.3409  154.8484 O   0  0  0  0  0  0  0  0  0  0  0  0
  151.5532  139.9434  156.0623 C   0  0  0  0  0  0  0  0  0  0  0  0
  152.7103  139.5673  156.9248 C   0  0  0  0  0  0  0  0  0  0  0  0
  154.4853  142.8709  162.6021 H   0  0  0  0  0  0  0  0  0  0  0  0
  154.9658  142.9880  160.9101 H   0  0  0  0  0  0  0  0  0  0  0  0
  153.7963  141.7684  161.4136 H   0  0  0  0  0  0  0  0  0  0  0  0
  152.1488  143.5703  161.9914 H   0  0  0  0  0  0  0  0  0  0  0  0
  153.3219  144.8010  161.5295 H   0  0  0  0  0  0  0  0  0  0  0  0
  153.8705  145.1913  159.2068 H   0  0  0  0  0  0  0  0  0  0  0  0
  150.8187  145.5933  159.8268 H   0  0  0  0  0  0  0  0  0  0  0  0
  151.9467  146.8944  159.1826 H   0  0  0  0  0  0  0  0  0  0  0  0
  152.4247  145.5222  157.1558 H   0  0  0  0  0  0  0  0  0  0  0  0
  150.1074  144.2156  157.5116 H   0  0  0  0  0  0  0  0  0  0  0  0
  149.9725  141.1011  158.3031 H   0  0  0  0  0  0  0  0  0  0  0  0
  149.2763  142.2756  157.2213 H   0  0  0  0  0  0  0  0  0  0  0  0
  148.4365  142.3582  155.0659 H   0  0  0  0  0  0  0  0  0  0  0  0
  147.6480  140.8021  154.8252 H   0  0  0  0  0  0  0  0  0  0  0  0
  148.5198  141.5672  153.4983 H   0  0  0  0  0  0  0  0  0  0  0  0
  152.6989  140.1195  157.8643 H   0  0  0  0  0  0  0  0  0  0  0  0
  153.6518  139.7840  156.4210 H   0  0  0  0  0  0  0  0  0  0  0  0
  152.6881  138.5027  157.1578 H   0  0  0  0  0  0  0  0  0  0  0  0
  1  2  1  0  0  0  0
  1 18  1  0  0  0  0
  1 19  1  0  0  0  0
  1 20  1  0  0  0  0
  2  3  1  0  0  0  0
  2 21  1  0  0  0  0
  2 22  1  0  0  0  0
  3  4  1  0  0  0  0
  4  6  1  0  0  0  0
  4  5  1  0  0  0  0
  4 23  1  0  0  0  0
  5  6  1  0  0  0  0
  5 24  1  0  0  0  0
  5 25  1  0  0  0  0
  6  7  1  0  0  0  0
  6 26  1  0  0  0  0
  7  8  1  0  0  0  0
  7 27  1  0  0  0  0
  8  9  2  0  0  0  0
  8 10  1  0  0  0  0
 10 11  1  0  0  0  0
 10 28  1  0  0  0  0
 10 29  1  0  0  0  0
 11 16  2  0  0  0  0
 11 12  1  0  0  0  0
 12 13  1  0  0  0  0
 12 14  2  0  0  0  0
 13 30  1  0  0  0  0
 13 31  1  0  0  0  0
 13 32  1  0  0  0  0
 14 15  1  0  0  0  0
 15 16  1  0  0  0  0
 16 17  1  0  0  0  0
 17 33  1  0  0  0  0
 17 34  1  0  0  0  0
 17 35  1  0  0  0  0
M  END
> <s_m_source_file>
AV-unprocessed.smi

> <i_m_source_file_index>
2603

> <i_lp_mmshare_version>
43012

> <i_f3d_flags>
0

> <s_epik_input>
W0NIM11bQ0gyXU9bQ0BASF0xW0NIMl1bQ0BIXTFbTkhdQyg9TylbQ0gyXWMyYyhbQ0gzXSlub2MyW0NIM10=

> <s_epik_cmdline>
J2VwaWtfcHl0aG9uJywgJy1waCcsICc3LjAnLCAnLXRuJywgJzgnLCAnLW1hJywgJzIwMCcsICctbWV0YWxfYmluZGluZycsICctaW1hZScsICc8aW5maWxlLm1hZT4nLCAnLW9tYWUnLCAnPG91dGZpbGUubWFlPic=

> <r_lp_tautomer_probability>
1

> <r_epik_Ionization_Penalty>
2.37325e-08

> <r_epik_Ionization_Penalty_Charging>
0

> <r_epik_Ionization_Penalty_Neutral>
2.37325e-08

> <r_epik_State_Penalty>
-0

> <r_epik_Charging_Adjusted_Penalty>
0

> <i_epik_Tot_Q>
0

> <i_epik_Tot_abs_Q>
0

> <r_epik_Metal_State_Penalty>
-0

> <b_epik_Metal_Only>
0

> <s_lp_Force_Field>
OPLS_2005

> <r_lp_Energy>
11.1697

> <b_lp_Chiralities_Consistent>
1

> <s_lp_Variant>
AV-unprocessed.smi:2603-3

> <Gold.Version>
5.8.1

> <Gold.Id.Protein>
6NUR|6NUR_protein|mol2

> <Gold.PLP.Fitness>
41.9255

> <Gold.PLP.PLP>
-39.3174

> <Gold.PLP.part.hbond>
-2.0170

> <Gold.PLP.part.metal>
0.0000

> <Gold.PLP.part.buried>
-3.5692

> <Gold.PLP.part.nonpolar>
-32.7242

> <Gold.PLP.part.repulsive>
0.8279

> <Gold.PLP.ligand.clash>
0.0000

> <Gold.PLP.ligand.torsion>
0.7756

> <Gold.PLP.Chemscore.Hbond>
1.1580

> <Gold.PLP.Chemscore.CHOScore>
0.0000

> <Gold.PLP.Chemscore.Metal>
0.0000

> <Gold.Chemscore.Hbonds>
donor molecule, donor type, donor heavy atom, donor atom, acceptor molecule, acceptor atom, score
      L1  H     7    27       P1  8028  0.33

> <Gold.PLP.Chemscore.Internal.Correction>
0.6853

> <Gold.Rescore>
     Score         DG    S(hbond)    S(metal)    S(lipo)     H(rot)  DE(clash)    DE(int)     intcor
      9.88     -15.88       0.86        0.00     101.24       1.69       0.80       5.20       ----

> <Gold.Chemscore.Fitness>
9.8815

> <Gold.Chemscore.DG>
-15.8781

> <Gold.Chemscore.ZeroCoef>
-5.4800

> <Gold.Chemscore.Hbond>
0.8645

> <Gold.Chemscore.Metal>
0.0000

> <Gold.Chemscore.Lipo>
101.2424

> <Gold.Chemscore.Internal_Hbond>
0.0000

> <Gold.Chemscore.DEClash>
0.7962

> <Gold.Chemscore.DEInternal>
5.2004

> <Gold.Chemscore.Rot>
1.6933

> <Gold.Chemscore.Internal.Correction>
   9.000000E+99

> <Gold.Chemscore.Hbonds>
donor molecule, donor type, donor heavy atom, donor atom, acceptor molecule, acceptor atom, score
      L1  H     7    27       P1  8028  0.16

> <Gold.Chemscore.Hbond.Weighted>
-2.8875

> <Gold.Chemscore.Metal.Weighted>
-0.0000

> <Gold.Chemscore.Lipo.Weighted>
-11.8454

> <Gold.Chemscore.Internal_Hbond.Weighted>
0.0000

> <Gold.Chemscore.DEClash.Weighted>
0.7962

> <Gold.Chemscore.DEInternal.Weighted>
5.2004

> <Gold.Chemscore.Rot.Weighted>
4.3348

> <Gold.Chemscore.Internal.Correction.Weighted>
   9.000000E+99

> <Gold.Protein.RotatedTorsions>
[ 6907 6896 6895 6894 ] final   61.88 input  -60.11 | X-H torsion
[ 7974 7965 7964 7962 ] final   56.53 input  175.53 | X-H torsion
[ 8008 7997 7996 7995 ] final  159.22 input   59.86 | X-H torsion
[ 10167 10162 10161 10158 ] final -168.92 input  -65.29 | X-H torsion
[ 10718 10713 10712 10709 ] final  -77.15 input   66.30 | X-H torsion
[ 10763 10752 10751 10750 ] final  -16.69 input  -60.55 | X-H torsion
[ 11005 11000 10999 10996 ] final  -10.05 input  -57.11 | X-H torsion

> <Gold.Protein.ActiveResidues>
 VAL166  LYS551  ARG553  GLY616  TRP617  ASP618  TYR619  PRO620  LYS621  CYS622 
 ASP623  PHE694  ASN695  SER759  ASP760  ASP761  ALA762  ILE779  LEU786  VAL792 
 PHE793  MET794  SER795  GLU796  ALA797  LYS798  CYS799  TRP800  GLU811  SER814 

> <Gold.Protein.RotatedAtoms>
  152.4126  134.6098  160.0022 H   0  0  0  0  0  0  0  0  0  0  0  0  # atno 6907 bound_to 6896
  151.6271  133.3329  159.3108 H   0  0  0  0  0  0  0  0  0  0  0  0  # atno 6908 bound_to 6896
  150.8016  134.7153  159.6672 H   0  0  0  0  0  0  0  0  0  0  0  0  # atno 6909 bound_to 6896
  145.9388  139.3870  143.0376 H   0  0  0  0  0  0  0  0  0  0  0  0  # atno 7974 bound_to 7965
  156.2253  140.1837  156.7379 H   0  0  0  0  0  0  0  0  0  0  0  0  # atno 8008 bound_to 7997
  154.5930  140.0647  156.9293 H   0  0  0  0  0  0  0  0  0  0  0  0  # atno 8009 bound_to 7997
  155.2303  140.3314  155.4307 H   0  0  0  0  0  0  0  0  0  0  0  0  # atno 8010 bound_to 7997
  139.5955  144.1122  152.1684 H   0  0  0  0  0  0  0  0  0  0  0  0  # atno 10167 bound_to 10162
  156.0153  130.4484  150.3302 H   0  0  0  0  0  0  0  0  0  0  0  0  # atno 10718 bound_to 10713
  153.5623  135.7009  153.5541 H   0  0  0  0  0  0  0  0  0  0  0  0  # atno 10763 bound_to 10752
  153.3418  135.4019  155.1577 H   0  0  0  0  0  0  0  0  0  0  0  0  # atno 10764 bound_to 10752
  154.8646  135.3744  154.5141 H   0  0  0  0  0  0  0  0  0  0  0  0  # atno 10765 bound_to 10752
  140.7406  133.8673  155.8965 H   0  0  0  0  0  0  0  0  0  0  0  0  # atno 11005 bound_to 11000
  145.8327  140.9622  143.0840 LP  0  0  0  0  0  0  0  0  0  0  0  0  # atno 17320 bound_to 7965
  144.6776  140.0184  143.7484 LP  0  0  0  0  0  0  0  0  0  0  0  0  # atno 17321 bound_to 7965
  140.0706  144.5782  150.7194 LP  0  0  0  0  0  0  0  0  0  0  0  0  # atno 17342 bound_to 10162
  140.7208  143.2587  151.4285 LP  0  0  0  0  0  0  0  0  0  0  0  0  # atno 17343 bound_to 10162
  157.1400  131.0294  151.2932 LP  0  0  0  0  0  0  0  0  0  0  0  0  # atno 17370 bound_to 10713
  157.4480  130.7582  149.7126 LP  0  0  0  0  0  0  0  0  0  0  0  0  # atno 17371 bound_to 10713
  140.9840  134.1368  157.4469 LP  0  0  0  0  0  0  0  0  0  0  0  0  # atno 17394 bound_to 11000
  139.8807  135.0019  156.6097 LP  0  0  0  0  0  0  0  0  0  0  0  0  # atno 17395 bound_to 11000

$$$$
