AV-unprocessed.smi:1396|AV-procd|sdf|5677|dock4
  -GOLD-   22720 5303D 1   1.00000     0.00000
 Structure written by MMmdl.
 46 47  0  0  0  0  0  0  0  0  3 V2000
  148.5072  126.3139  150.9164 C   0  0  0  0  0  0  0  0  0  0  0  0
  148.1212  127.6939  151.1847 N   0  5  0  0  0  0  0  0  0  0  0  0
  147.7240  128.1384  152.4072 C   0  0  0  0  0  0  0  0  0  0  0  0
  148.0676  127.7911  153.5421 O   0  0  0  0  0  0  0  0  0  0  0  0
  146.6531  129.2279  152.2779 C   0  0  0  0  0  0  0  0  0  0  0  0
  147.2512  130.5626  152.5295 N   0  3  2  0  0  0  0  0  0  0  0  0
  147.7724  130.7203  153.9144 C   0  0  0  0  0  0  0  0  0  0  0  0
  148.5004  132.0636  154.0821 C   0  0  0  0  0  0  0  0  0  0  0  0
  147.5818  133.2401  153.7184 C   0  0  1  0  0  0  0  0  0  0  0  0
  148.3237  134.4939  153.8108 N   0  0  0  0  0  0  0  0  0  0  0  0
  149.0050  134.9102  154.8875 C   0  0  0  0  0  0  0  0  0  0  0  0
  149.0710  134.2706  155.9370 O   0  0  0  0  0  0  0  0  0  0  0  0
  149.6048  136.0901  154.6547 N   0  0  0  0  0  0  0  0  0  0  0  0
  150.4329  136.8496  155.5250 C   0  0  0  0  0  0  0  0  0  0  0  0
  151.1801  137.9065  154.9676 C   0  0  0  0  0  0  0  0  0  0  0  0
  152.0002  138.6855  155.8052 C   0  0  0  0  0  0  0  0  0  0  0  0
  152.0411  138.3885  157.1817 C   0  0  0  0  0  0  0  0  0  0  0  0
  152.8492  139.1536  157.9978 O   0  0  0  0  0  0  0  0  0  0  0  0
  152.7867  138.9399  159.4035 C   0  0  0  0  0  0  0  0  0  0  0  0
  151.3141  137.3847  157.7315 N   0  0  0  0  0  0  0  0  0  0  0  0
  150.5304  136.6401  156.9227 C   0  0  0  0  0  0  0  0  0  0  0  0
  147.0223  133.0373  152.2988 C   0  0  0  0  0  0  0  0  0  0  0  0
  146.3321  131.6698  152.1623 C   0  0  0  0  0  0  0  0  0  0  0  0
  148.8202  126.1746  149.8820 H   0  0  0  0  0  0  0  0  0  0  0  0
  147.6886  125.6140  151.0879 H   0  0  0  0  0  0  0  0  0  0  0  0
  149.3401  125.9848  151.5386 H   0  0  0  0  0  0  0  0  0  0  0  0
  146.2714  129.1766  151.2572 H   0  0  0  0  0  0  0  0  0  0  0  0
  145.7961  129.0620  152.9350 H   0  0  0  0  0  0  0  0  0  0  0  0
  146.9477  130.6477  154.6250 H   0  0  0  0  0  0  0  0  0  0  0  0
  148.4650  129.9135  154.1547 H   0  0  0  0  0  0  0  0  0  0  0  0
  148.8510  132.1658  155.1098 H   0  0  0  0  0  0  0  0  0  0  0  0
  149.3891  132.0736  153.4489 H   0  0  0  0  0  0  0  0  0  0  0  0
  146.7537  133.2582  154.4297 H   0  0  0  0  0  0  0  0  0  0  0  0
  148.3268  135.0825  152.9905 H   0  0  0  0  0  0  0  0  0  0  0  0
  149.5124  136.4577  153.7189 H   0  0  0  0  0  0  0  0  0  0  0  0
  151.1322  138.1173  153.9092 H   0  0  0  0  0  0  0  0  0  0  0  0
  152.5874  139.4959  155.3992 H   0  0  0  0  0  0  0  0  0  0  0  0
  153.4780  139.6197  159.9014 H   0  0  0  0  0  0  0  0  0  0  0  0
  153.0774  137.9215  159.6658 H   0  0  0  0  0  0  0  0  0  0  0  0
  151.7879  139.1394  159.7940 H   0  0  0  0  0  0  0  0  0  0  0  0
  149.9611  135.8770  157.4295 H   0  0  0  0  0  0  0  0  0  0  0  0
  146.3134  133.8300  152.0564 H   0  0  0  0  0  0  0  0  0  0  0  0
  147.8291  133.1098  151.5678 H   0  0  0  0  0  0  0  0  0  0  0  0
  145.9949  131.5426  151.1330 H   0  0  0  0  0  0  0  0  0  0  0  0
  145.4435  131.6313  152.7946 H   0  0  0  0  0  0  0  0  0  0  0  0
  148.0436  130.6296  151.9066 H   0  0  0  0  0  0  0  0  0  0  0  0
  1  2  1  0  0  0  0
  1 24  1  0  0  0  0
  1 25  1  0  0  0  0
  1 26  1  0  0  0  0
  2  3  1  0  0  0  0
  3  4  2  0  0  0  0
  3  5  1  0  0  0  0
  5  6  1  0  0  0  0
  5 27  1  0  0  0  0
  5 28  1  0  0  0  0
  6 23  1  0  0  0  0
  6  7  1  0  0  0  0
  6 46  1  0  0  0  0
  7  8  1  0  0  0  0
  7 29  1  0  0  0  0
  7 30  1  0  0  0  0
  8  9  1  0  0  0  0
  8 31  1  0  0  0  0
  8 32  1  0  0  0  0
  9 10  1  0  0  0  0
  9 22  1  0  0  0  0
  9 33  1  0  0  0  0
 10 11  1  0  0  0  0
 10 34  1  0  0  0  0
 11 12  2  0  0  0  0
 11 13  1  0  0  0  0
 13 14  1  0  0  0  0
 13 35  1  0  0  0  0
 14 21  1  0  0  0  0
 14 15  2  0  0  0  0
 15 16  1  0  0  0  0
 15 36  1  0  0  0  0
 16 17  2  0  0  0  0
 16 37  1  0  0  0  0
 17 18  1  0  0  0  0
 17 20  1  0  0  0  0
 18 19  1  0  0  0  0
 19 38  1  0  0  0  0
 19 39  1  0  0  0  0
 19 40  1  0  0  0  0
 20 21  2  0  0  0  0
 21 41  1  0  0  0  0
 22 23  1  0  0  0  0
 22 42  1  0  0  0  0
 22 43  1  0  0  0  0
 23 44  1  0  0  0  0
 23 45  1  0  0  0  0
M  CHG  1   2  -1
M  CHG  1   6   1
M  END
> <s_m_source_file>
AV-unprocessed.smi

> <i_m_source_file_index>
1396

> <i_lp_mmshare_version>
43012

> <i_f3d_flags>
0

> <s_epik_input>
W0NIM11bTkhdQyg9TylbQ0gyXU4xW0NIMl1bQ0gyXVtDSF0oW0NIMl1bQ0gyXTEpW05IXUMoPU8pW05IXWMyW2NIXVtjSF1jKE9bQ0gzXSluW2NIXTI=

> <s_epik_cmdline>
J2VwaWtfcHl0aG9uJywgJy1waCcsICc3LjAnLCAnLXRuJywgJzgnLCAnLW1hJywgJzIwMCcsICctbWV0YWxfYmluZGluZycsICctaW1hZScsICc8aW5maWxlLm1hZT4nLCAnLW9tYWUnLCAnPG91dGZpbGUubWFlPic=

> <r_lp_tautomer_probability>
1

> <r_epik_Ionization_Penalty>
6.13954

> <r_epik_Ionization_Penalty_Charging>
6.13946

> <r_epik_Ionization_Penalty_Neutral>
7.8452e-05

> <r_epik_State_Penalty>
6.9595

> <r_epik_Charging_Adjusted_Penalty>
13.099

> <i_epik_Tot_Q>
0

> <i_epik_Tot_abs_Q>
2

> <r_epik_Metal_State_Penalty>
2.89145

> <b_epik_Metal_Only>
1

> <s_lp_Force_Field>
OPLS_2005

> <r_lp_Energy>
12.8454

> <b_lp_Chiralities_Consistent>
1

> <s_lp_Variant>
AV-unprocessed.smi:1396-4

> <Gold.Version>
5.8.1

> <Gold.Id.Protein>
6NUR|6NUR_protein|mol2

> <Gold.PLP.Fitness>
49.2362

> <Gold.PLP.PLP>
-38.4324

> <Gold.PLP.part.hbond>
-4.3182

> <Gold.PLP.part.metal>
0.0000

> <Gold.PLP.part.buried>
-4.1887

> <Gold.PLP.part.nonpolar>
-30.3266

> <Gold.PLP.part.repulsive>
0.4121

> <Gold.PLP.ligand.clash>
0.0000

> <Gold.PLP.ligand.torsion>
0.6050

> <Gold.PLP.Chemscore.Hbond>
3.9760

> <Gold.PLP.Chemscore.CHOScore>
0.0000

> <Gold.PLP.Chemscore.Metal>
0.0000

> <Gold.Chemscore.Hbonds>
donor molecule, donor type, donor heavy atom, donor atom, acceptor molecule, acceptor atom, score
      L1  H     6    46       P1 10747  1.00
      L1  H    10    34       P1  7948  1.00
      L1  H    13    35       P1  7948  1.00
      P1  H  7997  8009       L1    18  0.52

> <Gold.PLP.Chemscore.Internal.Correction>
0.0858

> <Gold.Rescore>
     Score         DG    S(hbond)    S(metal)    S(lipo)     H(rot)  DE(clash)    DE(int)     intcor
     16.96     -19.79       3.32        0.00      69.84       1.93       0.00       2.84       ----

> <Gold.Chemscore.Fitness>
16.9555

> <Gold.Chemscore.DG>
-19.7944

> <Gold.Chemscore.ZeroCoef>
-5.4800

> <Gold.Chemscore.Hbond>
3.3172

> <Gold.Chemscore.Metal>
0.0000

> <Gold.Chemscore.Lipo>
69.8419

> <Gold.Chemscore.Internal_Hbond>
0.0000

> <Gold.Chemscore.DEClash>
0.0000

> <Gold.Chemscore.DEInternal>
2.8388

> <Gold.Chemscore.Rot>
1.9283

> <Gold.Chemscore.Internal.Correction>
   9.000000E+99

> <Gold.Chemscore.Hbonds>
donor molecule, donor type, donor heavy atom, donor atom, acceptor molecule, acceptor atom, score
      L1  H     6    46       P1 10747  0.99
      L1  H    10    34       P1  7948  0.87
      L1  H    13    35       P1  7948  0.70
      P1  H  7997  8009       L1    18  0.48

> <Gold.Chemscore.Hbond.Weighted>
-11.0794

> <Gold.Chemscore.Metal.Weighted>
-0.0000

> <Gold.Chemscore.Lipo.Weighted>
-8.1715

> <Gold.Chemscore.Internal_Hbond.Weighted>
0.0000

> <Gold.Chemscore.DEClash.Weighted>
0.0000

> <Gold.Chemscore.DEInternal.Weighted>
2.8388

> <Gold.Chemscore.Rot.Weighted>
4.9365

> <Gold.Chemscore.Internal.Correction.Weighted>
   9.000000E+99

> <Gold.Protein.RotatedTorsions>
[ 6907 6896 6895 6894 ] final  -25.99 input  -60.11 | X-H torsion
[ 7974 7965 7964 7962 ] final -163.60 input  175.53 | X-H torsion
[ 8008 7997 7996 7995 ] final  145.01 input   59.86 | X-H torsion
[ 10167 10162 10161 10158 ] final -110.01 input  -65.29 | X-H torsion
[ 10718 10713 10712 10709 ] final  -82.54 input   66.30 | X-H torsion
[ 10763 10752 10751 10750 ] final  167.11 input  -60.55 | X-H torsion
[ 11005 11000 10999 10996 ] final  -43.20 input  -57.11 | X-H torsion

> <Gold.Protein.ActiveResidues>
 VAL166  LYS551  ARG553  GLY616  TRP617  ASP618  TYR619  PRO620  LYS621  CYS622 
 ASP623  PHE694  ASN695  SER759  ASP760  ASP761  ALA762  ILE779  LEU786  VAL792 
 PHE793  MET794  SER795  GLU796  ALA797  LYS798  CYS799  TRP800  GLU811  SER814 

> <Gold.Protein.RotatedAtoms>
  151.1673  135.0301  159.8735 H   0  0  0  0  0  0  0  0  0  0  0  0  # atno 6907 bound_to 6896
  152.5450  134.1211  159.8409 H   0  0  0  0  0  0  0  0  0  0  0  0  # atno 6908 bound_to 6896
  151.1313  133.4989  159.2631 H   0  0  0  0  0  0  0  0  0  0  0  0  # atno 6909 bound_to 6896
  144.7321  140.3084  143.6192 H   0  0  0  0  0  0  0  0  0  0  0  0  # atno 7974 bound_to 7965
  156.2894  140.2220  156.5146 H   0  0  0  0  0  0  0  0  0  0  0  0  # atno 8008 bound_to 7997
  154.7580  140.0475  157.0971 H   0  0  0  0  0  0  0  0  0  0  0  0  # atno 8009 bound_to 7997
  155.0027  140.3103  155.4864 H   0  0  0  0  0  0  0  0  0  0  0  0  # atno 8010 bound_to 7997
  140.1491  143.4214  152.1508 H   0  0  0  0  0  0  0  0  0  0  0  0  # atno 10167 bound_to 10162
  156.0031  130.4637  150.4120 H   0  0  0  0  0  0  0  0  0  0  0  0  # atno 10718 bound_to 10713
  154.3490  135.2753  155.2382 H   0  0  0  0  0  0  0  0  0  0  0  0  # atno 10763 bound_to 10752
  154.4620  135.5905  153.6265 H   0  0  0  0  0  0  0  0  0  0  0  0  # atno 10764 bound_to 10752
  152.9851  135.6067  154.3699 H   0  0  0  0  0  0  0  0  0  0  0  0  # atno 10765 bound_to 10752
  141.0368  133.6796  156.2700 H   0  0  0  0  0  0  0  0  0  0  0  0  # atno 11005 bound_to 11000
  145.7690  139.1850  143.2223 LP  0  0  0  0  0  0  0  0  0  0  0  0  # atno 17320 bound_to 7965
  146.0926  140.7638  142.9588 LP  0  0  0  0  0  0  0  0  0  0  0  0  # atno 17321 bound_to 7965
  139.5435  144.7277  151.4659 LP  0  0  0  0  0  0  0  0  0  0  0  0  # atno 17342 bound_to 10162
  140.6714  143.8286  150.7004 LP  0  0  0  0  0  0  0  0  0  0  0  0  # atno 17343 bound_to 10162
  157.2182  131.0476  151.2561 LP  0  0  0  0  0  0  0  0  0  0  0  0  # atno 17370 bound_to 10713
  157.3825  130.7239  149.6640 LP  0  0  0  0  0  0  0  0  0  0  0  0  # atno 17371 bound_to 10713
  140.6308  134.5266  157.5559 LP  0  0  0  0  0  0  0  0  0  0  0  0  # atno 17394 bound_to 11000
  139.9246  134.8081  156.1107 LP  0  0  0  0  0  0  0  0  0  0  0  0  # atno 17395 bound_to 11000

$$$$
