AV-unprocessed.smi:2510|AV-procd|sdf|9874|dock9
  -GOLD-   2272013503D 1   1.00000     0.00000
 Structure written by MMmdl.
 48 49  0  0  0  0  0  0  0  0  1 V2000
  149.5488  141.3608  154.8456 C   0  0  0  0  0  0  0  0  0  0  0  0
  149.5568  140.9402  156.3247 C   0  0  0  0  0  0  0  0  0  0  0  0
  150.8862  140.3594  156.8863 C   0  0  0  0  0  0  0  0  0  0  0  0
  151.8094  141.5714  157.1634 C   0  0  0  0  0  0  0  0  0  0  0  0
  151.4008  142.4356  158.3696 C   0  0  0  0  0  0  0  0  0  0  0  0
  150.8185  139.3496  158.0722 C   0  0  1  0  0  0  0  0  0  0  0  0
  149.5695  138.5897  158.1455 N   0  0  0  0  0  0  0  0  0  0  0  0
  149.3297  137.6004  159.0198 C   0  0  0  0  0  0  0  0  0  0  0  0
  150.1438  137.2328  159.8666 O   0  0  0  0  0  0  0  0  0  0  0  0
  147.9625  136.9217  158.9285 C   0  0  0  0  0  0  0  0  0  0  0  0
  147.4436  136.6070  160.3064 C   0  0  0  0  0  0  0  0  0  0  0  0
  147.0305  135.3431  160.8237 C   0  0  0  0  0  0  0  0  0  0  0  0
  146.6664  135.6074  162.1138 C   0  0  0  0  0  0  0  0  0  0  0  0
  146.1579  134.7184  163.1970 C   0  0  0  0  0  0  0  0  0  0  0  0
  146.8626  136.9563  162.2993 N   0  0  0  0  0  0  0  0  0  0  0  0
  147.3342  137.5782  161.2027 N   0  0  0  0  0  0  0  0  0  0  0  0
  151.9561  138.5340  157.4310 C   0  0  1  0  0  0  0  0  0  0  0  0
  151.9812  137.0119  157.5517 C   0  0  0  0  0  0  0  0  0  0  0  0
  151.5575  139.1943  156.1032 C   0  0  2  0  0  0  0  0  0  0  0  0
  152.6394  139.6320  155.2937 O   0  0  0  0  0  0  0  0  0  0  0  0
  153.2114  138.5963  154.5139 C   0  0  0  0  0  0  0  0  0  0  0  0
  146.6802  137.4590  163.1564 H   0  0  0  0  0  0  0  0  0  0  0  0
  148.5535  141.6920  154.5487 H   0  0  0  0  0  0  0  0  0  0  0  0
  149.8289  140.5437  154.1834 H   0  0  0  0  0  0  0  0  0  0  0  0
  150.2313  142.1916  154.6663 H   0  0  0  0  0  0  0  0  0  0  0  0
  149.2549  141.8224  156.8903 H   0  0  0  0  0  0  0  0  0  0  0  0
  148.7515  140.2221  156.4805 H   0  0  0  0  0  0  0  0  0  0  0  0
  152.8328  141.2363  157.3319 H   0  0  0  0  0  0  0  0  0  0  0  0
  151.8690  142.2081  156.2798 H   0  0  0  0  0  0  0  0  0  0  0  0
  152.1166  143.2443  158.5181 H   0  0  0  0  0  0  0  0  0  0  0  0
  151.3692  141.8568  159.2921 H   0  0  0  0  0  0  0  0  0  0  0  0
  150.4219  142.8935  158.2297 H   0  0  0  0  0  0  0  0  0  0  0  0
  151.1256  139.7677  159.0316 H   0  0  0  0  0  0  0  0  0  0  0  0
  148.8429  138.8322  157.4873 H   0  0  0  0  0  0  0  0  0  0  0  0
  147.2748  137.5719  158.3854 H   0  0  0  0  0  0  0  0  0  0  0  0
  148.0513  136.0062  158.3426 H   0  0  0  0  0  0  0  0  0  0  0  0
  147.0145  134.3862  160.3228 H   0  0  0  0  0  0  0  0  0  0  0  0
  145.8451  133.7546  162.7947 H   0  0  0  0  0  0  0  0  0  0  0  0
  145.3012  135.1671  163.7006 H   0  0  0  0  0  0  0  0  0  0  0  0
  146.9328  134.5366  163.9420 H   0  0  0  0  0  0  0  0  0  0  0  0
  152.9071  138.9485  157.7693 H   0  0  0  0  0  0  0  0  0  0  0  0
  151.1262  136.5522  157.0551 H   0  0  0  0  0  0  0  0  0  0  0  0
  151.9630  136.7012  158.5964 H   0  0  0  0  0  0  0  0  0  0  0  0
  152.8815  136.5934  157.1029 H   0  0  0  0  0  0  0  0  0  0  0  0
  150.8563  138.5661  155.5533 H   0  0  0  0  0  0  0  0  0  0  0  0
  153.9957  139.0091  153.8797 H   0  0  0  0  0  0  0  0  0  0  0  0
  152.4670  138.1297  153.8673 H   0  0  0  0  0  0  0  0  0  0  0  0
  153.6625  137.8286  155.1422 H   0  0  0  0  0  0  0  0  0  0  0  0
  1  2  1  0  0  0  0
  1 23  1  0  0  0  0
  1 24  1  0  0  0  0
  1 25  1  0  0  0  0
  2  3  1  0  0  0  0
  2 26  1  0  0  0  0
  2 27  1  0  0  0  0
  3 19  1  0  0  0  0
  3  4  1  0  0  0  0
  3  6  1  0  0  0  0
  4  5  1  0  0  0  0
  4 28  1  0  0  0  0
  4 29  1  0  0  0  0
  5 30  1  0  0  0  0
  5 31  1  0  0  0  0
  5 32  1  0  0  0  0
  6  7  1  0  0  0  0
  6 17  1  0  0  0  0
  6 33  1  0  0  0  0
  7  8  1  0  0  0  0
  7 34  1  0  0  0  0
  8  9  2  0  0  0  0
  8 10  1  0  0  0  0
 10 11  1  0  0  0  0
 10 35  1  0  0  0  0
 10 36  1  0  0  0  0
 11 16  2  0  0  0  0
 11 12  1  0  0  0  0
 12 13  2  0  0  0  0
 12 37  1  0  0  0  0
 13 14  1  0  0  0  0
 13 15  1  0  0  0  0
 14 38  1  0  0  0  0
 14 39  1  0  0  0  0
 14 40  1  0  0  0  0
 15 22  1  0  0  0  0
 15 16  1  0  0  0  0
 17 18  1  0  0  0  0
 17 19  1  0  0  0  0
 17 41  1  0  0  0  0
 18 42  1  0  0  0  0
 18 43  1  0  0  0  0
 18 44  1  0  0  0  0
 19 20  1  0  0  0  0
 19 45  1  0  0  0  0
 20 21  1  0  0  0  0
 21 46  1  0  0  0  0
 21 47  1  0  0  0  0
 21 48  1  0  0  0  0
M  END
> <s_m_source_file>
AV-unprocessed.smi

> <i_m_source_file_index>
2510

> <i_lp_mmshare_version>
43012

> <i_f3d_flags>
0

> <s_epik_input>
W0NIM11PW0NAQEhdMVtDQEhdKFtDSDNdKVtDQEBIXShDMShbQ0gyXVtDSDNdKVtDSDJdW0NIM10pW05IXUMoPU8pW0NIMl1jMltjSF1jKFtDSDNdKVtuSF1uMg==

> <s_epik_cmdline>
J2VwaWtfcHl0aG9uJywgJy1waCcsICc3LjAnLCAnLXRuJywgJzgnLCAnLW1hJywgJzIwMCcsICctbWV0YWxfYmluZGluZycsICctaW1hZScsICc8aW5maWxlLm1hZT4nLCAnLW9tYWUnLCAnPG91dGZpbGUubWFlPic=

> <r_lp_tautomer_probability>
0.5

> <r_epik_Ionization_Penalty>
9.73156e-05

> <r_epik_Ionization_Penalty_Charging>
0

> <r_epik_Ionization_Penalty_Neutral>
9.73156e-05

> <r_epik_State_Penalty>
0.41068

> <r_epik_Charging_Adjusted_Penalty>
0.41068

> <i_epik_Tot_Q>
0

> <i_epik_Tot_abs_Q>
0

> <r_epik_Metal_State_Penalty>
0.410699

> <b_epik_Metal_Only>
0

> <s_lp_Force_Field>
OPLS_2005

> <r_lp_Energy>
25.9502

> <b_lp_Chiralities_Consistent>
1

> <s_lp_Variant>
AV-unprocessed.smi:2510-5

> <Gold.Version>
5.8.1

> <Gold.Id.Protein>
6NUR|6NUR_protein|mol2

> <Gold.PLP.Fitness>
41.7648

> <Gold.PLP.PLP>
-31.6699

> <Gold.PLP.part.hbond>
-4.9111

> <Gold.PLP.part.metal>
0.0000

> <Gold.PLP.part.buried>
-5.0393

> <Gold.PLP.part.nonpolar>
-22.7509

> <Gold.PLP.part.repulsive>
0.2763

> <Gold.PLP.ligand.clash>
0.0000

> <Gold.PLP.ligand.torsion>
0.9803

> <Gold.PLP.Chemscore.Hbond>
3.8330

> <Gold.PLP.Chemscore.CHOScore>
0.0000

> <Gold.PLP.Chemscore.Metal>
0.0000

> <Gold.Chemscore.Hbonds>
donor molecule, donor type, donor heavy atom, donor atom, acceptor molecule, acceptor atom, score
      P1  H  6896  6909       L1     9  0.18
      P1  H  6931  6943       L1    16  0.67
      P1  H  6934  6947       L1    16  0.85
      P1  H  7989  7998       L1    20  0.07
      P1  H  7997  8009       L1    20  0.80

> <Gold.PLP.Chemscore.Internal.Correction>
0.5563

> <Gold.Rescore>
     Score         DG    S(hbond)    S(metal)    S(lipo)     H(rot)  DE(clash)    DE(int)     intcor
     20.58     -21.85       3.20        0.00      88.25       1.81       0.29       0.98       ----

> <Gold.Chemscore.Fitness>
20.5789

> <Gold.Chemscore.DG>
-21.8542

> <Gold.Chemscore.ZeroCoef>
-5.4800

> <Gold.Chemscore.Hbond>
3.1986

> <Gold.Chemscore.Metal>
0.0000

> <Gold.Chemscore.Lipo>
88.2474

> <Gold.Chemscore.Internal_Hbond>
0.0000

> <Gold.Chemscore.DEClash>
0.2932

> <Gold.Chemscore.DEInternal>
0.9821

> <Gold.Chemscore.Rot>
1.8102

> <Gold.Chemscore.Internal.Correction>
   9.000000E+99

> <Gold.Chemscore.Hbonds>
donor molecule, donor type, donor heavy atom, donor atom, acceptor molecule, acceptor atom, score
      P1  H  6896  6909       L1     9  0.19
      P1  H  6931  6943       L1    16  0.15
      P1  H  6934  6947       L1    16  0.79
      P1  H  7989  7998       L1    20  0.01
      P1  H  7997  8009       L1    20  0.11

> <Gold.Chemscore.Hbond.Weighted>
-10.6833

> <Gold.Chemscore.Metal.Weighted>
-0.0000

> <Gold.Chemscore.Lipo.Weighted>
-10.3249

> <Gold.Chemscore.Internal_Hbond.Weighted>
0.0000

> <Gold.Chemscore.DEClash.Weighted>
0.2932

> <Gold.Chemscore.DEInternal.Weighted>
0.9821

> <Gold.Chemscore.Rot.Weighted>
4.6341

> <Gold.Chemscore.Internal.Correction.Weighted>
   9.000000E+99

> <Gold.Protein.RotatedTorsions>
[ 6907 6896 6895 6894 ] final   91.77 input  -60.11 | X-H torsion
[ 7974 7965 7964 7962 ] final  -26.52 input  175.53 | X-H torsion
[ 8008 7997 7996 7995 ] final -158.05 input   59.86 | X-H torsion
[ 10167 10162 10161 10158 ] final  178.95 input  -65.29 | X-H torsion
[ 10718 10713 10712 10709 ] final   68.67 input   66.30 | X-H torsion
[ 10763 10752 10751 10750 ] final -163.96 input  -60.55 | X-H torsion
[ 11005 11000 10999 10996 ] final  -20.80 input  -57.11 | X-H torsion

> <Gold.Protein.ActiveResidues>
 VAL166  LYS551  ARG553  GLY616  TRP617  ASP618  TYR619  PRO620  LYS621  CYS622 
 ASP623  PHE694  ASN695  SER759  ASP760  ASP761  ALA762  ILE779  LEU786  VAL792 
 PHE793  MET794  SER795  GLU796  ALA797  LYS798  CYS799  TRP800  GLU811  SER814 

> <Gold.Protein.RotatedAtoms>
  152.5451  134.1605  159.8555 H   0  0  0  0  0  0  0  0  0  0  0  0  # atno 6907 bound_to 6896
  151.1624  133.4829  159.2601 H   0  0  0  0  0  0  0  0  0  0  0  0  # atno 6908 bound_to 6896
  151.1359  135.0165  159.8659 H   0  0  0  0  0  0  0  0  0  0  0  0  # atno 6909 bound_to 6896
  146.1420  140.5030  142.8648 H   0  0  0  0  0  0  0  0  0  0  0  0  # atno 7974 bound_to 7965
  155.7417  140.0815  157.2242 H   0  0  0  0  0  0  0  0  0  0  0  0  # atno 8008 bound_to 7997
  154.4021  140.1576  156.2679 H   0  0  0  0  0  0  0  0  0  0  0  0  # atno 8009 bound_to 7997
  155.9013  140.3409  155.6032 H   0  0  0  0  0  0  0  0  0  0  0  0  # atno 8010 bound_to 7997
  139.5315  144.2619  152.0700 H   0  0  0  0  0  0  0  0  0  0  0  0  # atno 10167 bound_to 10162
  157.6303  130.9386  150.0409 H   0  0  0  0  0  0  0  0  0  0  0  0  # atno 10718 bound_to 10713
  154.7073  135.2999  154.9251 H   0  0  0  0  0  0  0  0  0  0  0  0  # atno 10763 bound_to 10752
  154.0164  135.6688  153.4773 H   0  0  0  0  0  0  0  0  0  0  0  0  # atno 10764 bound_to 10752
  153.0727  135.5052  154.8251 H   0  0  0  0  0  0  0  0  0  0  0  0  # atno 10765 bound_to 10752
  140.8499  133.7864  155.9954 H   0  0  0  0  0  0  0  0  0  0  0  0  # atno 11005 bound_to 11000
  144.7803  140.5826  143.6610 LP  0  0  0  0  0  0  0  0  0  0  0  0  # atno 17320 bound_to 7965
  145.5025  139.1482  143.3649 LP  0  0  0  0  0  0  0  0  0  0  0  0  # atno 17321 bound_to 7965
  140.2083  144.4588  150.6398 LP  0  0  0  0  0  0  0  0  0  0  0  0  # atno 17342 bound_to 10162
  140.6496  143.2222  151.6106 LP  0  0  0  0  0  0  0  0  0  0  0  0  # atno 17343 bound_to 10162
  156.1501  130.3642  149.9451 LP  0  0  0  0  0  0  0  0  0  0  0  0  # atno 17370 bound_to 10713
  156.7472  130.9102  151.3635 LP  0  0  0  0  0  0  0  0  0  0  0  0  # atno 17371 bound_to 10713
  140.8801  134.2621  157.5148 LP  0  0  0  0  0  0  0  0  0  0  0  0  # atno 17394 bound_to 11000
  139.8704  134.9611  156.4385 LP  0  0  0  0  0  0  0  0  0  0  0  0  # atno 17395 bound_to 11000

$$$$
