AV-unprocessed.smi:28|AV-procd|sdf|189|dock10
  -GOLD-   2262015453D 1   1.00000     0.00000
 Structure written by MMmdl.
 41 44  0  0  0  0  0  0  0  0  1 V2000
  151.5437  135.8619  156.0813 O   0  0  0  0  0  0  0  0  0  0  0  0
  150.9955  136.8878  155.6748 C   0  0  0  0  0  0  0  0  0  0  0  0
  149.7267  136.8862  154.9547 C   0  0  0  0  0  0  0  0  0  0  0  0
  149.0966  135.7222  154.7227 F   0  0  0  0  0  0  0  0  0  0  0  0
  149.1733  138.0357  154.5111 C   0  0  0  0  0  0  0  0  0  0  0  0
  149.7550  139.2786  154.7041 N   0  0  0  0  0  0  0  0  0  0  0  0
  149.1279  140.5522  154.1757 C   0  0  2  0  0  0  0  0  0  0  0  0
  148.7207  141.4804  155.3364 C   0  0  0  0  0  0  0  0  0  0  0  0
  147.2694  141.7900  155.0265 C   0  0  0  0  0  0  0  0  0  0  0  0
  146.8313  140.5378  154.2825 C   0  0  0  0  0  0  0  0  0  0  0  0
  147.9594  140.2498  153.4672 O   0  0  0  0  0  0  0  0  0  0  0  0
  150.9885  139.3738  155.3848 C   0  0  0  0  0  0  0  0  0  0  0  0
  151.5367  140.4672  155.5438 O   0  0  0  0  0  0  0  0  0  0  0  0
  151.5629  138.1723  155.8630 N   0  0  0  0  0  0  0  0  0  0  0  0
  152.8479  138.2563  156.5370 C   0  0  0  0  0  0  0  0  0  0  0  0
  152.6786  138.8420  157.9034 C   0  0  0  0  0  0  0  0  0  0  0  0
  152.7703  138.2105  159.0752 N   0  0  0  0  0  0  0  0  0  0  0  0
  152.5580  139.1733  160.0353 N   0  0  0  0  0  0  0  0  0  0  0  0
  152.3603  140.3186  159.3743 C   0  0  0  0  0  0  0  0  0  0  0  0
  152.0793  141.6486  159.9028 C   0  0  0  0  0  0  0  0  0  0  0  0
  152.3801  141.9159  161.2564 C   0  0  0  0  0  0  0  0  0  0  0  0
  152.1242  143.1851  161.8091 C   0  0  0  0  0  0  0  0  0  0  0  0
  151.5585  144.1968  161.0122 C   0  0  0  0  0  0  0  0  0  0  0  0
  151.2437  143.9349  159.6658 C   0  0  0  0  0  0  0  0  0  0  0  0
  151.4965  142.6660  159.1063 C   0  0  0  0  0  0  0  0  0  0  0  0
  151.0047  142.3661  157.2879 Br  0  0  0  0  0  0  0  0  0  0  0  0
  152.4091  140.1672  158.0244 O   0  0  0  0  0  0  0  0  0  0  0  0
  148.2367  137.9581  153.9807 H   0  0  0  0  0  0  0  0  0  0  0  0
  149.8650  140.9825  153.4954 H   0  0  0  0  0  0  0  0  0  0  0  0
  148.8025  140.9546  156.2893 H   0  0  0  0  0  0  0  0  0  0  0  0
  149.3521  142.3691  155.3663 H   0  0  0  0  0  0  0  0  0  0  0  0
  146.6740  141.9884  155.9180 H   0  0  0  0  0  0  0  0  0  0  0  0
  147.2027  142.6574  154.3685 H   0  0  0  0  0  0  0  0  0  0  0  0
  146.6478  139.7168  154.9774 H   0  0  0  0  0  0  0  0  0  0  0  0
  145.9327  140.6928  153.6851 H   0  0  0  0  0  0  0  0  0  0  0  0
  153.2827  137.2567  156.5857 H   0  0  0  0  0  0  0  0  0  0  0  0
  153.5290  138.8570  155.9323 H   0  0  0  0  0  0  0  0  0  0  0  0
  152.8173  141.1470  161.8772 H   0  0  0  0  0  0  0  0  0  0  0  0
  152.3626  143.3819  162.8440 H   0  0  0  0  0  0  0  0  0  0  0  0
  151.3610  145.1712  161.4341 H   0  0  0  0  0  0  0  0  0  0  0  0
  150.7996  144.7106  159.0594 H   0  0  0  0  0  0  0  0  0  0  0  0
  1  2  2  0  0  0  0
  2 14  1  0  0  0  0
  2  3  1  0  0  0  0
  3  4  1  0  0  0  0
  3  5  2  0  0  0  0
  5  6  1  0  0  0  0
  5 28  1  0  0  0  0
  6  7  1  0  0  0  0
  6 12  1  0  0  0  0
  7 11  1  0  0  0  0
  7  8  1  0  0  0  0
  7 29  1  0  0  0  0
  8  9  1  0  0  0  0
  8 30  1  0  0  0  0
  8 31  1  0  0  0  0
  9 10  1  0  0  0  0
  9 32  1  0  0  0  0
  9 33  1  0  0  0  0
 10 11  1  0  0  0  0
 10 34  1  0  0  0  0
 10 35  1  0  0  0  0
 12 13  2  0  0  0  0
 12 14  1  0  0  0  0
 14 15  1  0  0  0  0
 15 16  1  0  0  0  0
 15 36  1  0  0  0  0
 15 37  1  0  0  0  0
 16 27  1  0  0  0  0
 16 17  2  0  0  0  0
 17 18  1  0  0  0  0
 18 19  2  0  0  0  0
 19 20  1  0  0  0  0
 19 27  1  0  0  0  0
 20 25  1  0  0  0  0
 20 21  2  0  0  0  0
 21 22  1  0  0  0  0
 21 38  1  0  0  0  0
 22 23  2  0  0  0  0
 22 39  1  0  0  0  0
 23 24  1  0  0  0  0
 23 40  1  0  0  0  0
 24 25  2  0  0  0  0
 24 41  1  0  0  0  0
 25 26  1  0  0  0  0
M  END
> <s_m_source_file>
AV-unprocessed.smi

> <i_m_source_file_index>
28

> <i_lp_mmshare_version>
43012

> <i_f3d_flags>
0

> <s_epik_input>
TzFbQ0gyXVtDSDJdW0NIMl1bQ0BIXTFuKFtjSF1jKEYpYzI9TyljKD1PKW4yW0NIMl1jM25uYyhvMyktYzRbY0hdW2NIXVtjSF1bY0hdYzRCcg==

> <s_epik_cmdline>
J2VwaWtfcHl0aG9uJywgJy1waCcsICc3LjAnLCAnLXRuJywgJzgnLCAnLW1hJywgJzIwMCcsICctbWV0YWxfYmluZGluZycsICctaW1hZScsICc8aW5maWxlLm1hZT4nLCAnLW9tYWUnLCAnPG91dGZpbGUubWFlPic=

> <r_lp_tautomer_probability>
1

> <r_epik_Ionization_Penalty>
2.5628e-09

> <r_epik_Ionization_Penalty_Charging>
2.54231e-09

> <r_epik_Ionization_Penalty_Neutral>
2.0492e-11

> <r_epik_State_Penalty>
-0

> <r_epik_Charging_Adjusted_Penalty>
2.54231e-09

> <i_epik_Tot_Q>
0

> <i_epik_Tot_abs_Q>
0

> <r_epik_Metal_State_Penalty>
-0

> <b_epik_Metal_Only>
0

> <s_epik_Chemistry_Notes>
This compound contains an acetal/aminal-like group ( X-CH(R)-Y where X, Y are N, S, or O) that may be acid/base labile, releasing an aldehyde.

> <s_lp_Force_Field>
OPLS_2005

> <r_lp_Energy>
34.3922

> <b_lp_Chiralities_Consistent>
1

> <s_lp_Variant>
AV-unprocessed.smi:28-1

> <Gold.Version>
5.8.1

> <Gold.Id.Protein>
6NUR|6NUR_protein|mol2

> <Gold.PLP.Fitness>
51.1040

> <Gold.PLP.PLP>
-46.3519

> <Gold.PLP.part.hbond>
-2.9769

> <Gold.PLP.part.metal>
0.0000

> <Gold.PLP.part.buried>
-2.4635

> <Gold.PLP.part.nonpolar>
-41.2248

> <Gold.PLP.part.repulsive>
0.8152

> <Gold.PLP.ligand.clash>
0.0000

> <Gold.PLP.ligand.torsion>
0.4565

> <Gold.PLP.Chemscore.Hbond>
1.8800

> <Gold.PLP.Chemscore.CHOScore>
0.0000

> <Gold.PLP.Chemscore.Metal>
0.0000

> <Gold.Chemscore.Hbonds>
donor molecule, donor type, donor heavy atom, donor atom, acceptor molecule, acceptor atom, score
      P1  H  7989  7998       L1    13  0.55
      P1  H 10752 10763       L1     1  1.00
      L1  C     5    28       P1  7948  0.12

> <Gold.PLP.Chemscore.Internal.Correction>
0.0251

> <Gold.Rescore>
     Score         DG    S(hbond)    S(metal)    S(lipo)     H(rot)  DE(clash)    DE(int)     intcor
     15.16     -18.67       1.84        0.00      97.45       1.70       0.21       3.30       ----

> <Gold.Chemscore.Fitness>
15.1592

> <Gold.Chemscore.DG>
-18.6699

> <Gold.Chemscore.ZeroCoef>
-5.4800

> <Gold.Chemscore.Hbond>
1.8367

> <Gold.Chemscore.Metal>
0.0000

> <Gold.Chemscore.Lipo>
97.4547

> <Gold.Chemscore.Internal_Hbond>
0.0000

> <Gold.Chemscore.DEClash>
0.2093

> <Gold.Chemscore.DEInternal>
3.3015

> <Gold.Chemscore.Rot>
1.6980

> <Gold.Chemscore.Internal.Correction>
   9.000000E+99

> <Gold.Chemscore.Hbonds>
donor molecule, donor type, donor heavy atom, donor atom, acceptor molecule, acceptor atom, score
      P1  H  7989  7998       L1    13  0.07
      P1  H 10752 10763       L1     1  0.70

> <Gold.Chemscore.Hbond.Weighted>
-6.1346

> <Gold.Chemscore.Metal.Weighted>
-0.0000

> <Gold.Chemscore.Lipo.Weighted>
-11.4022

> <Gold.Chemscore.Internal_Hbond.Weighted>
0.0000

> <Gold.Chemscore.DEClash.Weighted>
0.2093

> <Gold.Chemscore.DEInternal.Weighted>
3.3015

> <Gold.Chemscore.Rot.Weighted>
4.3469

> <Gold.Chemscore.Internal.Correction.Weighted>
   9.000000E+99

> <Gold.Protein.RotatedTorsions>
[ 6907 6896 6895 6894 ] final   63.97 input  -60.11 | X-H torsion
[ 7974 7965 7964 7962 ] final -158.96 input  175.53 | X-H torsion
[ 8008 7997 7996 7995 ] final -145.29 input   59.86 | X-H torsion
[ 10167 10162 10161 10158 ] final -179.63 input  -65.29 | X-H torsion
[ 10718 10713 10712 10709 ] final   15.47 input   66.30 | X-H torsion
[ 10763 10752 10751 10750 ] final   82.38 input  -60.55 | X-H torsion
[ 11005 11000 10999 10996 ] final -164.07 input  -57.11 | X-H torsion

> <Gold.Protein.ActiveResidues>
 VAL166  LYS551  ARG553  GLY616  TRP617  ASP618  TYR619  PRO620  LYS621  CYS622 
 ASP623  PHE694  ASN695  SER759  ASP760  ASP761  ALA762  ILE779  LEU786  VAL792 
 PHE793  MET794  SER795  GLU796  ALA797  LYS798  CYS799  TRP800  GLU811  SER814 

> <Gold.Protein.RotatedAtoms>
  152.4295  134.5805  159.9946 H   0  0  0  0  0  0  0  0  0  0  0  0  # atno 6907 bound_to 6896
  151.5932  133.3358  159.3040 H   0  0  0  0  0  0  0  0  0  0  0  0  # atno 6908 bound_to 6896
  150.8186  134.7418  159.6817 H   0  0  0  0  0  0  0  0  0  0  0  0  # atno 6909 bound_to 6896
  144.7484  140.3753  143.6067 H   0  0  0  0  0  0  0  0  0  0  0  0  # atno 7974 bound_to 7965
  155.5407  140.0608  157.2870 H   0  0  0  0  0  0  0  0  0  0  0  0  # atno 8008 bound_to 7997
  154.4453  140.1919  156.0632 H   0  0  0  0  0  0  0  0  0  0  0  0  # atno 8009 bound_to 7997
  156.0586  140.3275  155.7439 H   0  0  0  0  0  0  0  0  0  0  0  0  # atno 8010 bound_to 7997
  139.5378  144.2449  152.0831 H   0  0  0  0  0  0  0  0  0  0  0  0  # atno 10167 bound_to 10162
  157.0540  130.6282  149.5773 H   0  0  0  0  0  0  0  0  0  0  0  0  # atno 10718 bound_to 10713
  153.1198  135.4730  154.9176 H   0  0  0  0  0  0  0  0  0  0  0  0  # atno 10763 bound_to 10752
  154.7564  135.3119  154.8464 H   0  0  0  0  0  0  0  0  0  0  0  0  # atno 10764 bound_to 10752
  153.9031  135.6873  153.4808 H   0  0  0  0  0  0  0  0  0  0  0  0  # atno 10765 bound_to 10752
  140.5910  134.5044  157.5193 H   0  0  0  0  0  0  0  0  0  0  0  0  # atno 11005 bound_to 11000
  145.7035  139.1667  143.2579 LP  0  0  0  0  0  0  0  0  0  0  0  0  # atno 17320 bound_to 7965
  146.1399  140.7072  142.9372 LP  0  0  0  0  0  0  0  0  0  0  0  0  # atno 17321 bound_to 7965
  140.1922  144.4740  150.6473 LP  0  0  0  0  0  0  0  0  0  0  0  0  # atno 17342 bound_to 10162
  140.6593  143.2247  151.5895 LP  0  0  0  0  0  0  0  0  0  0  0  0  # atno 17343 bound_to 10162
  155.9999  130.5075  150.7622 LP  0  0  0  0  0  0  0  0  0  0  0  0  # atno 17370 bound_to 10713
  157.5007  131.0918  151.0317 LP  0  0  0  0  0  0  0  0  0  0  0  0  # atno 17371 bound_to 10713
  139.9274  134.8030  156.1029 LP  0  0  0  0  0  0  0  0  0  0  0  0  # atno 17394 bound_to 11000
  141.0934  133.6705  156.2592 LP  0  0  0  0  0  0  0  0  0  0  0  0  # atno 17395 bound_to 11000

$$$$
