AV-unprocessed.smi:224|AV-procd|sdf|1720|dock4
  -GOLD-   2262020193D 1   1.00000     0.00000
 Structure written by MMmdl.
 56 59  0  0  0  0  0  0  0  0  2 V2000
  144.3644  132.4011  149.5754 C   0  0  0  0  0  0  0  0  0  0  0  0
  145.7109  132.6417  150.2702 C   0  0  1  0  0  0  0  0  0  0  0  0
  145.9594  134.0332  150.2604 O   0  0  0  0  0  0  0  0  0  0  0  0
  145.7014  132.1311  151.7253 C   0  0  0  0  0  0  0  0  0  0  0  0
  147.0674  131.9422  152.2811 N   0  3  2  0  0  0  0  0  0  0  0  0
  147.1154  131.0545  153.4745 C   0  0  0  0  0  0  0  0  0  0  0  0
  148.5694  130.7872  153.9032 C   0  0  0  0  0  0  0  0  0  0  0  0
  149.3059  132.0363  154.0865 N   0  0  0  0  0  0  0  0  0  0  0  0
  149.3511  132.6124  155.3181 C   0  0  0  0  0  0  0  0  0  0  0  0
  148.9331  131.9089  156.4044 N   0  0  0  0  0  0  0  0  0  0  0  0
  148.9482  132.4633  157.6196 C   0  0  0  0  0  0  0  0  0  0  0  0
  149.3423  133.6874  157.9715 N   0  0  0  0  0  0  0  0  0  0  0  0
  149.7830  134.3949  156.8926 C   0  0  0  0  0  0  0  0  0  0  0  0
  149.8184  133.9397  155.5435 C   0  0  0  0  0  0  0  0  0  0  0  0
  150.3338  134.9385  154.7250 N   0  0  0  0  0  0  0  0  0  0  0  0
  150.5758  135.9286  155.5397 C   0  0  0  0  0  0  0  0  0  0  0  0
  150.2861  135.6839  156.8627 N   0  0  0  0  0  0  0  0  0  0  0  0
  150.4619  136.6028  157.9768 C   0  0  0  0  0  0  0  0  0  0  0  0
  151.9161  137.1120  158.1494 C   0  0  2  0  0  0  0  0  0  0  0  0
  152.7544  136.0420  158.5422 O   0  0  0  0  0  0  0  0  0  0  0  0
  152.0128  138.2324  159.1720 C   0  0  0  0  0  0  0  0  0  0  0  0
  151.6887  139.4757  158.3462 C   0  0  0  0  0  0  0  0  0  0  0  0
  152.0776  139.1733  157.0095 O   0  0  0  0  0  0  0  0  0  0  0  0
  152.4920  137.8143  156.9131 C   0  0  0  0  0  0  0  0  0  0  0  0
  149.2702  132.9302  152.9300 C   0  0  0  0  0  0  0  0  0  0  0  0
  147.8237  133.2167  152.4682 C   0  0  2  0  0  0  0  0  0  0  0  0
  147.1053  134.2252  153.3910 C   0  0  0  0  0  0  0  0  0  0  0  0
  144.1297  131.3372  149.5345 H   0  0  0  0  0  0  0  0  0  0  0  0
  144.3781  132.7734  148.5503 H   0  0  0  0  0  0  0  0  0  0  0  0
  143.5493  132.9014  150.0999 H   0  0  0  0  0  0  0  0  0  0  0  0
  146.4877  132.1488  149.6868 H   0  0  0  0  0  0  0  0  0  0  0  0
  145.8938  134.3526  149.3739 H   0  0  0  0  0  0  0  0  0  0  0  0
  145.1499  132.8472  152.3371 H   0  0  0  0  0  0  0  0  0  0  0  0
  145.1557  131.1885  151.7927 H   0  0  0  0  0  0  0  0  0  0  0  0
  146.5533  131.5049  154.2928 H   0  0  0  0  0  0  0  0  0  0  0  0
  146.6343  130.1013  153.2603 H   0  0  0  0  0  0  0  0  0  0  0  0
  148.6023  130.1709  154.8024 H   0  0  0  0  0  0  0  0  0  0  0  0
  149.0762  130.2106  153.1284 H   0  0  0  0  0  0  0  0  0  0  0  0
  148.5938  131.8373  158.4252 H   0  0  0  0  0  0  0  0  0  0  0  0
  150.9840  136.8687  155.1971 H   0  0  0  0  0  0  0  0  0  0  0  0
  149.7801  137.4411  157.8296 H   0  0  0  0  0  0  0  0  0  0  0  0
  150.1305  136.1005  158.8866 H   0  0  0  0  0  0  0  0  0  0  0  0
  152.8606  135.4577  157.8072 H   0  0  0  0  0  0  0  0  0  0  0  0
  151.3502  138.1028  160.0285 H   0  0  0  0  0  0  0  0  0  0  0  0
  153.0329  138.3151  159.5513 H   0  0  0  0  0  0  0  0  0  0  0  0
  150.6173  139.6786  158.3594 H   0  0  0  0  0  0  0  0  0  0  0  0
  152.2032  140.3624  158.7172 H   0  0  0  0  0  0  0  0  0  0  0  0
  153.5827  137.8067  156.9451 H   0  0  0  0  0  0  0  0  0  0  0  0
  152.1960  137.3673  155.9650 H   0  0  0  0  0  0  0  0  0  0  0  0
  149.7890  133.8693  153.1136 H   0  0  0  0  0  0  0  0  0  0  0  0
  149.8169  132.4421  152.1225 H   0  0  0  0  0  0  0  0  0  0  0  0
  147.8985  133.6881  151.4873 H   0  0  0  0  0  0  0  0  0  0  0  0
  147.7039  135.1282  153.5143 H   0  0  0  0  0  0  0  0  0  0  0  0
  146.9226  133.8200  154.3854 H   0  0  0  0  0  0  0  0  0  0  0  0
  146.1443  134.5358  152.9811 H   0  0  0  0  0  0  0  0  0  0  0  0
  147.5786  131.4520  151.5612 H   0  0  0  0  0  0  0  0  0  0  0  0
  1  2  1  0  0  0  0
  1 28  1  0  0  0  0
  1 29  1  0  0  0  0
  1 30  1  0  0  0  0
  2  3  1  0  0  0  0
  2  4  1  0  0  0  0
  2 31  1  0  0  0  0
  3 32  1  0  0  0  0
  4  5  1  0  0  0  0
  4 33  1  0  0  0  0
  4 34  1  0  0  0  0
  5 26  1  0  0  0  0
  5  6  1  0  0  0  0
  5 56  1  0  0  0  0
  6  7  1  0  0  0  0
  6 35  1  0  0  0  0
  6 36  1  0  0  0  0
  7  8  1  0  0  0  0
  7 37  1  0  0  0  0
  7 38  1  0  0  0  0
  8  9  1  0  0  0  0
  8 25  1  0  0  0  0
  9 14  1  0  0  0  0
  9 10  2  0  0  0  0
 10 11  1  0  0  0  0
 11 12  2  0  0  0  0
 11 39  1  0  0  0  0
 12 13  1  0  0  0  0
 13 17  1  0  0  0  0
 13 14  2  0  0  0  0
 14 15  1  0  0  0  0
 15 16  2  0  0  0  0
 16 17  1  0  0  0  0
 16 40  1  0  0  0  0
 17 18  1  0  0  0  0
 18 19  1  0  0  0  0
 18 41  1  0  0  0  0
 18 42  1  0  0  0  0
 19 24  1  0  0  0  0
 19 20  1  0  0  0  0
 19 21  1  0  0  0  0
 20 43  1  0  0  0  0
 21 22  1  0  0  0  0
 21 44  1  0  0  0  0
 21 45  1  0  0  0  0
 22 23  1  0  0  0  0
 22 46  1  0  0  0  0
 22 47  1  0  0  0  0
 23 24  1  0  0  0  0
 24 48  1  0  0  0  0
 24 49  1  0  0  0  0
 25 26  1  0  0  0  0
 25 50  1  0  0  0  0
 25 51  1  0  0  0  0
 26 27  1  0  0  0  0
 26 52  1  0  0  0  0
 27 53  1  0  0  0  0
 27 54  1  0  0  0  0
 27 55  1  0  0  0  0
M  CHG  1   5   1
M  END
> <s_m_source_file>
AV-unprocessed.smi

> <i_m_source_file_index>
224

> <i_lp_mmshare_version>
43012

> <i_f3d_flags>
0

> <s_epik_input>
W0NIM11bQ0BIXShbT0hdKVtDSDJdTjFbQ0gyXVtDSDJdTihbQ0gyXVtDQEhdMVtDSDNdKWMobltjSF1uMiljKGMyMyluW2NIXW4zW0NIMl1bQ0BAXTQoW09IXSlbQ0gyXVtDSDJdT1tDSDJdNA==

> <s_epik_cmdline>
J2VwaWtfcHl0aG9uJywgJy1waCcsICc3LjAnLCAnLXRuJywgJzgnLCAnLW1hJywgJzIwMCcsICctbWV0YWxfYmluZGluZycsICctaW1hZScsICc8aW5maWxlLm1hZT4nLCAnLW9tYWUnLCAnPG91dGZpbGUubWFlPic=

> <r_lp_tautomer_probability>
1

> <r_epik_Ionization_Penalty>
0.00516958

> <r_epik_Ionization_Penalty_Charging>
0.00509693

> <r_epik_Ionization_Penalty_Neutral>
7.26542e-05

> <r_epik_State_Penalty>
-0

> <r_epik_Charging_Adjusted_Penalty>
0.00509693

> <i_epik_Tot_Q>
1

> <i_epik_Tot_abs_Q>
1

> <r_epik_Metal_State_Penalty>
-0

> <b_epik_Metal_Only>
0

> <s_lp_Force_Field>
OPLS_2005

> <r_lp_Energy>
52.1704

> <b_lp_Chiralities_Consistent>
1

> <s_lp_Variant>
AV-unprocessed.smi:224-14

> <Gold.Version>
5.8.1

> <Gold.Id.Protein>
6NUR|6NUR_protein|mol2

> <Gold.PLP.Fitness>
47.2099

> <Gold.PLP.PLP>
-36.9882

> <Gold.PLP.part.hbond>
-4.0000

> <Gold.PLP.part.metal>
0.0000

> <Gold.PLP.part.buried>
-6.3489

> <Gold.PLP.part.nonpolar>
-27.5500

> <Gold.PLP.part.repulsive>
0.1709

> <Gold.PLP.ligand.clash>
0.0000

> <Gold.PLP.ligand.torsion>
0.4549

> <Gold.PLP.Chemscore.Hbond>
3.5760

> <Gold.PLP.Chemscore.CHOScore>
0.0000

> <Gold.PLP.Chemscore.Metal>
0.0000

> <Gold.Chemscore.Hbonds>
donor molecule, donor type, donor heavy atom, donor atom, acceptor molecule, acceptor atom, score
      L1  H     3    32       P1  7921  1.00
      L1  H     5    56       P1 10747  1.00
      P1  H  6896  6907       L1    20  0.45
      P1  H  6896  6909       L1    12  1.00

> <Gold.PLP.Chemscore.Internal.Correction>
0.4034

> <Gold.Rescore>
     Score         DG    S(hbond)    S(metal)    S(lipo)     H(rot)  DE(clash)    DE(int)     intcor
     12.71     -14.99       2.34        0.00      80.72       3.02       0.41       1.87       ----

> <Gold.Chemscore.Fitness>
12.7060

> <Gold.Chemscore.DG>
-14.9917

> <Gold.Chemscore.ZeroCoef>
-5.4800

> <Gold.Chemscore.Hbond>
2.3373

> <Gold.Chemscore.Metal>
0.0000

> <Gold.Chemscore.Lipo>
80.7189

> <Gold.Chemscore.Internal_Hbond>
0.0000

> <Gold.Chemscore.DEClash>
0.4121

> <Gold.Chemscore.DEInternal>
1.8736

> <Gold.Chemscore.Rot>
3.0231

> <Gold.Chemscore.Internal.Correction>
   9.000000E+99

> <Gold.Chemscore.Hbonds>
donor molecule, donor type, donor heavy atom, donor atom, acceptor molecule, acceptor atom, score
      L1  H     3    32       P1  7921  0.55
      L1  H     5    56       P1 10747  0.97
      P1  H  6896  6907       L1    20  0.21
      P1  H  6896  6909       L1    12  0.44

> <Gold.Chemscore.Hbond.Weighted>
-7.8067

> <Gold.Chemscore.Metal.Weighted>
-0.0000

> <Gold.Chemscore.Lipo.Weighted>
-9.4441

> <Gold.Chemscore.Internal_Hbond.Weighted>
0.0000

> <Gold.Chemscore.DEClash.Weighted>
0.4121

> <Gold.Chemscore.DEInternal.Weighted>
1.8736

> <Gold.Chemscore.Rot.Weighted>
7.7391

> <Gold.Chemscore.Internal.Correction.Weighted>
   9.000000E+99

> <Gold.Protein.RotatedTorsions>
[ 6907 6896 6895 6894 ] final   16.64 input  -60.11 | X-H torsion
[ 7974 7965 7964 7962 ] final  -29.98 input  175.53 | X-H torsion
[ 8008 7997 7996 7995 ] final  140.57 input   59.86 | X-H torsion
[ 10167 10162 10161 10158 ] final -176.33 input  -65.29 | X-H torsion
[ 10718 10713 10712 10709 ] final  -35.30 input   66.30 | X-H torsion
[ 10763 10752 10751 10750 ] final  146.81 input  -60.55 | X-H torsion
[ 11005 11000 10999 10996 ] final  126.92 input  -57.11 | X-H torsion

> <Gold.Protein.ActiveResidues>
 VAL166  LYS551  ARG553  GLY616  TRP617  ASP618  TYR619  PRO620  LYS621  CYS622 
 ASP623  PHE694  ASN695  SER759  ASP760  ASP761  ALA762  ILE779  LEU786  VAL792 
 PHE793  MET794  SER795  GLU796  ALA797  LYS798  CYS799  TRP800  GLU811  SER814 

> <Gold.Protein.RotatedAtoms>
  151.8371  135.0602  160.0443 H   0  0  0  0  0  0  0  0  0  0  0  0  # atno 6907 bound_to 6896
  152.2837  133.5490  159.5522 H   0  0  0  0  0  0  0  0  0  0  0  0  # atno 6908 bound_to 6896
  150.7200  134.0444  159.3819 H   0  0  0  0  0  0  0  0  0  0  0  0  # atno 6909 bound_to 6896
  146.1177  140.5481  142.8749 H   0  0  0  0  0  0  0  0  0  0  0  0  # atno 7974 bound_to 7965
  156.2977  140.2338  156.4422 H   0  0  0  0  0  0  0  0  0  0  0  0  # atno 8008 bound_to 7997
  154.8175  140.0439  157.1408 H   0  0  0  0  0  0  0  0  0  0  0  0  # atno 8009 bound_to 7997
  154.9352  140.3022  155.5151 H   0  0  0  0  0  0  0  0  0  0  0  0  # atno 8010 bound_to 7997
  139.5535  144.2048  152.1119 H   0  0  0  0  0  0  0  0  0  0  0  0  # atno 10167 bound_to 10162
  156.3403  130.4292  149.7793 H   0  0  0  0  0  0  0  0  0  0  0  0  # atno 10718 bound_to 10713
  154.0279  135.2900  155.3372 H   0  0  0  0  0  0  0  0  0  0  0  0  # atno 10763 bound_to 10752
  154.7006  135.5190  153.8524 H   0  0  0  0  0  0  0  0  0  0  0  0  # atno 10764 bound_to 10752
  153.0652  135.6628  154.0495 H   0  0  0  0  0  0  0  0  0  0  0  0  # atno 10765 bound_to 10752
  139.9480  134.9626  156.8778 H   0  0  0  0  0  0  0  0  0  0  0  0  # atno 11005 bound_to 11000
  144.7568  140.5326  143.6763 LP  0  0  0  0  0  0  0  0  0  0  0  0  # atno 17320 bound_to 7965
  145.5532  139.1477  143.3382 LP  0  0  0  0  0  0  0  0  0  0  0  0  # atno 17321 bound_to 7965
  140.1547  144.5081  150.6667 LP  0  0  0  0  0  0  0  0  0  0  0  0  # atno 17342 bound_to 10162
  140.6803  143.2324  151.5400 LP  0  0  0  0  0  0  0  0  0  0  0  0  # atno 17343 bound_to 10162
  156.5032  130.8138  151.3141 LP  0  0  0  0  0  0  0  0  0  0  0  0  # atno 17370 bound_to 10713
  157.7445  130.9938  150.2684 LP  0  0  0  0  0  0  0  0  0  0  0  0  # atno 17371 bound_to 10713
  140.5786  134.0374  155.7456 LP  0  0  0  0  0  0  0  0  0  0  0  0  # atno 17394 bound_to 11000
  141.1136  133.9576  157.2864 LP  0  0  0  0  0  0  0  0  0  0  0  0  # atno 17395 bound_to 11000

$$$$
