AV-unprocessed.smi:1429|AV-procd|sdf|5820|dock8
  -GOLD-   22720 5473D 1   1.00000     0.00000
 Structure written by MMmdl.
 29 30  0  0  0  0  0  0  0  0  2 V2000
  145.6964  134.8483  162.7052 C   0  0  0  0  0  0  0  0  0  0  0  0
  146.6668  135.4939  161.7763 C   0  0  0  0  0  0  0  0  0  0  0  0
  146.9351  136.8001  161.7974 N   0  0  0  0  0  0  0  0  0  0  0  0
  147.8691  137.1549  160.8365 N   0  0  0  0  0  0  0  0  0  0  0  0
  148.3016  136.1178  160.0949 C   0  0  0  0  0  0  0  0  0  0  0  0
  149.2082  136.1707  159.0930 N   0  5  0  0  0  0  0  0  0  0  0  0
  148.9796  135.8133  157.8033 C   0  0  0  0  0  0  0  0  0  0  0  0
  148.4197  134.7945  157.3936 O   0  0  0  0  0  0  0  0  0  0  0  0
  149.4375  136.7102  156.9196 N   0  0  0  0  0  0  0  0  0  0  0  0
  149.3335  136.5922  155.4703 C   0  0  0  0  0  0  0  0  0  0  0  0
  150.2901  137.5693  154.7679 C   0  0  2  0  0  0  0  0  0  0  0  0
  151.6716  137.6605  155.3862 C   0  0  0  0  0  0  0  0  0  0  0  0
  152.1800  138.9856  154.8266 C   0  0  0  0  0  0  0  0  0  0  0  0
  151.0265  139.8031  154.6470 O   0  0  0  0  0  0  0  0  0  0  0  0
  149.8447  139.0294  154.8330 C   0  0  0  0  0  0  0  0  0  0  0  0
  147.5513  134.5910  160.5607 S   0  0  0  0  0  0  0  0  0  0  0  0
  145.2538  135.5870  163.3742 H   0  0  0  0  0  0  0  0  0  0  0  0
  146.2021  134.0919  163.3054 H   0  0  0  0  0  0  0  0  0  0  0  0
  144.8989  134.3700  162.1364 H   0  0  0  0  0  0  0  0  0  0  0  0
  149.8908  137.5355  157.2831 H   0  0  0  0  0  0  0  0  0  0  0  0
  149.5701  135.5685  155.1768 H   0  0  0  0  0  0  0  0  0  0  0  0
  148.3036  136.7835  155.1642 H   0  0  0  0  0  0  0  0  0  0  0  0
  150.3938  137.2848  153.7191 H   0  0  0  0  0  0  0  0  0  0  0  0
  151.5987  137.7166  156.4734 H   0  0  0  0  0  0  0  0  0  0  0  0
  152.3148  136.8182  155.1304 H   0  0  0  0  0  0  0  0  0  0  0  0
  152.9088  139.4619  155.4829 H   0  0  0  0  0  0  0  0  0  0  0  0
  152.6500  138.8324  153.8544 H   0  0  0  0  0  0  0  0  0  0  0  0
  149.0895  139.2693  154.0841 H   0  0  0  0  0  0  0  0  0  0  0  0
  149.4323  139.2644  155.8152 H   0  0  0  0  0  0  0  0  0  0  0  0
  1  2  1  0  0  0  0
  1 17  1  0  0  0  0
  1 18  1  0  0  0  0
  1 19  1  0  0  0  0
  2 16  1  0  0  0  0
  2  3  2  0  0  0  0
  3  4  1  0  0  0  0
  4  5  2  0  0  0  0
  5  6  1  0  0  0  0
  5 16  1  0  0  0  0
  6  7  1  0  0  0  0
  7  8  2  0  0  0  0
  7  9  1  0  0  0  0
  9 10  1  0  0  0  0
  9 20  1  0  0  0  0
 10 11  1  0  0  0  0
 10 21  1  0  0  0  0
 10 22  1  0  0  0  0
 11 15  1  0  0  0  0
 11 12  1  0  0  0  0
 11 23  1  0  0  0  0
 12 13  1  0  0  0  0
 12 24  1  0  0  0  0
 12 25  1  0  0  0  0
 13 14  1  0  0  0  0
 13 26  1  0  0  0  0
 13 27  1  0  0  0  0
 14 15  1  0  0  0  0
 15 28  1  0  0  0  0
 15 29  1  0  0  0  0
M  CHG  1   6  -1
M  END
> <s_m_source_file>
AV-unprocessed.smi

> <i_m_source_file_index>
1429

> <i_lp_mmshare_version>
43012

> <i_f3d_flags>
0

> <s_epik_input>
W0NIM11jMW5uYyhzMSlbTkhdQyg9TylbTkhdW0NIMl1bQ0BASF0yW0NIMl1bQ0gyXU9bQ0gyXTI=

> <s_epik_cmdline>
J2VwaWtfcHl0aG9uJywgJy1waCcsICc3LjAnLCAnLXRuJywgJzgnLCAnLW1hJywgJzIwMCcsICctbWV0YWxfYmluZGluZycsICctaW1hZScsICc8aW5maWxlLm1hZT4nLCAnLW9tYWUnLCAnPG91dGZpbGUubWFlPic=

> <r_lp_tautomer_probability>
1

> <r_epik_Ionization_Penalty>
4.4122

> <r_epik_Ionization_Penalty_Charging>
4.26477

> <r_epik_Ionization_Penalty_Neutral>
0.147429

> <r_epik_State_Penalty>
4.26433

> <r_epik_Charging_Adjusted_Penalty>
8.5291

> <i_epik_Tot_Q>
-1

> <i_epik_Tot_abs_Q>
1

> <r_epik_Metal_State_Penalty>
0.713483

> <b_epik_Metal_Only>
1

> <s_lp_Force_Field>
OPLS_2005

> <r_lp_Energy>
20.5351

> <b_lp_Chiralities_Consistent>
1

> <s_lp_Variant>
AV-unprocessed.smi:1429-3

> <Gold.Version>
5.8.1

> <Gold.Id.Protein>
6NUR|6NUR_protein|mol2

> <Gold.PLP.Fitness>
35.8648

> <Gold.PLP.PLP>
-25.2529

> <Gold.PLP.part.hbond>
-4.0000

> <Gold.PLP.part.metal>
0.0000

> <Gold.PLP.part.buried>
-4.9071

> <Gold.PLP.part.nonpolar>
-18.4432

> <Gold.PLP.part.repulsive>
0.1092

> <Gold.PLP.ligand.clash>
0.0000

> <Gold.PLP.ligand.torsion>
1.1782

> <Gold.PLP.Chemscore.Hbond>
4.3180

> <Gold.PLP.Chemscore.CHOScore>
0.0000

> <Gold.PLP.Chemscore.Metal>
0.0000

> <Gold.Chemscore.Hbonds>
donor molecule, donor type, donor heavy atom, donor atom, acceptor molecule, acceptor atom, score
      P1  H  6896  6908       L1     6  1.04
      P1  H  6931  6943       L1     4  0.88
      P1  H  6934  6947       L1     4  0.37
      P1  H  7989  7998       L1    14  0.95

> <Gold.PLP.Chemscore.Internal.Correction>
0.0143

> <Gold.Rescore>
     Score         DG    S(hbond)    S(metal)    S(lipo)     H(rot)  DE(clash)    DE(int)     intcor
     13.33     -14.47       1.91        0.00      50.70       1.30       0.10       1.04       ----

> <Gold.Chemscore.Fitness>
13.3316

> <Gold.Chemscore.DG>
-14.4725

> <Gold.Chemscore.ZeroCoef>
-5.4800

> <Gold.Chemscore.Hbond>
1.9113

> <Gold.Chemscore.Metal>
0.0000

> <Gold.Chemscore.Lipo>
50.6976

> <Gold.Chemscore.Internal_Hbond>
0.0000

> <Gold.Chemscore.DEClash>
0.1027

> <Gold.Chemscore.DEInternal>
1.0382

> <Gold.Chemscore.Rot>
1.2980

> <Gold.Chemscore.Internal.Correction>
   9.000000E+99

> <Gold.Chemscore.Hbonds>
donor molecule, donor type, donor heavy atom, donor atom, acceptor molecule, acceptor atom, score
      P1  H  6896  6908       L1     6  0.16
      P1  H  6931  6943       L1     4  0.22
      P1  H  6934  6947       L1     4  0.01
      P1  H  7989  7998       L1    14  0.22

> <Gold.Chemscore.Hbond.Weighted>
-6.3837

> <Gold.Chemscore.Metal.Weighted>
-0.0000

> <Gold.Chemscore.Lipo.Weighted>
-5.9316

> <Gold.Chemscore.Internal_Hbond.Weighted>
0.0000

> <Gold.Chemscore.DEClash.Weighted>
0.1027

> <Gold.Chemscore.DEInternal.Weighted>
1.0382

> <Gold.Chemscore.Rot.Weighted>
3.3229

> <Gold.Chemscore.Internal.Correction.Weighted>
   9.000000E+99

> <Gold.Protein.RotatedTorsions>
[ 6907 6896 6895 6894 ] final -158.36 input  -60.11 | X-H torsion
[ 7974 7965 7964 7962 ] final  176.17 input  175.53 | X-H torsion
[ 8008 7997 7996 7995 ] final  -86.56 input   59.86 | X-H torsion
[ 10167 10162 10161 10158 ] final  127.52 input  -65.29 | X-H torsion
[ 10718 10713 10712 10709 ] final   63.73 input   66.30 | X-H torsion
[ 10763 10752 10751 10750 ] final   40.91 input  -60.55 | X-H torsion
[ 11005 11000 10999 10996 ] final  176.78 input  -57.11 | X-H torsion

> <Gold.Protein.ActiveResidues>
 VAL166  LYS551  ARG553  GLY616  TRP617  ASP618  TYR619  PRO620  LYS621  CYS622 
 ASP623  PHE694  ASN695  SER759  ASP760  ASP761  ALA762  ILE779  LEU786  VAL792 
 PHE793  MET794  SER795  GLU796  ALA797  LYS798  CYS799  TRP800  GLU811  SER814 

> <Gold.Protein.RotatedAtoms>
  151.3170  133.4056  159.2651 H   0  0  0  0  0  0  0  0  0  0  0  0  # atno 6907 bound_to 6896
  151.0066  134.9365  159.7994 H   0  0  0  0  0  0  0  0  0  0  0  0  # atno 6908 bound_to 6896
  152.5290  134.3135  159.9174 H   0  0  0  0  0  0  0  0  0  0  0  0  # atno 6909 bound_to 6896
  144.7189  140.0057  143.6440 H   0  0  0  0  0  0  0  0  0  0  0  0  # atno 7974 bound_to 7965
  154.6533  140.0577  156.9980 H   0  0  0  0  0  0  0  0  0  0  0  0  # atno 8008 bound_to 7997
  155.1338  140.3259  155.4449 H   0  0  0  0  0  0  0  0  0  0  0  0  # atno 8009 bound_to 7997
  156.2586  140.1976  156.6457 H   0  0  0  0  0  0  0  0  0  0  0  0  # atno 8010 bound_to 7997
  139.5574  144.6858  151.4142 H   0  0  0  0  0  0  0  0  0  0  0  0  # atno 10167 bound_to 10162
  157.5991  130.9121  149.9753 H   0  0  0  0  0  0  0  0  0  0  0  0  # atno 10718 bound_to 10713
  152.9923  135.6177  154.2703 H   0  0  0  0  0  0  0  0  0  0  0  0  # atno 10763 bound_to 10752
  154.2436  135.2788  155.2846 H   0  0  0  0  0  0  0  0  0  0  0  0  # atno 10764 bound_to 10752
  154.5348  135.5778  153.6847 H   0  0  0  0  0  0  0  0  0  0  0  0  # atno 10765 bound_to 10752
  140.3769  134.6980  157.4427 H   0  0  0  0  0  0  0  0  0  0  0  0  # atno 11005 bound_to 11000
  146.0299  139.3326  143.0761 LP  0  0  0  0  0  0  0  0  0  0  0  0  # atno 17320 bound_to 7965
  145.8465  140.9552  143.0772 LP  0  0  0  0  0  0  0  0  0  0  0  0  # atno 17321 bound_to 7965
  140.6849  143.7996  150.7172 LP  0  0  0  0  0  0  0  0  0  0  0  0  # atno 17342 bound_to 10162
  140.1461  143.4398  152.2162 LP  0  0  0  0  0  0  0  0  0  0  0  0  # atno 17343 bound_to 10162
  156.1060  130.3652  150.0133 LP  0  0  0  0  0  0  0  0  0  0  0  0  # atno 17370 bound_to 10713
  156.8239  130.9368  151.3640 LP  0  0  0  0  0  0  0  0  0  0  0  0  # atno 17371 bound_to 10713
  140.0508  134.6133  155.8864 LP  0  0  0  0  0  0  0  0  0  0  0  0  # atno 17394 bound_to 11000
  141.1936  133.6579  156.5557 LP  0  0  0  0  0  0  0  0  0  0  0  0  # atno 17395 bound_to 11000

$$$$
