AV-unprocessed.smi:235|AV-procd|sdf|1803|dock3
  -GOLD-   2262020373D 1   1.00000     0.00000
 Structure written by MMmdl.
 54 58  0  0  0  0  0  0  0  0  1 V2000
  147.4484  137.6115  160.5600 O   0  0  0  0  0  0  0  0  0  0  0  0
  147.5254  136.5294  159.9764 C   0  0  0  0  0  0  0  0  0  0  0  0
  147.0955  135.3735  160.5028 N   0  0  0  0  0  0  0  0  0  0  0  0
  146.4861  135.2202  161.7837 C   0  0  0  0  0  0  0  0  0  0  0  0
  147.2162  135.7895  162.9809 C   0  0  0  0  0  0  0  0  0  0  0  0
  147.1628  134.3006  162.7768 C   0  0  0  0  0  0  0  0  0  0  0  0
  148.1541  136.4376  158.5789 C   0  0  2  0  0  0  0  0  0  0  0  0
  147.5880  135.2645  157.7686 C   0  0  0  0  0  0  0  0  0  0  0  0
  148.6925  134.9865  156.7568 C   0  0  0  0  0  0  0  0  0  0  0  0
  149.9674  135.2539  157.5570 C   0  0  0  0  0  0  0  0  0  0  0  0
  149.5932  136.1698  158.6312 N   0  0  0  0  0  0  0  0  0  0  0  0
  150.3834  137.2561  158.7771 C   0  0  0  0  0  0  0  0  0  0  0  0
  151.2439  137.2612  159.8237 N   0  0  0  0  0  0  0  0  0  0  0  0
  152.0463  138.3115  160.0220 C   0  0  0  0  0  0  0  0  0  0  0  0
  152.1448  139.4349  159.3068 N   0  0  0  0  0  0  0  0  0  0  0  0
  151.2797  139.4291  158.2519 C   0  0  0  0  0  0  0  0  0  0  0  0
  150.3687  138.3892  157.9161 C   0  0  0  0  0  0  0  0  0  0  0  0
  149.6452  138.7376  156.7817 N   0  0  0  0  0  0  0  0  0  0  0  0
  150.1033  139.9180  156.4646 C   0  0  0  0  0  0  0  0  0  0  0  0
  151.0929  140.4052  157.2893 N   0  0  0  0  0  0  0  0  0  0  0  0
  151.7802  141.6806  157.1659 C   0  0  0  0  0  0  0  0  0  0  0  0
  150.8994  142.8996  157.5210 C   0  0  1  0  0  0  0  0  0  0  0  0
  149.6648  142.4450  158.0397 O   0  0  0  0  0  0  0  0  0  0  0  0
  151.5384  143.8553  158.5488 C   0  0  2  0  0  0  0  0  0  0  0  0
  151.7399  143.2515  159.9393 C   0  0  0  0  0  0  0  0  0  0  0  0
  151.7435  144.4638  160.8582 C   0  0  0  0  0  0  0  0  0  0  0  0
  151.1577  145.5867  159.9974 C   0  0  0  0  0  0  0  0  0  0  0  0
  150.6711  144.9433  158.8284 O   0  0  0  0  0  0  0  0  0  0  0  0
  147.2072  134.5356  159.9508 H   0  0  0  0  0  0  0  0  0  0  0  0
  145.3982  135.2518  161.8277 H   0  0  0  0  0  0  0  0  0  0  0  0
  148.1695  136.2854  162.8082 H   0  0  0  0  0  0  0  0  0  0  0  0
  146.6124  136.2085  163.7832 H   0  0  0  0  0  0  0  0  0  0  0  0
  146.5236  133.7253  163.4438 H   0  0  0  0  0  0  0  0  0  0  0  0
  148.0808  133.8037  162.4686 H   0  0  0  0  0  0  0  0  0  0  0  0
  147.9662  137.3663  158.0361 H   0  0  0  0  0  0  0  0  0  0  0  0
  147.4384  134.3859  158.3992 H   0  0  0  0  0  0  0  0  0  0  0  0
  146.6369  135.5032  157.2919 H   0  0  0  0  0  0  0  0  0  0  0  0
  148.6526  133.9786  156.3433 H   0  0  0  0  0  0  0  0  0  0  0  0
  148.6191  135.6953  155.9308 H   0  0  0  0  0  0  0  0  0  0  0  0
  150.3234  134.3312  158.0160 H   0  0  0  0  0  0  0  0  0  0  0  0
  150.7689  135.6270  156.9170 H   0  0  0  0  0  0  0  0  0  0  0  0
  152.7038  138.2414  160.8760 H   0  0  0  0  0  0  0  0  0  0  0  0
  149.7360  140.4671  155.6096 H   0  0  0  0  0  0  0  0  0  0  0  0
  152.6572  141.6568  157.8138 H   0  0  0  0  0  0  0  0  0  0  0  0
  152.1597  141.7729  156.1474 H   0  0  0  0  0  0  0  0  0  0  0  0
  150.6889  143.4479  156.6021 H   0  0  0  0  0  0  0  0  0  0  0  0
  149.5275  141.5549  157.7533 H   0  0  0  0  0  0  0  0  0  0  0  0
  152.4886  144.2466  158.1803 H   0  0  0  0  0  0  0  0  0  0  0  0
  150.9013  142.6027  160.1958 H   0  0  0  0  0  0  0  0  0  0  0  0
  152.6543  142.6618  160.0118 H   0  0  0  0  0  0  0  0  0  0  0  0
  151.1412  144.2798  161.7485 H   0  0  0  0  0  0  0  0  0  0  0  0
  152.7538  144.7167  161.1814 H   0  0  0  0  0  0  0  0  0  0  0  0
  150.3616  146.1322  160.5046 H   0  0  0  0  0  0  0  0  0  0  0  0
  151.9344  146.2996  159.7168 H   0  0  0  0  0  0  0  0  0  0  0  0
  1  2  2  0  0  0  0
  2  3  1  0  0  0  0
  2  7  1  0  0  0  0
  3  4  1  0  0  0  0
  3 29  1  0  0  0  0
  4  6  1  0  0  0  0
  4  5  1  0  0  0  0
  4 30  1  0  0  0  0
  5  6  1  0  0  0  0
  5 31  1  0  0  0  0
  5 32  1  0  0  0  0
  6 33  1  0  0  0  0
  6 34  1  0  0  0  0
  7 11  1  0  0  0  0
  7  8  1  0  0  0  0
  7 35  1  0  0  0  0
  8  9  1  0  0  0  0
  8 36  1  0  0  0  0
  8 37  1  0  0  0  0
  9 10  1  0  0  0  0
  9 38  1  0  0  0  0
  9 39  1  0  0  0  0
 10 11  1  0  0  0  0
 10 40  1  0  0  0  0
 10 41  1  0  0  0  0
 11 12  1  0  0  0  0
 12 17  1  0  0  0  0
 12 13  2  0  0  0  0
 13 14  1  0  0  0  0
 14 15  2  0  0  0  0
 14 42  1  0  0  0  0
 15 16  1  0  0  0  0
 16 20  1  0  0  0  0
 16 17  2  0  0  0  0
 17 18  1  0  0  0  0
 18 19  2  0  0  0  0
 19 20  1  0  0  0  0
 19 43  1  0  0  0  0
 20 21  1  0  0  0  0
 21 22  1  0  0  0  0
 21 44  1  0  0  0  0
 21 45  1  0  0  0  0
 22 23  1  0  0  0  0
 22 24  1  0  0  0  0
 22 46  1  0  0  0  0
 23 47  1  0  0  0  0
 24 28  1  0  0  0  0
 24 25  1  0  0  0  0
 24 48  1  0  0  0  0
 25 26  1  0  0  0  0
 25 49  1  0  0  0  0
 25 50  1  0  0  0  0
 26 27  1  0  0  0  0
 26 51  1  0  0  0  0
 26 52  1  0  0  0  0
 27 28  1  0  0  0  0
 27 53  1  0  0  0  0
 27 54  1  0  0  0  0
M  END
> <s_m_source_file>
AV-unprocessed.smi

> <i_m_source_file_index>
235

> <i_lp_mmshare_version>
43012

> <i_f3d_flags>
0

> <s_epik_input>
W0NIMl0xW0NIMl1bQ0hdMVtOSF1DKD1PKVtDQEBIXTJbQ0gyXVtDSDJdW0NIMl1OMmMobltjSF1uMyljKGMzNCluW2NIXW40W0NIMl1bQ0BIXShbT0hdKVtDQEBIXTVbQ0gyXVtDSDJdW0NIMl1PNQ==

> <s_epik_cmdline>
J2VwaWtfcHl0aG9uJywgJy1waCcsICc3LjAnLCAnLXRuJywgJzgnLCAnLW1hJywgJzIwMCcsICctbWV0YWxfYmluZGluZycsICctaW1hZScsICc8aW5maWxlLm1hZT4nLCAnLW9tYWUnLCAnPG91dGZpbGUubWFlPic=

> <r_lp_tautomer_probability>
1

> <r_epik_Ionization_Penalty>
0.000526714

> <r_epik_Ionization_Penalty_Charging>
0

> <r_epik_Ionization_Penalty_Neutral>
0.000526714

> <r_epik_State_Penalty>
0.000272704

> <r_epik_Charging_Adjusted_Penalty>
0.000272704

> <i_epik_Tot_Q>
0

> <i_epik_Tot_abs_Q>
0

> <r_epik_Metal_State_Penalty>
-0

> <b_epik_Metal_Only>
0

> <s_lp_Force_Field>
OPLS_2005

> <r_lp_Energy>
60.0351

> <b_lp_Chiralities_Consistent>
1

> <s_lp_Variant>
AV-unprocessed.smi:235-3

> <Gold.Version>
5.8.1

> <Gold.Id.Protein>
6NUR|6NUR_protein|mol2

> <Gold.PLP.Fitness>
48.0527

> <Gold.PLP.PLP>
-43.5423

> <Gold.PLP.part.hbond>
-3.1495

> <Gold.PLP.part.metal>
0.0000

> <Gold.PLP.part.buried>
-6.4284

> <Gold.PLP.part.nonpolar>
-33.2282

> <Gold.PLP.part.repulsive>
0.1315

> <Gold.PLP.ligand.clash>
0.0000

> <Gold.PLP.ligand.torsion>
1.8341

> <Gold.PLP.Chemscore.Hbond>
2.6404

> <Gold.PLP.Chemscore.CHOScore>
0.0000

> <Gold.PLP.Chemscore.Metal>
0.0000

> <Gold.Chemscore.Hbonds>
donor molecule, donor type, donor heavy atom, donor atom, acceptor molecule, acceptor atom, score
      P1  H  6896  6907       L1    13  0.34
      P1  H  6931  6943       L1     1  0.37
      P1  H  6934  6947       L1     1  0.88

> <Gold.PLP.Chemscore.Internal.Correction>
0.2573

> <Gold.Rescore>
     Score         DG    S(hbond)    S(metal)    S(lipo)     H(rot)  DE(clash)    DE(int)     intcor
     14.17     -15.27       1.90        0.00      95.11       3.00       0.17       0.93       ----

> <Gold.Chemscore.Fitness>
14.1715

> <Gold.Chemscore.DG>
-15.2724

> <Gold.Chemscore.ZeroCoef>
-5.4800

> <Gold.Chemscore.Hbond>
1.8987

> <Gold.Chemscore.Metal>
0.0000

> <Gold.Chemscore.Lipo>
95.1097

> <Gold.Chemscore.Internal_Hbond>
0.0000

> <Gold.Chemscore.DEClash>
0.1727

> <Gold.Chemscore.DEInternal>
0.9282

> <Gold.Chemscore.Rot>
2.9989

> <Gold.Chemscore.Internal.Correction>
   9.000000E+99

> <Gold.Chemscore.Hbonds>
donor molecule, donor type, donor heavy atom, donor atom, acceptor molecule, acceptor atom, score
      P1  H  6896  6907       L1    13  0.02
      P1  H  6931  6943       L1     1  0.37
      P1  H  6934  6947       L1     1  0.82

> <Gold.Chemscore.Hbond.Weighted>
-6.3418

> <Gold.Chemscore.Metal.Weighted>
-0.0000

> <Gold.Chemscore.Lipo.Weighted>
-11.1278

> <Gold.Chemscore.Internal_Hbond.Weighted>
0.0000

> <Gold.Chemscore.DEClash.Weighted>
0.1727

> <Gold.Chemscore.DEInternal.Weighted>
0.9282

> <Gold.Chemscore.Rot.Weighted>
7.6772

> <Gold.Chemscore.Internal.Correction.Weighted>
   9.000000E+99

> <Gold.Protein.RotatedTorsions>
[ 6907 6896 6895 6894 ] final  -24.74 input  -60.11 | X-H torsion
[ 7974 7965 7964 7962 ] final   38.01 input  175.53 | X-H torsion
[ 8008 7997 7996 7995 ] final -148.65 input   59.86 | X-H torsion
[ 10167 10162 10161 10158 ] final  169.93 input  -65.29 | X-H torsion
[ 10718 10713 10712 10709 ] final   39.95 input   66.30 | X-H torsion
[ 10763 10752 10751 10750 ] final -112.46 input  -60.55 | X-H torsion
[ 11005 11000 10999 10996 ] final  -98.96 input  -57.11 | X-H torsion

> <Gold.Protein.ActiveResidues>
 VAL166  LYS551  ARG553  GLY616  TRP617  ASP618  TYR619  PRO620  LYS621  CYS622 
 ASP623  PHE694  ASN695  SER759  ASP760  ASP761  ALA762  ILE779  LEU786  VAL792 
 PHE793  MET794  SER795  GLU796  ALA797  LYS798  CYS799  TRP800  GLU811  SER814 

> <Gold.Protein.RotatedAtoms>
  151.1852  135.0378  159.8809 H   0  0  0  0  0  0  0  0  0  0  0  0  # atno 6907 bound_to 6896
  152.5442  134.1018  159.8331 H   0  0  0  0  0  0  0  0  0  0  0  0  # atno 6908 bound_to 6896
  151.1139  133.5105  159.2637 H   0  0  0  0  0  0  0  0  0  0  0  0  # atno 6909 bound_to 6896
  146.1094  139.5824  142.9362 H   0  0  0  0  0  0  0  0  0  0  0  0  # atno 7974 bound_to 7965
  155.5951  140.0656  157.2748 H   0  0  0  0  0  0  0  0  0  0  0  0  # atno 8008 bound_to 7997
  154.4294  140.1828  156.1162 H   0  0  0  0  0  0  0  0  0  0  0  0  # atno 8009 bound_to 7997
  156.0203  140.3317  155.7035 H   0  0  0  0  0  0  0  0  0  0  0  0  # atno 8010 bound_to 7997
  139.5005  144.3652  151.9783 H   0  0  0  0  0  0  0  0  0  0  0  0  # atno 10167 bound_to 10162
  157.3765  130.7730  149.7159 H   0  0  0  0  0  0  0  0  0  0  0  0  # atno 10718 bound_to 10713
  154.8350  135.4490  154.1197 H   0  0  0  0  0  0  0  0  0  0  0  0  # atno 10763 bound_to 10752
  153.2436  135.6919  153.7762 H   0  0  0  0  0  0  0  0  0  0  0  0  # atno 10764 bound_to 10752
  153.7100  135.3358  155.3220 H   0  0  0  0  0  0  0  0  0  0  0  0  # atno 10765 bound_to 10752
  141.1326  133.8285  157.0909 H   0  0  0  0  0  0  0  0  0  0  0  0  # atno 11005 bound_to 11000
  145.5694  141.0396  143.2182 LP  0  0  0  0  0  0  0  0  0  0  0  0  # atno 17320 bound_to 7965
  144.7499  139.7222  143.7277 LP  0  0  0  0  0  0  0  0  0  0  0  0  # atno 17321 bound_to 7965
  140.3088  144.3562  150.6039 LP  0  0  0  0  0  0  0  0  0  0  0  0  # atno 17342 bound_to 10162
  140.5815  143.2172  151.7419 LP  0  0  0  0  0  0  0  0  0  0  0  0  # atno 17343 bound_to 10162
  155.9766  130.4073  150.3765 LP  0  0  0  0  0  0  0  0  0  0  0  0  # atno 17370 bound_to 10713
  157.1863  131.0404  151.2723 LP  0  0  0  0  0  0  0  0  0  0  0  0  # atno 17371 bound_to 10713
  140.0393  134.9862  157.0931 LP  0  0  0  0  0  0  0  0  0  0  0  0  # atno 17394 bound_to 11000
  140.4161  134.1930  155.7163 LP  0  0  0  0  0  0  0  0  0  0  0  0  # atno 17395 bound_to 11000

$$$$
