#       Name:                AV-unprocessed.smi:227
#       Creating user name   scv26
#       Creation time:       Thu Mar 26 20:21:37 2020


#       File generated by GOLD software.
#

@<TRIPOS>MOLECULE
AV-unprocessed.smi:227
    64    68     1
SMALL
NO_CHARGES


@<TRIPOS>ATOM
      1 ****        -1.1866   3.6887   3.4686 O.3            1 S1                 0.0000
      2 ****        -1.7654   3.0687   2.3386 C.3            1 S1                 0.0000
      3 ****        -1.1121   3.5595   1.0210 C.3            1 S1                 0.0000
      4 ****         0.4300   3.3394   1.0423 C.3            1 S1                 0.0000
      5 ****         0.8350   1.9410   1.0489 N.pl3          1 S1                 0.0000
      6 ****         0.9496   1.1225   2.1485 C.2            1 S1                 0.0000
      7 ****         1.3269  -0.0995   1.8941 N.2            1 S1                 0.0000
      8 ****         1.5031  -0.1303   0.5152 C.ar           1 S1                 0.0000
      9 ****         1.8953  -1.1302  -0.4253 C.ar           1 S1                 0.0000
     10 ****         2.1985  -2.4216  -0.1124 N.3            1 S1                 0.0000
     11 ****         1.5730  -3.0995   1.0144 C.3            1 S1                 0.0000
     12 ****         2.3469  -4.4277   1.0721 C.3            1 S1                 0.0000
     13 ****         2.6080  -4.6891  -0.4177 C.3            1 S1                 0.0000
     14 ****         1.8988  -3.4847  -1.0643 C.3            1 S1                 0.0000
     15 ****         0.3559  -3.6152  -0.9724 C.3            1 S1                 0.0000
     16 ****        -0.2562  -4.9104  -1.5360 C.3            1 S1                 0.0000
     17 ****        -1.6625  -4.7964  -1.5791 O.3            1 S1                 0.0000
     18 ****         0.1346  -3.3829   0.5348 C.3            1 S1                 0.0000
     19 ****         1.9862  -0.7524  -1.7284 N.ar           1 S1                 0.0000
     20 ****         1.6940   0.4967  -2.0979 C.ar           1 S1                 0.0000
     21 ****         1.2983   1.5177  -1.3385 N.ar           1 S1                 0.0000
     22 ****         1.2153   1.1564  -0.0269 C.ar           1 S1                 0.0000
     23 ****        -1.7912   2.9264  -0.2349 C.3            1 S1                 0.0000
     24 ****        -1.3436   3.5426  -1.5582 C.3            1 S1                 0.0000
     25 ****        -2.2852   4.7325  -1.7559 C.3            1 S1                 0.0000
     26 ****        -3.3919   4.5048  -0.8914 O.3            1 S1                 0.0000
     27 ****        -3.2982   3.1903  -0.3659 C.3            1 S1                 0.0000
     28 ****        -1.3217   4.6218   3.4016 H              1 S1                 0.0000
     29 ****        -1.6906   1.9862   2.4390 H              1 S1                 0.0000
     30 ****        -2.8243   3.3143   2.3767 H              1 S1                 0.0000
     31 ****        -1.2747   4.6371   0.9734 H              1 S1                 0.0000
     32 ****         0.9078   3.8303   0.1961 H              1 S1                 0.0000
     33 ****         0.8720   3.8182   1.9164 H              1 S1                 0.0000
     34 ****         0.7355   1.4598   3.1524 H              1 S1                 0.0000
     35 ****         1.6180  -2.5762   1.9674 H              1 S1                 0.0000
     36 ****         3.2880  -4.3088   1.6102 H              1 S1                 0.0000
     37 ****         1.7802  -5.2266   1.5518 H              1 S1                 0.0000
     38 ****         3.6786  -4.6536  -0.6232 H              1 S1                 0.0000
     39 ****         2.2427  -5.6569  -0.7584 H              1 S1                 0.0000
     40 ****         2.2519  -3.3004  -2.0795 H              1 S1                 0.0000
     41 ****        -0.0792  -2.7775  -1.5205 H              1 S1                 0.0000
     42 ****         0.1083  -5.0943  -2.5470 H              1 S1                 0.0000
     43 ****         0.0033  -5.7778  -0.9295 H              1 S1                 0.0000
     44 ****        -1.9795  -4.6646  -0.6988 H              1 S1                 0.0000
     45 ****        -0.3119  -4.2366   1.0462 H              1 S1                 0.0000
     46 ****        -0.5125  -2.5199   0.6974 H              1 S1                 0.0000
     47 ****         1.7888   0.7071  -3.1530 H              1 S1                 0.0000
     48 ****        -1.6105   1.8509  -0.2321 H              1 S1                 0.0000
     49 ****        -0.2966   3.8338  -1.6060 H              1 S1                 0.0000
     50 ****        -1.5058   2.8202  -2.3596 H              1 S1                 0.0000
     51 ****        -1.8039   5.6698  -1.4752 H              1 S1                 0.0000
     52 ****        -2.6119   4.8155  -2.7928 H              1 S1                 0.0000
     53 ****        -3.7324   2.5012  -1.0924 H              1 S1                 0.0000
     54 ****        -3.8760   3.0795   0.5486 H              1 S1                 0.0000
     55 ****        -0.2067   3.4911   3.4967 LP             1 S1                 0.0000
     56 ****        -1.6201   3.3442   4.3012 LP             1 S1                 0.0000
     57 ****         1.4598  -0.8470   2.5449 LP             1 S1                 0.0000
     58 ****         3.1524  -2.1467   0.0084 LP             1 S1                 0.0000
     59 ****        -2.0574  -5.6333  -1.9582 LP             1 S1                 0.0000
     60 ****        -1.9205  -4.0175  -2.1508 LP             1 S1                 0.0000
     61 ****         2.2750  -1.4173  -2.4173 LP             1 S1                 0.0000
     62 ****         1.0891   2.4316  -1.6863 LP             1 S1                 0.0000
     63 ****        -4.2448   4.6017  -1.4045 LP             1 S1                 0.0000
     64 ****        -3.3759   5.1679  -0.1431 LP             1 S1                 0.0000
@<TRIPOS>BOND
    1    1    2 1     
    2    1   28 1     
    3    2    3 1     
    4    2   29 1     
    5    2   30 1     
    6    3    4 1     
    7    3   23 1     
    8    3   31 1     
    9    4    5 1     
   10    4   32 1     
   11    4   33 1     
   12    5   22 1     
   13    5    6 1     
   14    6    7 2     
   15    6   34 1     
   16    7    8 1     
   17    8   22 ar    
   18    8    9 ar    
   19    9   10 1     
   20    9   19 ar    
   21   10   14 1     
   22   10   11 1     
   23   11   18 1     
   24   11   12 1     
   25   11   35 1     
   26   12   13 1     
   27   12   36 1     
   28   12   37 1     
   29   13   14 1     
   30   13   38 1     
   31   13   39 1     
   32   14   15 1     
   33   14   40 1     
   34   15   16 1     
   35   15   18 1     
   36   15   41 1     
   37   16   17 1     
   38   16   42 1     
   39   16   43 1     
   40   17   44 1     
   41   18   45 1     
   42   18   46 1     
   43   19   20 ar    
   44   20   21 ar    
   45   20   47 1     
   46   21   22 ar    
   47   23   27 1     
   48   23   24 1     
   49   23   48 1     
   50   24   25 1     
   51   24   49 1     
   52   24   50 1     
   53   25   26 1     
   54   25   51 1     
   55   25   52 1     
   56   26   27 1     
   57   27   53 1     
   58   27   54 1     
   59    1   55 1     
   60    1   56 1     
   61    7   57 1     
   62   10   58 1     
   63   17   59 1     
   64   17   60 1     
   65   19   61 1     
   66   21   62 1     
   67   26   63 1     
   68   26   64 1     
@<TRIPOS>SUBSTRUCTURE
      1 S1             1
@<TRIPOS>SET
LONE_PAIRS      STATIC     ATOMS    <user>   **** ""
10 55 56 57 58 59 60 61 62 63 64
DONOR_HYDROGENS      STATIC     ATOMS    <user>   **** ""
2 28 44
ATOM$BLUE        STATIC     ATOMS    COLORGROUP SYSTEM
10 55 56 57 58 59 60 61 62 63 64
ATOM$RED        STATIC     ATOMS    COLORGROUP SYSTEM
2 28 44
