AV-unprocessed.smi:744|AV-procd|sdf|3570|dock6
  -GOLD-   22720 0563D 1   1.00000     0.00000
 Structure written by MMmdl.
 34 35  0  0  0  0  0  0  0  0  1 V2000
  144.7141  137.1037  151.9566 O   0  0  0  0  0  0  0  0  0  0  0  0
  145.9093  136.8397  151.8238 C   0  0  0  0  0  0  0  0  0  0  0  0
  146.8842  137.7560  151.9163 N   0  0  0  0  0  0  0  0  0  0  0  0
  146.6894  139.1792  152.1787 C   0  0  0  0  0  0  0  0  0  0  0  0
  147.2238  139.5866  153.5675 C   0  0  2  0  0  0  0  0  0  0  0  0
  147.7430  141.0270  153.6427 C   0  0  0  0  0  0  0  0  0  0  0  0
  148.6630  141.0730  154.8722 C   0  0  0  0  0  0  0  0  0  0  0  0
  148.9116  139.6139  155.2876 C   0  0  0  0  0  0  0  0  0  0  0  0
  148.3816  138.7504  154.1377 C   0  0  2  0  0  0  0  0  0  0  0  0
  149.4148  138.5774  153.1856 O   0  0  0  0  0  0  0  0  0  0  0  0
  146.4115  135.6191  151.5661 N   0  0  0  0  0  0  0  0  0  0  0  0
  145.7049  134.3991  151.3908 C   0  0  0  0  0  0  0  0  0  0  0  0
  146.4892  133.2296  151.5121 C   0  0  0  0  0  0  0  0  0  0  0  0
  145.8819  131.9687  151.3552 C   0  0  0  0  0  0  0  0  0  0  0  0
  144.5037  131.9093  151.0815 C   0  0  0  0  0  0  0  0  0  0  0  0
  143.7958  133.1206  150.9763 C   0  0  0  0  0  0  0  0  0  0  0  0
  144.3761  134.3301  151.1256 N   0  0  0  0  0  0  0  0  0  0  0  0
  147.8373  137.4467  151.7948 H   0  0  0  0  0  0  0  0  0  0  0  0
  147.1354  139.7915  151.3931 H   0  0  0  0  0  0  0  0  0  0  0  0
  145.6177  139.3748  152.1355 H   0  0  0  0  0  0  0  0  0  0  0  0
  146.3959  139.5108  154.2750 H   0  0  0  0  0  0  0  0  0  0  0  0
  148.3230  141.2606  152.7486 H   0  0  0  0  0  0  0  0  0  0  0  0
  146.9326  141.7539  153.7045 H   0  0  0  0  0  0  0  0  0  0  0  0
  149.5990  141.5757  154.6262 H   0  0  0  0  0  0  0  0  0  0  0  0
  148.2006  141.6275  155.6895 H   0  0  0  0  0  0  0  0  0  0  0  0
  149.9582  139.4155  155.5228 H   0  0  0  0  0  0  0  0  0  0  0  0
  148.3356  139.3992  156.1885 H   0  0  0  0  0  0  0  0  0  0  0  0
  148.0522  137.7702  154.4843 H   0  0  0  0  0  0  0  0  0  0  0  0
  149.2577  137.7716  152.7152 H   0  0  0  0  0  0  0  0  0  0  0  0
  147.4152  135.5549  151.4825 H   0  0  0  0  0  0  0  0  0  0  0  0
  147.5471  133.2929  151.7234 H   0  0  0  0  0  0  0  0  0  0  0  0
  146.4643  131.0634  151.4432 H   0  0  0  0  0  0  0  0  0  0  0  0
  144.0021  130.9613  150.9556 H   0  0  0  0  0  0  0  0  0  0  0  0
  142.7363  133.1192  150.7673 H   0  0  0  0  0  0  0  0  0  0  0  0
  1  2  2  0  0  0  0
  2  3  1  0  0  0  0
  2 11  1  0  0  0  0
  3  4  1  0  0  0  0
  3 18  1  0  0  0  0
  4  5  1  0  0  0  0
  4 19  1  0  0  0  0
  4 20  1  0  0  0  0
  5  9  1  0  0  0  0
  5  6  1  0  0  0  0
  5 21  1  0  0  0  0
  6  7  1  0  0  0  0
  6 22  1  0  0  0  0
  6 23  1  0  0  0  0
  7  8  1  0  0  0  0
  7 24  1  0  0  0  0
  7 25  1  0  0  0  0
  8  9  1  0  0  0  0
  8 26  1  0  0  0  0
  8 27  1  0  0  0  0
  9 10  1  0  0  0  0
  9 28  1  0  0  0  0
 10 29  1  0  0  0  0
 11 12  1  0  0  0  0
 11 30  1  0  0  0  0
 12 17  1  0  0  0  0
 12 13  2  0  0  0  0
 13 14  1  0  0  0  0
 13 31  1  0  0  0  0
 14 15  2  0  0  0  0
 14 32  1  0  0  0  0
 15 16  1  0  0  0  0
 15 33  1  0  0  0  0
 16 17  2  0  0  0  0
 16 34  1  0  0  0  0
M  END
> <s_m_source_file>
AV-unprocessed.smi

> <i_m_source_file_index>
744

> <i_lp_mmshare_version>
43012

> <i_f3d_flags>
0

> <s_epik_input>
bjFbY0hdW2NIXVtjSF1bY0hdYzFbTkhdQyg9TylbTkhdW0NIMl1bQ0BASF0yW0NIMl1bQ0gyXVtDSDJdW0NASF0yW09IXQ==

> <s_epik_cmdline>
J2VwaWtfcHl0aG9uJywgJy1waCcsICc3LjAnLCAnLXRuJywgJzgnLCAnLW1hJywgJzIwMCcsICctbWV0YWxfYmluZGluZycsICctaW1hZScsICc8aW5maWxlLm1hZT4nLCAnLW9tYWUnLCAnPG91dGZpbGUubWFlPic=

> <r_lp_tautomer_probability>
1

> <r_epik_Ionization_Penalty>
5.04769e-05

> <r_epik_Ionization_Penalty_Charging>
0

> <r_epik_Ionization_Penalty_Neutral>
5.04769e-05

> <r_epik_State_Penalty>
-0

> <r_epik_Charging_Adjusted_Penalty>
0

> <i_epik_Tot_Q>
0

> <i_epik_Tot_abs_Q>
0

> <r_epik_Metal_State_Penalty>
-0

> <b_epik_Metal_Only>
0

> <s_lp_Force_Field>
OPLS_2005

> <r_lp_Energy>
26.8719

> <b_lp_Chiralities_Consistent>
1

> <s_lp_Variant>
AV-unprocessed.smi:744-3

> <Gold.Version>
5.8.1

> <Gold.Id.Protein>
6NUR|6NUR_protein|mol2

> <Gold.PLP.Fitness>
40.9305

> <Gold.PLP.PLP>
-29.9393

> <Gold.PLP.part.hbond>
-3.7923

> <Gold.PLP.part.metal>
0.0000

> <Gold.PLP.part.buried>
-4.5984

> <Gold.PLP.part.nonpolar>
-24.9363

> <Gold.PLP.part.repulsive>
2.8350

> <Gold.PLP.ligand.clash>
0.0000

> <Gold.PLP.ligand.torsion>
0.5051

> <Gold.PLP.Chemscore.Hbond>
3.0000

> <Gold.PLP.Chemscore.CHOScore>
1.0000

> <Gold.PLP.Chemscore.Metal>
0.0000

> <Gold.Chemscore.Hbonds>
donor molecule, donor type, donor heavy atom, donor atom, acceptor molecule, acceptor atom, score
      L1  H     3    18       P1  7948  1.00
      L1  H    10    29       P1  7948  1.00
      L1  H    11    30       P1  7948  0.99
      L1  C    16    34       P1 10186  1.00

> <Gold.PLP.Chemscore.Internal.Correction>
0.0013

> <Gold.Rescore>
     Score         DG    S(hbond)    S(metal)    S(lipo)     H(rot)  DE(clash)    DE(int)     intcor
     14.09     -18.43       2.82        0.00      69.61       1.81       1.34       3.00       ----

> <Gold.Chemscore.Fitness>
14.0940

> <Gold.Chemscore.DG>
-18.4336

> <Gold.Chemscore.ZeroCoef>
-5.4800

> <Gold.Chemscore.Hbond>
2.8235

> <Gold.Chemscore.Metal>
0.0000

> <Gold.Chemscore.Lipo>
69.6110

> <Gold.Chemscore.Internal_Hbond>
0.0000

> <Gold.Chemscore.DEClash>
1.3417

> <Gold.Chemscore.DEInternal>
2.9980

> <Gold.Chemscore.Rot>
1.8052

> <Gold.Chemscore.Internal.Correction>
   9.000000E+99

> <Gold.Chemscore.Hbonds>
donor molecule, donor type, donor heavy atom, donor atom, acceptor molecule, acceptor atom, score
      L1  H     3    18       P1  7948  0.94
      L1  H    10    29       P1  7948  0.94
      L1  H    11    30       P1  7948  0.90

> <Gold.Chemscore.Hbond.Weighted>
-9.4303

> <Gold.Chemscore.Metal.Weighted>
-0.0000

> <Gold.Chemscore.Lipo.Weighted>
-8.1445

> <Gold.Chemscore.Internal_Hbond.Weighted>
0.0000

> <Gold.Chemscore.DEClash.Weighted>
1.3417

> <Gold.Chemscore.DEInternal.Weighted>
2.9980

> <Gold.Chemscore.Rot.Weighted>
4.6212

> <Gold.Chemscore.Internal.Correction.Weighted>
   9.000000E+99

> <Gold.Protein.RotatedTorsions>
[ 6907 6896 6895 6894 ] final  -76.62 input  -60.11 | X-H torsion
[ 7974 7965 7964 7962 ] final  -13.85 input  175.53 | X-H torsion
[ 8008 7997 7996 7995 ] final  114.71 input   59.86 | X-H torsion
[ 10167 10162 10161 10158 ] final   74.69 input  -65.29 | X-H torsion
[ 10718 10713 10712 10709 ] final -100.36 input   66.30 | X-H torsion
[ 10763 10752 10751 10750 ] final   23.13 input  -60.55 | X-H torsion
[ 11005 11000 10999 10996 ] final -152.88 input  -57.11 | X-H torsion

> <Gold.Protein.ActiveResidues>
 VAL166  LYS551  ARG553  GLY616  TRP617  ASP618  TYR619  PRO620  LYS621  CYS622 
 ASP623  PHE694  ASN695  SER759  ASP760  ASP761  ALA762  ILE779  LEU786  VAL792 
 PHE793  MET794  SER795  GLU796  ALA797  LYS798  CYS799  TRP800  GLU811  SER814 

> <Gold.Protein.RotatedAtoms>
  150.7022  134.4545  159.5351 H   0  0  0  0  0  0  0  0  0  0  0  0  # atno 6907 bound_to 6896
  152.2231  134.8391  160.0492 H   0  0  0  0  0  0  0  0  0  0  0  0  # atno 6908 bound_to 6896
  151.9234  133.3556  159.3942 H   0  0  0  0  0  0  0  0  0  0  0  0  # atno 6909 bound_to 6896
  146.2098  140.3263  142.8395 H   0  0  0  0  0  0  0  0  0  0  0  0  # atno 7974 bound_to 7965
  156.2338  140.2953  156.0257 H   0  0  0  0  0  0  0  0  0  0  0  0  # atno 8008 bound_to 7997
  155.2151  140.0414  157.2956 H   0  0  0  0  0  0  0  0  0  0  0  0  # atno 8009 bound_to 7997
  154.6042  140.2435  155.7760 H   0  0  0  0  0  0  0  0  0  0  0  0  # atno 8010 bound_to 7997
  140.0110  144.5614  150.7659 H   0  0  0  0  0  0  0  0  0  0  0  0  # atno 10167 bound_to 10162
  156.0161  130.5324  150.6806 H   0  0  0  0  0  0  0  0  0  0  0  0  # atno 10718 bound_to 10713
  153.0862  135.6633  153.9945 H   0  0  0  0  0  0  0  0  0  0  0  0  # atno 10763 bound_to 10752
  153.9554  135.2979  155.3438 H   0  0  0  0  0  0  0  0  0  0  0  0  # atno 10764 bound_to 10752
  154.7270  135.5140  153.8975 H   0  0  0  0  0  0  0  0  0  0  0  0  # atno 10765 bound_to 10752
  140.7141  134.3800  157.5193 H   0  0  0  0  0  0  0  0  0  0  0  0  # atno 11005 bound_to 11000
  144.8884  140.7492  143.5942 LP  0  0  0  0  0  0  0  0  0  0  0  0  # atno 17320 bound_to 7965
  145.3185  139.1796  143.4600 LP  0  0  0  0  0  0  0  0  0  0  0  0  # atno 17321 bound_to 7965
  140.7381  143.2774  151.3700 LP  0  0  0  0  0  0  0  0  0  0  0  0  # atno 17342 bound_to 10162
  139.6205  144.0916  152.2387 LP  0  0  0  0  0  0  0  0  0  0  0  0  # atno 17343 bound_to 10162
  157.4509  131.0872  151.0847 LP  0  0  0  0  0  0  0  0  0  0  0  0  # atno 17370 bound_to 10713
  157.1362  130.6123  149.5543 LP  0  0  0  0  0  0  0  0  0  0  0  0  # atno 17371 bound_to 10713
  139.8864  134.8910  156.2586 LP  0  0  0  0  0  0  0  0  0  0  0  0  # atno 17394 bound_to 11000
  141.0059  133.7124  156.1035 LP  0  0  0  0  0  0  0  0  0  0  0  0  # atno 17395 bound_to 11000

$$$$
