#       Name:                AV-unprocessed.smi:2886
#       Creating user name   scv26
#       Creation time:       Fri Mar 27 15:56:44 2020


#       File generated by GOLD software.
#

@<TRIPOS>MOLECULE
AV-unprocessed.smi:2886
    33    35     1
SMALL
NO_CHARGES


@<TRIPOS>ATOM
      1 ****        -4.4615  -2.9289  -0.8912 O.2            1 S1                 0.0000
      2 ****        -3.9372  -1.8235  -0.7654 C.2            1 S1                 0.0000
      3 ****        -4.6691  -0.6683  -0.7490 N.pl3          1 S1                -1.0000
      4 ****        -4.0082   0.6077  -0.5877 N.2            1 S1                 0.0000
      5 ****        -2.7415   0.6811  -0.4689 C.2            1 S1                 0.0000
      6 ****        -1.8702  -0.5195  -0.4924 C.2            1 S1                 0.0000
      7 ****        -0.4895  -0.4400  -0.3620 N.pl3          1 S1                 0.0000
      8 ****         0.3412   0.7435  -0.1875 C.3            1 S1                 0.0000
      9 ****         1.6622   0.6676  -0.9548 C.3            1 S1                 0.0000
     10 ****         2.6828   0.9418   0.1593 C.3            1 S1                 0.0000
     11 ****         2.8528  -0.2744   1.0785 C.3            1 S1                 0.0000
     12 ****         1.5405  -0.2589   1.8603 C.3            1 S1                 0.0000
     13 ****         0.8244   0.9611   1.2568 C.3            1 S1                 0.0000
     14 ****         1.9385   1.8019   1.0072 O.3            1 S1                 0.0000
     15 ****        -2.4788  -1.7248  -0.6295 C.2            1 S1                 0.0000
     16 ****        -1.5472  -3.1868  -0.6543 Cl             1 S1                 0.0000
     17 ****        -2.2410   1.6431  -0.3375 H              1 S1                 0.0000
     18 ****         0.0236  -1.2919  -0.5380 H              1 S1                 0.0000
     19 ****        -0.1935   1.6304  -0.5273 H              1 S1                 0.0000
     20 ****         1.8346  -0.2946  -1.4395 H              1 S1                 0.0000
     21 ****         1.7002   1.4436  -1.7199 H              1 S1                 0.0000
     22 ****         3.6240   1.3620  -0.1961 H              1 S1                 0.0000
     23 ****         3.0037  -1.1996   0.5214 H              1 S1                 0.0000
     24 ****         3.6998  -0.1380   1.7517 H              1 S1                 0.0000
     25 ****         0.9715  -1.1832   1.7574 H              1 S1                 0.0000
     26 ****         1.7349  -0.1017   2.9218 H              1 S1                 0.0000
     27 ****         0.0700   1.3988   1.9113 H              1 S1                 0.0000
     28 ****        -3.8950  -3.7529  -0.9004 LP             1 S1                 0.0000
     29 ****        -5.4544  -3.0037  -0.9843 LP             1 S1                 0.0000
     30 ****        -5.6634  -0.7061  -0.8488 LP             1 S1                 0.0000
     31 ****        -4.5537   1.4456  -0.5691 LP             1 S1                 0.0000
     32 ****         1.6734   2.6474   0.5437 LP             1 S1                 0.0000
     33 ****         2.4360   2.0235   1.8459 LP             1 S1                 0.0000
@<TRIPOS>BOND
    1    1    2 2     
    2    2   15 1     
    3    2    3 1     
    4    3    4 1     
    5    4    5 2     
    6    5    6 1     
    7    5   17 1     
    8    6    7 1     
    9    6   15 2     
   10    7    8 1     
   11    7   18 1     
   12    8   13 1     
   13    8    9 1     
   14    8   19 1     
   15    9   10 1     
   16    9   20 1     
   17    9   21 1     
   18   10   14 1     
   19   10   11 1     
   20   10   22 1     
   21   11   12 1     
   22   11   23 1     
   23   11   24 1     
   24   12   13 1     
   25   12   25 1     
   26   12   26 1     
   27   13   14 1     
   28   13   27 1     
   29   15   16 1     
   30    1   28 1     
   31    1   29 1     
   32    3   30 1     
   33    4   31 1     
   34   14   32 1     
   35   14   33 1     
@<TRIPOS>SUBSTRUCTURE
      1 S1             1
@<TRIPOS>SET
LONE_PAIRS      STATIC     ATOMS    <user>   **** ""
6 28 29 30 31 32 33
DONOR_HYDROGENS      STATIC     ATOMS    <user>   **** ""
1 18
ATOM$BLUE        STATIC     ATOMS    COLORGROUP SYSTEM
6 28 29 30 31 32 33
ATOM$RED        STATIC     ATOMS    COLORGROUP SYSTEM
1 18
