#       Name:                AV-unprocessed.smi:243
#       Creating user name   scv26
#       Creation time:       Thu Mar 26 20:48:29 2020


#       File generated by GOLD software.
#

@<TRIPOS>MOLECULE
AV-unprocessed.smi:243
    65    68     1
SMALL
NO_CHARGES


@<TRIPOS>ATOM
      1 ****        -6.9413  -0.2524   0.3807 C.3            1 S1                 0.0000
      2 ****        -6.2491   0.9142   1.1010 C.3            1 S1                 0.0000
      3 ****        -4.7699   0.8683   0.9763 N.4            1 S1                 1.0000
      4 ****        -4.0967   1.6772   2.0229 C.3            1 S1                 0.0000
      5 ****        -2.5767   1.4708   1.9823 C.3            1 S1                 0.0000
      6 ****        -2.0048   1.8034   0.5868 C.3            1 S1                 0.0000
      7 ****        -0.5397   1.6824   0.5256 N.pl3          1 S1                 0.0000
      8 ****         0.2643   2.6580   1.2526 C.3            1 S1                 0.0000
      9 ****         0.0819   0.4862   0.3582 C.ar           1 S1                 0.0000
     10 ****        -0.4152  -0.6348   0.9428 N.ar           1 S1                 0.0000
     11 ****         0.2025  -1.8093   0.7858 C.ar           1 S1                 0.0000
     12 ****         1.3112  -2.0831   0.0963 N.ar           1 S1                 0.0000
     13 ****         1.8185  -0.9612  -0.4900 C.ar           1 S1                 0.0000
     14 ****         1.2721   0.3506  -0.4098 C.ar           1 S1                 0.0000
     15 ****         2.0512   1.2332  -1.1476 N.2            1 S1                 0.0000
     16 ****         3.0052   0.4870  -1.6333 C.2            1 S1                 0.0000
     17 ****         2.9483  -0.8430  -1.2812 N.pl3          1 S1                 0.0000
     18 ****         3.8729  -1.8938  -1.6793 C.3            1 S1                 0.0000
     19 ****         5.0541  -2.0872  -0.6988 C.3            1 S1                 0.0000
     20 ****         4.5463  -2.4129   0.5837 O.3            1 S1                 0.0000
     21 ****         6.0049  -3.1959  -1.1325 C.3            1 S1                 0.0000
     22 ****         7.3358  -2.7469  -0.5447 C.3            1 S1                 0.0000
     23 ****         7.3162  -1.3454  -0.7550 O.3            1 S1                 0.0000
     24 ****         5.9882  -0.8670  -0.5595 C.3            1 S1                 0.0000
     25 ****        -2.7604   1.0178  -0.5189 C.3            1 S1                 0.0000
     26 ****        -2.3032   1.4172  -1.9335 C.3            1 S1                 0.0000
     27 ****        -4.2820   1.2332  -0.3797 C.3            1 S1                 0.0000
     28 ****        -8.0123  -0.2457   0.5847 H              1 S1                 0.0000
     29 ****        -6.5486  -1.2127   0.7162 H              1 S1                 0.0000
     30 ****        -6.8216  -0.1975  -0.7007 H              1 S1                 0.0000
     31 ****        -6.6269   1.8708   0.7372 H              1 S1                 0.0000
     32 ****        -6.5206   0.8567   2.1559 H              1 S1                 0.0000
     33 ****        -4.3403   2.7321   1.8855 H              1 S1                 0.0000
     34 ****        -4.4667   1.3917   3.0085 H              1 S1                 0.0000
     35 ****        -2.1081   2.0981   2.7413 H              1 S1                 0.0000
     36 ****        -2.3586   0.4407   2.2606 H              1 S1                 0.0000
     37 ****        -2.2129   2.8593   0.4072 H              1 S1                 0.0000
     38 ****         0.7356   2.2027   2.1248 H              1 S1                 0.0000
     39 ****        -0.3465   3.4913   1.6000 H              1 S1                 0.0000
     40 ****         1.0463   3.0673   0.6133 H              1 S1                 0.0000
     41 ****        -0.2562  -2.6502   1.2845 H              1 S1                 0.0000
     42 ****         3.7801   0.8908  -2.2684 H              1 S1                 0.0000
     43 ****         3.3113  -2.8238  -1.7788 H              1 S1                 0.0000
     44 ****         4.2466  -1.6564  -2.6762 H              1 S1                 0.0000
     45 ****         5.2743  -2.5210   1.1763 H              1 S1                 0.0000
     46 ****         5.7017  -4.1900  -0.8012 H              1 S1                 0.0000
     47 ****         6.0874  -3.2193  -2.2200 H              1 S1                 0.0000
     48 ****         7.3838  -2.9577   0.5248 H              1 S1                 0.0000
     49 ****         8.1928  -3.2156  -1.0287 H              1 S1                 0.0000
     50 ****         5.7926  -0.1073  -1.3153 H              1 S1                 0.0000
     51 ****         5.9006  -0.3871   0.4165 H              1 S1                 0.0000
     52 ****        -2.5785  -0.0501  -0.4000 H              1 S1                 0.0000
     53 ****        -2.4536   2.4823  -2.1124 H              1 S1                 0.0000
     54 ****        -2.8610   0.8708  -2.6944 H              1 S1                 0.0000
     55 ****        -1.2471   1.2007  -2.0934 H              1 S1                 0.0000
     56 ****        -4.7893   0.6309  -1.1325 H              1 S1                 0.0000
     57 ****        -4.5377   2.2736  -0.5877 H              1 S1                 0.0000
     58 ****        -4.4984  -0.0906   1.1412 H              1 S1                 0.0000
     59 ****        -1.2481  -0.5808   1.4937 LP             1 S1                 0.0000
     60 ****         1.7178  -2.9935   0.0193 LP             1 S1                 0.0000
     61 ****         1.9126   2.2151  -1.2768 LP             1 S1                 0.0000
     62 ****         4.0233  -3.2638   0.5332 LP             1 S1                 0.0000
     63 ****         3.9534  -1.6761   0.9087 LP             1 S1                 0.0000
     64 ****         7.6121  -1.1420  -1.6883 LP             1 S1                 0.0000
     65 ****         7.9323  -0.9000  -0.1054 LP             1 S1                 0.0000
@<TRIPOS>BOND
    1    1    2 1     
    2    1   28 1     
    3    1   29 1     
    4    1   30 1     
    5    2    3 1     
    6    2   31 1     
    7    2   32 1     
    8    3   27 1     
    9    3    4 1     
   10    3   58 1     
   11    4    5 1     
   12    4   33 1     
   13    4   34 1     
   14    5    6 1     
   15    5   35 1     
   16    5   36 1     
   17    6    7 1     
   18    6   25 1     
   19    6   37 1     
   20    7    8 1     
   21    7    9 1     
   22    8   38 1     
   23    8   39 1     
   24    8   40 1     
   25    9   14 ar    
   26    9   10 ar    
   27   10   11 ar    
   28   11   12 ar    
   29   11   41 1     
   30   12   13 ar    
   31   13   17 1     
   32   13   14 ar    
   33   14   15 1     
   34   15   16 2     
   35   16   17 1     
   36   16   42 1     
   37   17   18 1     
   38   18   19 1     
   39   18   43 1     
   40   18   44 1     
   41   19   24 1     
   42   19   20 1     
   43   19   21 1     
   44   20   45 1     
   45   21   22 1     
   46   21   46 1     
   47   21   47 1     
   48   22   23 1     
   49   22   48 1     
   50   22   49 1     
   51   23   24 1     
   52   24   50 1     
   53   24   51 1     
   54   25   26 1     
   55   25   27 1     
   56   25   52 1     
   57   26   53 1     
   58   26   54 1     
   59   26   55 1     
   60   27   56 1     
   61   27   57 1     
   62   10   59 1     
   63   12   60 1     
   64   15   61 1     
   65   20   62 1     
   66   20   63 1     
   67   23   64 1     
   68   23   65 1     
@<TRIPOS>SUBSTRUCTURE
      1 S1             1
@<TRIPOS>SET
LONE_PAIRS      STATIC     ATOMS    <user>   **** ""
7 59 60 61 62 63 64 65
DONOR_HYDROGENS      STATIC     ATOMS    <user>   **** ""
2 58 45
ATOM$BLUE        STATIC     ATOMS    COLORGROUP SYSTEM
7 59 60 61 62 63 64 65
ATOM$RED        STATIC     ATOMS    COLORGROUP SYSTEM
2 58 45
