AV-unprocessed.smi:1956|AV-procd|sdf|7900|dock7
  -GOLD-   2272010 53D 1   1.00000     0.00000
 Structure written by MMmdl.
 46 47  0  0  0  0  0  0  0  0  2 V2000
  154.2284  140.6023  160.9442 C   0  0  0  0  0  0  0  0  0  0  0  0
  154.1117  141.8738  160.3155 O   0  0  0  0  0  0  0  0  0  0  0  0
  153.0942  142.0623  159.4029 C   0  0  0  0  0  0  0  0  0  0  0  0
  152.9383  143.3359  158.8215 C   0  0  0  0  0  0  0  0  0  0  0  0
  151.9015  143.5389  157.8911 C   0  0  0  0  0  0  0  0  0  0  0  0
  151.0528  142.4540  157.5636 C   0  0  0  0  0  0  0  0  0  0  0  0
  149.9593  142.5280  156.6573 N   0  0  0  0  0  0  0  0  0  0  0  0
  149.0404  141.5920  156.3639 C   0  0  0  0  0  0  0  0  0  0  0  0
  148.9534  140.4843  156.8914 O   0  0  0  0  0  0  0  0  0  0  0  0
  148.2028  142.0176  155.4075 N   0  0  0  0  0  0  0  0  0  0  0  0
  147.0885  141.2451  154.8621 C   0  0  0  0  0  0  0  0  0  0  0  0
  147.3764  140.6693  153.4578 C   0  0  0  0  0  0  0  0  0  0  0  0
  146.5060  139.5172  153.1086 N   0  3  1  0  0  0  0  0  0  0  0  0
  146.9251  138.8516  151.8491 C   0  0  0  0  0  0  0  0  0  0  0  0
  145.9184  137.7652  151.4400 C   0  0  0  0  0  0  0  0  0  0  0  0
  145.7341  136.7382  152.5641 C   0  0  0  0  0  0  0  0  0  0  0  0
  145.3322  137.4422  153.8716 C   0  0  1  0  0  0  0  0  0  0  0  0
  145.1749  136.4379  155.0220 C   0  0  0  0  0  0  0  0  0  0  0  0
  146.3525  138.5439  154.2220 C   0  0  0  0  0  0  0  0  0  0  0  0
  151.2885  141.2219  158.2085 C   0  0  0  0  0  0  0  0  0  0  0  0
  152.2796  141.0210  159.1021 N   0  0  0  0  0  0  0  0  0  0  0  0
  155.0773  140.6148  161.6276 H   0  0  0  0  0  0  0  0  0  0  0  0
  154.4031  139.8102  160.2148 H   0  0  0  0  0  0  0  0  0  0  0  0
  153.3378  140.3626  161.5271 H   0  0  0  0  0  0  0  0  0  0  0  0
  153.6005  144.1461  159.0893 H   0  0  0  0  0  0  0  0  0  0  0  0
  151.7765  144.5214  157.4649 H   0  0  0  0  0  0  0  0  0  0  0  0
  149.8496  143.4174  156.1923 H   0  0  0  0  0  0  0  0  0  0  0  0
  148.3350  142.9491  155.0403 H   0  0  0  0  0  0  0  0  0  0  0  0
  146.8270  140.4397  155.5501 H   0  0  0  0  0  0  0  0  0  0  0  0
  146.2188  141.9008  154.8255 H   0  0  0  0  0  0  0  0  0  0  0  0
  147.2159  141.4657  152.7300 H   0  0  0  0  0  0  0  0  0  0  0  0
  148.4267  140.3889  153.3659 H   0  0  0  0  0  0  0  0  0  0  0  0
  146.9982  139.5886  151.0485 H   0  0  0  0  0  0  0  0  0  0  0  0
  147.9188  138.4193  151.9764 H   0  0  0  0  0  0  0  0  0  0  0  0
  144.9588  138.2257  151.2012 H   0  0  0  0  0  0  0  0  0  0  0  0
  146.2567  137.2661  150.5316 H   0  0  0  0  0  0  0  0  0  0  0  0
  144.9764  136.0076  152.2786 H   0  0  0  0  0  0  0  0  0  0  0  0
  146.6627  136.1839  152.7092 H   0  0  0  0  0  0  0  0  0  0  0  0
  144.3629  137.9182  153.7153 H   0  0  0  0  0  0  0  0  0  0  0  0
  146.1129  135.9211  155.2281 H   0  0  0  0  0  0  0  0  0  0  0  0
  144.4247  135.6830  154.7847 H   0  0  0  0  0  0  0  0  0  0  0  0
  144.8614  136.9362  155.9398 H   0  0  0  0  0  0  0  0  0  0  0  0
  147.3228  138.1010  154.4534 H   0  0  0  0  0  0  0  0  0  0  0  0
  146.0204  139.0625  155.1213 H   0  0  0  0  0  0  0  0  0  0  0  0
  150.6626  140.3662  158.0008 H   0  0  0  0  0  0  0  0  0  0  0  0
  145.5903  139.9028  152.9265 H   0  0  0  0  0  0  0  0  0  0  0  0
  1  2  1  0  0  0  0
  1 22  1  0  0  0  0
  1 23  1  0  0  0  0
  1 24  1  0  0  0  0
  2  3  1  0  0  0  0
  3 21  1  0  0  0  0
  3  4  2  0  0  0  0
  4  5  1  0  0  0  0
  4 25  1  0  0  0  0
  5  6  2  0  0  0  0
  5 26  1  0  0  0  0
  6  7  1  0  0  0  0
  6 20  1  0  0  0  0
  7  8  1  0  0  0  0
  7 27  1  0  0  0  0
  8  9  2  0  0  0  0
  8 10  1  0  0  0  0
 10 11  1  0  0  0  0
 10 28  1  0  0  0  0
 11 12  1  0  0  0  0
 11 29  1  0  0  0  0
 11 30  1  0  0  0  0
 12 13  1  0  0  0  0
 12 31  1  0  0  0  0
 12 32  1  0  0  0  0
 13 19  1  0  0  0  0
 13 14  1  0  0  0  0
 13 46  1  0  0  0  0
 14 15  1  0  0  0  0
 14 33  1  0  0  0  0
 14 34  1  0  0  0  0
 15 16  1  0  0  0  0
 15 35  1  0  0  0  0
 15 36  1  0  0  0  0
 16 17  1  0  0  0  0
 16 37  1  0  0  0  0
 16 38  1  0  0  0  0
 17 18  1  0  0  0  0
 17 19  1  0  0  0  0
 17 39  1  0  0  0  0
 18 40  1  0  0  0  0
 18 41  1  0  0  0  0
 18 42  1  0  0  0  0
 19 43  1  0  0  0  0
 19 44  1  0  0  0  0
 20 21  2  0  0  0  0
 20 45  1  0  0  0  0
M  CHG  1  13   1
M  END
> <s_m_source_file>
AV-unprocessed.smi

> <i_m_source_file_index>
1956

> <i_lp_mmshare_version>
43012

> <i_f3d_flags>
0

> <s_epik_input>
W0NIM11PYzFbY0hdW2NIXWMoW2NIXW4xKVtOSF1DKD1PKVtOSF1bQ0gyXVtDSDJdTjJbQ0gyXVtDSDJdW0NIMl1bQ0BASF0oW0NIM10pW0NIMl0y

> <s_epik_cmdline>
J2VwaWtfcHl0aG9uJywgJy1waCcsICc3LjAnLCAnLXRuJywgJzgnLCAnLW1hJywgJzIwMCcsICctbWV0YWxfYmluZGluZycsICctaW1hZScsICc8aW5maWxlLm1hZT4nLCAnLW9tYWUnLCAnPG91dGZpbGUubWFlPic=

> <r_lp_tautomer_probability>
1

> <r_epik_Ionization_Penalty>
0.00179545

> <r_epik_Ionization_Penalty_Charging>
0.00171832

> <r_epik_Ionization_Penalty_Neutral>
7.7124e-05

> <r_epik_State_Penalty>
0.0011618

> <r_epik_Charging_Adjusted_Penalty>
0.00288012

> <i_epik_Tot_Q>
1

> <i_epik_Tot_abs_Q>
1

> <r_epik_Metal_State_Penalty>
-0

> <b_epik_Metal_Only>
0

> <s_lp_Force_Field>
OPLS_2005

> <r_lp_Energy>
26.1696

> <b_lp_Chiralities_Consistent>
1

> <s_lp_Variant>
AV-unprocessed.smi:1956-1

> <Gold.Version>
5.8.1

> <Gold.Id.Protein>
6NUR|6NUR_protein|mol2

> <Gold.PLP.Fitness>
46.2849

> <Gold.PLP.PLP>
-35.2800

> <Gold.PLP.part.hbond>
-3.0000

> <Gold.PLP.part.metal>
0.0000

> <Gold.PLP.part.buried>
0.4279

> <Gold.PLP.part.nonpolar>
-33.9779

> <Gold.PLP.part.repulsive>
0.1777

> <Gold.PLP.ligand.clash>
0.0000

> <Gold.PLP.ligand.torsion>
0.2950

> <Gold.PLP.Chemscore.Hbond>
3.8480

> <Gold.PLP.Chemscore.CHOScore>
0.0000

> <Gold.PLP.Chemscore.Metal>
0.0000

> <Gold.Chemscore.Hbonds>
donor molecule, donor type, donor heavy atom, donor atom, acceptor molecule, acceptor atom, score
      L1  H     7    27       P1  8028  1.00
      L1  H    10    28       P1  8028  0.80
      L1  H    13    46       P1 10175  1.95

> <Gold.PLP.Chemscore.Internal.Correction>
0.0508

> <Gold.Rescore>
     Score         DG    S(hbond)    S(metal)    S(lipo)     H(rot)  DE(clash)    DE(int)     intcor
     17.54     -20.69       2.88        0.00      85.17       1.71       1.40       1.75       ----

> <Gold.Chemscore.Fitness>
17.5410

> <Gold.Chemscore.DG>
-20.6867

> <Gold.Chemscore.ZeroCoef>
-5.4800

> <Gold.Chemscore.Hbond>
2.8807

> <Gold.Chemscore.Metal>
0.0000

> <Gold.Chemscore.Lipo>
85.1672

> <Gold.Chemscore.Internal_Hbond>
0.0000

> <Gold.Chemscore.DEClash>
1.3983

> <Gold.Chemscore.DEInternal>
1.7473

> <Gold.Chemscore.Rot>
1.7107

> <Gold.Chemscore.Internal.Correction>
   9.000000E+99

> <Gold.Chemscore.Hbonds>
donor molecule, donor type, donor heavy atom, donor atom, acceptor molecule, acceptor atom, score
      L1  H     7    27       P1  8028  0.96
      L1  H    10    28       P1  8028  0.79
      L1  H    13    46       P1 10175  0.91

> <Gold.Chemscore.Hbond.Weighted>
-9.6215

> <Gold.Chemscore.Metal.Weighted>
-0.0000

> <Gold.Chemscore.Lipo.Weighted>
-9.9646

> <Gold.Chemscore.Internal_Hbond.Weighted>
0.0000

> <Gold.Chemscore.DEClash.Weighted>
1.3983

> <Gold.Chemscore.DEInternal.Weighted>
1.7473

> <Gold.Chemscore.Rot.Weighted>
4.3794

> <Gold.Chemscore.Internal.Correction.Weighted>
   9.000000E+99

> <Gold.Protein.RotatedTorsions>
[ 6907 6896 6895 6894 ] final -149.03 input  -60.11 | X-H torsion
[ 7974 7965 7964 7962 ] final   24.37 input  175.53 | X-H torsion
[ 8008 7997 7996 7995 ] final   98.32 input   59.86 | X-H torsion
[ 10167 10162 10161 10158 ] final   76.51 input  -65.29 | X-H torsion
[ 10718 10713 10712 10709 ] final  118.78 input   66.30 | X-H torsion
[ 10763 10752 10751 10750 ] final  116.76 input  -60.55 | X-H torsion
[ 11005 11000 10999 10996 ] final  -48.56 input  -57.11 | X-H torsion

> <Gold.Protein.ActiveResidues>
 VAL166  LYS551  ARG553  GLY616  TRP617  ASP618  TYR619  PRO620  LYS621  CYS622 
 ASP623  PHE694  ASN695  SER759  ASP760  ASP761  ALA762  ILE779  LEU786  VAL792 
 PHE793  MET794  SER795  GLU796  ALA797  LYS798  CYS799  TRP800  GLU811  SER814 

> <Gold.Protein.RotatedAtoms>
  151.1783  133.4741  159.2593 H   0  0  0  0  0  0  0  0  0  0  0  0  # atno 6907 bound_to 6896
  151.1285  135.0117  159.8582 H   0  0  0  0  0  0  0  0  0  0  0  0  # atno 6908 bound_to 6896
  152.5459  134.1687  159.8641 H   0  0  0  0  0  0  0  0  0  0  0  0  # atno 6909 bound_to 6896
  146.1941  139.7614  142.8810 H   0  0  0  0  0  0  0  0  0  0  0  0  # atno 7974 bound_to 7965
  156.0992  140.3245  155.7919 H   0  0  0  0  0  0  0  0  0  0  0  0  # atno 8008 bound_to 7997
  155.4865  140.0558  157.2977 H   0  0  0  0  0  0  0  0  0  0  0  0  # atno 8009 bound_to 7997
  154.4686  140.2001  156.0068 H   0  0  0  0  0  0  0  0  0  0  0  0  # atno 8010 bound_to 7997
  139.9915  144.5753  150.7814 H   0  0  0  0  0  0  0  0  0  0  0  0  # atno 10167 bound_to 10162
  157.6007  131.1051  150.7804 H   0  0  0  0  0  0  0  0  0  0  0  0  # atno 10718 bound_to 10713
  153.5420  135.3557  155.2722 H   0  0  0  0  0  0  0  0  0  0  0  0  # atno 10763 bound_to 10752
  154.8716  135.4093  154.3033 H   0  0  0  0  0  0  0  0  0  0  0  0  # atno 10764 bound_to 10752
  153.3742  135.7065  153.6683 H   0  0  0  0  0  0  0  0  0  0  0  0  # atno 10765 bound_to 10752
  141.0708  133.6679  156.3459 H   0  0  0  0  0  0  0  0  0  0  0  0  # atno 11005 bound_to 11000
  145.3701  141.0341  143.3236 LP  0  0  0  0  0  0  0  0  0  0  0  0  # atno 17320 bound_to 7965
  144.8544  139.5272  143.6841 LP  0  0  0  0  0  0  0  0  0  0  0  0  # atno 17321 bound_to 7965
  140.7453  143.2873  151.3427 LP  0  0  0  0  0  0  0  0  0  0  0  0  # atno 17342 bound_to 10162
  139.6337  144.0672  152.2497 LP  0  0  0  0  0  0  0  0  0  0  0  0  # atno 17343 bound_to 10162
  156.8204  130.4982  149.5344 LP  0  0  0  0  0  0  0  0  0  0  0  0  # atno 17370 bound_to 10713
  156.1079  130.6018  151.0001 LP  0  0  0  0  0  0  0  0  0  0  0  0  # atno 17371 bound_to 10713
  140.5677  134.5871  157.5450 LP  0  0  0  0  0  0  0  0  0  0  0  0  # atno 17394 bound_to 11000
  139.9522  134.7598  156.0423 LP  0  0  0  0  0  0  0  0  0  0  0  0  # atno 17395 bound_to 11000

$$$$
