#       Name:                AV-unprocessed.smi:598
#       Creating user name   scv26
#       Creation time:       Thu Mar 26 23:53:12 2020


#       File generated by GOLD software.
#

@<TRIPOS>MOLECULE
AV-unprocessed.smi:598
    49    50     1
SMALL
NO_CHARGES


@<TRIPOS>ATOM
      1 ****        -2.5047  -2.7301  -1.2415 C.3            1 S1                 0.0000
      2 ****        -1.9720  -2.0178   0.0148 C.3            1 S1                 0.0000
      3 ****        -2.5324  -2.7015   1.2792 C.3            1 S1                 0.0000
      4 ****        -2.0209  -2.0459   2.5690 C.3            1 S1                 0.0000
      5 ****        -2.3330  -0.5419   2.5858 C.3            1 S1                 0.0000
      6 ****        -1.7787   0.1736   1.3399 C.3            1 S1                 0.0000
      7 ****        -0.3158   0.2067   1.4001 N.am           1 S1                 0.0000
      8 ****         0.4677   1.2558   1.1061 C.2            1 S1                 0.0000
      9 ****         0.0303   2.3625   0.7897 O.2            1 S1                 0.0000
     10 ****         1.9792   1.0075   1.1810 C.3            1 S1                 0.0000
     11 ****         2.6975   1.6361   0.0609 N.am           1 S1                 0.0000
     12 ****         2.7370   0.9077  -1.1445 C.2            1 S1                 0.0000
     13 ****         3.3424   1.3826  -2.2501 C.2            1 S1                 0.0000
     14 ****         3.3619   0.6233  -3.4810 N.pl3          1 S1                 1.0000
     15 ****         3.9488   1.0911  -4.4512 O.2            1 S1                 0.0000
     16 ****         2.7918  -0.4633  -3.5197 O.2            1 S1                -1.0000
     17 ****         3.9681   2.6880  -2.1668 C.2            1 S1                 0.0000
     18 ****         3.9310   3.3916  -1.0178 C.2            1 S1                 0.0000
     19 ****         3.2652   2.8748   0.1828 C.2            1 S1                 0.0000
     20 ****         3.2197   3.5185   1.2310 O.2            1 S1                 0.0000
     21 ****        -2.2885  -0.4960   0.0333 C.3            1 S1                 0.0000
     22 ****        -1.7850   0.2415  -1.2245 C.3            1 S1                 0.0000
     23 ****        -3.5797  -2.5861  -1.3542 H              1 S1                 0.0000
     24 ****        -2.3177  -3.8031  -1.1906 H              1 S1                 0.0000
     25 ****        -2.0196  -2.3688  -2.1480 H              1 S1                 0.0000
     26 ****        -0.8883  -2.1432   0.0201 H              1 S1                 0.0000
     27 ****        -3.6227  -2.6635   1.2637 H              1 S1                 0.0000
     28 ****        -2.2639  -3.7586   1.2821 H              1 S1                 0.0000
     29 ****        -2.4768  -2.5275   3.4346 H              1 S1                 0.0000
     30 ****        -0.9459  -2.2049   2.6608 H              1 S1                 0.0000
     31 ****        -3.4139  -0.4024   2.6288 H              1 S1                 0.0000
     32 ****        -1.9332  -0.0869   3.4930 H              1 S1                 0.0000
     33 ****        -2.1576   1.1967   1.3679 H              1 S1                 0.0000
     34 ****         0.1386  -0.6569   1.6588 H              1 S1                 0.0000
     35 ****         2.3416   1.3629   2.1467 H              1 S1                 0.0000
     36 ****         2.1775  -0.0659   1.1810 H              1 S1                 0.0000
     37 ****         2.2352  -0.0486  -1.1036 H              1 S1                 0.0000
     38 ****         4.4686   3.1117  -3.0249 H              1 S1                 0.0000
     39 ****         4.4021   4.3629  -0.9784 H              1 S1                 0.0000
     40 ****        -3.3749  -0.3926   0.0339 H              1 S1                 0.0000
     41 ****        -0.7201   0.0760  -1.3909 H              1 S1                 0.0000
     42 ****        -1.9456   1.3164  -1.1371 H              1 S1                 0.0000
     43 ****        -2.3145  -0.0836  -2.1196 H              1 S1                 0.0000
     44 ****        -0.9568   2.5149   0.7415 LP             1 S1                 0.0000
     45 ****         0.6623   3.1089   0.5809 LP             1 S1                 0.0000
     46 ****         4.4011   1.9802  -4.3811 LP             1 S1                 0.0000
     47 ****         3.9750   0.5834  -5.3123 LP             1 S1                 0.0000
     48 ****         2.7560   3.1386   2.0313 LP             1 S1                 0.0000
     49 ****         3.6465   4.4214   1.2822 LP             1 S1                 0.0000
@<TRIPOS>BOND
    1    1    2 1     
    2    1   23 1     
    3    1   24 1     
    4    1   25 1     
    5    2   21 1     
    6    2    3 1     
    7    2   26 1     
    8    3    4 1     
    9    3   27 1     
   10    3   28 1     
   11    4    5 1     
   12    4   29 1     
   13    4   30 1     
   14    5    6 1     
   15    5   31 1     
   16    5   32 1     
   17    6    7 1     
   18    6   21 1     
   19    6   33 1     
   20    7    8 am    
   21    7   34 1     
   22    8    9 2     
   23    8   10 1     
   24   10   11 1     
   25   10   35 1     
   26   10   36 1     
   27   11   19 am    
   28   11   12 1     
   29   12   13 2     
   30   12   37 1     
   31   13   14 1     
   32   13   17 1     
   33   14   15 2     
   34   14   16 1     
   35   17   18 2     
   36   17   38 1     
   37   18   19 1     
   38   18   39 1     
   39   19   20 2     
   40   21   22 1     
   41   21   40 1     
   42   22   41 1     
   43   22   42 1     
   44   22   43 1     
   45    9   44 1     
   46    9   45 1     
   47   15   46 1     
   48   15   47 1     
   49   20   48 1     
   50   20   49 1     
@<TRIPOS>SUBSTRUCTURE
      1 S1             1
@<TRIPOS>SET
LONE_PAIRS      STATIC     ATOMS    <user>   **** ""
7 44 45 46 47 16 48 49
DONOR_HYDROGENS      STATIC     ATOMS    <user>   **** ""
1 34
ATOM$BLUE        STATIC     ATOMS    COLORGROUP SYSTEM
7 44 45 46 47 16 48 49
ATOM$RED        STATIC     ATOMS    COLORGROUP SYSTEM
1 34
