AV-unprocessed.smi:16|AV-procd|sdf|95|dock8
  -GOLD-   2262015243D 1   1.00000     0.00000
 Structure written by MMmdl.
 59 63  0  0  0  0  0  0  0  0  1 V2000
  151.4901  137.0709  154.4402 C   0  0  0  0  0  0  0  0  0  0  0  0
  151.8407  138.5501  154.6656 C   0  0  0  0  0  0  0  0  0  0  0  0
  150.7539  139.2844  155.3124 N   0  0  0  0  0  0  0  0  0  0  0  0
  151.1379  140.6939  155.4206 C   0  0  0  0  0  0  0  0  0  0  0  0
  150.0680  141.4863  156.1908 C   0  0  0  0  0  0  0  0  0  0  0  0
  148.6944  141.3788  155.5172 C   0  0  1  0  0  0  0  0  0  0  0  0
  148.7079  142.0988  154.2865 O   0  0  0  0  0  0  0  0  0  0  0  0
  147.4366  142.0861  153.6466 C   0  0  0  0  0  0  0  0  0  0  0  0
  147.0380  140.6403  153.3114 C   0  0  0  0  0  0  0  0  0  0  0  0
  147.0935  139.8088  154.5136 N   0  0  0  0  0  0  0  0  0  0  0  0
  146.5035  138.5844  154.4710 C   0  0  0  0  0  0  0  0  0  0  0  0
  146.2305  137.9298  155.6322 N   0  0  0  0  0  0  0  0  0  0  0  0
  145.6459  136.7291  155.6129 C   0  0  0  0  0  0  0  0  0  0  0  0
  145.2559  136.0088  154.5605 N   0  0  0  0  0  0  0  0  0  0  0  0
  145.5279  136.6547  153.3908 C   0  0  0  0  0  0  0  0  0  0  0  0
  146.1483  137.9300  153.2559 C   0  0  0  0  0  0  0  0  0  0  0  0
  146.2890  138.2415  151.9082 N   0  0  0  0  0  0  0  0  0  0  0  0
  145.7765  137.2159  151.2852 C   0  0  0  0  0  0  0  0  0  0  0  0
  145.2731  136.2272  152.0992 N   0  0  0  0  0  0  0  0  0  0  0  0
  144.7088  134.9768  151.6827 C   0  0  0  0  0  0  0  0  0  0  0  0
  145.5031  133.6698  151.7791 C   0  0  0  0  0  0  0  0  0  0  0  0
  144.7672  133.1482  150.5228 C   0  0  0  0  0  0  0  0  0  0  0  0
  145.6042  132.3321  149.5184 C   0  0  0  0  0  0  0  0  0  0  0  0
  144.9729  132.2034  148.2603 O   0  0  0  0  0  0  0  0  0  0  0  0
  143.5007  132.3262  150.8304 C   0  0  0  0  0  0  0  0  0  0  0  0
  142.7398  132.0862  149.6639 O   0  0  0  0  0  0  0  0  0  0  0  0
  144.5276  134.6412  150.1992 C   0  0  0  0  0  0  0  0  0  0  0  0
  148.3526  139.8972  155.2575 C   0  0  1  0  0  0  0  0  0  0  0  0
  149.5162  139.1796  154.5331 C   0  0  0  0  0  0  0  0  0  0  0  0
  147.9461  141.8248  156.1749 H   0  0  0  0  0  0  0  0  0  0  0  0
  148.2306  139.4256  156.2311 H   0  0  0  0  0  0  0  0  0  0  0  0
  152.3629  136.5251  154.0822 H   0  0  0  0  0  0  0  0  0  0  0  0
  150.7047  136.9391  153.6968 H   0  0  0  0  0  0  0  0  0  0  0  0
  151.1638  136.5966  155.3662 H   0  0  0  0  0  0  0  0  0  0  0  0
  152.7208  138.5848  155.3093 H   0  0  0  0  0  0  0  0  0  0  0  0
  152.1221  139.0295  153.7268 H   0  0  0  0  0  0  0  0  0  0  0  0
  152.0872  140.7763  155.9512 H   0  0  0  0  0  0  0  0  0  0  0  0
  151.2888  141.1219  154.4282 H   0  0  0  0  0  0  0  0  0  0  0  0
  150.0022  141.1036  157.2102 H   0  0  0  0  0  0  0  0  0  0  0  0
  150.3627  142.5326  156.2742 H   0  0  0  0  0  0  0  0  0  0  0  0
  146.6894  142.5546  154.2891 H   0  0  0  0  0  0  0  0  0  0  0  0
  147.4904  142.6812  152.7350 H   0  0  0  0  0  0  0  0  0  0  0  0
  146.0299  140.6325  152.8948 H   0  0  0  0  0  0  0  0  0  0  0  0
  147.7041  140.2343  152.5492 H   0  0  0  0  0  0  0  0  0  0  0  0
  145.4644  136.2818  156.5789 H   0  0  0  0  0  0  0  0  0  0  0  0
  145.7531  137.1537  150.2068 H   0  0  0  0  0  0  0  0  0  0  0  0
  143.7591  134.8896  152.2133 H   0  0  0  0  0  0  0  0  0  0  0  0
  146.5730  133.8249  151.6309 H   0  0  0  0  0  0  0  0  0  0  0  0
  145.3181  133.0977  152.6888 H   0  0  0  0  0  0  0  0  0  0  0  0
  146.5781  132.7957  149.3577 H   0  0  0  0  0  0  0  0  0  0  0  0
  145.7928  131.3254  149.8924 H   0  0  0  0  0  0  0  0  0  0  0  0
  144.9943  133.0428  147.8268 H   0  0  0  0  0  0  0  0  0  0  0  0
  143.7558  131.3683  151.2850 H   0  0  0  0  0  0  0  0  0  0  0  0
  142.8577  132.8393  151.5457 H   0  0  0  0  0  0  0  0  0  0  0  0
  142.2935  132.8847  149.4266 H   0  0  0  0  0  0  0  0  0  0  0  0
  143.5386  134.8768  149.8051 H   0  0  0  0  0  0  0  0  0  0  0  0
  145.3071  135.0846  149.5773 H   0  0  0  0  0  0  0  0  0  0  0  0
  149.6717  139.5968  153.5372 H   0  0  0  0  0  0  0  0  0  0  0  0
  149.2492  138.1322  154.3996 H   0  0  0  0  0  0  0  0  0  0  0  0
  1  2  1  0  0  0  0
  1 32  1  0  0  0  0
  1 33  1  0  0  0  0
  1 34  1  0  0  0  0
  2  3  1  0  0  0  0
  2 35  1  0  0  0  0
  2 36  1  0  0  0  0
  3 29  1  0  0  0  0
  3  4  1  0  0  0  0
  4  5  1  0  0  0  0
  4 37  1  0  0  0  0
  4 38  1  0  0  0  0
  5  6  1  0  0  0  0
  5 39  1  0  0  0  0
  5 40  1  0  0  0  0
  6 30  1  0  0  0  0
  6 28  1  0  0  0  0
  6  7  1  0  0  0  0
  7  8  1  0  0  0  0
  8  9  1  0  0  0  0
  8 41  1  0  0  0  0
  8 42  1  0  0  0  0
  9 10  1  0  0  0  0
  9 43  1  0  0  0  0
  9 44  1  0  0  0  0
 10 11  1  0  0  0  0
 10 28  1  0  0  0  0
 11 16  1  0  0  0  0
 11 12  2  0  0  0  0
 12 13  1  0  0  0  0
 13 14  2  0  0  0  0
 13 45  1  0  0  0  0
 14 15  1  0  0  0  0
 15 19  1  0  0  0  0
 15 16  2  0  0  0  0
 16 17  1  0  0  0  0
 17 18  2  0  0  0  0
 18 19  1  0  0  0  0
 18 46  1  0  0  0  0
 19 20  1  0  0  0  0
 20 27  1  0  0  0  0
 20 21  1  0  0  0  0
 20 47  1  0  0  0  0
 21 22  1  0  0  0  0
 21 48  1  0  0  0  0
 21 49  1  0  0  0  0
 22 23  1  0  0  0  0
 22 25  1  0  0  0  0
 22 27  1  0  0  0  0
 23 24  1  0  0  0  0
 23 50  1  0  0  0  0
 23 51  1  0  0  0  0
 24 52  1  0  0  0  0
 25 26  1  0  0  0  0
 25 53  1  0  0  0  0
 25 54  1  0  0  0  0
 26 55  1  0  0  0  0
 27 56  1  0  0  0  0
 27 57  1  0  0  0  0
 28 31  1  0  0  0  0
 28 29  1  0  0  0  0
 29 58  1  0  0  0  0
 29 59  1  0  0  0  0
M  END
> <s_m_source_file>
AV-unprocessed.smi

> <i_m_source_file_index>
16

> <i_lp_mmshare_version>
43012

> <i_f3d_flags>
0

> <s_epik_input>
W0NIM11bQ0gyXU4oW0NIMl1bQ0gyXTEpW0NIMl1bQ0BASF0oW0NAQEhdMTIpTihbQ0gyXVtDSDJdTzIpYyhuW2NIXW4zKWMoYzM0KW5bY0hdbjRbQ0hdKFtDSDJdNSlbQ0gyXUM1KFtDSDJdW09IXSlbQ0gyXVtPSF0=

> <s_epik_cmdline>
J2VwaWtfcHl0aG9uJywgJy1waCcsICc3LjAnLCAnLXRuJywgJzgnLCAnLW1hJywgJzIwMCcsICctbWV0YWxfYmluZGluZycsICctaW1hZScsICc8aW5maWxlLm1hZT4nLCAnLW9tYWUnLCAnPG91dGZpbGUubWFlPic=

> <r_lp_tautomer_probability>
1

> <r_epik_Ionization_Penalty>
2.27341

> <r_epik_Ionization_Penalty_Charging>
0

> <r_epik_Ionization_Penalty_Neutral>
2.27341

> <r_epik_State_Penalty>
2.41121

> <r_epik_Charging_Adjusted_Penalty>
2.41121

> <i_epik_Tot_Q>
0

> <i_epik_Tot_abs_Q>
0

> <r_epik_Metal_State_Penalty>
2.40177

> <b_epik_Metal_Only>
0

> <s_lp_Force_Field>
OPLS_2005

> <r_lp_Energy>
57.2914

> <b_lp_Chiralities_Consistent>
1

> <s_lp_Variant>
AV-unprocessed.smi:16-9

> <Gold.Version>
5.8.1

> <Gold.Id.Protein>
6NUR|6NUR_protein|mol2

> <Gold.PLP.Fitness>
51.0223

> <Gold.PLP.PLP>
-43.1357

> <Gold.PLP.part.hbond>
-5.8412

> <Gold.PLP.part.metal>
0.0000

> <Gold.PLP.part.buried>
-1.0643

> <Gold.PLP.part.nonpolar>
-37.1876

> <Gold.PLP.part.repulsive>
1.9811

> <Gold.PLP.ligand.clash>
0.0000

> <Gold.PLP.ligand.torsion>
0.5938

> <Gold.PLP.Chemscore.Hbond>
2.3800

> <Gold.PLP.Chemscore.CHOScore>
0.3360

> <Gold.PLP.Chemscore.Metal>
0.0000

> <Gold.Chemscore.Hbonds>
donor molecule, donor type, donor heavy atom, donor atom, acceptor molecule, acceptor atom, score
      L1  H    24    52       P1  7921  0.72
      L1  H    26    55       P1 10186  1.00
      P1  H  8011  8017       L1     7  0.09
      P1  H 10785 10796       L1    26  0.59
      L1  C    18    46       P1 10171  0.39

> <Gold.PLP.Chemscore.Internal.Correction>
0.9261

> <Gold.Rescore>
     Score         DG    S(hbond)    S(metal)    S(lipo)     H(rot)  DE(clash)    DE(int)     intcor
     10.35     -14.04       1.48        0.00     102.51       3.28       1.79       1.90       ----

> <Gold.Chemscore.Fitness>
10.3485

> <Gold.Chemscore.DG>
-14.0352

> <Gold.Chemscore.ZeroCoef>
-5.4800

> <Gold.Chemscore.Hbond>
1.4828

> <Gold.Chemscore.Metal>
0.0000

> <Gold.Chemscore.Lipo>
102.5073

> <Gold.Chemscore.Internal_Hbond>
0.0000

> <Gold.Chemscore.DEClash>
1.7854

> <Gold.Chemscore.DEInternal>
1.9014

> <Gold.Chemscore.Rot>
3.2776

> <Gold.Chemscore.Internal.Correction>
   9.000000E+99

> <Gold.Chemscore.Hbonds>
donor molecule, donor type, donor heavy atom, donor atom, acceptor molecule, acceptor atom, score
      L1  H    24    52       P1  7921  0.16
      L1  H    26    55       P1 10186  0.95
      P1  H  8011  8017       L1     7  0.01
      P1  H 10785 10796       L1    26  0.50

> <Gold.Chemscore.Hbond.Weighted>
-4.9526

> <Gold.Chemscore.Metal.Weighted>
-0.0000

> <Gold.Chemscore.Lipo.Weighted>
-11.9934

> <Gold.Chemscore.Internal_Hbond.Weighted>
0.0000

> <Gold.Chemscore.DEClash.Weighted>
1.7854

> <Gold.Chemscore.DEInternal.Weighted>
1.9014

> <Gold.Chemscore.Rot.Weighted>
8.3907

> <Gold.Chemscore.Internal.Correction.Weighted>
   9.000000E+99

> <Gold.Protein.RotatedTorsions>
[ 6907 6896 6895 6894 ] final -130.63 input  -60.11 | X-H torsion
[ 7974 7965 7964 7962 ] final   49.00 input  175.53 | X-H torsion
[ 8008 7997 7996 7995 ] final  -13.00 input   59.86 | X-H torsion
[ 10167 10162 10161 10158 ] final   19.31 input  -65.29 | X-H torsion
[ 10718 10713 10712 10709 ] final    8.99 input   66.30 | X-H torsion
[ 10763 10752 10751 10750 ] final   74.81 input  -60.55 | X-H torsion
[ 11005 11000 10999 10996 ] final  164.53 input  -57.11 | X-H torsion

> <Gold.Protein.ActiveResidues>
 VAL166  LYS551  ARG553  GLY616  TRP617  ASP618  TYR619  PRO620  LYS621  CYS622 
 ASP623  PHE694  ASN695  SER759  ASP760  ASP761  ALA762  ILE779  LEU786  VAL792 
 PHE793  MET794  SER795  GLU796  ALA797  LYS798  CYS799  TRP800  GLU811  SER814 

> <Gold.Protein.RotatedAtoms>
  150.9418  133.6647  159.2788 H   0  0  0  0  0  0  0  0  0  0  0  0  # atno 6907 bound_to 6896
  151.4034  135.0973  159.9572 H   0  0  0  0  0  0  0  0  0  0  0  0  # atno 6908 bound_to 6896
  152.5073  133.8907  159.7447 H   0  0  0  0  0  0  0  0  0  0  0  0  # atno 6909 bound_to 6896
  146.0151  139.4587  142.9932 H   0  0  0  0  0  0  0  0  0  0  0  0  # atno 7974 bound_to 7965
  154.5329  140.2261  155.8773 H   0  0  0  0  0  0  0  0  0  0  0  0  # atno 8008 bound_to 7997
  156.1782  140.3106  155.9062 H   0  0  0  0  0  0  0  0  0  0  0  0  # atno 8009 bound_to 7997
  155.3414  140.0450  157.3035 H   0  0  0  0  0  0  0  0  0  0  0  0  # atno 8010 bound_to 7997
  140.5589  143.9374  150.6628 H   0  0  0  0  0  0  0  0  0  0  0  0  # atno 10167 bound_to 10162
  156.9598  130.5928  149.5661 H   0  0  0  0  0  0  0  0  0  0  0  0  # atno 10718 bound_to 10713
  153.0612  135.5012  154.8097 H   0  0  0  0  0  0  0  0  0  0  0  0  # atno 10763 bound_to 10752
  154.6885  135.2980  154.9515 H   0  0  0  0  0  0  0  0  0  0  0  0  # atno 10764 bound_to 10752
  154.0278  135.6733  153.4831 H   0  0  0  0  0  0  0  0  0  0  0  0  # atno 10765 bound_to 10752
  140.2468  134.8008  157.3464 H   0  0  0  0  0  0  0  0  0  0  0  0  # atno 11005 bound_to 11000
  145.7281  141.0052  143.1366 LP  0  0  0  0  0  0  0  0  0  0  0  0  # atno 17320 bound_to 7965
  144.6968  139.8951  143.7455 LP  0  0  0  0  0  0  0  0  0  0  0  0  # atno 17321 bound_to 7965
  140.2819  143.3383  152.1143 LP  0  0  0  0  0  0  0  0  0  0  0  0  # atno 17342 bound_to 10162
  139.5061  144.6806  151.6017 LP  0  0  0  0  0  0  0  0  0  0  0  0  # atno 17343 bound_to 10162
  156.0327  130.5417  150.8575 LP  0  0  0  0  0  0  0  0  0  0  0  0  # atno 17370 bound_to 10713
  157.5666  131.0946  150.9481 LP  0  0  0  0  0  0  0  0  0  0  0  0  # atno 17371 bound_to 10713
  140.1597  134.4744  155.7903 LP  0  0  0  0  0  0  0  0  0  0  0  0  # atno 17394 bound_to 11000
  141.2205  133.6896  156.7523 LP  0  0  0  0  0  0  0  0  0  0  0  0  # atno 17395 bound_to 11000

$$$$
