AV-unprocessed.smi:4|AV-procd|sdf|35|dock6
  -GOLD-   2262015153D 1   1.00000     0.00000
 Structure written by MMmdl.
 43 44  0  0  0  0  0  0  0  0  3 V2000
  151.0436  137.7402  154.3571 C   0  0  0  0  0  0  0  0  0  0  0  0
  151.2502  137.1818  155.7908 C   0  0  0  0  0  0  0  0  0  0  0  0
  152.7567  137.3698  156.0987 C   0  0  0  0  0  0  0  0  0  0  0  0
  150.3914  138.0887  156.7091 C   0  0  0  0  0  0  0  0  0  0  0  0
  150.8556  135.7339  155.9530 N   0  0  0  0  0  0  0  0  0  0  0  0
  150.3853  134.9981  154.8341 C   0  0  0  0  0  0  0  0  0  0  0  0
  150.0034  133.7060  154.8951 C   0  0  0  0  0  0  0  0  0  0  0  0
  149.4914  132.9470  153.6804 C   0  0  0  0  0  0  0  0  0  0  0  0
  148.2605  133.5700  153.1536 N   0  3  0  0  0  0  0  0  0  0  0  0
  147.5012  132.7106  152.2236 C   0  0  0  0  0  0  0  0  0  0  0  0
  146.3915  133.4904  151.5141 C   0  0  0  0  0  0  0  0  0  0  0  0
  146.7791  134.8498  151.5676 O   0  0  0  0  0  0  0  0  0  0  0  0
  145.9429  132.9984  150.1258 C   0  0  0  0  0  0  0  0  0  0  0  0
  144.4859  133.2155  150.5359 C   0  0  0  0  0  0  0  0  0  0  0  0
  144.9504  133.2393  151.9925 C   0  0  0  0  0  0  0  0  0  0  0  0
  150.0762  133.0437  156.1946 C   0  0  0  0  0  0  0  0  0  0  0  0
  149.7281  131.8681  156.3010 O   0  0  0  0  0  0  0  0  0  0  0  0
  150.5424  133.7670  157.2467 N   0  5  0  0  0  0  0  0  0  0  0  0
  150.9337  135.0742  157.1610 C   0  0  0  0  0  0  0  0  0  0  0  0
  151.3542  135.6599  158.1567 O   0  0  0  0  0  0  0  0  0  0  0  0
  151.3314  138.7908  154.2971 H   0  0  0  0  0  0  0  0  0  0  0  0
  149.9991  137.6902  154.0458 H   0  0  0  0  0  0  0  0  0  0  0  0
  151.6537  137.2160  153.6202 H   0  0  0  0  0  0  0  0  0  0  0  0
  153.3682  136.7057  155.4872 H   0  0  0  0  0  0  0  0  0  0  0  0
  153.0105  137.1817  157.1405 H   0  0  0  0  0  0  0  0  0  0  0  0
  153.0777  138.3906  155.8888 H   0  0  0  0  0  0  0  0  0  0  0  0
  150.5827  139.1443  156.5132 H   0  0  0  0  0  0  0  0  0  0  0  0
  150.5883  137.9427  157.7696 H   0  0  0  0  0  0  0  0  0  0  0  0
  149.3269  137.9172  156.5457 H   0  0  0  0  0  0  0  0  0  0  0  0
  150.3353  135.5111  153.8913 H   0  0  0  0  0  0  0  0  0  0  0  0
  150.2637  132.9365  152.9099 H   0  0  0  0  0  0  0  0  0  0  0  0
  149.2867  131.9090  153.9458 H   0  0  0  0  0  0  0  0  0  0  0  0
  147.6597  133.8182  153.9268 H   0  0  0  0  0  0  0  0  0  0  0  0
  148.1968  132.2991  151.4908 H   0  0  0  0  0  0  0  0  0  0  0  0
  147.0903  131.8611  152.7715 H   0  0  0  0  0  0  0  0  0  0  0  0
  147.7244  134.8682  151.5776 H   0  0  0  0  0  0  0  0  0  0  0  0
  146.2693  133.6207  149.2917 H   0  0  0  0  0  0  0  0  0  0  0  0
  146.1774  131.9470  149.9509 H   0  0  0  0  0  0  0  0  0  0  0  0
  144.0923  134.1767  150.2026 H   0  0  0  0  0  0  0  0  0  0  0  0
  143.8153  132.3928  150.2857 H   0  0  0  0  0  0  0  0  0  0  0  0
  144.8265  132.2745  152.4868 H   0  0  0  0  0  0  0  0  0  0  0  0
  144.5165  134.0454  152.5855 H   0  0  0  0  0  0  0  0  0  0  0  0
  148.5233  134.4158  152.6663 H   0  0  0  0  0  0  0  0  0  0  0  0
  1  2  1  0  0  0  0
  1 21  1  0  0  0  0
  1 22  1  0  0  0  0
  1 23  1  0  0  0  0
  2  3  1  0  0  0  0
  2  4  1  0  0  0  0
  2  5  1  0  0  0  0
  3 24  1  0  0  0  0
  3 25  1  0  0  0  0
  3 26  1  0  0  0  0
  4 27  1  0  0  0  0
  4 28  1  0  0  0  0
  4 29  1  0  0  0  0
  5 19  1  0  0  0  0
  5  6  1  0  0  0  0
  6  7  2  0  0  0  0
  6 30  1  0  0  0  0
  7  8  1  0  0  0  0
  7 16  1  0  0  0  0
  8  9  1  0  0  0  0
  8 31  1  0  0  0  0
  8 32  1  0  0  0  0
  9 10  1  0  0  0  0
  9 33  1  0  0  0  0
  9 43  1  0  0  0  0
 10 11  1  0  0  0  0
 10 34  1  0  0  0  0
 10 35  1  0  0  0  0
 11 15  1  0  0  0  0
 11 12  1  0  0  0  0
 11 13  1  0  0  0  0
 12 36  1  0  0  0  0
 13 14  1  0  0  0  0
 13 37  1  0  0  0  0
 13 38  1  0  0  0  0
 14 15  1  0  0  0  0
 14 39  1  0  0  0  0
 14 40  1  0  0  0  0
 15 41  1  0  0  0  0
 15 42  1  0  0  0  0
 16 17  2  0  0  0  0
 16 18  1  0  0  0  0
 18 19  1  0  0  0  0
 19 20  2  0  0  0  0
M  CHG  1   9   1
M  CHG  1  18  -1
M  END
> <s_m_source_file>
AV-unprocessed.smi

> <i_m_source_file_index>
4

> <i_lp_mmshare_version>
43012

> <i_f3d_flags>
0

> <s_epik_input>
W0NIM11DKFtDSDNdKShbQ0gzXSluMVtjSF1jKGMoPU8pW25IXWMxPU8pW0NIMl1bTkhdW0NIMl1DMihbT0hdKVtDSDJdW0NIMl1bQ0gyXTI=

> <s_epik_cmdline>
J2VwaWtfcHl0aG9uJywgJy1waCcsICc3LjAnLCAnLXRuJywgJzgnLCAnLW1hJywgJzIwMCcsICctbWV0YWxfYmluZGluZycsICctaW1hZScsICc8aW5maWxlLm1hZT4nLCAnLW9tYWUnLCAnPG91dGZpbGUubWFlPic=

> <r_lp_tautomer_probability>
0.999537

> <r_epik_Ionization_Penalty>
3.42736

> <r_epik_Ionization_Penalty_Charging>
0.0116785

> <r_epik_Ionization_Penalty_Neutral>
3.41568

> <r_epik_State_Penalty>
3.42726

> <r_epik_Charging_Adjusted_Penalty>
3.43893

> <i_epik_Tot_Q>
0

> <i_epik_Tot_abs_Q>
2

> <r_epik_Metal_State_Penalty>
0.176979

> <b_epik_Metal_Only>
1

> <s_lp_Force_Field>
OPLS_2005

> <r_lp_Energy>
29.0009

> <b_lp_Chiralities_Consistent>
1

> <s_lp_Variant>
AV-unprocessed.smi:4-3

> <Gold.Version>
5.8.1

> <Gold.Id.Protein>
6NUR|6NUR_protein|mol2

> <Gold.PLP.Fitness>
45.4774

> <Gold.PLP.PLP>
-30.3464

> <Gold.PLP.part.hbond>
-4.0000

> <Gold.PLP.part.metal>
0.0000

> <Gold.PLP.part.buried>
-4.2653

> <Gold.PLP.part.nonpolar>
-23.1828

> <Gold.PLP.part.repulsive>
0.0000

> <Gold.PLP.ligand.clash>
0.0000

> <Gold.PLP.ligand.torsion>
0.8420

> <Gold.PLP.Chemscore.Hbond>
4.7135

> <Gold.PLP.Chemscore.CHOScore>
0.8502

> <Gold.PLP.Chemscore.Metal>
0.0000

> <Gold.Chemscore.Hbonds>
donor molecule, donor type, donor heavy atom, donor atom, acceptor molecule, acceptor atom, score
      L1  H     9    43       P1  7948  1.40
      L1  H    12    36       P1  7948  0.69
      P1  H  6896  6908       L1    18  0.94
      P1  H  6896  6909       L1    20  0.11
      L1  C     6    30       P1  7948  0.26
      L1  C     6    30       P1  7949  0.11

> <Gold.PLP.Chemscore.Internal.Correction>
0.1241

> <Gold.Rescore>
     Score         DG    S(hbond)    S(metal)    S(lipo)     H(rot)  DE(clash)    DE(int)     intcor
     13.54     -16.02       2.64        0.00      68.69       2.47       0.11       2.37       ----

> <Gold.Chemscore.Fitness>
13.5386

> <Gold.Chemscore.DG>
-16.0180

> <Gold.Chemscore.ZeroCoef>
-5.4800

> <Gold.Chemscore.Hbond>
2.6417

> <Gold.Chemscore.Metal>
0.0000

> <Gold.Chemscore.Lipo>
68.6866

> <Gold.Chemscore.Internal_Hbond>
0.0000

> <Gold.Chemscore.DEClash>
0.1103

> <Gold.Chemscore.DEInternal>
2.3691

> <Gold.Chemscore.Rot>
2.4694

> <Gold.Chemscore.Internal.Correction>
   9.000000E+99

> <Gold.Chemscore.Hbonds>
donor molecule, donor type, donor heavy atom, donor atom, acceptor molecule, acceptor atom, score
      L1  H     9    43       P1  7948  0.07
      L1  H    12    36       P1  7948  0.24
      P1  H  6896  6908       L1    18  0.03
      P1  H  6896  6909       L1    20  0.13

> <Gold.Chemscore.Hbond.Weighted>
-8.8233

> <Gold.Chemscore.Metal.Weighted>
-0.0000

> <Gold.Chemscore.Lipo.Weighted>
-8.0363

> <Gold.Chemscore.Internal_Hbond.Weighted>
0.0000

> <Gold.Chemscore.DEClash.Weighted>
0.1103

> <Gold.Chemscore.DEInternal.Weighted>
2.3691

> <Gold.Chemscore.Rot.Weighted>
6.3216

> <Gold.Chemscore.Internal.Correction.Weighted>
   9.000000E+99

> <Gold.Protein.RotatedTorsions>
[ 6907 6896 6895 6894 ] final  114.89 input  -60.11 | X-H torsion
[ 7974 7965 7964 7962 ] final  101.82 input  175.53 | X-H torsion
[ 8008 7997 7996 7995 ] final   73.35 input   59.86 | X-H torsion
[ 10167 10162 10161 10158 ] final -113.42 input  -65.29 | X-H torsion
[ 10718 10713 10712 10709 ] final  127.01 input   66.30 | X-H torsion
[ 10763 10752 10751 10750 ] final  -63.89 input  -60.55 | X-H torsion
[ 11005 11000 10999 10996 ] final   69.99 input  -57.11 | X-H torsion

> <Gold.Protein.ActiveResidues>
 VAL166  LYS551  ARG553  GLY616  TRP617  ASP618  TYR619  PRO620  LYS621  CYS622 
 ASP623  PHE694  ASN695  SER759  ASP760  ASP761  ALA762  ILE779  LEU786  VAL792 
 PHE793  MET794  SER795  GLU796  ALA797  LYS798  CYS799  TRP800  GLU811  SER814 

> <Gold.Protein.RotatedAtoms>
  152.4775  133.8173  159.7034 H   0  0  0  0  0  0  0  0  0  0  0  0  # atno 6907 bound_to 6896
  150.8802  133.7374  159.2941 H   0  0  0  0  0  0  0  0  0  0  0  0  # atno 6908 bound_to 6896
  151.4880  135.1059  159.9848 H   0  0  0  0  0  0  0  0  0  0  0  0  # atno 6909 bound_to 6896
  145.3673  139.2405  143.3474 H   0  0  0  0  0  0  0  0  0  0  0  0  # atno 7974 bound_to 7965
  155.7823  140.3481  155.5304 H   0  0  0  0  0  0  0  0  0  0  0  0  # atno 8008 bound_to 7997
  155.8716  140.0987  157.1567 H   0  0  0  0  0  0  0  0  0  0  0  0  # atno 8009 bound_to 7997
  154.4018  140.1339  156.4072 H   0  0  0  0  0  0  0  0  0  0  0  0  # atno 8010 bound_to 7997
  140.1121  143.4518  152.1746 H   0  0  0  0  0  0  0  0  0  0  0  0  # atno 10167 bound_to 10162
  157.5370  131.1097  150.8920 H   0  0  0  0  0  0  0  0  0  0  0  0  # atno 10718 bound_to 10713
  154.3219  135.6194  153.5512 H   0  0  0  0  0  0  0  0  0  0  0  0  # atno 10763 bound_to 10752
  152.9819  135.5726  154.5060 H   0  0  0  0  0  0  0  0  0  0  0  0  # atno 10764 bound_to 10752
  154.4730  135.2860  155.1605 H   0  0  0  0  0  0  0  0  0  0  0  0  # atno 10765 bound_to 10752
  139.9622  134.7041  156.0621 H   0  0  0  0  0  0  0  0  0  0  0  0  # atno 11005 bound_to 11000
  146.2901  140.4318  142.8743 LP  0  0  0  0  0  0  0  0  0  0  0  0  # atno 17320 bound_to 7965
  144.8602  140.7128  143.6112 LP  0  0  0  0  0  0  0  0  0  0  0  0  # atno 17321 bound_to 7965
  139.5614  144.7408  151.4145 LP  0  0  0  0  0  0  0  0  0  0  0  0  # atno 17342 bound_to 10162
  140.6920  143.7839  150.7269 LP  0  0  0  0  0  0  0  0  0  0  0  0  # atno 17343 bound_to 10162
  156.9484  130.5410  149.5282 LP  0  0  0  0  0  0  0  0  0  0  0  0  # atno 17370 bound_to 10713
  156.0466  130.5542  150.8895 LP  0  0  0  0  0  0  0  0  0  0  0  0  # atno 17371 bound_to 10713
  141.1300  133.6589  156.3439 LP  0  0  0  0  0  0  0  0  0  0  0  0  # atno 17394 bound_to 11000
  140.5474  134.6061  157.5398 LP  0  0  0  0  0  0  0  0  0  0  0  0  # atno 17395 bound_to 11000

$$$$
