AV-unprocessed.smi:1358|AV-procd|sdf|5549|dock6
  -GOLD-   22720 5143D 1   1.00000     0.00000
 Structure written by MMmdl.
 37 38  0  0  0  0  0  0  0  0  1 V2000
  152.4441  145.2074  158.5604 C   0  0  0  0  0  0  0  0  0  0  0  0
  152.3520  144.1159  157.4885 C   0  0  0  0  0  0  0  0  0  0  0  0
  150.9737  143.4418  157.4550 C   0  0  0  0  0  0  0  0  0  0  0  0
  150.9489  142.1862  156.5685 C   0  0  0  0  0  0  0  0  0  0  0  0
  149.8228  142.2296  155.6456 N   0  0  0  0  0  0  0  0  0  0  0  0
  149.4732  141.2460  154.8017 C   0  0  0  0  0  0  0  0  0  0  0  0
  150.0095  140.1380  154.7863 O   0  0  0  0  0  0  0  0  0  0  0  0
  148.3695  141.5786  153.7951 C   0  0  0  0  0  0  0  0  0  0  0  0
  147.2141  142.2345  154.4977 C   0  0  0  0  0  0  0  0  0  0  0  0
  146.5619  141.7774  155.6170 C   0  0  0  0  0  0  0  0  0  0  0  0
  145.2576  142.8326  156.0920 S   0  0  0  0  0  0  0  0  0  0  0  0
  145.6468  143.8739  154.7251 C   0  0  0  0  0  0  0  0  0  0  0  0
  144.9209  145.0581  154.4022 N   0  0  0  0  0  0  0  0  0  0  0  0
  144.1516  145.7727  155.4130 C   0  0  0  0  0  0  0  0  0  0  0  0
  143.5485  146.9484  154.6493 C   0  0  0  0  0  0  0  0  0  0  0  0
  144.0437  146.7288  153.3104 N   0  0  0  0  0  0  0  0  0  0  0  0
  144.8163  145.6467  153.1922 C   0  0  0  0  0  0  0  0  0  0  0  0
  145.3283  145.2775  152.1360 O   0  0  0  0  0  0  0  0  0  0  0  0
  146.6945  143.4415  154.0160 N   0  0  0  0  0  0  0  0  0  0  0  0
  153.4321  145.6682  158.5626 H   0  0  0  0  0  0  0  0  0  0  0  0
  152.2657  144.7978  159.5550 H   0  0  0  0  0  0  0  0  0  0  0  0
  151.7100  145.9942  158.3852 H   0  0  0  0  0  0  0  0  0  0  0  0
  152.5710  144.5503  156.5126 H   0  0  0  0  0  0  0  0  0  0  0  0
  153.1214  143.3656  157.6731 H   0  0  0  0  0  0  0  0  0  0  0  0
  150.6770  143.1745  158.4704 H   0  0  0  0  0  0  0  0  0  0  0  0
  150.2316  144.1565  157.0969 H   0  0  0  0  0  0  0  0  0  0  0  0
  151.8884  142.0795  156.0237 H   0  0  0  0  0  0  0  0  0  0  0  0
  150.8443  141.2951  157.1879 H   0  0  0  0  0  0  0  0  0  0  0  0
  149.3238  143.1054  155.5803 H   0  0  0  0  0  0  0  0  0  0  0  0
  148.7765  142.2336  153.0237 H   0  0  0  0  0  0  0  0  0  0  0  0
  148.0459  140.6686  153.2880 H   0  0  0  0  0  0  0  0  0  0  0  0
  146.7643  140.8812  156.1843 H   0  0  0  0  0  0  0  0  0  0  0  0
  143.3749  145.1308  155.8312 H   0  0  0  0  0  0  0  0  0  0  0  0
  144.7991  146.1114  156.2231 H   0  0  0  0  0  0  0  0  0  0  0  0
  142.4581  146.9316  154.6636 H   0  0  0  0  0  0  0  0  0  0  0  0
  143.8954  147.9085  155.0331 H   0  0  0  0  0  0  0  0  0  0  0  0
  143.8123  147.3396  152.5405 H   0  0  0  0  0  0  0  0  0  0  0  0
  1  2  1  0  0  0  0
  1 20  1  0  0  0  0
  1 21  1  0  0  0  0
  1 22  1  0  0  0  0
  2  3  1  0  0  0  0
  2 23  1  0  0  0  0
  2 24  1  0  0  0  0
  3  4  1  0  0  0  0
  3 25  1  0  0  0  0
  3 26  1  0  0  0  0
  4  5  1  0  0  0  0
  4 27  1  0  0  0  0
  4 28  1  0  0  0  0
  5  6  1  0  0  0  0
  5 29  1  0  0  0  0
  6  7  2  0  0  0  0
  6  8  1  0  0  0  0
  8  9  1  0  0  0  0
  8 30  1  0  0  0  0
  8 31  1  0  0  0  0
  9 19  1  0  0  0  0
  9 10  2  0  0  0  0
 10 11  1  0  0  0  0
 10 32  1  0  0  0  0
 11 12  1  0  0  0  0
 12 13  1  0  0  0  0
 12 19  2  0  0  0  0
 13 17  1  0  0  0  0
 13 14  1  0  0  0  0
 14 15  1  0  0  0  0
 14 33  1  0  0  0  0
 14 34  1  0  0  0  0
 15 16  1  0  0  0  0
 15 35  1  0  0  0  0
 15 36  1  0  0  0  0
 16 17  1  0  0  0  0
 16 37  1  0  0  0  0
 17 18  2  0  0  0  0
M  END
> <s_m_source_file>
AV-unprocessed.smi

> <i_m_source_file_index>
1358

> <i_lp_mmshare_version>
43012

> <i_f3d_flags>
0

> <s_epik_input>
W0NIM11bQ0gyXVtDSDJdW0NIMl1bTkhdQyg9TylbQ0gyXWMxW2NIXXNjKG4xKU4yW0NIMl1bQ0gyXVtOSF1DMj1P

> <s_epik_cmdline>
J2VwaWtfcHl0aG9uJywgJy1waCcsICc3LjAnLCAnLXRuJywgJzgnLCAnLW1hJywgJzIwMCcsICctbWV0YWxfYmluZGluZycsICctaW1hZScsICc8aW5maWxlLm1hZT4nLCAnLW9tYWUnLCAnPG91dGZpbGUubWFlPic=

> <r_lp_tautomer_probability>
1

> <r_epik_Ionization_Penalty>
0.000120185

> <r_epik_Ionization_Penalty_Charging>
0

> <r_epik_Ionization_Penalty_Neutral>
0.000120185

> <r_epik_State_Penalty>
-0

> <r_epik_Charging_Adjusted_Penalty>
0

> <i_epik_Tot_Q>
0

> <i_epik_Tot_abs_Q>
0

> <r_epik_Metal_State_Penalty>
-0

> <b_epik_Metal_Only>
0

> <s_lp_Force_Field>
OPLS_2005

> <r_lp_Energy>
29.7034

> <b_lp_Chiralities_Consistent>
1

> <s_lp_Variant>
AV-unprocessed.smi:1358-1

> <Gold.Version>
5.8.1

> <Gold.Id.Protein>
6NUR|6NUR_protein|mol2

> <Gold.PLP.Fitness>
45.3508

> <Gold.PLP.PLP>
-41.0359

> <Gold.PLP.part.hbond>
-3.9342

> <Gold.PLP.part.metal>
0.0000

> <Gold.PLP.part.buried>
-5.3322

> <Gold.PLP.part.nonpolar>
-33.4403

> <Gold.PLP.part.repulsive>
1.0101

> <Gold.PLP.ligand.clash>
0.0000

> <Gold.PLP.ligand.torsion>
0.8603

> <Gold.PLP.Chemscore.Hbond>
2.0000

> <Gold.PLP.Chemscore.CHOScore>
0.0000

> <Gold.PLP.Chemscore.Metal>
0.0000

> <Gold.Chemscore.Hbonds>
donor molecule, donor type, donor heavy atom, donor atom, acceptor molecule, acceptor atom, score
      L1  H     5    29       P1  8028  1.00
      P1  H  7989  7998       L1     7  0.33
      P1  H  8022  8030       L1    19  0.08

> <Gold.PLP.Chemscore.Internal.Correction>
0.0355

> <Gold.Rescore>
     Score         DG    S(hbond)    S(metal)    S(lipo)     H(rot)  DE(clash)    DE(int)     intcor
     10.72     -12.57       0.99        0.00      75.34       1.97       0.10       1.75       ----

> <Gold.Chemscore.Fitness>
10.7162

> <Gold.Chemscore.DG>
-12.5654

> <Gold.Chemscore.ZeroCoef>
-5.4800

> <Gold.Chemscore.Hbond>
0.9935

> <Gold.Chemscore.Metal>
0.0000

> <Gold.Chemscore.Lipo>
75.3418

> <Gold.Chemscore.Internal_Hbond>
0.0000

> <Gold.Chemscore.DEClash>
0.0967

> <Gold.Chemscore.DEInternal>
1.7526

> <Gold.Chemscore.Rot>
1.9718

> <Gold.Chemscore.Internal.Correction>
   9.000000E+99

> <Gold.Chemscore.Hbonds>
donor molecule, donor type, donor heavy atom, donor atom, acceptor molecule, acceptor atom, score
      L1  H     5    29       P1  8028  1.00
      P1  H  7989  7998       L1     7  0.02
      P1  H  8022  8030       L1    19  0.04

> <Gold.Chemscore.Hbond.Weighted>
-3.3182

> <Gold.Chemscore.Metal.Weighted>
-0.0000

> <Gold.Chemscore.Lipo.Weighted>
-8.8150

> <Gold.Chemscore.Internal_Hbond.Weighted>
0.0000

> <Gold.Chemscore.DEClash.Weighted>
0.0967

> <Gold.Chemscore.DEInternal.Weighted>
1.7526

> <Gold.Chemscore.Rot.Weighted>
5.0478

> <Gold.Chemscore.Internal.Correction.Weighted>
   9.000000E+99

> <Gold.Protein.RotatedTorsions>
[ 6907 6896 6895 6894 ] final  -17.19 input  -60.11 | X-H torsion
[ 7974 7965 7964 7962 ] final   -2.54 input  175.53 | X-H torsion
[ 8008 7997 7996 7995 ] final  105.17 input   59.86 | X-H torsion
[ 10167 10162 10161 10158 ] final  -96.51 input  -65.29 | X-H torsion
[ 10718 10713 10712 10709 ] final -134.75 input   66.30 | X-H torsion
[ 10763 10752 10751 10750 ] final   90.10 input  -60.55 | X-H torsion
[ 11005 11000 10999 10996 ] final  148.00 input  -57.11 | X-H torsion

> <Gold.Protein.ActiveResidues>
 VAL166  LYS551  ARG553  GLY616  TRP617  ASP618  TYR619  PRO620  LYS621  CYS622 
 ASP623  PHE694  ASN695  SER759  ASP760  ASP761  ALA762  ILE779  LEU786  VAL792 
 PHE793  MET794  SER795  GLU796  ALA797  LYS798  CYS799  TRP800  GLU811  SER814 

> <Gold.Protein.RotatedAtoms>
  151.2971  135.0758  159.9224 H   0  0  0  0  0  0  0  0  0  0  0  0  # atno 6907 bound_to 6896
  152.5305  133.9871  159.7844 H   0  0  0  0  0  0  0  0  0  0  0  0  # atno 6908 bound_to 6896
  151.0152  133.5877  159.2708 H   0  0  0  0  0  0  0  0  0  0  0  0  # atno 6909 bound_to 6896
  146.2403  140.1586  142.8333 H   0  0  0  0  0  0  0  0  0  0  0  0  # atno 7974 bound_to 7965
  156.1636  140.3135  155.8850 H   0  0  0  0  0  0  0  0  0  0  0  0  # atno 8008 bound_to 7997
  155.3732  140.0483  157.3062 H   0  0  0  0  0  0  0  0  0  0  0  0  # atno 8009 bound_to 7997
  154.5170  140.2185  155.9057 H   0  0  0  0  0  0  0  0  0  0  0  0  # atno 8010 bound_to 7997
  140.2931  143.3209  152.0325 H   0  0  0  0  0  0  0  0  0  0  0  0  # atno 10167 bound_to 10162
  156.2588  130.7197  151.1124 H   0  0  0  0  0  0  0  0  0  0  0  0  # atno 10718 bound_to 10713
  153.1940  135.4446  155.0184 H   0  0  0  0  0  0  0  0  0  0  0  0  # atno 10763 bound_to 10752
  154.8107  135.3293  154.7314 H   0  0  0  0  0  0  0  0  0  0  0  0  # atno 10764 bound_to 10752
  153.7766  135.6980  153.4951 H   0  0  0  0  0  0  0  0  0  0  0  0  # atno 10765 bound_to 10752
  140.0922  134.9034  157.1669 H   0  0  0  0  0  0  0  0  0  0  0  0  # atno 11005 bound_to 11000
  145.0108  140.8712  143.5225 LP  0  0  0  0  0  0  0  0  0  0  0  0  # atno 17320 bound_to 7965
  145.1619  139.2453  143.5387 LP  0  0  0  0  0  0  0  0  0  0  0  0  # atno 17321 bound_to 7965
  139.4933  144.6510  151.6674 LP  0  0  0  0  0  0  0  0  0  0  0  0  # atno 17342 bound_to 10162
  140.5715  144.0100  150.6219 LP  0  0  0  0  0  0  0  0  0  0  0  0  # atno 17343 bound_to 10162
  157.7243  131.0661  150.6002 LP  0  0  0  0  0  0  0  0  0  0  0  0  # atno 17370 bound_to 10713
  156.6088  130.4374  149.5867 LP  0  0  0  0  0  0  0  0  0  0  0  0  # atno 17371 bound_to 10713
  140.3336  134.2783  155.7224 LP  0  0  0  0  0  0  0  0  0  0  0  0  # atno 17394 bound_to 11000
  141.2081  133.7786  157.0077 LP  0  0  0  0  0  0  0  0  0  0  0  0  # atno 17395 bound_to 11000

$$$$
