AV-unprocessed.smi:2046|AV-procd|sdf|8314|dock8
  -GOLD-   2272010583D 1   1.00000     0.00000
 Structure written by MMmdl.
 29 30  0  0  0  0  0  0  0  0  2 V2000
  150.6720  140.5623  157.2707 O   0  0  0  0  0  0  0  0  0  0  0  0
  150.5614  141.7227  156.8676 C   0  0  0  0  0  0  0  0  0  0  0  0
  151.2407  142.7984  157.3266 N   0  5  0  0  0  0  0  0  0  0  0  0
  151.6606  142.8320  158.6020 C   0  0  0  0  0  0  0  0  0  0  0  0
  151.0526  142.1385  159.5780 N   0  0  0  0  0  0  0  0  0  0  0  0
  151.6423  142.3159  160.8225 N   0  0  0  0  0  0  0  0  0  0  0  0
  152.6803  143.1491  160.7538 C   0  0  0  0  0  0  0  0  0  0  0  0
  153.0287  143.7965  159.1646 S   0  0  0  0  0  0  0  0  0  0  0  0
  149.7037  142.0078  155.8755 N   0  0  0  0  0  0  0  0  0  0  0  0
  148.8455  141.0517  155.1698 C   0  0  1  0  0  0  0  0  0  0  0  0
  148.0923  141.8268  154.0640 C   0  0  0  0  0  0  0  0  0  0  0  0
  146.7934  141.1441  153.6000 C   0  0  0  0  0  0  0  0  0  0  0  0
  146.9836  139.7844  152.9100 C   0  0  0  0  0  0  0  0  0  0  0  0
  147.6106  138.7124  153.8176 C   0  0  0  0  0  0  0  0  0  0  0  0
  149.0501  138.8871  153.9561 N   0  0  0  0  0  0  0  0  0  0  0  0
  149.6849  139.9256  154.5207 C   0  0  0  0  0  0  0  0  0  0  0  0
  150.9146  139.9785  154.5129 O   0  0  0  0  0  0  0  0  0  0  0  0
  153.2416  143.3873  161.6448 H   0  0  0  0  0  0  0  0  0  0  0  0
  149.6514  142.9701  155.5752 H   0  0  0  0  0  0  0  0  0  0  0  0
  148.1339  140.6275  155.8803 H   0  0  0  0  0  0  0  0  0  0  0  0
  147.8157  142.8108  154.4459 H   0  0  0  0  0  0  0  0  0  0  0  0
  148.7437  142.0197  153.2095 H   0  0  0  0  0  0  0  0  0  0  0  0
  146.1228  141.0268  154.4521 H   0  0  0  0  0  0  0  0  0  0  0  0
  146.2794  141.8132  152.9090 H   0  0  0  0  0  0  0  0  0  0  0  0
  146.0048  139.4308  152.5845 H   0  0  0  0  0  0  0  0  0  0  0  0
  147.5759  139.9019  152.0017 H   0  0  0  0  0  0  0  0  0  0  0  0
  147.1302  138.6911  154.7969 H   0  0  0  0  0  0  0  0  0  0  0  0
  147.4489  137.7292  153.3754 H   0  0  0  0  0  0  0  0  0  0  0  0
  149.6280  138.1633  153.5544 H   0  0  0  0  0  0  0  0  0  0  0  0
  1  2  2  0  0  0  0
  2  3  1  0  0  0  0
  2  9  1  0  0  0  0
  3  4  1  0  0  0  0
  4  8  1  0  0  0  0
  4  5  2  0  0  0  0
  5  6  1  0  0  0  0
  6  7  2  0  0  0  0
  7  8  1  0  0  0  0
  7 18  1  0  0  0  0
  9 10  1  0  0  0  0
  9 19  1  0  0  0  0
 10 16  1  0  0  0  0
 10 11  1  0  0  0  0
 10 20  1  0  0  0  0
 11 12  1  0  0  0  0
 11 21  1  0  0  0  0
 11 22  1  0  0  0  0
 12 13  1  0  0  0  0
 12 23  1  0  0  0  0
 12 24  1  0  0  0  0
 13 14  1  0  0  0  0
 13 25  1  0  0  0  0
 13 26  1  0  0  0  0
 14 15  1  0  0  0  0
 14 27  1  0  0  0  0
 14 28  1  0  0  0  0
 15 16  1  0  0  0  0
 15 29  1  0  0  0  0
 16 17  2  0  0  0  0
M  CHG  1   3  -1
M  END
> <s_m_source_file>
AV-unprocessed.smi

> <i_m_source_file_index>
2046

> <i_lp_mmshare_version>
43012

> <i_f3d_flags>
0

> <s_epik_input>
czFbY0hdbm5jMVtOSF1DKD1PKVtOSF1bQ0BASF0yW0NIMl1bQ0gyXVtDSDJdW0NIMl1bTkhdQzI9Tw==

> <s_epik_cmdline>
J2VwaWtfcHl0aG9uJywgJy1waCcsICc3LjAnLCAnLXRuJywgJzgnLCAnLW1hJywgJzIwMCcsICctbWV0YWxfYmluZGluZycsICctaW1hZScsICc8aW5maWxlLm1hZT4nLCAnLW9tYWUnLCAnPG91dGZpbGUubWFlPic=

> <r_lp_tautomer_probability>
1

> <r_epik_Ionization_Penalty>
4.05949

> <r_epik_Ionization_Penalty_Charging>
4.01916

> <r_epik_Ionization_Penalty_Neutral>
0.0403285

> <r_epik_State_Penalty>
4.01849

> <r_epik_Charging_Adjusted_Penalty>
8.03765

> <i_epik_Tot_Q>
-1

> <i_epik_Tot_abs_Q>
1

> <r_epik_Metal_State_Penalty>
0.626741

> <b_epik_Metal_Only>
1

> <s_lp_Force_Field>
OPLS_2005

> <r_lp_Energy>
8.7811

> <b_lp_Chiralities_Consistent>
1

> <s_lp_Variant>
AV-unprocessed.smi:2046-4

> <Gold.Version>
5.8.1

> <Gold.Id.Protein>
6NUR|6NUR_protein|mol2

> <Gold.PLP.Fitness>
38.0627

> <Gold.PLP.PLP>
-32.3970

> <Gold.PLP.part.hbond>
-4.8623

> <Gold.PLP.part.metal>
0.0000

> <Gold.PLP.part.buried>
-4.4259

> <Gold.PLP.part.nonpolar>
-24.2945

> <Gold.PLP.part.repulsive>
0.4139

> <Gold.PLP.ligand.clash>
0.0000

> <Gold.PLP.ligand.torsion>
0.3200

> <Gold.PLP.Chemscore.Hbond>
2.1014

> <Gold.PLP.Chemscore.CHOScore>
0.0000

> <Gold.PLP.Chemscore.Metal>
0.0000

> <Gold.Chemscore.Hbonds>
donor molecule, donor type, donor heavy atom, donor atom, acceptor molecule, acceptor atom, score
      L1  H     9    19       P1  8028  1.00
      P1  H  6933  6945       L1     6  0.16
      P1  H  7989  7998       L1    17  0.99

> <Gold.PLP.Chemscore.Internal.Correction>
0.0017

> <Gold.Rescore>
     Score         DG    S(hbond)    S(metal)    S(lipo)     H(rot)  DE(clash)    DE(int)     intcor
     14.37     -16.12       1.89        0.00      58.82       1.00       0.01       1.74       ----

> <Gold.Chemscore.Fitness>
14.3665

> <Gold.Chemscore.DG>
-16.1158

> <Gold.Chemscore.ZeroCoef>
-5.4800

> <Gold.Chemscore.Hbond>
1.8904

> <Gold.Chemscore.Metal>
0.0000

> <Gold.Chemscore.Lipo>
58.8204

> <Gold.Chemscore.Internal_Hbond>
0.0000

> <Gold.Chemscore.DEClash>
0.0108

> <Gold.Chemscore.DEInternal>
1.7386

> <Gold.Chemscore.Rot>
1.0000

> <Gold.Chemscore.Internal.Correction>
   9.000000E+99

> <Gold.Chemscore.Hbonds>
donor molecule, donor type, donor heavy atom, donor atom, acceptor molecule, acceptor atom, score
      L1  H     9    19       P1  8028  0.96
      P1  H  6933  6945       L1     6  0.07
      P1  H  7989  7998       L1    17  0.90

> <Gold.Chemscore.Hbond.Weighted>
-6.3139

> <Gold.Chemscore.Metal.Weighted>
-0.0000

> <Gold.Chemscore.Lipo.Weighted>
-6.8820

> <Gold.Chemscore.Internal_Hbond.Weighted>
0.0000

> <Gold.Chemscore.DEClash.Weighted>
0.0108

> <Gold.Chemscore.DEInternal.Weighted>
1.7386

> <Gold.Chemscore.Rot.Weighted>
2.5600

> <Gold.Chemscore.Internal.Correction.Weighted>
   9.000000E+99

> <Gold.Protein.RotatedTorsions>
[ 6907 6896 6895 6894 ] final -173.98 input  -60.11 | X-H torsion
[ 7974 7965 7964 7962 ] final -110.21 input  175.53 | X-H torsion
[ 8008 7997 7996 7995 ] final -151.05 input   59.86 | X-H torsion
[ 10167 10162 10161 10158 ] final   41.20 input  -65.29 | X-H torsion
[ 10718 10713 10712 10709 ] final -127.42 input   66.30 | X-H torsion
[ 10763 10752 10751 10750 ] final -133.95 input  -60.55 | X-H torsion
[ 11005 11000 10999 10996 ] final  -34.86 input  -57.11 | X-H torsion

> <Gold.Protein.ActiveResidues>
 VAL166  LYS551  ARG553  GLY616  TRP617  ASP618  TYR619  PRO620  LYS621  CYS622 
 ASP623  PHE694  ASN695  SER759  ASP760  ASP761  ALA762  ILE779  LEU786  VAL792 
 PHE793  MET794  SER795  GLU796  ALA797  LYS798  CYS799  TRP800  GLU811  SER814 

> <Gold.Protein.RotatedAtoms>
  151.5649  133.3398  159.2978 H   0  0  0  0  0  0  0  0  0  0  0  0  # atno 6907 bound_to 6896
  150.8401  134.7692  159.6936 H   0  0  0  0  0  0  0  0  0  0  0  0  # atno 6908 bound_to 6896
  152.4470  134.5481  159.9910 H   0  0  0  0  0  0  0  0  0  0  0  0  # atno 6909 bound_to 6896
  145.1710  140.8925  143.3535 H   0  0  0  0  0  0  0  0  0  0  0  0  # atno 7974 bound_to 7965
  155.6333  140.0694  157.2642 H   0  0  0  0  0  0  0  0  0  0  0  0  # atno 8008 bound_to 7997
  154.4201  140.1763  156.1544 H   0  0  0  0  0  0  0  0  0  0  0  0  # atno 8009 bound_to 7997
  155.9915  140.3344  155.6761 H   0  0  0  0  0  0  0  0  0  0  0  0  # atno 8010 bound_to 7997
  140.3667  144.2158  150.6135 H   0  0  0  0  0  0  0  0  0  0  0  0  # atno 10167 bound_to 10162
  156.1856  130.6761  151.0359 H   0  0  0  0  0  0  0  0  0  0  0  0  # atno 10718 bound_to 10713
  154.8726  135.3750  154.4657 H   0  0  0  0  0  0  0  0  0  0  0  0  # atno 10763 bound_to 10752
  153.5321  135.7027  153.5683 H   0  0  0  0  0  0  0  0  0  0  0  0  # atno 10764 bound_to 10752
  153.3883  135.3979  155.1870 H   0  0  0  0  0  0  0  0  0  0  0  0  # atno 10765 bound_to 10752
  140.9750  133.7088  156.1588 H   0  0  0  0  0  0  0  0  0  0  0  0  # atno 11005 bound_to 11000
  145.0233  139.3405  143.6061 LP  0  0  0  0  0  0  0  0  0  0  0  0  # atno 17320 bound_to 7965
  146.3468  139.9542  142.8725 LP  0  0  0  0  0  0  0  0  0  0  0  0  # atno 17321 bound_to 7965
  140.5074  143.2300  151.8588 LP  0  0  0  0  0  0  0  0  0  0  0  0  # atno 17342 bound_to 10162
  139.4808  144.4990  151.9086 LP  0  0  0  0  0  0  0  0  0  0  0  0  # atno 17343 bound_to 10162
  157.6896  131.0814  150.7145 LP  0  0  0  0  0  0  0  0  0  0  0  0  # atno 17370 bound_to 10713
  156.7201  130.4678  149.5525 LP  0  0  0  0  0  0  0  0  0  0  0  0  # atno 17371 bound_to 10713
  140.7272  134.4294  157.5569 LP  0  0  0  0  0  0  0  0  0  0  0  0  # atno 17394 bound_to 11000
  139.8927  134.8748  156.2258 LP  0  0  0  0  0  0  0  0  0  0  0  0  # atno 17395 bound_to 11000

$$$$
