AV-unprocessed.smi:2063|AV-procd|sdf|8411|dock1
  -GOLD-   2272011103D 1   1.00000     0.00000
 Structure written by MMmdl.
 39 40  0  0  0  0  0  0  0  0  1 V2000
  151.5454  141.3966  157.4168 C   0  0  0  0  0  0  0  0  0  0  0  0
  150.2567  141.6948  156.6367 C   0  0  0  0  0  0  0  0  0  0  0  0
  149.0663  142.0327  157.5458 C   0  0  0  0  0  0  0  0  0  0  0  0
  149.9282  140.6130  155.6556 C   0  0  0  0  0  0  0  0  0  0  0  0
  150.8252  140.1094  154.7967 N   0  0  0  0  0  0  0  0  0  0  0  0
  150.2846  139.1202  153.9879 N   0  0  0  0  0  0  0  0  0  0  0  0
  148.9904  138.9048  154.2599 C   0  0  0  0  0  0  0  0  0  0  0  0
  148.1883  137.9521  153.5782 N   0  0  0  0  0  0  0  0  0  0  0  0
  146.9175  137.5962  153.8346 C   0  0  0  0  0  0  0  0  0  0  0  0
  146.2079  138.0760  154.7189 O   0  0  0  0  0  0  0  0  0  0  0  0
  146.5061  136.6379  152.9918 N   0  0  0  0  0  0  0  0  0  0  0  0
  145.1841  136.0152  152.9939 C   0  0  1  0  0  0  0  0  0  0  0  0
  144.1003  137.1044  152.9644 C   0  0  0  0  0  0  0  0  0  0  0  0
  145.0621  135.0485  151.8008 C   0  0  1  0  0  0  0  0  0  0  0  0
  146.1543  133.9795  151.7301 C   0  0  0  0  0  0  0  0  0  0  0  0
  145.5033  132.8567  150.9386 C   0  0  0  0  0  0  0  0  0  0  0  0
  144.0077  133.1825  150.9887 C   0  0  0  0  0  0  0  0  0  0  0  0
  143.8879  134.2594  151.9080 O   0  0  0  0  0  0  0  0  0  0  0  0
  148.3216  139.9028  155.5390 S   0  0  0  0  0  0  0  0  0  0  0  0
  152.3867  141.2430  156.7402 H   0  0  0  0  0  0  0  0  0  0  0  0
  151.4404  140.4996  158.0278 H   0  0  0  0  0  0  0  0  0  0  0  0
  151.8025  142.2219  158.0812 H   0  0  0  0  0  0  0  0  0  0  0  0
  150.4561  142.5918  156.0490 H   0  0  0  0  0  0  0  0  0  0  0  0
  148.1930  142.3183  156.9584 H   0  0  0  0  0  0  0  0  0  0  0  0
  149.3036  142.8635  158.2106 H   0  0  0  0  0  0  0  0  0  0  0  0
  148.7866  141.1809  158.1668 H   0  0  0  0  0  0  0  0  0  0  0  0
  148.6390  137.4796  152.8088 H   0  0  0  0  0  0  0  0  0  0  0  0
  147.1582  136.3075  152.2958 H   0  0  0  0  0  0  0  0  0  0  0  0
  145.0610  135.4322  153.9086 H   0  0  0  0  0  0  0  0  0  0  0  0
  143.1021  136.6670  152.9891 H   0  0  0  0  0  0  0  0  0  0  0  0
  144.1740  137.7139  152.0629 H   0  0  0  0  0  0  0  0  0  0  0  0
  144.1866  137.7693  153.8244 H   0  0  0  0  0  0  0  0  0  0  0  0
  145.0290  135.6039  150.8612 H   0  0  0  0  0  0  0  0  0  0  0  0
  147.0732  134.3442  151.2702 H   0  0  0  0  0  0  0  0  0  0  0  0
  146.3982  133.6245  152.7325 H   0  0  0  0  0  0  0  0  0  0  0  0
  145.8571  132.8414  149.9073 H   0  0  0  0  0  0  0  0  0  0  0  0
  145.7228  131.8858  151.3839 H   0  0  0  0  0  0  0  0  0  0  0  0
  143.6526  133.5055  150.0091 H   0  0  0  0  0  0  0  0  0  0  0  0
  143.4045  132.3312  151.3052 H   0  0  0  0  0  0  0  0  0  0  0  0
  1  2  1  0  0  0  0
  1 20  1  0  0  0  0
  1 21  1  0  0  0  0
  1 22  1  0  0  0  0
  2  3  1  0  0  0  0
  2  4  1  0  0  0  0
  2 23  1  0  0  0  0
  3 24  1  0  0  0  0
  3 25  1  0  0  0  0
  3 26  1  0  0  0  0
  4 19  1  0  0  0  0
  4  5  2  0  0  0  0
  5  6  1  0  0  0  0
  6  7  2  0  0  0  0
  7  8  1  0  0  0  0
  7 19  1  0  0  0  0
  8  9  1  0  0  0  0
  8 27  1  0  0  0  0
  9 10  2  0  0  0  0
  9 11  1  0  0  0  0
 11 12  1  0  0  0  0
 11 28  1  0  0  0  0
 12 13  1  0  0  0  0
 12 14  1  0  0  0  0
 12 29  1  0  0  0  0
 13 30  1  0  0  0  0
 13 31  1  0  0  0  0
 13 32  1  0  0  0  0
 14 18  1  0  0  0  0
 14 15  1  0  0  0  0
 14 33  1  0  0  0  0
 15 16  1  0  0  0  0
 15 34  1  0  0  0  0
 15 35  1  0  0  0  0
 16 17  1  0  0  0  0
 16 36  1  0  0  0  0
 16 37  1  0  0  0  0
 17 18  1  0  0  0  0
 17 38  1  0  0  0  0
 17 39  1  0  0  0  0
M  END
> <s_m_source_file>
AV-unprocessed.smi

> <i_m_source_file_index>
2063

> <i_lp_mmshare_version>
43012

> <i_f3d_flags>
0

> <s_epik_input>
W0NIM11bQ0hdKFtDSDNdKWMxbm5jKHMxKVtOSF1DKD1PKVtOSF1bQ0BIXShbQ0gzXSlbQ0BASF0yW0NIMl1bQ0gyXVtDSDJdTzI=

> <s_epik_cmdline>
J2VwaWtfcHl0aG9uJywgJy1waCcsICc3LjAnLCAnLXRuJywgJzgnLCAnLW1hJywgJzIwMCcsICctbWV0YWxfYmluZGluZycsICctaW1hZScsICc8aW5maWxlLm1hZT4nLCAnLW9tYWUnLCAnPG91dGZpbGUubWFlPic=

> <r_lp_tautomer_probability>
1

> <r_epik_Ionization_Penalty>
0.00050567

> <r_epik_Ionization_Penalty_Charging>
0

> <r_epik_Ionization_Penalty_Neutral>
0.00050567

> <r_epik_State_Penalty>
-0

> <r_epik_Charging_Adjusted_Penalty>
0

> <i_epik_Tot_Q>
0

> <i_epik_Tot_abs_Q>
0

> <r_epik_Metal_State_Penalty>
0.219912

> <b_epik_Metal_Only>
0

> <s_lp_Force_Field>
OPLS_2005

> <r_lp_Energy>
10.6247

> <b_lp_Chiralities_Consistent>
1

> <s_lp_Variant>
AV-unprocessed.smi:2063-4

> <Gold.Version>
5.8.1

> <Gold.Id.Protein>
6NUR|6NUR_protein|mol2

> <Gold.PLP.Fitness>
32.7101

> <Gold.PLP.PLP>
-25.4291

> <Gold.PLP.part.hbond>
-3.4905

> <Gold.PLP.part.metal>
0.0000

> <Gold.PLP.part.buried>
-4.9179

> <Gold.PLP.part.nonpolar>
-18.7781

> <Gold.PLP.part.repulsive>
1.0774

> <Gold.PLP.ligand.clash>
0.0000

> <Gold.PLP.ligand.torsion>
0.2337

> <Gold.PLP.Chemscore.Hbond>
2.5460

> <Gold.PLP.Chemscore.CHOScore>
0.0000

> <Gold.PLP.Chemscore.Metal>
0.0000

> <Gold.Chemscore.Hbonds>
donor molecule, donor type, donor heavy atom, donor atom, acceptor molecule, acceptor atom, score
      L1  H     8    27       P1  7948  1.00
      L1  H    11    28       P1  7948  0.90
      P1  H  7989  7998       L1     5  0.65

> <Gold.PLP.Chemscore.Internal.Correction>
0.1104

> <Gold.Rescore>
     Score         DG    S(hbond)    S(metal)    S(lipo)     H(rot)  DE(clash)    DE(int)     intcor
     12.25     -14.87       1.93        0.00      56.06       1.42       0.08       2.54       ----

> <Gold.Chemscore.Fitness>
12.2509

> <Gold.Chemscore.DG>
-14.8738

> <Gold.Chemscore.ZeroCoef>
-5.4800

> <Gold.Chemscore.Hbond>
1.9335

> <Gold.Chemscore.Metal>
0.0000

> <Gold.Chemscore.Lipo>
56.0588

> <Gold.Chemscore.Internal_Hbond>
0.0000

> <Gold.Chemscore.DEClash>
0.0815

> <Gold.Chemscore.DEInternal>
2.5414

> <Gold.Chemscore.Rot>
1.4152

> <Gold.Chemscore.Internal.Correction>
   9.000000E+99

> <Gold.Chemscore.Hbonds>
donor molecule, donor type, donor heavy atom, donor atom, acceptor molecule, acceptor atom, score
      L1  H     8    27       P1  7948  0.96
      L1  H    11    28       P1  7948  0.88
      P1  H  7989  7998       L1     5  0.06

> <Gold.Chemscore.Hbond.Weighted>
-6.4578

> <Gold.Chemscore.Metal.Weighted>
-0.0000

> <Gold.Chemscore.Lipo.Weighted>
-6.5589

> <Gold.Chemscore.Internal_Hbond.Weighted>
0.0000

> <Gold.Chemscore.DEClash.Weighted>
0.0815

> <Gold.Chemscore.DEInternal.Weighted>
2.5414

> <Gold.Chemscore.Rot.Weighted>
3.6229

> <Gold.Chemscore.Internal.Correction.Weighted>
   9.000000E+99

> <Gold.Protein.RotatedTorsions>
[ 6907 6896 6895 6894 ] final -119.26 input  -60.11 | X-H torsion
[ 7974 7965 7964 7962 ] final  123.76 input  175.53 | X-H torsion
[ 8008 7997 7996 7995 ] final  -87.84 input   59.86 | X-H torsion
[ 10167 10162 10161 10158 ] final -120.07 input  -65.29 | X-H torsion
[ 10718 10713 10712 10709 ] final -124.12 input   66.30 | X-H torsion
[ 10763 10752 10751 10750 ] final  175.48 input  -60.55 | X-H torsion
[ 11005 11000 10999 10996 ] final   -2.75 input  -57.11 | X-H torsion

> <Gold.Protein.ActiveResidues>
 VAL166  LYS551  ARG553  GLY616  TRP617  ASP618  TYR619  PRO620  LYS621  CYS622 
 ASP623  PHE694  ASN695  SER759  ASP760  ASP761  ALA762  ILE779  LEU786  VAL792 
 PHE793  MET794  SER795  GLU796  ALA797  LYS798  CYS799  TRP800  GLU811  SER814 

> <Gold.Protein.RotatedAtoms>
  150.8290  133.8123  159.3106 H   0  0  0  0  0  0  0  0  0  0  0  0  # atno 6907 bound_to 6896
  151.5858  135.1054  160.0037 H   0  0  0  0  0  0  0  0  0  0  0  0  # atno 6908 bound_to 6896
  152.4372  133.7341  159.6660 H   0  0  0  0  0  0  0  0  0  0  0  0  # atno 6909 bound_to 6896
  145.0922  139.3578  143.4855 H   0  0  0  0  0  0  0  0  0  0  0  0  # atno 7974 bound_to 7965
  154.6679  140.0561  157.0133 H   0  0  0  0  0  0  0  0  0  0  0  0  # atno 8008 bound_to 7997
  155.1132  140.3240  155.4497 H   0  0  0  0  0  0  0  0  0  0  0  0  # atno 8009 bound_to 7997
  156.2645  140.2010  156.6256 H   0  0  0  0  0  0  0  0  0  0  0  0  # atno 8010 bound_to 7997
  140.0398  143.5165  152.2136 H   0  0  0  0  0  0  0  0  0  0  0  0  # atno 10167 bound_to 10162
  156.1560  130.6568  150.9982 H   0  0  0  0  0  0  0  0  0  0  0  0  # atno 10718 bound_to 10713
  154.4682  135.2770  155.1662 H   0  0  0  0  0  0  0  0  0  0  0  0  # atno 10763 bound_to 10752
  154.3422  135.6167  153.5606 H   0  0  0  0  0  0  0  0  0  0  0  0  # atno 10764 bound_to 10752
  152.9861  135.5791  154.5057 H   0  0  0  0  0  0  0  0  0  0  0  0  # atno 10765 bound_to 10752
  140.6618  133.9314  155.8441 H   0  0  0  0  0  0  0  0  0  0  0  0  # atno 11005 bound_to 11000
  146.3531  140.0762  142.8620 LP  0  0  0  0  0  0  0  0  0  0  0  0  # atno 17320 bound_to 7965
  145.1052  140.9371  143.4689 LP  0  0  0  0  0  0  0  0  0  0  0  0  # atno 17321 bound_to 7965
  139.6021  144.7585  151.3147 LP  0  0  0  0  0  0  0  0  0  0  0  0  # atno 17342 bound_to 10162
  140.7265  143.6988  150.7862 LP  0  0  0  0  0  0  0  0  0  0  0  0  # atno 17343 bound_to 10162
  157.6695  131.0864  150.7646 LP  0  0  0  0  0  0  0  0  0  0  0  0  # atno 17370 bound_to 10713
  156.7711  130.4829  149.5418 LP  0  0  0  0  0  0  0  0  0  0  0  0  # atno 17371 bound_to 10713
  141.0459  134.0554  157.3844 LP  0  0  0  0  0  0  0  0  0  0  0  0  # atno 17394 bound_to 11000
  139.9010  135.0164  156.7270 LP  0  0  0  0  0  0  0  0  0  0  0  0  # atno 17395 bound_to 11000

$$$$
