AV-unprocessed.smi:2278|AV-procd|sdf|9182|dock2
  -GOLD-   2272012393D 1   1.00000     0.00000
 Structure written by MMmdl.
 46 47  0  0  0  0  0  0  0  0  2 V2000
  145.2806  131.9355  149.7158 C   0  0  0  0  0  0  0  0  0  0  0  0
  145.3264  133.2327  150.5035 C   0  0  0  0  0  0  0  0  0  0  0  0
  144.6170  134.3019  149.9484 N   0  0  0  0  0  0  0  0  0  0  0  0
  144.5998  135.4464  150.5493 C   0  0  0  0  0  0  0  0  0  0  0  0
  145.2820  135.6538  151.7593 N   0  0  0  0  0  0  0  0  0  0  0  0
  145.1973  137.0058  152.3361 C   0  0  0  0  0  0  0  0  0  0  0  0
  146.5146  137.7952  152.1615 C   0  0  1  0  0  0  0  0  0  0  0  0
  146.6513  138.1372  150.7960 O   0  0  0  0  0  0  0  0  0  0  0  0
  146.4997  139.1114  152.9654 C   0  0  0  0  0  0  0  0  0  0  0  0
  147.8584  139.5219  153.4039 N   0  3  2  0  0  0  0  0  0  0  0  0
  148.5868  138.4532  154.1379 C   0  0  0  0  0  0  0  0  0  0  0  0
  150.0345  138.8777  154.4424 C   0  0  0  0  0  0  0  0  0  0  0  0
  150.1013  140.2062  155.2175 C   0  0  2  0  0  0  0  0  0  0  0  0
  149.6899  140.0558  156.6926 C   0  0  0  0  0  0  0  0  0  0  0  0
  149.2771  141.2738  154.4749 C   0  0  0  0  0  0  0  0  0  0  0  0
  147.8465  140.7965  154.1659 C   0  0  0  0  0  0  0  0  0  0  0  0
  146.0012  134.6660  152.3671 C   0  0  0  0  0  0  0  0  0  0  0  0
  146.6070  134.8655  153.4221 O   0  0  0  0  0  0  0  0  0  0  0  0
  146.0086  133.3683  151.6734 C   0  0  0  0  0  0  0  0  0  0  0  0
  146.7999  132.2411  152.3248 C   0  0  0  0  0  0  0  0  0  0  0  0
  144.8507  131.1359  150.3196 H   0  0  0  0  0  0  0  0  0  0  0  0
  146.2842  131.6401  149.4085 H   0  0  0  0  0  0  0  0  0  0  0  0
  144.6724  132.0381  148.8161 H   0  0  0  0  0  0  0  0  0  0  0  0
  144.0644  136.3123  150.1561 H   0  0  0  0  0  0  0  0  0  0  0  0
  144.3508  137.5742  151.9441 H   0  0  0  0  0  0  0  0  0  0  0  0
  144.9729  136.9007  153.3993 H   0  0  0  0  0  0  0  0  0  0  0  0
  147.3640  137.1818  152.4592 H   0  0  0  0  0  0  0  0  0  0  0  0
  145.7892  138.2483  150.4239 H   0  0  0  0  0  0  0  0  0  0  0  0
  146.0524  139.8912  152.3465 H   0  0  0  0  0  0  0  0  0  0  0  0
  145.8585  139.0197  153.8435 H   0  0  0  0  0  0  0  0  0  0  0  0
  148.0573  138.2156  155.0616 H   0  0  0  0  0  0  0  0  0  0  0  0
  148.6083  137.5358  153.5509 H   0  0  0  0  0  0  0  0  0  0  0  0
  150.5473  138.0906  154.9963 H   0  0  0  0  0  0  0  0  0  0  0  0
  150.5754  138.9857  153.5010 H   0  0  0  0  0  0  0  0  0  0  0  0
  151.1415  140.5349  155.2192 H   0  0  0  0  0  0  0  0  0  0  0  0
  148.6566  139.7274  156.8015 H   0  0  0  0  0  0  0  0  0  0  0  0
  149.7919  141.0023  157.2243 H   0  0  0  0  0  0  0  0  0  0  0  0
  150.3220  139.3273  157.2010 H   0  0  0  0  0  0  0  0  0  0  0  0
  149.2472  142.1982  155.0527 H   0  0  0  0  0  0  0  0  0  0  0  0
  149.7766  141.5209  153.5371 H   0  0  0  0  0  0  0  0  0  0  0  0
  147.3371  141.5658  153.5840 H   0  0  0  0  0  0  0  0  0  0  0  0
  147.2752  140.6697  155.0865 H   0  0  0  0  0  0  0  0  0  0  0  0
  147.8479  132.5259  152.4234 H   0  0  0  0  0  0  0  0  0  0  0  0
  146.7658  131.3103  151.7610 H   0  0  0  0  0  0  0  0  0  0  0  0
  146.4098  132.0352  153.3220 H   0  0  0  0  0  0  0  0  0  0  0  0
  148.3784  139.7077  152.5580 H   0  0  0  0  0  0  0  0  0  0  0  0
  1  2  1  0  0  0  0
  1 21  1  0  0  0  0
  1 22  1  0  0  0  0
  1 23  1  0  0  0  0
  2 19  2  0  0  0  0
  2  3  1  0  0  0  0
  3  4  2  0  0  0  0
  4  5  1  0  0  0  0
  4 24  1  0  0  0  0
  5  6  1  0  0  0  0
  5 17  1  0  0  0  0
  6  7  1  0  0  0  0
  6 25  1  0  0  0  0
  6 26  1  0  0  0  0
  7  8  1  0  0  0  0
  7  9  1  0  0  0  0
  7 27  1  0  0  0  0
  8 28  1  0  0  0  0
  9 10  1  0  0  0  0
  9 29  1  0  0  0  0
  9 30  1  0  0  0  0
 10 16  1  0  0  0  0
 10 11  1  0  0  0  0
 10 46  1  0  0  0  0
 11 12  1  0  0  0  0
 11 31  1  0  0  0  0
 11 32  1  0  0  0  0
 12 13  1  0  0  0  0
 12 33  1  0  0  0  0
 12 34  1  0  0  0  0
 13 14  1  0  0  0  0
 13 15  1  0  0  0  0
 13 35  1  0  0  0  0
 14 36  1  0  0  0  0
 14 37  1  0  0  0  0
 14 38  1  0  0  0  0
 15 16  1  0  0  0  0
 15 39  1  0  0  0  0
 15 40  1  0  0  0  0
 16 41  1  0  0  0  0
 16 42  1  0  0  0  0
 17 18  2  0  0  0  0
 17 19  1  0  0  0  0
 19 20  1  0  0  0  0
 20 43  1  0  0  0  0
 20 44  1  0  0  0  0
 20 45  1  0  0  0  0
M  CHG  1  10   1
M  END
> <s_m_source_file>
AV-unprocessed.smi

> <i_m_source_file_index>
2278

> <i_lp_mmshare_version>
43012

> <i_f3d_flags>
0

> <s_epik_input>
W0NIM11jMW5bY0hdbihjKD1PKWMxW0NIM10pW0NIMl1bQ0BIXShbT0hdKVtDSDJdTjJbQ0gyXVtDSDJdW0NIXShbQ0gzXSlbQ0gyXVtDSDJdMg==

> <s_epik_cmdline>
J2VwaWtfcHl0aG9uJywgJy1waCcsICc3LjAnLCAnLXRuJywgJzgnLCAnLW1hJywgJzIwMCcsICctbWV0YWxfYmluZGluZycsICctaW1hZScsICc8aW5maWxlLm1hZT4nLCAnLW9tYWUnLCAnPG91dGZpbGUubWFlPic=

> <r_lp_tautomer_probability>
1

> <r_epik_Ionization_Penalty>
0.00139489

> <r_epik_Ionization_Penalty_Charging>
0.00136819

> <r_epik_Ionization_Penalty_Neutral>
2.66975e-05

> <r_epik_State_Penalty>
0.000910892

> <r_epik_Charging_Adjusted_Penalty>
0.00227908

> <i_epik_Tot_Q>
1

> <i_epik_Tot_abs_Q>
1

> <r_epik_Metal_State_Penalty>
-0

> <b_epik_Metal_Only>
0

> <s_lp_Force_Field>
OPLS_2005

> <r_lp_Energy>
31.1112

> <b_lp_Chiralities_Consistent>
1

> <s_lp_Variant>
AV-unprocessed.smi:2278-4

> <Gold.Version>
5.8.1

> <Gold.Id.Protein>
6NUR|6NUR_protein|mol2

> <Gold.PLP.Fitness>
47.4884

> <Gold.PLP.PLP>
-36.6592

> <Gold.PLP.part.hbond>
-3.6375

> <Gold.PLP.part.metal>
0.0000

> <Gold.PLP.part.buried>
-1.3120

> <Gold.PLP.part.nonpolar>
-33.3275

> <Gold.PLP.part.repulsive>
2.1207

> <Gold.PLP.ligand.clash>
0.0000

> <Gold.PLP.ligand.torsion>
0.6187

> <Gold.PLP.Chemscore.Hbond>
3.0000

> <Gold.PLP.Chemscore.CHOScore>
1.0000

> <Gold.PLP.Chemscore.Metal>
0.0000

> <Gold.Chemscore.Hbonds>
donor molecule, donor type, donor heavy atom, donor atom, acceptor molecule, acceptor atom, score
      L1  H     8    28       P1 10171  1.00
      L1  H    10    46       P1  7957  1.00
      P1  H  7954  7966       L1     8  1.00
      L1  C     4    24       P1 10171  1.00

> <Gold.PLP.Chemscore.Internal.Correction>
0.0667

> <Gold.Rescore>
     Score         DG    S(hbond)    S(metal)    S(lipo)     H(rot)  DE(clash)    DE(int)     intcor
     18.32     -19.74       2.94        0.00      86.04       2.20       0.89       0.53       ----

> <Gold.Chemscore.Fitness>
18.3218

> <Gold.Chemscore.DG>
-19.7430

> <Gold.Chemscore.ZeroCoef>
-5.4800

> <Gold.Chemscore.Hbond>
2.9415

> <Gold.Chemscore.Metal>
0.0000

> <Gold.Chemscore.Lipo>
86.0426

> <Gold.Chemscore.Internal_Hbond>
0.0000

> <Gold.Chemscore.DEClash>
0.8866

> <Gold.Chemscore.DEInternal>
0.5345

> <Gold.Chemscore.Rot>
2.1986

> <Gold.Chemscore.Internal.Correction>
   9.000000E+99

> <Gold.Chemscore.Hbonds>
donor molecule, donor type, donor heavy atom, donor atom, acceptor molecule, acceptor atom, score
      L1  H     8    28       P1 10171  0.93
      L1  H    10    46       P1  7957  1.00
      P1  H  7954  7966       L1     8  0.97

> <Gold.Chemscore.Hbond.Weighted>
-9.8245

> <Gold.Chemscore.Metal.Weighted>
-0.0000

> <Gold.Chemscore.Lipo.Weighted>
-10.0670

> <Gold.Chemscore.Internal_Hbond.Weighted>
0.0000

> <Gold.Chemscore.DEClash.Weighted>
0.8866

> <Gold.Chemscore.DEInternal.Weighted>
0.5345

> <Gold.Chemscore.Rot.Weighted>
5.6285

> <Gold.Chemscore.Internal.Correction.Weighted>
   9.000000E+99

> <Gold.Protein.RotatedTorsions>
[ 6907 6896 6895 6894 ] final   21.47 input  -60.11 | X-H torsion
[ 7974 7965 7964 7962 ] final  -86.87 input  175.53 | X-H torsion
[ 8008 7997 7996 7995 ] final  -51.89 input   59.86 | X-H torsion
[ 10167 10162 10161 10158 ] final -122.31 input  -65.29 | X-H torsion
[ 10718 10713 10712 10709 ] final   96.46 input   66.30 | X-H torsion
[ 10763 10752 10751 10750 ] final -179.14 input  -60.55 | X-H torsion
[ 11005 11000 10999 10996 ] final   34.62 input  -57.11 | X-H torsion

> <Gold.Protein.ActiveResidues>
 VAL166  LYS551  ARG553  GLY616  TRP617  ASP618  TYR619  PRO620  LYS621  CYS622 
 ASP623  PHE694  ASN695  SER759  ASP760  ASP761  ALA762  ILE779  LEU786  VAL792 
 PHE793  MET794  SER795  GLU796  ALA797  LYS798  CYS799  TRP800  GLU811  SER814 

> <Gold.Protein.RotatedAtoms>
  151.9123  135.0333  160.0515 H   0  0  0  0  0  0  0  0  0  0  0  0  # atno 6907 bound_to 6896
  152.2269  133.5022  159.5202 H   0  0  0  0  0  0  0  0  0  0  0  0  # atno 6908 bound_to 6896
  150.7015  134.1185  159.4069 H   0  0  0  0  0  0  0  0  0  0  0  0  # atno 6909 bound_to 6896
  145.4741  140.9559  143.1901 H   0  0  0  0  0  0  0  0  0  0  0  0  # atno 7974 bound_to 7965
  154.4093  140.1237  156.4903 H   0  0  0  0  0  0  0  0  0  0  0  0  # atno 8008 bound_to 7997
  155.6997  140.3495  155.4908 H   0  0  0  0  0  0  0  0  0  0  0  0  # atno 8009 bound_to 7997
  155.9396  140.1084  157.1056 H   0  0  0  0  0  0  0  0  0  0  0  0  # atno 8010 bound_to 7997
  140.0156  143.5396  152.2244 H   0  0  0  0  0  0  0  0  0  0  0  0  # atno 10167 bound_to 10162
  157.6926  131.0579  150.4495 H   0  0  0  0  0  0  0  0  0  0  0  0  # atno 10718 bound_to 10713
  154.5389  135.2804  155.1114 H   0  0  0  0  0  0  0  0  0  0  0  0  # atno 10763 bound_to 10752
  154.2604  135.6322  153.5276 H   0  0  0  0  0  0  0  0  0  0  0  0  # atno 10764 bound_to 10752
  152.9974  135.5604  154.5923 H   0  0  0  0  0  0  0  0  0  0  0  0  # atno 10765 bound_to 10752
  140.2510  134.3303  155.7890 H   0  0  0  0  0  0  0  0  0  0  0  0  # atno 11005 bound_to 11000
  144.7928  139.6294  143.7106 LP  0  0  0  0  0  0  0  0  0  0  0  0  # atno 17320 bound_to 7965
  146.2380  139.5943  142.9511 LP  0  0  0  0  0  0  0  0  0  0  0  0  # atno 17321 bound_to 7965
  139.6175  144.7622  151.2814 LP  0  0  0  0  0  0  0  0  0  0  0  0  # atno 17342 bound_to 10162
  140.7363  143.6710  150.8082 LP  0  0  0  0  0  0  0  0  0  0  0  0  # atno 17343 bound_to 10162
  156.4847  130.4082  149.6441 LP  0  0  0  0  0  0  0  0  0  0  0  0  # atno 17370 bound_to 10713
  156.3473  130.7414  151.2368 LP  0  0  0  0  0  0  0  0  0  0  0  0  # atno 17371 bound_to 10713
  141.2201  133.7353  156.9037 LP  0  0  0  0  0  0  0  0  0  0  0  0  # atno 17394 bound_to 11000
  140.1558  134.9199  157.2651 LP  0  0  0  0  0  0  0  0  0  0  0  0  # atno 17395 bound_to 11000

$$$$
