AV-unprocessed.smi:2191|AV-procd|sdf|8894|dock6
  -GOLD-   2272012103D 1   1.00000     0.00000
 Structure written by MMmdl.
 37 39  0  0  0  0  0  0  0  0  2 V2000
  151.5669  138.8951  157.4280 O   0  0  0  0  0  0  0  0  0  0  0  0
  152.6464  139.6686  156.9418 C   0  0  2  0  0  0  0  0  0  0  0  0
  153.3303  140.3542  158.1355 C   0  0  0  0  0  0  0  0  0  0  0  0
  152.6869  141.5980  158.3803 O   0  0  0  0  0  0  0  0  0  0  0  0
  152.7770  142.1428  159.6433 C   0  0  0  0  0  0  0  0  0  0  0  0
  153.8531  141.7155  160.4489 C   0  0  0  0  0  0  0  0  0  0  0  0
  154.0238  142.2208  161.7523 C   0  0  0  0  0  0  0  0  0  0  0  0
  153.1132  143.1623  162.2663 C   0  0  0  0  0  0  0  0  0  0  0  0
  152.0338  143.5964  161.4745 C   0  0  0  0  0  0  0  0  0  0  0  0
  151.8645  143.0922  160.1702 C   0  0  0  0  0  0  0  0  0  0  0  0
  152.1201  140.6920  155.9160 C   0  0  0  0  0  0  0  0  0  0  0  0
  151.2353  140.0869  154.9093 N   0  0  0  0  0  0  0  0  0  0  0  0
  151.4885  139.0848  154.0245 C   0  0  0  0  0  0  0  0  0  0  0  0
  150.3530  138.8758  153.3026 N   0  3  0  0  0  0  0  0  0  0  0  0
  149.3585  139.7567  153.7323 C   0  0  0  0  0  0  0  0  0  0  0  0
  148.0442  139.9235  153.3063 C   0  0  0  0  0  0  0  0  0  0  0  0
  147.2876  140.9169  153.9616 C   0  0  0  0  0  0  0  0  0  0  0  0
  147.8412  141.6982  154.9965 C   0  0  0  0  0  0  0  0  0  0  0  0
  149.1747  141.5209  155.4199 C   0  0  0  0  0  0  0  0  0  0  0  0
  149.9176  140.5379  154.7660 C   0  0  0  0  0  0  0  0  0  0  0  0
  150.7608  139.2899  157.1310 H   0  0  0  0  0  0  0  0  0  0  0  0
  153.3563  139.0066  156.4439 H   0  0  0  0  0  0  0  0  0  0  0  0
  153.2179  139.7302  159.0238 H   0  0  0  0  0  0  0  0  0  0  0  0
  154.3987  140.4797  157.9496 H   0  0  0  0  0  0  0  0  0  0  0  0
  154.5569  140.9929  160.0624 H   0  0  0  0  0  0  0  0  0  0  0  0
  154.8535  141.8857  162.3571 H   0  0  0  0  0  0  0  0  0  0  0  0
  153.2423  143.5510  163.2657 H   0  0  0  0  0  0  0  0  0  0  0  0
  151.3337  144.3187  161.8678 H   0  0  0  0  0  0  0  0  0  0  0  0
  151.0247  143.4501  159.5945 H   0  0  0  0  0  0  0  0  0  0  0  0
  151.6038  141.5167  156.4074 H   0  0  0  0  0  0  0  0  0  0  0  0
  152.9565  141.1368  155.3756 H   0  0  0  0  0  0  0  0  0  0  0  0
  152.4212  138.5506  153.9157 H   0  0  0  0  0  0  0  0  0  0  0  0
  147.6169  139.3255  152.5146 H   0  0  0  0  0  0  0  0  0  0  0  0
  146.2617  141.0821  153.6658 H   0  0  0  0  0  0  0  0  0  0  0  0
  147.2301  142.4483  155.4771 H   0  0  0  0  0  0  0  0  0  0  0  0
  149.5847  142.1215  156.2182 H   0  0  0  0  0  0  0  0  0  0  0  0
  150.2660  138.1809  152.5721 H   0  0  0  0  0  0  0  0  0  0  0  0
  1  2  1  0  0  0  0
  1 21  1  0  0  0  0
  2  3  1  0  0  0  0
  2 11  1  0  0  0  0
  2 22  1  0  0  0  0
  3  4  1  0  0  0  0
  3 23  1  0  0  0  0
  3 24  1  0  0  0  0
  4  5  1  0  0  0  0
  5 10  1  0  0  0  0
  5  6  2  0  0  0  0
  6  7  1  0  0  0  0
  6 25  1  0  0  0  0
  7  8  2  0  0  0  0
  7 26  1  0  0  0  0
  8  9  1  0  0  0  0
  8 27  1  0  0  0  0
  9 10  2  0  0  0  0
  9 28  1  0  0  0  0
 10 29  1  0  0  0  0
 11 12  1  0  0  0  0
 11 30  1  0  0  0  0
 11 31  1  0  0  0  0
 12 20  1  0  0  0  0
 12 13  1  0  0  0  0
 13 14  2  0  0  0  0
 13 32  1  0  0  0  0
 14 15  1  0  0  0  0
 14 37  1  0  0  0  0
 15 20  2  0  0  0  0
 15 16  1  0  0  0  0
 16 17  2  0  0  0  0
 16 33  1  0  0  0  0
 17 18  1  0  0  0  0
 17 34  1  0  0  0  0
 18 19  2  0  0  0  0
 18 35  1  0  0  0  0
 19 20  1  0  0  0  0
 19 36  1  0  0  0  0
M  CHG  1  14   1
M  END
> <s_m_source_file>
AV-unprocessed.smi

> <i_m_source_file_index>
2191

> <i_lp_mmshare_version>
43012

> <i_f3d_flags>
0

> <s_epik_input>
W2NIXTFbY0hdW2NIXVtjSF1jKGMxMiluKFtjSF1uMilbQ0gyXVtDQEhdKFtPSF0pW0NIMl1PYzNbY0hdW2NIXVtjSF1bY0hdW2NIXTM=

> <s_epik_cmdline>
J2VwaWtfcHl0aG9uJywgJy1waCcsICc3LjAnLCAnLXRuJywgJzgnLCAnLW1hJywgJzIwMCcsICctbWV0YWxfYmluZGluZycsICctaW1hZScsICc8aW5maWxlLm1hZT4nLCAnLW9tYWUnLCAnPG91dGZpbGUubWFlPic=

> <r_lp_tautomer_probability>
1

> <r_epik_Ionization_Penalty>
1.35015

> <r_epik_Ionization_Penalty_Charging>
1.35015

> <r_epik_Ionization_Penalty_Neutral>
2.3993e-06

> <r_epik_State_Penalty>
1.42814

> <r_epik_Charging_Adjusted_Penalty>
2.77829

> <i_epik_Tot_Q>
1

> <i_epik_Tot_abs_Q>
1

> <r_epik_Metal_State_Penalty>
5.46522

> <b_epik_Metal_Only>
0

> <s_lp_Force_Field>
OPLS_2005

> <r_lp_Energy>
21.7284

> <b_lp_Chiralities_Consistent>
1

> <s_lp_Variant>
AV-unprocessed.smi:2191-3

> <Gold.Version>
5.8.1

> <Gold.Id.Protein>
6NUR|6NUR_protein|mol2

> <Gold.PLP.Fitness>
50.0550

> <Gold.PLP.PLP>
-46.2325

> <Gold.PLP.part.hbond>
-2.0000

> <Gold.PLP.part.metal>
0.0000

> <Gold.PLP.part.buried>
2.4188

> <Gold.PLP.part.nonpolar>
-46.1966

> <Gold.PLP.part.repulsive>
0.0712

> <Gold.PLP.ligand.clash>
0.5563

> <Gold.PLP.ligand.torsion>
0.8408

> <Gold.PLP.Chemscore.Hbond>
2.0000

> <Gold.PLP.Chemscore.CHOScore>
0.0000

> <Gold.PLP.Chemscore.Metal>
0.0000

> <Gold.Chemscore.Hbonds>
donor molecule, donor type, donor heavy atom, donor atom, acceptor molecule, acceptor atom, score
      L1  H    14    37       P1  7948  0.11

> <Gold.PLP.Chemscore.Internal.Correction>
0.0604

> <Gold.Rescore>
     Score         DG    S(hbond)    S(metal)    S(lipo)     H(rot)  DE(clash)    DE(int)     intcor
     15.93     -16.86       0.98        0.00     119.79       2.31       0.06       0.88       ----

> <Gold.Chemscore.Fitness>
15.9258

> <Gold.Chemscore.DG>
-16.8593

> <Gold.Chemscore.ZeroCoef>
-5.4800

> <Gold.Chemscore.Hbond>
0.9777

> <Gold.Chemscore.Metal>
0.0000

> <Gold.Chemscore.Lipo>
119.7894

> <Gold.Chemscore.Internal_Hbond>
0.0000

> <Gold.Chemscore.DEClash>
0.0569

> <Gold.Chemscore.DEInternal>
0.8766

> <Gold.Chemscore.Rot>
2.3053

> <Gold.Chemscore.Internal.Correction>
   9.000000E+99

> <Gold.Chemscore.Hbonds>
donor molecule, donor type, donor heavy atom, donor atom, acceptor molecule, acceptor atom, score
      L1  H    14    37       P1  7948  0.01

> <Gold.Chemscore.Hbond.Weighted>
-3.2655

> <Gold.Chemscore.Metal.Weighted>
-0.0000

> <Gold.Chemscore.Lipo.Weighted>
-14.0154

> <Gold.Chemscore.Internal_Hbond.Weighted>
0.0000

> <Gold.Chemscore.DEClash.Weighted>
0.0569

> <Gold.Chemscore.DEInternal.Weighted>
0.8766

> <Gold.Chemscore.Rot.Weighted>
5.9015

> <Gold.Chemscore.Internal.Correction.Weighted>
   9.000000E+99

> <Gold.Protein.RotatedTorsions>
[ 6907 6896 6895 6894 ] final   89.23 input  -60.11 | X-H torsion
[ 7974 7965 7964 7962 ] final  -80.15 input  175.53 | X-H torsion
[ 8008 7997 7996 7995 ] final  -28.97 input   59.86 | X-H torsion
[ 10167 10162 10161 10158 ] final  157.75 input  -65.29 | X-H torsion
[ 10718 10713 10712 10709 ] final  -81.67 input   66.30 | X-H torsion
[ 10763 10752 10751 10750 ] final  138.33 input  -60.55 | X-H torsion
[ 11005 11000 10999 10996 ] final  -25.82 input  -57.11 | X-H torsion

> <Gold.Protein.ActiveResidues>
 VAL166  LYS551  ARG553  GLY616  TRP617  ASP618  TYR619  PRO620  LYS621  CYS622 
 ASP623  PHE694  ASN695  SER759  ASP760  ASP761  ALA762  ILE779  LEU786  VAL792 
 PHE793  MET794  SER795  GLU796  ALA797  LYS798  CYS799  TRP800  GLU811  SER814 

> <Gold.Protein.RotatedAtoms>
  152.5434  134.1999  159.8707 H   0  0  0  0  0  0  0  0  0  0  0  0  # atno 6907 bound_to 6896
  151.1988  133.4616  159.2603 H   0  0  0  0  0  0  0  0  0  0  0  0  # atno 6908 bound_to 6896
  151.1010  134.9984  159.8504 H   0  0  0  0  0  0  0  0  0  0  0  0  # atno 6909 bound_to 6896
  145.5637  140.9478  143.1433 H   0  0  0  0  0  0  0  0  0  0  0  0  # atno 7974 bound_to 7965
  154.4309  140.1831  156.1173 H   0  0  0  0  0  0  0  0  0  0  0  0  # atno 8008 bound_to 7997
  156.0170  140.3344  155.6974 H   0  0  0  0  0  0  0  0  0  0  0  0  # atno 8009 bound_to 7997
  155.6030  140.0642  157.2718 H   0  0  0  0  0  0  0  0  0  0  0  0  # atno 8010 bound_to 7997
  139.4824  144.4889  151.8338 H   0  0  0  0  0  0  0  0  0  0  0  0  # atno 10167 bound_to 10162
  156.0046  130.4611  150.3988 H   0  0  0  0  0  0  0  0  0  0  0  0  # atno 10718 bound_to 10713
  153.8878  135.3036  155.3447 H   0  0  0  0  0  0  0  0  0  0  0  0  # atno 10763 bound_to 10752
  154.7731  135.4875  153.9692 H   0  0  0  0  0  0  0  0  0  0  0  0  # atno 10764 bound_to 10752
  153.1315  135.6805  153.9269 H   0  0  0  0  0  0  0  0  0  0  0  0  # atno 10765 bound_to 10752
  140.8973  133.7548  156.0498 H   0  0  0  0  0  0  0  0  0  0  0  0  # atno 11005 bound_to 11000
  144.7471  139.7292  143.7288 LP  0  0  0  0  0  0  0  0  0  0  0  0  # atno 17320 bound_to 7965
  146.1833  139.5036  142.9852 LP  0  0  0  0  0  0  0  0  0  0  0  0  # atno 17321 bound_to 7965
  140.4371  144.2037  150.5890 LP  0  0  0  0  0  0  0  0  0  0  0  0  # atno 17342 bound_to 10162
  140.4721  143.2409  151.9074 LP  0  0  0  0  0  0  0  0  0  0  0  0  # atno 17343 bound_to 10162
  157.2058  131.0449  151.2626 LP  0  0  0  0  0  0  0  0  0  0  0  0  # atno 17370 bound_to 10713
  157.3934  130.7294  149.6714 LP  0  0  0  0  0  0  0  0  0  0  0  0  # atno 17371 bound_to 10713
  140.8273  134.3219  157.5361 LP  0  0  0  0  0  0  0  0  0  0  0  0  # atno 17394 bound_to 11000
  139.8737  134.9343  156.3605 LP  0  0  0  0  0  0  0  0  0  0  0  0  # atno 17395 bound_to 11000

$$$$
