AV-unprocessed.smi:1988|AV-procd|sdf|8058|dock1
  -GOLD-   2272010263D 1   1.00000     0.00000
 Structure written by MMmdl.
 37 38  0  0  0  0  0  0  0  0  1 V2000
  145.3511  144.4472  152.9229 C   0  0  0  0  0  0  0  0  0  0  0  0
  144.3267  144.7744  153.9713 C   0  0  0  0  0  0  0  0  0  0  0  0
  143.2661  145.4911  153.6399 N   0  0  0  0  0  0  0  0  0  0  0  0
  142.5217  145.6405  154.8138 O   0  0  0  0  0  0  0  0  0  0  0  0
  143.1732  145.0021  155.8189 C   0  0  0  0  0  0  0  0  0  0  0  0
  142.5439  145.0575  157.1698 C   0  0  0  0  0  0  0  0  0  0  0  0
  144.3243  144.4286  155.3540 C   0  0  0  0  0  0  0  0  0  0  0  0
  145.3532  143.6396  156.1222 C   0  0  0  0  0  0  0  0  0  0  0  0
  145.8921  142.5252  155.2280 C   0  0  0  0  0  0  0  0  0  0  0  0
  145.1736  141.5693  154.9366 O   0  0  0  0  0  0  0  0  0  0  0  0
  147.1696  142.6443  154.8342 N   0  0  0  0  0  0  0  0  0  0  0  0
  147.9284  141.6350  154.1035 C   0  0  0  0  0  0  0  0  0  0  0  0
  148.7587  140.7585  155.0610 C   0  0  2  0  0  0  0  0  0  0  0  0
  149.7628  141.5821  155.8905 C   0  0  0  0  0  0  0  0  0  0  0  0
  150.7077  140.6174  156.6144 C   0  0  0  0  0  0  0  0  0  0  0  0
  150.9196  139.1921  155.4840 S   0  0  0  0  0  0  0  0  0  0  0  0
  152.1927  139.3243  154.7595 O   0  0  0  0  0  0  0  0  0  0  0  0
  150.5832  137.9556  156.2057 O   0  0  0  0  0  0  0  0  0  0  0  0
  149.5449  139.6376  154.3577 C   0  0  0  0  0  0  0  0  0  0  0  0
  145.8313  143.4900  153.1245 H   0  0  0  0  0  0  0  0  0  0  0  0
  146.1300  145.2093  152.8908 H   0  0  0  0  0  0  0  0  0  0  0  0
  144.9031  144.3870  151.9307 H   0  0  0  0  0  0  0  0  0  0  0  0
  143.1721  145.6175  157.8626 H   0  0  0  0  0  0  0  0  0  0  0  0
  142.4075  144.0542  157.5731 H   0  0  0  0  0  0  0  0  0  0  0  0
  141.5679  145.5418  157.1310 H   0  0  0  0  0  0  0  0  0  0  0  0
  146.1846  144.2703  156.4394 H   0  0  0  0  0  0  0  0  0  0  0  0
  144.9345  143.2111  157.0337 H   0  0  0  0  0  0  0  0  0  0  0  0
  147.6741  143.4710  155.1202 H   0  0  0  0  0  0  0  0  0  0  0  0
  147.2722  141.0157  153.4895 H   0  0  0  0  0  0  0  0  0  0  0  0
  148.5930  142.1526  153.4115 H   0  0  0  0  0  0  0  0  0  0  0  0
  148.0762  140.2815  155.7664 H   0  0  0  0  0  0  0  0  0  0  0  0
  150.3492  142.2126  155.2206 H   0  0  0  0  0  0  0  0  0  0  0  0
  149.2592  142.2468  156.5931 H   0  0  0  0  0  0  0  0  0  0  0  0
  151.6752  141.0610  156.8502 H   0  0  0  0  0  0  0  0  0  0  0  0
  150.2558  140.2519  157.5367 H   0  0  0  0  0  0  0  0  0  0  0  0
  148.9377  138.7581  154.1423 H   0  0  0  0  0  0  0  0  0  0  0  0
  149.9826  139.9918  153.4239 H   0  0  0  0  0  0  0  0  0  0  0  0
  1  2  1  0  0  0  0
  1 20  1  0  0  0  0
  1 21  1  0  0  0  0
  1 22  1  0  0  0  0
  2  7  1  0  0  0  0
  2  3  2  0  0  0  0
  3  4  1  0  0  0  0
  4  5  1  0  0  0  0
  5  6  1  0  0  0  0
  5  7  2  0  0  0  0
  6 23  1  0  0  0  0
  6 24  1  0  0  0  0
  6 25  1  0  0  0  0
  7  8  1  0  0  0  0
  8  9  1  0  0  0  0
  8 26  1  0  0  0  0
  8 27  1  0  0  0  0
  9 10  2  0  0  0  0
  9 11  1  0  0  0  0
 11 12  1  0  0  0  0
 11 28  1  0  0  0  0
 12 13  1  0  0  0  0
 12 29  1  0  0  0  0
 12 30  1  0  0  0  0
 13 19  1  0  0  0  0
 13 14  1  0  0  0  0
 13 31  1  0  0  0  0
 14 15  1  0  0  0  0
 14 32  1  0  0  0  0
 14 33  1  0  0  0  0
 15 16  1  0  0  0  0
 15 34  1  0  0  0  0
 15 35  1  0  0  0  0
 16 17  2  0  0  0  0
 16 18  2  0  0  0  0
 16 19  1  0  0  0  0
 19 36  1  0  0  0  0
 19 37  1  0  0  0  0
M  END
> <s_m_source_file>
AV-unprocessed.smi

> <i_m_source_file_index>
1988

> <i_lp_mmshare_version>
43012

> <i_f3d_flags>
0

> <s_epik_input>
W0NIM11jMW5vYyhbQ0gzXSljMVtDSDJdQyg9TylbTkhdW0NIMl1bQ0BASF0oW0NIMl0yKVtDSDJdW0NIMl1TMig9Tyk9Tw==

> <s_epik_cmdline>
J2VwaWtfcHl0aG9uJywgJy1waCcsICc3LjAnLCAnLXRuJywgJzgnLCAnLW1hJywgJzIwMCcsICctbWV0YWxfYmluZGluZycsICctaW1hZScsICc8aW5maWxlLm1hZT4nLCAnLW9tYWUnLCAnPG91dGZpbGUubWFlPic=

> <r_lp_tautomer_probability>
1

> <r_epik_Ionization_Penalty>
2.7503e-08

> <r_epik_Ionization_Penalty_Charging>
0

> <r_epik_Ionization_Penalty_Neutral>
2.7503e-08

> <r_epik_State_Penalty>
-0

> <r_epik_Charging_Adjusted_Penalty>
0

> <i_epik_Tot_Q>
0

> <i_epik_Tot_abs_Q>
0

> <r_epik_Metal_State_Penalty>
-0

> <b_epik_Metal_Only>
0

> <s_lp_Force_Field>
OPLS_2005

> <r_lp_Energy>
-3.10021

> <b_lp_Chiralities_Consistent>
1

> <s_lp_Variant>
AV-unprocessed.smi:1988-1

> <Gold.Version>
5.8.1

> <Gold.Id.Protein>
6NUR|6NUR_protein|mol2

> <Gold.PLP.Fitness>
34.4894

> <Gold.PLP.PLP>
-30.5853

> <Gold.PLP.part.hbond>
-3.0000

> <Gold.PLP.part.metal>
0.0000

> <Gold.PLP.part.buried>
-5.1429

> <Gold.PLP.part.nonpolar>
-24.9588

> <Gold.PLP.part.repulsive>
0.6404

> <Gold.PLP.ligand.clash>
0.0000

> <Gold.PLP.ligand.torsion>
0.5946

> <Gold.PLP.Chemscore.Hbond>
1.6912

> <Gold.PLP.Chemscore.CHOScore>
0.0000

> <Gold.PLP.Chemscore.Metal>
0.0000

> <Gold.Chemscore.Hbonds>
donor molecule, donor type, donor heavy atom, donor atom, acceptor molecule, acceptor atom, score
      L1  H    11    28       P1  8028  1.00
      P1  H  7989  7998       L1    17  0.74

> <Gold.PLP.Chemscore.Internal.Correction>
0.0196

> <Gold.Rescore>
     Score         DG    S(hbond)    S(metal)    S(lipo)     H(rot)  DE(clash)    DE(int)     intcor
     13.05     -13.64       1.67        0.00      59.29       1.70       0.08       0.51       ----

> <Gold.Chemscore.Fitness>
13.0530

> <Gold.Chemscore.DG>
-13.6380

> <Gold.Chemscore.ZeroCoef>
-5.4800

> <Gold.Chemscore.Hbond>
1.6654

> <Gold.Chemscore.Metal>
0.0000

> <Gold.Chemscore.Lipo>
59.2900

> <Gold.Chemscore.Internal_Hbond>
0.0000

> <Gold.Chemscore.DEClash>
0.0757

> <Gold.Chemscore.DEInternal>
0.5093

> <Gold.Chemscore.Rot>
1.6958

> <Gold.Chemscore.Internal.Correction>
   9.000000E+99

> <Gold.Chemscore.Hbonds>
donor molecule, donor type, donor heavy atom, donor atom, acceptor molecule, acceptor atom, score
      L1  H    11    28       P1  8028  0.26
      P1  H  7989  7998       L1    17  0.16

> <Gold.Chemscore.Hbond.Weighted>
-5.5623

> <Gold.Chemscore.Metal.Weighted>
-0.0000

> <Gold.Chemscore.Lipo.Weighted>
-6.9369

> <Gold.Chemscore.Internal_Hbond.Weighted>
0.0000

> <Gold.Chemscore.DEClash.Weighted>
0.0757

> <Gold.Chemscore.DEInternal.Weighted>
0.5093

> <Gold.Chemscore.Rot.Weighted>
4.3413

> <Gold.Chemscore.Internal.Correction.Weighted>
   9.000000E+99

> <Gold.Protein.RotatedTorsions>
[ 6907 6896 6895 6894 ] final  -57.49 input  -60.11 | X-H torsion
[ 7974 7965 7964 7962 ] final  -98.85 input  175.53 | X-H torsion
[ 8008 7997 7996 7995 ] final -132.76 input   59.86 | X-H torsion
[ 10167 10162 10161 10158 ] final   32.23 input  -65.29 | X-H torsion
[ 10718 10713 10712 10709 ] final    2.35 input   66.30 | X-H torsion
[ 10763 10752 10751 10750 ] final   -6.72 input  -60.55 | X-H torsion
[ 11005 11000 10999 10996 ] final   88.69 input  -57.11 | X-H torsion

> <Gold.Protein.ActiveResidues>
 VAL166  LYS551  ARG553  GLY616  TRP617  ASP618  TYR619  PRO620  LYS621  CYS622 
 ASP623  PHE694  ASN695  SER759  ASP760  ASP761  ALA762  ILE779  LEU786  VAL792 
 PHE793  MET794  SER795  GLU796  ALA797  LYS798  CYS799  TRP800  GLU811  SER814 

> <Gold.Protein.RotatedAtoms>
  150.8082  134.7220  159.6662 H   0  0  0  0  0  0  0  0  0  0  0  0  # atno 6907 bound_to 6896
  152.4201  134.5967  159.9998 H   0  0  0  0  0  0  0  0  0  0  0  0  # atno 6908 bound_to 6896
  151.6184  133.3304  159.3118 H   0  0  0  0  0  0  0  0  0  0  0  0  # atno 6909 bound_to 6896
  145.3152  140.9409  143.2747 H   0  0  0  0  0  0  0  0  0  0  0  0  # atno 7974 bound_to 7965
  155.3342  140.0468  157.3043 H   0  0  0  0  0  0  0  0  0  0  0  0  # atno 8008 bound_to 7997
  154.5312  140.2257  155.8767 H   0  0  0  0  0  0  0  0  0  0  0  0  # atno 8009 bound_to 7997
  156.1790  140.3078  155.9119 H   0  0  0  0  0  0  0  0  0  0  0  0  # atno 8010 bound_to 7997
  140.4518  144.1037  150.6193 H   0  0  0  0  0  0  0  0  0  0  0  0  # atno 10167 bound_to 10162
  156.8617  130.5589  149.5662 H   0  0  0  0  0  0  0  0  0  0  0  0  # atno 10718 bound_to 10713
  153.4163  135.7009  153.6324 H   0  0  0  0  0  0  0  0  0  0  0  0  # atno 10763 bound_to 10752
  153.4797  135.3696  155.2436 H   0  0  0  0  0  0  0  0  0  0  0  0  # atno 10764 bound_to 10752
  154.8720  135.4063  154.3524 H   0  0  0  0  0  0  0  0  0  0  0  0  # atno 10765 bound_to 10752
  139.8891  134.8503  156.3035 H   0  0  0  0  0  0  0  0  0  0  0  0  # atno 11005 bound_to 11000
  144.8983  139.4682  143.6644 LP  0  0  0  0  0  0  0  0  0  0  0  0  # atno 17320 bound_to 7965
  146.3103  139.7722  142.9025 LP  0  0  0  0  0  0  0  0  0  0  0  0  # atno 17321 bound_to 7965
  140.4198  143.2617  151.9729 LP  0  0  0  0  0  0  0  0  0  0  0  0  # atno 17342 bound_to 10162
  139.4797  144.5841  151.7884 LP  0  0  0  0  0  0  0  0  0  0  0  0  # atno 17343 bound_to 10162
  156.0773  130.5792  150.9497 LP  0  0  0  0  0  0  0  0  0  0  0  0  # atno 17370 bound_to 10713
  157.6246  131.0927  150.8558 LP  0  0  0  0  0  0  0  0  0  0  0  0  # atno 17371 bound_to 10713
  140.9897  133.7216  156.0795 LP  0  0  0  0  0  0  0  0  0  0  0  0  # atno 17394 bound_to 11000
  140.7641  134.3906  157.5520 LP  0  0  0  0  0  0  0  0  0  0  0  0  # atno 17395 bound_to 11000

$$$$
