#       Name:                AV-unprocessed.smi:1702
#       Creating user name   scv26
#       Creation time:       Fri Mar 27 08:02:23 2020


#       File generated by GOLD software.
#

@<TRIPOS>MOLECULE
AV-unprocessed.smi:1702
    47    49     1
SMALL
NO_CHARGES


@<TRIPOS>ATOM
      1 ****        -3.8980   4.5215   0.8389 C.3            1 S1                 0.0000
      2 ****        -3.4375   3.0691   1.0266 C.3            1 S1                 0.0000
      3 ****        -1.9721   2.9900   1.4866 C.3            1 S1                 0.0000
      4 ****        -1.5127   1.5304   1.6419 C.3            1 S1                 0.0000
      5 ****        -1.7006   0.7694   0.3778 N.4            1 S1                 1.0000
      6 ****        -1.1607  -0.6136   0.4383 C.3            1 S1                 0.0000
      7 ****         0.3704  -0.6597   0.2660 C.3            1 S1                 0.0000
      8 ****         0.6906  -0.2154  -1.0387 O.3            1 S1                 0.0000
      9 ****         0.9243  -2.0829   0.4708 C.3            1 S1                 0.0000
     10 ****         2.3667  -2.1455   0.3130 N.pl3          1 S1                 0.0000
     11 ****         3.2950  -1.7947   1.2237 C.2            1 S1                 0.0000
     12 ****         4.5712  -1.9273   0.8751 N.2            1 S1                 0.0000
     13 ****         4.4600  -2.4279  -0.4106 C.ar           1 S1                 0.0000
     14 ****         5.4582  -2.7886  -1.3434 C.ar           1 S1                 0.0000
     15 ****         5.1029  -3.2829  -2.6157 C.ar           1 S1                 0.0000
     16 ****         6.0725  -3.6237  -3.4975 F              1 S1                 0.0000
     17 ****         3.7456  -3.4227  -2.9740 C.ar           1 S1                 0.0000
     18 ****         3.4128  -3.8976  -4.1975 F              1 S1                 0.0000
     19 ****         2.7331  -3.0687  -2.0615 C.ar           1 S1                 0.0000
     20 ****         3.0925  -2.5771  -0.7929 C.ar           1 S1                 0.0000
     21 ****        -3.1157   0.8024  -0.0730 C.3            1 S1                 0.0000
     22 ****        -3.6071   2.2475  -0.2620 C.3            1 S1                 0.0000
     23 ****        -3.3083   5.0306   0.0759 H              1 S1                 0.0000
     24 ****        -3.8012   5.0867   1.7663 H              1 S1                 0.0000
     25 ****        -4.9443   4.5657   0.5347 H              1 S1                 0.0000
     26 ****        -4.0621   2.6208   1.8009 H              1 S1                 0.0000
     27 ****        -1.3291   3.4996   0.7673 H              1 S1                 0.0000
     28 ****        -1.8499   3.5148   2.4348 H              1 S1                 0.0000
     29 ****        -0.4649   1.5211   1.9395 H              1 S1                 0.0000
     30 ****        -2.0707   1.0472   2.4456 H              1 S1                 0.0000
     31 ****        -1.4557  -1.0730   1.3831 H              1 S1                 0.0000
     32 ****        -1.6117  -1.2232  -0.3466 H              1 S1                 0.0000
     33 ****         0.8550   0.0056   0.9800 H              1 S1                 0.0000
     34 ****         1.6293  -0.2528  -1.1478 H              1 S1                 0.0000
     35 ****         0.6778  -2.4415   1.4711 H              1 S1                 0.0000
     36 ****         0.4637  -2.7799  -0.2305 H              1 S1                 0.0000
     37 ****         3.0180  -1.4163   2.1970 H              1 S1                 0.0000
     38 ****         6.5005  -2.6854  -1.0808 H              1 S1                 0.0000
     39 ****         1.6943  -3.1741  -2.3362 H              1 S1                 0.0000
     40 ****        -3.2126   0.2689  -1.0194 H              1 S1                 0.0000
     41 ****        -3.7431   0.2811   0.6519 H              1 S1                 0.0000
     42 ****        -4.6543   2.2416  -0.5664 H              1 S1                 0.0000
     43 ****        -3.0525   2.7168  -1.0762 H              1 S1                 0.0000
     44 ****        -1.1694   1.2458  -0.3376 H              1 S1                 0.0000
     45 ****         0.3743   0.7252  -1.1615 LP             1 S1                 0.0000
     46 ****         0.2490  -0.8064  -1.7138 LP             1 S1                 0.0000
     47 ****         5.3948  -1.7200   1.4030 LP             1 S1                 0.0000
@<TRIPOS>BOND
    1    1    2 1     
    2    1   23 1     
    3    1   24 1     
    4    1   25 1     
    5    2   22 1     
    6    2    3 1     
    7    2   26 1     
    8    3    4 1     
    9    3   27 1     
   10    3   28 1     
   11    4    5 1     
   12    4   29 1     
   13    4   30 1     
   14    5    6 1     
   15    5   21 1     
   16    5   44 1     
   17    6    7 1     
   18    6   31 1     
   19    6   32 1     
   20    7    8 1     
   21    7    9 1     
   22    7   33 1     
   23    8   34 1     
   24    9   10 1     
   25    9   35 1     
   26    9   36 1     
   27   10   20 1     
   28   10   11 1     
   29   11   12 2     
   30   11   37 1     
   31   12   13 1     
   32   13   20 ar    
   33   13   14 ar    
   34   14   15 ar    
   35   14   38 1     
   36   15   16 1     
   37   15   17 ar    
   38   17   18 1     
   39   17   19 ar    
   40   19   20 ar    
   41   19   39 1     
   42   21   22 1     
   43   21   40 1     
   44   21   41 1     
   45   22   42 1     
   46   22   43 1     
   47    8   45 1     
   48    8   46 1     
   49   12   47 1     
@<TRIPOS>SUBSTRUCTURE
      1 S1             1
@<TRIPOS>SET
LONE_PAIRS      STATIC     ATOMS    <user>   **** ""
3 45 46 47
DONOR_HYDROGENS      STATIC     ATOMS    <user>   **** ""
2 44 34
ATOM$BLUE        STATIC     ATOMS    COLORGROUP SYSTEM
3 45 46 47
ATOM$RED        STATIC     ATOMS    COLORGROUP SYSTEM
2 44 34
