AV-unprocessed.smi:1291|AV-procd|sdf|5393|dock2
  -GOLD-   22720 4543D 1   1.00000     0.00000
 Structure written by MMmdl.
 44 46  0  0  0  0  0  0  0  0  2 V2000
  150.4218  140.1776  154.1433 O   0  0  0  0  0  0  0  0  0  0  0  0
  151.0879  139.4661  155.1654 C   0  0  0  0  0  0  0  0  0  0  0  0
  151.4542  140.3191  156.3385 C   0  0  0  0  0  0  0  0  0  0  0  0
  151.1881  141.6485  156.4883 N   0  3  0  0  0  0  0  0  0  0  0  0
  151.6758  142.0945  157.7168 C   0  0  0  0  0  0  0  0  0  0  0  0
  151.6396  143.3538  158.3082 C   0  0  0  0  0  0  0  0  0  0  0  0
  152.2256  143.4700  159.5857 C   0  0  0  0  0  0  0  0  0  0  0  0
  152.8185  142.3618  160.2247 C   0  0  0  0  0  0  0  0  0  0  0  0
  152.8538  141.0917  159.6125 C   0  0  0  0  0  0  0  0  0  0  0  0
  152.2716  140.9841  158.3492 C   0  0  0  0  0  0  0  0  0  0  0  0
  152.1159  139.9130  157.4601 N   0  0  0  0  0  0  0  0  0  0  0  0
  152.6416  138.5849  157.8172 C   0  0  0  0  0  0  0  0  0  0  0  0
  151.8887  137.9358  158.9959 C   0  0  2  0  0  0  0  0  0  0  0  0
  152.6780  136.8976  159.5420 O   0  0  0  0  0  0  0  0  0  0  0  0
  150.5452  137.3371  158.5532 C   0  0  0  0  0  0  0  0  0  0  0  0
  149.8603  136.8501  159.6950 O   0  0  0  0  0  0  0  0  0  0  0  0
  148.5614  136.3684  159.3935 C   0  0  0  0  0  0  0  0  0  0  0  0
  147.9603  135.6274  160.5718 C   0  0  0  0  0  0  0  0  0  0  0  0
  147.7151  136.3034  161.7858 C   0  0  0  0  0  0  0  0  0  0  0  0
  147.1565  135.6139  162.8798 C   0  0  0  0  0  0  0  0  0  0  0  0
  146.8397  134.2466  162.7637 C   0  0  0  0  0  0  0  0  0  0  0  0
  147.0807  133.5693  161.5528 C   0  0  0  0  0  0  0  0  0  0  0  0
  147.6398  134.2572  160.4579 C   0  0  0  0  0  0  0  0  0  0  0  0
  147.8693  133.5966  159.2975 F   0  0  0  0  0  0  0  0  0  0  0  0
  149.5365  140.3516  154.4257 H   0  0  0  0  0  0  0  0  0  0  0  0
  150.4462  138.6516  155.5019 H   0  0  0  0  0  0  0  0  0  0  0  0
  151.9915  139.0179  154.7521 H   0  0  0  0  0  0  0  0  0  0  0  0
  151.1840  144.2033  157.8212 H   0  0  0  0  0  0  0  0  0  0  0  0
  152.2180  144.4274  160.0863 H   0  0  0  0  0  0  0  0  0  0  0  0
  153.2536  142.4868  161.2057 H   0  0  0  0  0  0  0  0  0  0  0  0
  153.3044  140.2489  160.1153 H   0  0  0  0  0  0  0  0  0  0  0  0
  152.5526  137.9565  156.9303 H   0  0  0  0  0  0  0  0  0  0  0  0
  153.7094  138.6617  158.0231 H   0  0  0  0  0  0  0  0  0  0  0  0
  151.7169  138.6892  159.7656 H   0  0  0  0  0  0  0  0  0  0  0  0
  153.2730  137.2766  160.1715 H   0  0  0  0  0  0  0  0  0  0  0  0
  149.9312  138.1118  158.0908 H   0  0  0  0  0  0  0  0  0  0  0  0
  150.6905  136.5519  157.8089 H   0  0  0  0  0  0  0  0  0  0  0  0
  147.9144  137.1998  159.1097 H   0  0  0  0  0  0  0  0  0  0  0  0
  148.6028  135.6890  158.5406 H   0  0  0  0  0  0  0  0  0  0  0  0
  147.9567  137.3516  161.8838 H   0  0  0  0  0  0  0  0  0  0  0  0
  146.9717  136.1343  163.8082 H   0  0  0  0  0  0  0  0  0  0  0  0
  146.4124  133.7176  163.6028 H   0  0  0  0  0  0  0  0  0  0  0  0
  146.8369  132.5209  161.4639 H   0  0  0  0  0  0  0  0  0  0  0  0
  150.7029  142.2039  155.7954 H   0  0  0  0  0  0  0  0  0  0  0  0
  1  2  1  0  0  0  0
  1 25  1  0  0  0  0
  2  3  1  0  0  0  0
  2 26  1  0  0  0  0
  2 27  1  0  0  0  0
  3 11  1  0  0  0  0
  3  4  2  0  0  0  0
  4  5  1  0  0  0  0
  4 44  1  0  0  0  0
  5 10  2  0  0  0  0
  5  6  1  0  0  0  0
  6  7  2  0  0  0  0
  6 28  1  0  0  0  0
  7  8  1  0  0  0  0
  7 29  1  0  0  0  0
  8  9  2  0  0  0  0
  8 30  1  0  0  0  0
  9 10  1  0  0  0  0
  9 31  1  0  0  0  0
 10 11  1  0  0  0  0
 11 12  1  0  0  0  0
 12 13  1  0  0  0  0
 12 32  1  0  0  0  0
 12 33  1  0  0  0  0
 13 14  1  0  0  0  0
 13 15  1  0  0  0  0
 13 34  1  0  0  0  0
 14 35  1  0  0  0  0
 15 16  1  0  0  0  0
 15 36  1  0  0  0  0
 15 37  1  0  0  0  0
 16 17  1  0  0  0  0
 17 18  1  0  0  0  0
 17 38  1  0  0  0  0
 17 39  1  0  0  0  0
 18 23  1  0  0  0  0
 18 19  2  0  0  0  0
 19 20  1  0  0  0  0
 19 40  1  0  0  0  0
 20 21  2  0  0  0  0
 20 41  1  0  0  0  0
 21 22  1  0  0  0  0
 21 42  1  0  0  0  0
 22 23  2  0  0  0  0
 22 43  1  0  0  0  0
 23 24  1  0  0  0  0
M  CHG  1   4   1
M  END
> <s_m_source_file>
AV-unprocessed.smi

> <i_m_source_file_index>
1291

> <i_lp_mmshare_version>
43012

> <i_f3d_flags>
0

> <s_epik_input>
W2NIXTFbY0hdW2NIXVtjSF1jKGMxMiluKGMobjIpW0NIMl1bT0hdKVtDSDJdW0NASF0oW09IXSlbQ0gyXU9bQ0gyXWMzW2NIXVtjSF1bY0hdW2NIXWMzRg==

> <s_epik_cmdline>
J2VwaWtfcHl0aG9uJywgJy1waCcsICc3LjAnLCAnLXRuJywgJzgnLCAnLW1hJywgJzIwMCcsICctbWV0YWxfYmluZGluZycsICctaW1hZScsICc8aW5maWxlLm1hZT4nLCAnLW9tYWUnLCAnPG91dGZpbGUubWFlPic=

> <r_epik_Ionization_Penalty>
1.34314

> <r_epik_Ionization_Penalty_Charging>
1.34228

> <r_epik_Ionization_Penalty_Neutral>
0.000856861

> <r_epik_State_Penalty>
1.41963

> <r_epik_Charging_Adjusted_Penalty>
2.76191

> <i_epik_Tot_Q>
1

> <i_epik_Tot_abs_Q>
1

> <r_epik_Metal_State_Penalty>
5.45585

> <b_epik_Metal_Only>
0

> <s_lp_Force_Field>
OPLS_2005

> <r_lp_Energy>
17.9638

> <b_lp_Chiralities_Consistent>
1

> <s_lp_Variant>
AV-unprocessed.smi:1291-3

> <Gold.Version>
5.8.1

> <Gold.Id.Protein>
6NUR|6NUR_protein|mol2

> <Gold.PLP.Fitness>
58.1513

> <Gold.PLP.PLP>
-52.5012

> <Gold.PLP.part.hbond>
-3.5974

> <Gold.PLP.part.metal>
0.0000

> <Gold.PLP.part.buried>
-5.8025

> <Gold.PLP.part.nonpolar>
-44.0513

> <Gold.PLP.part.repulsive>
0.1146

> <Gold.PLP.ligand.clash>
0.0000

> <Gold.PLP.ligand.torsion>
0.2650

> <Gold.PLP.Chemscore.Hbond>
2.0000

> <Gold.PLP.Chemscore.CHOScore>
0.0000

> <Gold.PLP.Chemscore.Metal>
0.0000

> <Gold.Chemscore.Hbonds>
donor molecule, donor type, donor heavy atom, donor atom, acceptor molecule, acceptor atom, score
      P1  H  6896  6907       L1    14  1.00
      P1  H  7989  7998       L1     1  0.99

> <Gold.PLP.Chemscore.Internal.Correction>
0.1800

> <Gold.Rescore>
     Score         DG    S(hbond)    S(metal)    S(lipo)     H(rot)  DE(clash)    DE(int)     intcor
     17.55     -18.90       1.88        0.00     136.31       3.44       1.09       0.26       ----

> <Gold.Chemscore.Fitness>
17.5536

> <Gold.Chemscore.DG>
-18.9025

> <Gold.Chemscore.ZeroCoef>
-5.4800

> <Gold.Chemscore.Hbond>
1.8767

> <Gold.Chemscore.Metal>
0.0000

> <Gold.Chemscore.Lipo>
136.3150

> <Gold.Chemscore.Internal_Hbond>
0.0000

> <Gold.Chemscore.DEClash>
1.0930

> <Gold.Chemscore.DEInternal>
0.2558

> <Gold.Chemscore.Rot>
3.4353

> <Gold.Chemscore.Internal.Correction>
   9.000000E+99

> <Gold.Chemscore.Hbonds>
donor molecule, donor type, donor heavy atom, donor atom, acceptor molecule, acceptor atom, score
      P1  H  6896  6907       L1    14  0.87
      P1  H  7989  7998       L1     1  0.23

> <Gold.Chemscore.Hbond.Weighted>
-6.2680

> <Gold.Chemscore.Metal.Weighted>
-0.0000

> <Gold.Chemscore.Lipo.Weighted>
-15.9489

> <Gold.Chemscore.Internal_Hbond.Weighted>
0.0000

> <Gold.Chemscore.DEClash.Weighted>
1.0930

> <Gold.Chemscore.DEInternal.Weighted>
0.2558

> <Gold.Chemscore.Rot.Weighted>
8.7944

> <Gold.Chemscore.Internal.Correction.Weighted>
   9.000000E+99

> <Gold.Protein.RotatedTorsions>
[ 6907 6896 6895 6894 ] final   19.61 input  -60.11 | X-H torsion
[ 7974 7965 7964 7962 ] final  138.01 input  175.53 | X-H torsion
[ 8008 7997 7996 7995 ] final  -14.01 input   59.86 | X-H torsion
[ 10167 10162 10161 10158 ] final  164.73 input  -65.29 | X-H torsion
[ 10718 10713 10712 10709 ] final   26.37 input   66.30 | X-H torsion
[ 10763 10752 10751 10750 ] final -133.38 input  -60.55 | X-H torsion
[ 11005 11000 10999 10996 ] final   98.99 input  -57.11 | X-H torsion

> <Gold.Protein.ActiveResidues>
 VAL166  LYS551  ARG553  GLY616  TRP617  ASP618  TYR619  PRO620  LYS621  CYS622 
 ASP623  PHE694  ASN695  SER759  ASP760  ASP761  ALA762  ILE779  LEU786  VAL792 
 PHE793  MET794  SER795  GLU796  ALA797  LYS798  CYS799  TRP800  GLU811  SER814 

> <Gold.Protein.RotatedAtoms>
  151.8836  135.0444  160.0490 H   0  0  0  0  0  0  0  0  0  0  0  0  # atno 6907 bound_to 6896
  152.2493  133.5197  159.5324 H   0  0  0  0  0  0  0  0  0  0  0  0  # atno 6908 bound_to 6896
  150.7078  134.0898  159.3970 H   0  0  0  0  0  0  0  0  0  0  0  0  # atno 6909 bound_to 6896
  144.9413  139.4927  143.5570 H   0  0  0  0  0  0  0  0  0  0  0  0  # atno 7974 bound_to 7965
  154.5245  140.2234  155.8915 H   0  0  0  0  0  0  0  0  0  0  0  0  # atno 8008 bound_to 7997
  156.1698  140.3124  155.8918 H   0  0  0  0  0  0  0  0  0  0  0  0  # atno 8009 bound_to 7997
  155.3581  140.0459  157.3037 H   0  0  0  0  0  0  0  0  0  0  0  0  # atno 8010 bound_to 7997
  139.4894  144.4205  151.9192 H   0  0  0  0  0  0  0  0  0  0  0  0  # atno 10167 bound_to 10162
  157.2059  130.6911  149.6207 H   0  0  0  0  0  0  0  0  0  0  0  0  # atno 10718 bound_to 10713
  154.8733  135.3768  154.4563 H   0  0  0  0  0  0  0  0  0  0  0  0  # atno 10763 bound_to 10752
  153.5235  135.7028  153.5724 H   0  0  0  0  0  0  0  0  0  0  0  0  # atno 10764 bound_to 10752
  153.3961  135.3960  155.1922 H   0  0  0  0  0  0  0  0  0  0  0  0  # atno 10765 bound_to 10752
  139.8771  134.9075  156.4539 H   0  0  0  0  0  0  0  0  0  0  0  0  # atno 11005 bound_to 11000
  146.3287  139.8434  142.8886 LP  0  0  0  0  0  0  0  0  0  0  0  0  # atno 17320 bound_to 7965
  145.2986  141.0188  143.3621 LP  0  0  0  0  0  0  0  0  0  0  0  0  # atno 17321 bound_to 7965
  140.3649  144.2927  150.5928 LP  0  0  0  0  0  0  0  0  0  0  0  0  # atno 17342 bound_to 10162
  140.5370  143.2231  151.8147 LP  0  0  0  0  0  0  0  0  0  0  0  0  # atno 17343 bound_to 10162
  155.9695  130.4567  150.5936 LP  0  0  0  0  0  0  0  0  0  0  0  0  # atno 17370 bound_to 10713
  157.3721  131.0767  151.1549 LP  0  0  0  0  0  0  0  0  0  0  0  0  # atno 17371 bound_to 10713
  140.8912  133.7847  155.9574 LP  0  0  0  0  0  0  0  0  0  0  0  0  # atno 17394 bound_to 11000
  140.8752  134.2679  157.5171 LP  0  0  0  0  0  0  0  0  0  0  0  0  # atno 17395 bound_to 11000

$$$$
