AV-unprocessed.smi:384|AV-procd|sdf|2465|dock2
  -GOLD-   2262022403D 1   1.00000     0.00000
 Structure written by MMmdl.
 32 33  0  0  0  0  0  0  0  0  2 V2000
  153.1194  142.6949  162.1381 C   0  0  0  0  0  0  0  0  0  0  0  0
  152.1985  142.9980  160.9518 C   0  0  2  0  0  0  0  0  0  0  0  0
  152.3117  141.9303  159.8493 C   0  0  0  0  0  0  0  0  0  0  0  0
  151.5001  142.3131  158.7027 N   0  0  0  0  0  0  0  0  0  0  0  0
  151.4178  141.3186  157.7184 C   0  0  0  0  0  0  0  0  0  0  0  0
  150.5984  141.5385  156.5927 C   0  0  0  0  0  0  0  0  0  0  0  0
  150.5140  140.5337  155.6099 C   0  0  0  0  0  0  0  0  0  0  0  0
  151.2506  139.3402  155.7801 C   0  0  0  0  0  0  0  0  0  0  0  0
  151.1908  138.2371  154.7612 C   0  0  0  0  0  0  0  0  0  0  0  0
  150.4166  138.3577  153.7858 O   0  0  0  0  0  0  0  0  0  0  0  0
  151.9181  137.2315  154.9192 O   0  5  0  0  0  0  0  0  0  0  0  0
  152.0447  139.2211  156.9436 C   0  0  0  0  0  0  0  0  0  0  0  0
  152.1303  140.1803  157.8911 N   0  0  0  0  0  0  0  0  0  0  0  0
  151.8698  143.6203  158.1760 C   0  0  0  0  0  0  0  0  0  0  0  0
  151.8053  144.6915  159.2829 C   0  0  1  0  0  0  0  0  0  0  0  0
  150.3700  145.0947  159.6649 C   0  0  0  0  0  0  0  0  0  0  0  0
  152.5660  144.2715  160.4196 O   0  0  0  0  0  0  0  0  0  0  0  0
  152.8772  141.7310  162.5864 H   0  0  0  0  0  0  0  0  0  0  0  0
  153.0197  143.4560  162.9123 H   0  0  0  0  0  0  0  0  0  0  0  0
  154.1648  142.6680  161.8297 H   0  0  0  0  0  0  0  0  0  0  0  0
  151.1733  143.0358  161.3205 H   0  0  0  0  0  0  0  0  0  0  0  0
  153.3526  141.8198  159.5415 H   0  0  0  0  0  0  0  0  0  0  0  0
  151.9820  140.9616  160.2275 H   0  0  0  0  0  0  0  0  0  0  0  0
  150.0422  142.4577  156.4826 H   0  0  0  0  0  0  0  0  0  0  0  0
  149.8884  140.6876  154.7427 H   0  0  0  0  0  0  0  0  0  0  0  0
  152.6323  138.3343  157.1316 H   0  0  0  0  0  0  0  0  0  0  0  0
  152.8846  143.5712  157.7781 H   0  0  0  0  0  0  0  0  0  0  0  0
  151.2156  143.8899  157.3458 H   0  0  0  0  0  0  0  0  0  0  0  0
  152.2944  145.5892  158.9040 H   0  0  0  0  0  0  0  0  0  0  0  0
  149.8503  145.5268  158.8096 H   0  0  0  0  0  0  0  0  0  0  0  0
  150.3752  145.8414  160.4589 H   0  0  0  0  0  0  0  0  0  0  0  0
  149.7783  144.2461  160.0069 H   0  0  0  0  0  0  0  0  0  0  0  0
  1  2  1  0  0  0  0
  1 18  1  0  0  0  0
  1 19  1  0  0  0  0
  1 20  1  0  0  0  0
  2 17  1  0  0  0  0
  2  3  1  0  0  0  0
  2 21  1  0  0  0  0
  3  4  1  0  0  0  0
  3 22  1  0  0  0  0
  3 23  1  0  0  0  0
  4  5  1  0  0  0  0
  4 14  1  0  0  0  0
  5 13  1  0  0  0  0
  5  6  2  0  0  0  0
  6  7  1  0  0  0  0
  6 24  1  0  0  0  0
  7  8  2  0  0  0  0
  7 25  1  0  0  0  0
  8  9  1  0  0  0  0
  8 12  1  0  0  0  0
  9 10  2  0  0  0  0
  9 11  1  0  0  0  0
 12 13  2  0  0  0  0
 12 26  1  0  0  0  0
 14 15  1  0  0  0  0
 14 27  1  0  0  0  0
 14 28  1  0  0  0  0
 15 16  1  0  0  0  0
 15 17  1  0  0  0  0
 15 29  1  0  0  0  0
 16 30  1  0  0  0  0
 16 31  1  0  0  0  0
 16 32  1  0  0  0  0
M  CHG  1  11  -1
M  END
> <s_m_source_file>
AV-unprocessed.smi

> <i_m_source_file_index>
384

> <i_lp_mmshare_version>
43012

> <i_f3d_flags>
0

> <s_epik_input>
W0NIM11bQ0BASF0xW0NIMl1OKFtDSDJdW0NASF0oTzEpW0NIM10pYzJbY0hdW2NIXWMoW2NIXW4yKUMoPU8pW09IXQ==

> <s_epik_cmdline>
J2VwaWtfcHl0aG9uJywgJy1waCcsICc3LjAnLCAnLXRuJywgJzgnLCAnLW1hJywgJzIwMCcsICctbWV0YWxfYmluZGluZycsICctaW1hZScsICc8aW5maWxlLm1hZT4nLCAnLW9tYWUnLCAnPG91dGZpbGUubWFlPic=

> <r_epik_Ionization_Penalty>
0.0114922

> <r_epik_Ionization_Penalty_Charging>
0.000195896

> <r_epik_Ionization_Penalty_Neutral>
0.0112963

> <r_epik_State_Penalty>
0.00868573

> <r_epik_Charging_Adjusted_Penalty>
0.00888162

> <i_epik_Tot_Q>
-1

> <i_epik_Tot_abs_Q>
1

> <r_epik_Metal_State_Penalty>
8.74964e-06

> <b_epik_Metal_Only>
0

> <s_lp_Force_Field>
OPLS_2005

> <r_lp_Energy>
19.6784

> <b_lp_Chiralities_Consistent>
1

> <s_lp_Variant>
AV-unprocessed.smi:384-1

> <Gold.Version>
5.8.1

> <Gold.Id.Protein>
6NUR|6NUR_protein|mol2

> <Gold.PLP.Fitness>
42.2201

> <Gold.PLP.PLP>
-36.6726

> <Gold.PLP.part.hbond>
-1.0000

> <Gold.PLP.part.metal>
0.0000

> <Gold.PLP.part.buried>
-4.8308

> <Gold.PLP.part.nonpolar>
-32.4787

> <Gold.PLP.part.repulsive>
0.4578

> <Gold.PLP.ligand.clash>
0.0000

> <Gold.PLP.ligand.torsion>
0.0581

> <Gold.PLP.Chemscore.Hbond>
1.8560

> <Gold.PLP.Chemscore.CHOScore>
0.0000

> <Gold.PLP.Chemscore.Metal>
0.0000

> <Gold.Chemscore.Hbonds>
donor molecule, donor type, donor heavy atom, donor atom, acceptor molecule, acceptor atom, score
      P1  H 10752 10763       L1    11  1.86

> <Gold.PLP.Chemscore.Internal.Correction>
0.0957

> <Gold.Rescore>
     Score         DG    S(hbond)    S(metal)    S(lipo)     H(rot)  DE(clash)    DE(int)     intcor
     16.57     -16.67       0.90        0.00      91.73       1.00       0.04       0.06       ----

> <Gold.Chemscore.Fitness>
16.5716

> <Gold.Chemscore.DG>
-16.6659

> <Gold.Chemscore.ZeroCoef>
-5.4800

> <Gold.Chemscore.Hbond>
0.9022

> <Gold.Chemscore.Metal>
0.0000

> <Gold.Chemscore.Lipo>
91.7317

> <Gold.Chemscore.Internal_Hbond>
0.0000

> <Gold.Chemscore.DEClash>
0.0371

> <Gold.Chemscore.DEInternal>
0.0571

> <Gold.Chemscore.Rot>
1.0000

> <Gold.Chemscore.Internal.Correction>
   9.000000E+99

> <Gold.Chemscore.Hbonds>
donor molecule, donor type, donor heavy atom, donor atom, acceptor molecule, acceptor atom, score
      P1  H 10752 10763       L1    11  0.89

> <Gold.Chemscore.Hbond.Weighted>
-3.0133

> <Gold.Chemscore.Metal.Weighted>
-0.0000

> <Gold.Chemscore.Lipo.Weighted>
-10.7326

> <Gold.Chemscore.Internal_Hbond.Weighted>
0.0000

> <Gold.Chemscore.DEClash.Weighted>
0.0371

> <Gold.Chemscore.DEInternal.Weighted>
0.0571

> <Gold.Chemscore.Rot.Weighted>
2.5600

> <Gold.Chemscore.Internal.Correction.Weighted>
   9.000000E+99

> <Gold.Protein.RotatedTorsions>
[ 6907 6896 6895 6894 ] final  147.92 input  -60.11 | X-H torsion
[ 7974 7965 7964 7962 ] final  -29.80 input  175.53 | X-H torsion
[ 8008 7997 7996 7995 ] final -100.62 input   59.86 | X-H torsion
[ 10167 10162 10161 10158 ] final  145.75 input  -65.29 | X-H torsion
[ 10718 10713 10712 10709 ] final  117.63 input   66.30 | X-H torsion
[ 10763 10752 10751 10750 ] final   48.52 input  -60.55 | X-H torsion
[ 11005 11000 10999 10996 ] final   93.06 input  -57.11 | X-H torsion

> <Gold.Protein.ActiveResidues>
 VAL166  LYS551  ARG553  GLY616  TRP617  ASP618  TYR619  PRO620  LYS621  CYS622 
 ASP623  PHE694  ASN695  SER759  ASP760  ASP761  ALA762  ILE779  LEU786  VAL792 
 PHE793  MET794  SER795  GLU796  ALA797  LYS798  CYS799  TRP800  GLU811  SER814 

> <Gold.Protein.RotatedAtoms>
  152.1484  133.4507  159.4801 H   0  0  0  0  0  0  0  0  0  0  0  0  # atno 6907 bound_to 6896
  150.6893  134.2219  159.4409 H   0  0  0  0  0  0  0  0  0  0  0  0  # atno 6908 bound_to 6896
  152.0114  134.9873  160.0619 H   0  0  0  0  0  0  0  0  0  0  0  0  # atno 6909 bound_to 6896
  146.1190  140.5459  142.8744 H   0  0  0  0  0  0  0  0  0  0  0  0  # atno 7974 bound_to 7965
  154.8312  140.0439  157.1478 H   0  0  0  0  0  0  0  0  0  0  0  0  # atno 8008 bound_to 7997
  154.9151  140.3019  155.5225 H   0  0  0  0  0  0  0  0  0  0  0  0  # atno 8009 bound_to 7997
  156.2987  140.2351  156.4194 H   0  0  0  0  0  0  0  0  0  0  0  0  # atno 8010 bound_to 7997
  139.4920  144.5879  151.6741 H   0  0  0  0  0  0  0  0  0  0  0  0  # atno 10167 bound_to 10162
  157.6083  131.1039  150.7643 H   0  0  0  0  0  0  0  0  0  0  0  0  # atno 10718 bound_to 10713
  152.9791  135.5941  154.3939 H   0  0  0  0  0  0  0  0  0  0  0  0  # atno 10763 bound_to 10752
  154.3592  135.2767  155.2331 H   0  0  0  0  0  0  0  0  0  0  0  0  # atno 10764 bound_to 10752
  154.4336  135.6030  153.6139 H   0  0  0  0  0  0  0  0  0  0  0  0  # atno 10765 bound_to 10752
  139.8815  134.8768  156.3663 H   0  0  0  0  0  0  0  0  0  0  0  0  # atno 11005 bound_to 11000
  144.7579  140.5352  143.6756 LP  0  0  0  0  0  0  0  0  0  0  0  0  # atno 17320 bound_to 7965
  145.5506  139.1476  143.3396 LP  0  0  0  0  0  0  0  0  0  0  0  0  # atno 17321 bound_to 7965
  140.5499  144.0442  150.6123 LP  0  0  0  0  0  0  0  0  0  0  0  0  # atno 17342 bound_to 10162
  140.3493  143.2973  152.0505 LP  0  0  0  0  0  0  0  0  0  0  0  0  # atno 17343 bound_to 10162
  156.8026  130.4926  149.5367 LP  0  0  0  0  0  0  0  0  0  0  0  0  # atno 17370 bound_to 10713
  156.1177  130.6087  151.0146 LP  0  0  0  0  0  0  0  0  0  0  0  0  # atno 17371 bound_to 10713
  140.9495  133.7460  156.0253 LP  0  0  0  0  0  0  0  0  0  0  0  0  # atno 17394 bound_to 11000
  140.8123  134.3385  157.5408 LP  0  0  0  0  0  0  0  0  0  0  0  0  # atno 17395 bound_to 11000

$$$$
