AV-unprocessed.smi:3204|AV-procd|sdf|12252|dock1
  -GOLD-   2272018 83D 1   1.00000     0.00000
 Structure written by MMmdl.
 30 31  0  0  0  0  0  0  0  0  1 V2000
  152.4866  142.9316  161.9222 C   0  0  0  0  0  0  0  0  0  0  0  0
  152.8153  143.3580  160.4870 C   0  0  0  0  0  0  0  0  0  0  0  0
  152.2981  142.3671  159.4608 C   0  0  0  0  0  0  0  0  0  0  0  0
  152.7895  141.1095  159.5289 N   0  0  0  0  0  0  0  0  0  0  0  0
  152.3473  140.2408  158.6166 C   0  0  0  0  0  0  0  0  0  0  0  0
  151.4702  140.4855  157.6394 N   0  0  0  0  0  0  0  0  0  0  0  0
  150.9707  141.7417  157.5557 C   0  0  0  0  0  0  0  0  0  0  0  0
  150.0526  142.0558  156.5435 N   0  0  0  0  0  0  0  0  0  0  0  0
  149.2814  141.0196  155.8631 C   0  0  2  0  0  0  0  0  0  0  0  0
  150.1247  140.1050  154.9847 C   0  0  0  0  0  0  0  0  0  0  0  0
  149.1545  139.4493  154.1801 O   0  0  0  0  0  0  0  0  0  0  0  0
  148.0571  140.3299  153.9381 C   0  0  0  0  0  0  0  0  0  0  0  0
  148.2429  141.5342  154.8720 C   0  0  2  0  0  0  0  0  0  0  0  0
  148.7220  142.6315  154.1141 O   0  0  0  0  0  0  0  0  0  0  0  0
  151.3654  142.7429  158.4691 C   0  0  0  0  0  0  0  0  0  0  0  0
  150.8767  144.0049  158.3925 F   0  0  0  0  0  0  0  0  0  0  0  0
  152.8661  143.6587  162.6402 H   0  0  0  0  0  0  0  0  0  0  0  0
  152.9359  141.9662  162.1567 H   0  0  0  0  0  0  0  0  0  0  0  0
  151.4100  142.8458  162.0715 H   0  0  0  0  0  0  0  0  0  0  0  0
  152.3813  144.3384  160.2860 H   0  0  0  0  0  0  0  0  0  0  0  0
  153.8934  143.4738  160.3730 H   0  0  0  0  0  0  0  0  0  0  0  0
  152.7399  139.2365  158.6744 H   0  0  0  0  0  0  0  0  0  0  0  0
  149.8600  143.0240  156.3306 H   0  0  0  0  0  0  0  0  0  0  0  0
  148.7836  140.3969  156.6082 H   0  0  0  0  0  0  0  0  0  0  0  0
  150.7974  140.6777  154.3441 H   0  0  0  0  0  0  0  0  0  0  0  0
  150.7181  139.3934  155.5592 H   0  0  0  0  0  0  0  0  0  0  0  0
  148.0129  140.6154  152.8860 H   0  0  0  0  0  0  0  0  0  0  0  0
  147.1350  139.7973  154.1728 H   0  0  0  0  0  0  0  0  0  0  0  0
  147.3120  141.8228  155.3608 H   0  0  0  0  0  0  0  0  0  0  0  0
  148.6385  143.4133  154.6381 H   0  0  0  0  0  0  0  0  0  0  0  0
  1  2  1  0  0  0  0
  1 17  1  0  0  0  0
  1 18  1  0  0  0  0
  1 19  1  0  0  0  0
  2  3  1  0  0  0  0
  2 20  1  0  0  0  0
  2 21  1  0  0  0  0
  3 15  1  0  0  0  0
  3  4  2  0  0  0  0
  4  5  1  0  0  0  0
  5  6  2  0  0  0  0
  5 22  1  0  0  0  0
  6  7  1  0  0  0  0
  7  8  1  0  0  0  0
  7 15  2  0  0  0  0
  8  9  1  0  0  0  0
  8 23  1  0  0  0  0
  9 13  1  0  0  0  0
  9 10  1  0  0  0  0
  9 24  1  0  0  0  0
 10 11  1  0  0  0  0
 10 25  1  0  0  0  0
 10 26  1  0  0  0  0
 11 12  1  0  0  0  0
 12 13  1  0  0  0  0
 12 27  1  0  0  0  0
 12 28  1  0  0  0  0
 13 14  1  0  0  0  0
 13 29  1  0  0  0  0
 14 30  1  0  0  0  0
 15 16  1  0  0  0  0
M  END
> <s_m_source_file>
AV-unprocessed.smi

> <i_m_source_file_index>
3204

> <i_lp_mmshare_version>
43012

> <i_f3d_flags>
0

> <s_epik_input>
W0NIM11bQ0gyXWMxbltjSF1uYyhjMUYpW05IXVtDQEBIXTJbQ0gyXU9bQ0gyXVtDQEhdMltPSF0=

> <s_epik_cmdline>
J2VwaWtfcHl0aG9uJywgJy1waCcsICc3LjAnLCAnLXRuJywgJzgnLCAnLW1hJywgJzIwMCcsICctbWV0YWxfYmluZGluZycsICctaW1hZScsICc8aW5maWxlLm1hZT4nLCAnLW9tYWUnLCAnPG91dGZpbGUubWFlPic=

> <r_lp_tautomer_probability>
1

> <r_epik_Ionization_Penalty>
0.000484964

> <r_epik_Ionization_Penalty_Charging>
0

> <r_epik_Ionization_Penalty_Neutral>
0.000484964

> <r_epik_State_Penalty>
-0

> <r_epik_Charging_Adjusted_Penalty>
0

> <i_epik_Tot_Q>
0

> <i_epik_Tot_abs_Q>
0

> <r_epik_Metal_State_Penalty>
-0

> <b_epik_Metal_Only>
0

> <s_lp_Force_Field>
OPLS_2005

> <r_lp_Energy>
19.3266

> <b_lp_Chiralities_Consistent>
1

> <s_lp_Variant>
AV-unprocessed.smi:3204-3

> <Gold.Version>
5.8.1

> <Gold.Id.Protein>
6NUR|6NUR_protein|mol2

> <Gold.PLP.Fitness>
38.7942

> <Gold.PLP.PLP>
-32.8660

> <Gold.PLP.part.hbond>
-3.6486

> <Gold.PLP.part.metal>
0.0000

> <Gold.PLP.part.buried>
-4.3503

> <Gold.PLP.part.nonpolar>
-25.6135

> <Gold.PLP.part.repulsive>
0.2318

> <Gold.PLP.ligand.clash>
0.0000

> <Gold.PLP.ligand.torsion>
0.1385

> <Gold.PLP.Chemscore.Hbond>
2.0585

> <Gold.PLP.Chemscore.CHOScore>
0.0000

> <Gold.PLP.Chemscore.Metal>
0.0000

> <Gold.Chemscore.Hbonds>
donor molecule, donor type, donor heavy atom, donor atom, acceptor molecule, acceptor atom, score
      L1  H     8    23       P1  8028  0.91
      L1  H    14    30       P1  8028  1.00
      P1  H  8011  8017       L1    14  0.06

> <Gold.PLP.Chemscore.Internal.Correction>
0.0298

> <Gold.Rescore>
     Score         DG    S(hbond)    S(metal)    S(lipo)     H(rot)  DE(clash)    DE(int)     intcor
     14.76     -16.21       2.14        0.00      70.73       1.83       0.06       1.39       ----

> <Gold.Chemscore.Fitness>
14.7607

> <Gold.Chemscore.DG>
-16.2115

> <Gold.Chemscore.ZeroCoef>
-5.4800

> <Gold.Chemscore.Hbond>
2.1408

> <Gold.Chemscore.Metal>
0.0000

> <Gold.Chemscore.Lipo>
70.7303

> <Gold.Chemscore.Internal_Hbond>
0.0000

> <Gold.Chemscore.DEClash>
0.0578

> <Gold.Chemscore.DEInternal>
1.3931

> <Gold.Chemscore.Rot>
1.8337

> <Gold.Chemscore.Internal.Correction>
   9.000000E+99

> <Gold.Chemscore.Hbonds>
donor molecule, donor type, donor heavy atom, donor atom, acceptor molecule, acceptor atom, score
      L1  H     8    23       P1  8028  0.87
      L1  H    14    30       P1  8028  1.00
      P1  H  8011  8017       L1    14  0.08

> <Gold.Chemscore.Hbond.Weighted>
-7.1503

> <Gold.Chemscore.Metal.Weighted>
-0.0000

> <Gold.Chemscore.Lipo.Weighted>
-8.2754

> <Gold.Chemscore.Internal_Hbond.Weighted>
0.0000

> <Gold.Chemscore.DEClash.Weighted>
0.0578

> <Gold.Chemscore.DEInternal.Weighted>
1.3931

> <Gold.Chemscore.Rot.Weighted>
4.6942

> <Gold.Chemscore.Internal.Correction.Weighted>
   9.000000E+99

> <Gold.Protein.RotatedTorsions>
[ 6907 6896 6895 6894 ] final  115.64 input  -60.11 | X-H torsion
[ 7974 7965 7964 7962 ] final -151.71 input  175.53 | X-H torsion
[ 8008 7997 7996 7995 ] final  -64.23 input   59.86 | X-H torsion
[ 10167 10162 10161 10158 ] final -167.50 input  -65.29 | X-H torsion
[ 10718 10713 10712 10709 ] final   81.34 input   66.30 | X-H torsion
[ 10763 10752 10751 10750 ] final -149.64 input  -60.55 | X-H torsion
[ 11005 11000 10999 10996 ] final  130.08 input  -57.11 | X-H torsion

> <Gold.Protein.ActiveResidues>
 VAL166  LYS551  ARG553  GLY616  TRP617  ASP618  TYR619  PRO620  LYS621  CYS622 
 ASP623  PHE694  ASN695  SER759  ASP760  ASP761  ALA762  ILE779  LEU786  VAL792 
 PHE793  MET794  SER795  GLU796  ALA797  LYS798  CYS799  TRP800  GLU811  SER814 

> <Gold.Protein.RotatedAtoms>
  152.4729  133.8071  159.6983 H   0  0  0  0  0  0  0  0  0  0  0  0  # atno 6907 bound_to 6896
  150.8728  133.7471  159.2962 H   0  0  0  0  0  0  0  0  0  0  0  0  # atno 6908 bound_to 6896
  151.5001  135.1064  159.9878 H   0  0  0  0  0  0  0  0  0  0  0  0  # atno 6909 bound_to 6896
  144.7834  140.4761  143.5823 H   0  0  0  0  0  0  0  0  0  0  0  0  # atno 7974 bound_to 7965
  154.4599  140.0958  156.6865 H   0  0  0  0  0  0  0  0  0  0  0  0  # atno 8008 bound_to 7997
  155.5024  140.3474  155.4355 H   0  0  0  0  0  0  0  0  0  0  0  0  # atno 8009 bound_to 7997
  156.0851  140.1383  156.9652 H   0  0  0  0  0  0  0  0  0  0  0  0  # atno 8010 bound_to 7997
  139.6045  144.0941  152.1778 H   0  0  0  0  0  0  0  0  0  0  0  0  # atno 10167 bound_to 10162
  157.6830  130.9999  150.2212 H   0  0  0  0  0  0  0  0  0  0  0  0  # atno 10718 bound_to 10713
  154.8165  135.3304  154.7160 H   0  0  0  0  0  0  0  0  0  0  0  0  # atno 10763 bound_to 10752
  153.7800  135.6919  153.4894 H   0  0  0  0  0  0  0  0  0  0  0  0  # atno 10764 bound_to 10752
  153.1987  135.4524  155.0187 H   0  0  0  0  0  0  0  0  0  0  0  0  # atno 10765 bound_to 10752
  139.9652  134.9592  156.9242 H   0  0  0  0  0  0  0  0  0  0  0  0  # atno 11005 bound_to 11000
  145.5987  139.1502  143.3141 LP  0  0  0  0  0  0  0  0  0  0  0  0  # atno 17320 bound_to 7965
  146.2054  140.6109  142.9083 LP  0  0  0  0  0  0  0  0  0  0  0  0  # atno 17321 bound_to 7965
  140.0545  144.5906  150.7310 LP  0  0  0  0  0  0  0  0  0  0  0  0  # atno 17342 bound_to 10162
  140.7275  143.2652  151.4070 LP  0  0  0  0  0  0  0  0  0  0  0  0  # atno 17343 bound_to 10162
  156.2863  130.3740  149.7885 LP  0  0  0  0  0  0  0  0  0  0  0  0  # atno 17370 bound_to 10713
  156.5558  130.8362  151.3313 LP  0  0  0  0  0  0  0  0  0  0  0  0  # atno 17371 bound_to 10713
  140.5413  134.0718  155.7342 LP  0  0  0  0  0  0  0  0  0  0  0  0  # atno 17394 bound_to 11000
  141.1331  133.9268  157.2492 LP  0  0  0  0  0  0  0  0  0  0  0  0  # atno 17395 bound_to 11000

$$$$
