#       Name:                AV-unprocessed.smi:2768
#       Creating user name   scv26
#       Creation time:       Fri Mar 27 15:10:07 2020


#       File generated by GOLD software.
#

@<TRIPOS>MOLECULE
AV-unprocessed.smi:2768
    40    41     1
SMALL
NO_CHARGES


@<TRIPOS>ATOM
      1 ****        -0.1357   2.7920   0.9183 O.2            1 S1                 0.0000
      2 ****         0.6069   1.8095   0.9282 C.2            1 S1                 0.0000
      3 ****         0.1499   0.5476   0.9909 N.am           1 S1                 0.0000
      4 ****        -1.2553   0.1499   1.0053 C.3            1 S1                 0.0000
      5 ****        -1.3938  -1.2842   1.5524 C.3            1 S1                 0.0000
      6 ****        -2.8635  -1.7324   1.5790 C.3            1 S1                 0.0000
      7 ****        -3.5072  -1.6149   0.1887 C.3            1 S1                 0.0000
      8 ****        -3.3710  -0.1893  -0.3758 C.3            1 S1                 0.0000
      9 ****        -1.9079   0.2946  -0.3929 C.3            1 S1                 0.0000
     10 ****        -1.1873  -0.4394  -1.3666 O.3            1 S1                 0.0000
     11 ****         2.1323   1.9844   0.8615 C.3            1 S1                 0.0000
     12 ****         2.4244   3.2804   0.7283 F              1 S1                 0.0000
     13 ****         2.6483   1.5643   2.0183 F              1 S1                 0.0000
     14 ****         2.7215   1.2059  -0.3145 C.ar           1 S1                 0.0000
     15 ****         3.4751   0.0272  -0.1082 C.ar           1 S1                 0.0000
     16 ****         3.9769  -0.6592  -1.2306 C.ar           1 S1                 0.0000
     17 ****         3.7087  -0.1486  -2.5145 C.ar           1 S1                 0.0000
     18 ****         2.9485   1.0322  -2.6195 C.ar           1 S1                 0.0000
     19 ****         2.4627   1.6977  -1.5501 N.ar           1 S1                 0.0000
     20 ****        -1.7823   0.8124   1.6950 H              1 S1                 0.0000
     21 ****        -1.8908   1.3405  -0.7015 H              1 S1                 0.0000
     22 ****         0.8299  -0.1989   1.0007 H              1 S1                 0.0000
     23 ****        -0.8143  -1.9760   0.9394 H              1 S1                 0.0000
     24 ****        -0.9771  -1.3420   2.5586 H              1 S1                 0.0000
     25 ****        -2.9316  -2.7612   1.9336 H              1 S1                 0.0000
     26 ****        -3.4190  -1.1222   2.2921 H              1 S1                 0.0000
     27 ****        -3.0381  -2.3267  -0.4917 H              1 S1                 0.0000
     28 ****        -4.5602  -1.8921   0.2432 H              1 S1                 0.0000
     29 ****        -3.7970  -0.1411  -1.3786 H              1 S1                 0.0000
     30 ****        -3.9627   0.4915   0.2374 H              1 S1                 0.0000
     31 ****        -0.3107  -0.0896  -1.4151 H              1 S1                 0.0000
     32 ****         3.6645  -0.3514   0.8852 H              1 S1                 0.0000
     33 ****         4.5560  -1.5627  -1.1086 H              1 S1                 0.0000
     34 ****         4.0767  -0.6497  -3.3976 H              1 S1                 0.0000
     35 ****         2.7233   1.4523  -3.5886 H              1 S1                 0.0000
     36 ****        -1.1274   2.6696   0.9579 LP             1 S1                 0.0000
     37 ****         0.2530   3.7121   0.8706 LP             1 S1                 0.0000
     38 ****        -1.6358  -0.3516  -2.2561 LP             1 S1                 0.0000
     39 ****        -1.1521  -1.4039  -1.1049 LP             1 S1                 0.0000
     40 ****         1.9252   2.5328  -1.6671 LP             1 S1                 0.0000
@<TRIPOS>BOND
    1    1    2 2     
    2    2    3 am    
    3    2   11 1     
    4    3    4 1     
    5    3   22 1     
    6    4   20 1     
    7    4    9 1     
    8    4    5 1     
    9    5    6 1     
   10    5   23 1     
   11    5   24 1     
   12    6    7 1     
   13    6   25 1     
   14    6   26 1     
   15    7    8 1     
   16    7   27 1     
   17    7   28 1     
   18    8    9 1     
   19    8   29 1     
   20    8   30 1     
   21    9   21 1     
   22    9   10 1     
   23   10   31 1     
   24   11   12 1     
   25   11   13 1     
   26   11   14 1     
   27   14   19 ar    
   28   14   15 ar    
   29   15   16 ar    
   30   15   32 1     
   31   16   17 ar    
   32   16   33 1     
   33   17   18 ar    
   34   17   34 1     
   35   18   19 ar    
   36   18   35 1     
   37    1   36 1     
   38    1   37 1     
   39   10   38 1     
   40   10   39 1     
   41   19   40 1     
@<TRIPOS>SUBSTRUCTURE
      1 S1             1
@<TRIPOS>SET
LONE_PAIRS      STATIC     ATOMS    <user>   **** ""
5 36 37 38 39 40
DONOR_HYDROGENS      STATIC     ATOMS    <user>   **** ""
2 22 31
ATOM$BLUE        STATIC     ATOMS    COLORGROUP SYSTEM
5 36 37 38 39 40
ATOM$RED        STATIC     ATOMS    COLORGROUP SYSTEM
2 22 31
