AV-unprocessed.smi:1599|AV-procd|sdf|6425|dock3
  -GOLD-   22720 7 63D 1   1.00000     0.00000
 Structure written by MMmdl.
 39 40  0  0  0  0  0  0  0  0  1 V2000
  151.6884  137.9233  155.3126 C   0  0  0  0  0  0  0  0  0  0  0  0
  150.1625  137.9489  155.1413 C   0  0  2  0  0  0  0  0  0  0  0  0
  149.7417  136.7011  154.5055 N   0  0  0  0  0  0  0  0  0  0  0  0
  149.8695  135.4717  155.0257 C   0  0  0  0  0  0  0  0  0  0  0  0
  150.3668  135.2437  156.1286 O   0  0  0  0  0  0  0  0  0  0  0  0
  149.3805  134.5382  154.1931 N   0  0  0  0  0  0  0  0  0  0  0  0
  149.3214  133.1385  154.4104 C   0  0  0  0  0  0  0  0  0  0  0  0
  149.8803  132.4670  155.5287 C   0  0  0  0  0  0  0  0  0  0  0  0
  149.6709  131.1612  155.4570 N   0  0  0  0  0  0  0  0  0  0  0  0
  148.9811  130.9770  154.3031 N   0  0  0  0  0  0  0  0  0  0  0  0
  148.5856  129.6370  153.9056 C   0  0  0  0  0  0  0  0  0  0  0  0
  147.0654  129.5150  153.7766 C   0  0  0  0  0  0  0  0  0  0  0  0
  146.3554  129.4730  154.9078 N   0  0  0  0  0  0  0  0  0  0  0  0
  146.5377  129.4504  152.6686 O   0  0  0  0  0  0  0  0  0  0  0  0
  148.7489  132.1663  153.6401 C   0  0  0  0  0  0  0  0  0  0  0  0
  149.7000  139.1640  154.3101 C   0  0  1  0  0  0  0  0  0  0  0  0
  148.2162  139.5151  154.4389 C   0  0  0  0  0  0  0  0  0  0  0  0
  148.2127  140.9707  154.0336 C   0  0  0  0  0  0  0  0  0  0  0  0
  149.5061  141.4723  154.6681 C   0  0  0  0  0  0  0  0  0  0  0  0
  150.3785  140.3462  154.7290 O   0  0  0  0  0  0  0  0  0  0  0  0
  152.0443  138.8232  155.8150 H   0  0  0  0  0  0  0  0  0  0  0  0
  152.1960  137.8583  154.3496 H   0  0  0  0  0  0  0  0  0  0  0  0
  152.0020  137.0689  155.9134 H   0  0  0  0  0  0  0  0  0  0  0  0
  149.7223  138.0232  156.1373 H   0  0  0  0  0  0  0  0  0  0  0  0
  149.3167  136.7842  153.5935 H   0  0  0  0  0  0  0  0  0  0  0  0
  148.9996  134.8641  153.3170 H   0  0  0  0  0  0  0  0  0  0  0  0
  150.4205  132.8732  156.3710 H   0  0  0  0  0  0  0  0  0  0  0  0
  149.0635  129.3859  152.9573 H   0  0  0  0  0  0  0  0  0  0  0  0
  148.9536  128.9257  154.6460 H   0  0  0  0  0  0  0  0  0  0  0  0
  145.3500  129.3879  154.8717 H   0  0  0  0  0  0  0  0  0  0  0  0
  146.8302  129.5217  155.7977 H   0  0  0  0  0  0  0  0  0  0  0  0
  148.2129  132.2038  152.7034 H   0  0  0  0  0  0  0  0  0  0  0  0
  149.9341  139.0064  153.2557 H   0  0  0  0  0  0  0  0  0  0  0  0
  147.5735  138.8956  153.8128 H   0  0  0  0  0  0  0  0  0  0  0  0
  147.8849  139.4168  155.4738 H   0  0  0  0  0  0  0  0  0  0  0  0
  148.2682  141.0564  152.9476 H   0  0  0  0  0  0  0  0  0  0  0  0
  147.3305  141.5121  154.3762 H   0  0  0  0  0  0  0  0  0  0  0  0
  149.9523  142.2920  154.1046 H   0  0  0  0  0  0  0  0  0  0  0  0
  149.3228  141.8208  155.6851 H   0  0  0  0  0  0  0  0  0  0  0  0
  1  2  1  0  0  0  0
  1 21  1  0  0  0  0
  1 22  1  0  0  0  0
  1 23  1  0  0  0  0
  2  3  1  0  0  0  0
  2 16  1  0  0  0  0
  2 24  1  0  0  0  0
  3  4  1  0  0  0  0
  3 25  1  0  0  0  0
  4  5  2  0  0  0  0
  4  6  1  0  0  0  0
  6  7  1  0  0  0  0
  6 26  1  0  0  0  0
  7 15  2  0  0  0  0
  7  8  1  0  0  0  0
  8  9  2  0  0  0  0
  8 27  1  0  0  0  0
  9 10  1  0  0  0  0
 10 11  1  0  0  0  0
 10 15  1  0  0  0  0
 11 12  1  0  0  0  0
 11 28  1  0  0  0  0
 11 29  1  0  0  0  0
 12 13  1  0  0  0  0
 12 14  2  0  0  0  0
 13 30  1  0  0  0  0
 13 31  1  0  0  0  0
 15 32  1  0  0  0  0
 16 20  1  0  0  0  0
 16 17  1  0  0  0  0
 16 33  1  0  0  0  0
 17 18  1  0  0  0  0
 17 34  1  0  0  0  0
 17 35  1  0  0  0  0
 18 19  1  0  0  0  0
 18 36  1  0  0  0  0
 18 37  1  0  0  0  0
 19 20  1  0  0  0  0
 19 38  1  0  0  0  0
 19 39  1  0  0  0  0
M  END
> <s_m_source_file>
AV-unprocessed.smi

> <i_m_source_file_index>
1599

> <i_lp_mmshare_version>
43012

> <i_f3d_flags>
0

> <s_epik_input>
TzFbQ0gyXVtDSDJdW0NIMl1bQ0BIXTFbQ0BIXShbQ0gzXSlbTkhdQyg9TylbTkhdYzJbY0hdbm4oW2NIXTIpW0NIMl1DKD1PKVtOSDJd

> <s_epik_cmdline>
J2VwaWtfcHl0aG9uJywgJy1waCcsICc3LjAnLCAnLXRuJywgJzgnLCAnLW1hJywgJzIwMCcsICctbWV0YWxfYmluZGluZycsICctaW1hZScsICc8aW5maWxlLm1hZT4nLCAnLW9tYWUnLCAnPG91dGZpbGUubWFlPic=

> <r_lp_tautomer_probability>
1

> <r_epik_Ionization_Penalty>
4.15391e-05

> <r_epik_Ionization_Penalty_Charging>
0

> <r_epik_Ionization_Penalty_Neutral>
4.15391e-05

> <r_epik_State_Penalty>
-0

> <r_epik_Charging_Adjusted_Penalty>
0

> <i_epik_Tot_Q>
0

> <i_epik_Tot_abs_Q>
0

> <r_epik_Metal_State_Penalty>
-0

> <b_epik_Metal_Only>
0

> <s_lp_Force_Field>
OPLS_2005

> <r_lp_Energy>
20.4971

> <b_lp_Chiralities_Consistent>
1

> <s_lp_Variant>
AV-unprocessed.smi:1599-3

> <Gold.Version>
5.8.1

> <Gold.Id.Protein>
6NUR|6NUR_protein|mol2

> <Gold.PLP.Fitness>
44.9044

> <Gold.PLP.PLP>
-32.4581

> <Gold.PLP.part.hbond>
-4.0000

> <Gold.PLP.part.metal>
0.0000

> <Gold.PLP.part.buried>
-3.4688

> <Gold.PLP.part.nonpolar>
-26.0443

> <Gold.PLP.part.repulsive>
0.3096

> <Gold.PLP.ligand.clash>
0.0000

> <Gold.PLP.ligand.torsion>
0.4531

> <Gold.PLP.Chemscore.Hbond>
3.8000

> <Gold.PLP.Chemscore.CHOScore>
0.6368

> <Gold.PLP.Chemscore.Metal>
0.0000

> <Gold.Chemscore.Hbonds>
donor molecule, donor type, donor heavy atom, donor atom, acceptor molecule, acceptor atom, score
      L1  H     3    25       P1  7948  1.00
      L1  H     6    26       P1  7948  0.89
      L1  H    13    30       P1 10956  0.88
      P1  H  7989  7998       L1    20  0.95
      L1  C    15    32       P1 10747  0.14

> <Gold.PLP.Chemscore.Internal.Correction>
0.0422

> <Gold.Rescore>
     Score         DG    S(hbond)    S(metal)    S(lipo)     H(rot)  DE(clash)    DE(int)     intcor
     13.91     -15.85       2.83        0.00      57.72       2.28       0.20       1.74       ----

> <Gold.Chemscore.Fitness>
13.9100

> <Gold.Chemscore.DG>
-15.8510

> <Gold.Chemscore.ZeroCoef>
-5.4800

> <Gold.Chemscore.Hbond>
2.8324

> <Gold.Chemscore.Metal>
0.0000

> <Gold.Chemscore.Lipo>
57.7215

> <Gold.Chemscore.Internal_Hbond>
0.0000

> <Gold.Chemscore.DEClash>
0.2047

> <Gold.Chemscore.DEInternal>
1.7363

> <Gold.Chemscore.Rot>
2.2823

> <Gold.Chemscore.Internal.Correction>
   9.000000E+99

> <Gold.Chemscore.Hbonds>
donor molecule, donor type, donor heavy atom, donor atom, acceptor molecule, acceptor atom, score
      L1  H     3    25       P1  7948  0.93
      L1  H     6    26       P1  7948  0.17
      L1  H    13    30       P1 10956  0.85
      P1  H  7989  7998       L1    20  0.17

> <Gold.Chemscore.Hbond.Weighted>
-9.4602

> <Gold.Chemscore.Metal.Weighted>
-0.0000

> <Gold.Chemscore.Lipo.Weighted>
-6.7534

> <Gold.Chemscore.Internal_Hbond.Weighted>
0.0000

> <Gold.Chemscore.DEClash.Weighted>
0.2047

> <Gold.Chemscore.DEInternal.Weighted>
1.7363

> <Gold.Chemscore.Rot.Weighted>
5.8427

> <Gold.Chemscore.Internal.Correction.Weighted>
   9.000000E+99

> <Gold.Protein.RotatedTorsions>
[ 6907 6896 6895 6894 ] final  155.69 input  -60.11 | X-H torsion
[ 7974 7965 7964 7962 ] final   18.80 input  175.53 | X-H torsion
[ 8008 7997 7996 7995 ] final   63.96 input   59.86 | X-H torsion
[ 10167 10162 10161 10158 ] final  -38.80 input  -65.29 | X-H torsion
[ 10718 10713 10712 10709 ] final  163.45 input   66.30 | X-H torsion
[ 10763 10752 10751 10750 ] final  -76.44 input  -60.55 | X-H torsion
[ 11005 11000 10999 10996 ] final -178.96 input  -57.11 | X-H torsion

> <Gold.Protein.ActiveResidues>
 VAL166  LYS551  ARG553  GLY616  TRP617  ASP618  TYR619  PRO620  LYS621  CYS622 
 ASP623  PHE694  ASN695  SER759  ASP760  ASP761  ALA762  ILE779  LEU786  VAL792 
 PHE793  MET794  SER795  GLU796  ALA797  LYS798  CYS799  TRP800  GLU811  SER814 

> <Gold.Protein.RotatedAtoms>
  152.0406  133.3975  159.4334 H   0  0  0  0  0  0  0  0  0  0  0  0  # atno 6907 bound_to 6896
  150.6876  134.3419  159.4881 H   0  0  0  0  0  0  0  0  0  0  0  0  # atno 6908 bound_to 6896
  152.1217  134.9200  160.0613 H   0  0  0  0  0  0  0  0  0  0  0  0  # atno 6909 bound_to 6896
  146.2172  139.8405  142.8642 H   0  0  0  0  0  0  0  0  0  0  0  0  # atno 7974 bound_to 7965
  155.6385  140.3496  155.4707 H   0  0  0  0  0  0  0  0  0  0  0  0  # atno 8008 bound_to 7997
  155.9946  140.1200  157.0630 H   0  0  0  0  0  0  0  0  0  0  0  0  # atno 8009 bound_to 7997
  154.4229  140.1113  156.5598 H   0  0  0  0  0  0  0  0  0  0  0  0  # atno 8010 bound_to 7997
  140.7082  143.3254  151.2693 H   0  0  0  0  0  0  0  0  0  0  0  0  # atno 10167 bound_to 10162
  157.1084  131.0461  151.2468 H   0  0  0  0  0  0  0  0  0  0  0  0  # atno 10718 bound_to 10713
  154.4999  135.5797  153.6523 H   0  0  0  0  0  0  0  0  0  0  0  0  # atno 10763 bound_to 10752
  152.9877  135.6133  154.3016 H   0  0  0  0  0  0  0  0  0  0  0  0  # atno 10764 bound_to 10752
  154.2922  135.2848  155.2629 H   0  0  0  0  0  0  0  0  0  0  0  0  # atno 10765 bound_to 10752
  140.4240  134.6580  157.4678 H   0  0  0  0  0  0  0  0  0  0  0  0  # atno 11005 bound_to 11000
  145.2904  141.0165  143.3666 LP  0  0  0  0  0  0  0  0  0  0  0  0  # atno 17320 bound_to 7965
  144.9082  139.4563  143.6600 LP  0  0  0  0  0  0  0  0  0  0  0  0  # atno 17321 bound_to 7965
  139.6720  144.0003  152.2759 LP  0  0  0  0  0  0  0  0  0  0  0  0  # atno 17342 bound_to 10162
  139.9605  144.6561  150.8084 LP  0  0  0  0  0  0  0  0  0  0  0  0  # atno 17343 bound_to 10162
  157.4581  130.7637  149.7211 LP  0  0  0  0  0  0  0  0  0  0  0  0  # atno 17370 bound_to 10713
  155.9856  130.3981  150.3251 LP  0  0  0  0  0  0  0  0  0  0  0  0  # atno 17371 bound_to 10713
  140.0180  134.6589  155.9281 LP  0  0  0  0  0  0  0  0  0  0  0  0  # atno 17394 bound_to 11000
  141.1773  133.6542  156.4878 LP  0  0  0  0  0  0  0  0  0  0  0  0  # atno 17395 bound_to 11000

$$$$
