AV-unprocessed.smi:2082|AV-procd|sdf|8489|dock9
  -GOLD-   2272011193D 1   1.00000     0.00000
 Structure written by MMmdl.
 39 40  0  0  0  0  0  0  0  0  1 V2000
  144.8818  135.5645  150.9663 C   0  0  0  0  0  0  0  0  0  0  0  0
  145.9665  136.1134  151.6937 O   0  0  0  0  0  0  0  0  0  0  0  0
  145.9293  137.5302  151.7385 C   0  0  0  0  0  0  0  0  0  0  0  0
  146.7394  138.0150  152.9442 C   0  0  0  0  0  0  0  0  0  0  0  0
  146.6907  139.4380  152.9842 O   0  0  0  0  0  0  0  0  0  0  0  0
  147.5787  140.1062  153.8016 C   0  0  0  0  0  0  0  0  0  0  0  0
  148.8371  139.5220  154.0475 C   0  0  0  0  0  0  0  0  0  0  0  0
  149.7502  140.1957  154.8811 C   0  0  0  0  0  0  0  0  0  0  0  0
  149.3694  141.4335  155.4517 C   0  0  0  0  0  0  0  0  0  0  0  0
  150.2063  142.2204  156.2873 N   0  0  0  0  0  0  0  0  0  0  0  0
  151.1963  141.8207  157.1102 C   0  0  0  0  0  0  0  0  0  0  0  0
  151.4727  140.6360  157.3013 O   0  0  0  0  0  0  0  0  0  0  0  0
  151.8327  142.8349  157.7529 N   0  0  0  0  0  0  0  0  0  0  0  0
  151.6082  144.2702  157.5227 C   0  0  0  0  0  0  0  0  0  0  0  0
  150.9035  144.8508  158.7608 C   0  0  0  0  0  0  0  0  0  0  0  0
  151.5392  144.4206  160.0074 N   0  0  0  0  0  0  0  0  0  0  0  0
  152.4008  143.3931  160.1267 C   0  0  0  0  0  0  0  0  0  0  0  0
  152.9059  143.0979  161.2071 O   0  0  0  0  0  0  0  0  0  0  0  0
  152.7557  142.5739  158.8702 C   0  0  0  0  0  0  0  0  0  0  0  0
  148.0928  141.9393  155.1312 C   0  0  0  0  0  0  0  0  0  0  0  0
  147.2126  141.2984  154.3339 N   0  0  0  0  0  0  0  0  0  0  0  0
  144.9590  134.4773  150.9584 H   0  0  0  0  0  0  0  0  0  0  0  0
  144.8841  135.9099  149.9317 H   0  0  0  0  0  0  0  0  0  0  0  0
  143.9274  135.8305  151.4225 H   0  0  0  0  0  0  0  0  0  0  0  0
  146.3662  137.9287  150.8217 H   0  0  0  0  0  0  0  0  0  0  0  0
  144.9026  137.8948  151.7985 H   0  0  0  0  0  0  0  0  0  0  0  0
  146.3469  137.5758  153.8631 H   0  0  0  0  0  0  0  0  0  0  0  0
  147.7754  137.6911  152.8329 H   0  0  0  0  0  0  0  0  0  0  0  0
  149.1001  138.5752  153.5996 H   0  0  0  0  0  0  0  0  0  0  0  0
  150.7221  139.7597  155.0522 H   0  0  0  0  0  0  0  0  0  0  0  0
  150.0003  143.2087  156.2973 H   0  0  0  0  0  0  0  0  0  0  0  0
  152.5799  144.7507  157.3966 H   0  0  0  0  0  0  0  0  0  0  0  0
  151.0511  144.5113  156.6173 H   0  0  0  0  0  0  0  0  0  0  0  0
  150.8968  145.9401  158.7176 H   0  0  0  0  0  0  0  0  0  0  0  0
  149.8620  144.5279  158.7816 H   0  0  0  0  0  0  0  0  0  0  0  0
  151.3128  144.9446  160.8405 H   0  0  0  0  0  0  0  0  0  0  0  0
  152.7933  141.5224  159.1588 H   0  0  0  0  0  0  0  0  0  0  0  0
  153.7657  142.8403  158.5571 H   0  0  0  0  0  0  0  0  0  0  0  0
  147.7626  142.8873  155.5303 H   0  0  0  0  0  0  0  0  0  0  0  0
  1  2  1  0  0  0  0
  1 22  1  0  0  0  0
  1 23  1  0  0  0  0
  1 24  1  0  0  0  0
  2  3  1  0  0  0  0
  3  4  1  0  0  0  0
  3 25  1  0  0  0  0
  3 26  1  0  0  0  0
  4  5  1  0  0  0  0
  4 27  1  0  0  0  0
  4 28  1  0  0  0  0
  5  6  1  0  0  0  0
  6 21  1  0  0  0  0
  6  7  2  0  0  0  0
  7  8  1  0  0  0  0
  7 29  1  0  0  0  0
  8  9  2  0  0  0  0
  8 30  1  0  0  0  0
  9 10  1  0  0  0  0
  9 20  1  0  0  0  0
 10 11  1  0  0  0  0
 10 31  1  0  0  0  0
 11 12  2  0  0  0  0
 11 13  1  0  0  0  0
 13 19  1  0  0  0  0
 13 14  1  0  0  0  0
 14 15  1  0  0  0  0
 14 32  1  0  0  0  0
 14 33  1  0  0  0  0
 15 16  1  0  0  0  0
 15 34  1  0  0  0  0
 15 35  1  0  0  0  0
 16 17  1  0  0  0  0
 16 36  1  0  0  0  0
 17 18  2  0  0  0  0
 17 19  1  0  0  0  0
 19 37  1  0  0  0  0
 19 38  1  0  0  0  0
 20 21  2  0  0  0  0
 20 39  1  0  0  0  0
M  END
> <s_m_source_file>
AV-unprocessed.smi

> <i_m_source_file_index>
2082

> <i_lp_mmshare_version>
43012

> <i_f3d_flags>
0

> <s_epik_input>
W0NIM11PW0NIMl1bQ0gyXU9jMVtjSF1bY0hdYyhbY0hdbjEpW05IXUMoPU8pTjJbQ0gyXVtDSDJdW05IXUMoPU8pW0NIMl0y

> <s_epik_cmdline>
J2VwaWtfcHl0aG9uJywgJy1waCcsICc3LjAnLCAnLXRuJywgJzgnLCAnLW1hJywgJzIwMCcsICctbWV0YWxfYmluZGluZycsICctaW1hZScsICc8aW5maWxlLm1hZT4nLCAnLW9tYWUnLCAnPG91dGZpbGUubWFlPic=

> <r_lp_tautomer_probability>
1

> <r_epik_Ionization_Penalty>
5.92413e-05

> <r_epik_Ionization_Penalty_Charging>
0

> <r_epik_Ionization_Penalty_Neutral>
5.92413e-05

> <r_epik_State_Penalty>
-0

> <r_epik_Charging_Adjusted_Penalty>
0

> <i_epik_Tot_Q>
0

> <i_epik_Tot_abs_Q>
0

> <r_epik_Metal_State_Penalty>
-0

> <b_epik_Metal_Only>
0

> <s_lp_Force_Field>
OPLS_2005

> <r_lp_Energy>
31.1837

> <b_lp_Chiralities_Consistent>
1

> <s_lp_Variant>
AV-unprocessed.smi:2082-1

> <Gold.Version>
5.8.1

> <Gold.Id.Protein>
6NUR|6NUR_protein|mol2

> <Gold.PLP.Fitness>
40.0837

> <Gold.PLP.PLP>
-35.5385

> <Gold.PLP.part.hbond>
-1.0000

> <Gold.PLP.part.metal>
0.0000

> <Gold.PLP.part.buried>
-1.6659

> <Gold.PLP.part.nonpolar>
-35.0344

> <Gold.PLP.part.repulsive>
1.5215

> <Gold.PLP.ligand.clash>
0.0000

> <Gold.PLP.ligand.torsion>
0.7318

> <Gold.PLP.Chemscore.Hbond>
0.9920

> <Gold.PLP.Chemscore.CHOScore>
1.0000

> <Gold.PLP.Chemscore.Metal>
0.0000

> <Gold.Chemscore.Hbonds>
donor molecule, donor type, donor heavy atom, donor atom, acceptor molecule, acceptor atom, score
      L1  H    10    31       P1  8028  0.99
      L1  C    20    39       P1  8028  0.97

> <Gold.PLP.Chemscore.Internal.Correction>
0.0328

> <Gold.Rescore>
     Score         DG    S(hbond)    S(metal)    S(lipo)     H(rot)  DE(clash)    DE(int)     intcor
     10.57     -12.70       0.98        0.00      73.33       1.81       0.44       1.69       ----

> <Gold.Chemscore.Fitness>
10.5728

> <Gold.Chemscore.DG>
-12.6972

> <Gold.Chemscore.ZeroCoef>
-5.4800

> <Gold.Chemscore.Hbond>
0.9789

> <Gold.Chemscore.Metal>
0.0000

> <Gold.Chemscore.Lipo>
73.3332

> <Gold.Chemscore.Internal_Hbond>
0.0000

> <Gold.Chemscore.DEClash>
0.4386

> <Gold.Chemscore.DEInternal>
1.6858

> <Gold.Chemscore.Rot>
1.8095

> <Gold.Chemscore.Internal.Correction>
   9.000000E+99

> <Gold.Chemscore.Hbonds>
donor molecule, donor type, donor heavy atom, donor atom, acceptor molecule, acceptor atom, score
      L1  H    10    31       P1  8028  0.92

> <Gold.Chemscore.Hbond.Weighted>
-3.2695

> <Gold.Chemscore.Metal.Weighted>
-0.0000

> <Gold.Chemscore.Lipo.Weighted>
-8.5800

> <Gold.Chemscore.Internal_Hbond.Weighted>
0.0000

> <Gold.Chemscore.DEClash.Weighted>
0.4386

> <Gold.Chemscore.DEInternal.Weighted>
1.6858

> <Gold.Chemscore.Rot.Weighted>
4.6322

> <Gold.Chemscore.Internal.Correction.Weighted>
   9.000000E+99

> <Gold.Protein.RotatedTorsions>
[ 6907 6896 6895 6894 ] final   50.20 input  -60.11 | X-H torsion
[ 7974 7965 7964 7962 ] final -124.63 input  175.53 | X-H torsion
[ 8008 7997 7996 7995 ] final    4.30 input   59.86 | X-H torsion
[ 10167 10162 10161 10158 ] final -148.24 input  -65.29 | X-H torsion
[ 10718 10713 10712 10709 ] final  -36.62 input   66.30 | X-H torsion
[ 10763 10752 10751 10750 ] final  142.95 input  -60.55 | X-H torsion
[ 11005 11000 10999 10996 ] final -119.38 input  -57.11 | X-H torsion

> <Gold.Protein.ActiveResidues>
 VAL166  LYS551  ARG553  GLY616  TRP617  ASP618  TYR619  PRO620  LYS621  CYS622 
 ASP623  PHE694  ASN695  SER759  ASP760  ASP761  ALA762  ILE779  LEU786  VAL792 
 PHE793  MET794  SER795  GLU796  ALA797  LYS798  CYS799  TRP800  GLU811  SER814 

> <Gold.Protein.RotatedAtoms>
  152.2992  134.7631  160.0361 H   0  0  0  0  0  0  0  0  0  0  0  0  # atno 6907 bound_to 6896
  151.8150  133.3381  159.3575 H   0  0  0  0  0  0  0  0  0  0  0  0  # atno 6908 bound_to 6896
  150.7266  134.5557  159.5861 H   0  0  0  0  0  0  0  0  0  0  0  0  # atno 6909 bound_to 6896
  145.0060  140.7863  143.4467 H   0  0  0  0  0  0  0  0  0  0  0  0  # atno 7974 bound_to 7965
  154.7142  140.2699  155.6601 H   0  0  0  0  0  0  0  0  0  0  0  0  # atno 8008 bound_to 7997
  156.2804  140.2747  156.1718 H   0  0  0  0  0  0  0  0  0  0  0  0  # atno 8009 bound_to 7997
  155.0594  140.0371  157.2561 H   0  0  0  0  0  0  0  0  0  0  0  0  # atno 8010 bound_to 7997
  139.7550  143.8462  152.2595 H   0  0  0  0  0  0  0  0  0  0  0  0  # atno 10167 bound_to 10162
  156.3248  130.4270  149.7927 H   0  0  0  0  0  0  0  0  0  0  0  0  # atno 10718 bound_to 10713
  153.9642  135.2957  155.3431 H   0  0  0  0  0  0  0  0  0  0  0  0  # atno 10763 bound_to 10752
  154.7358  135.5047  153.9042 H   0  0  0  0  0  0  0  0  0  0  0  0  # atno 10764 bound_to 10752
  153.0931  135.6713  153.9925 H   0  0  0  0  0  0  0  0  0  0  0  0  # atno 10765 bound_to 10752
  141.0219  134.0111  157.3270 H   0  0  0  0  0  0  0  0  0  0  0  0  # atno 11005 bound_to 11000
  145.2088  139.2215  143.5154 LP  0  0  0  0  0  0  0  0  0  0  0  0  # atno 17320 bound_to 7965
  146.3461  140.1921  142.8589 LP  0  0  0  0  0  0  0  0  0  0  0  0  # atno 17321 bound_to 7965
  139.8451  144.7191  150.9282 LP  0  0  0  0  0  0  0  0  0  0  0  0  # atno 17342 bound_to 10162
  140.7802  143.3948  151.1248 LP  0  0  0  0  0  0  0  0  0  0  0  0  # atno 17343 bound_to 10162
  156.5221  130.8220  151.3207 LP  0  0  0  0  0  0  0  0  0  0  0  0  # atno 17370 bound_to 10713
  157.7419  130.9879  150.2477 LP  0  0  0  0  0  0  0  0  0  0  0  0  # atno 17371 bound_to 10713
  139.9151  135.0196  156.7850 LP  0  0  0  0  0  0  0  0  0  0  0  0  # atno 17394 bound_to 11000
  140.6558  133.9690  155.7778 LP  0  0  0  0  0  0  0  0  0  0  0  0  # atno 17395 bound_to 11000

$$$$
