#       Name:                AV-unprocessed.smi:3119
#       Creating user name   scv26
#       Creation time:       Fri Mar 27 17:27:55 2020


#       File generated by GOLD software.
#

@<TRIPOS>MOLECULE
AV-unprocessed.smi:3119
    34    35     1
SMALL
NO_CHARGES


@<TRIPOS>ATOM
      1 ****        -1.0131   1.4925   0.9078 O.2            1 S1                 0.0000
      2 ****        -1.5364   0.3888   0.7490 C.2            1 S1                 0.0000
      3 ****        -0.8322  -0.7348   0.5459 N.am           1 S1                 0.0000
      4 ****         0.6233  -0.8101   0.4870 C.3            1 S1                 0.0000
      5 ****         1.1591  -0.3858  -0.8907 C.3            1 S1                 0.0000
      6 ****         2.6720  -0.4671  -0.9683 C.ar           1 S1                 0.0000
      7 ****         3.3054  -1.5727  -1.5753 C.ar           1 S1                 0.0000
      8 ****         4.7130  -1.6005  -1.6149 C.ar           1 S1                 0.0000
      9 ****         5.4292  -0.5284  -1.0486 C.ar           1 S1                 0.0000
     10 ****         4.7028   0.5284  -0.4645 C.ar           1 S1                 0.0000
     11 ****         3.3536   0.5643  -0.4203 N.ar           1 S1                 0.0000
     12 ****        -3.0626   0.2322   0.7761 C.3            1 S1                 0.0000
     13 ****        -3.8172   1.1869  -0.1655 C.3            1 S1                 0.0000
     14 ****        -4.8154   1.4496   0.9661 C.3            1 S1                 0.0000
     15 ****        -3.7610   0.9383   1.9521 C.3            1 S1                 0.0000
     16 ****        -1.3408  -1.5989   0.4254 H              1 S1                 0.0000
     17 ****         1.0602  -0.1947   1.2754 H              1 S1                 0.0000
     18 ****         0.9182  -1.8383   0.6980 H              1 S1                 0.0000
     19 ****         0.7248  -1.0148  -1.6689 H              1 S1                 0.0000
     20 ****         0.8529   0.6364  -1.1179 H              1 S1                 0.0000
     21 ****         2.7289  -2.3817  -1.9997 H              1 S1                 0.0000
     22 ****         5.2338  -2.4297  -2.0708 H              1 S1                 0.0000
     23 ****         6.5091  -0.5156  -1.0613 H              1 S1                 0.0000
     24 ****         5.2190   1.3669  -0.0205 H              1 S1                 0.0000
     25 ****        -3.3974  -0.8009   0.6648 H              1 S1                 0.0000
     26 ****        -3.2548   2.0793  -0.4464 H              1 S1                 0.0000
     27 ****        -4.2553   0.7034  -1.0391 H              1 S1                 0.0000
     28 ****        -5.0900   2.4966   1.0968 H              1 S1                 0.0000
     29 ****        -5.6926   0.8031   0.9140 H              1 S1                 0.0000
     30 ****        -4.1562   0.2629   2.7111 H              1 S1                 0.0000
     31 ****        -3.1812   1.7457   2.4028 H              1 S1                 0.0000
     32 ****        -0.0172   1.5811   0.8886 LP             1 S1                 0.0000
     33 ****        -1.5841   2.2999   1.0559 LP             1 S1                 0.0000
     34 ****         2.8727   1.3309   0.0051 LP             1 S1                 0.0000
@<TRIPOS>BOND
    1    1    2 2     
    2    2    3 am    
    3    2   12 1     
    4    3    4 1     
    5    3   16 1     
    6    4    5 1     
    7    4   17 1     
    8    4   18 1     
    9    5    6 1     
   10    5   19 1     
   11    5   20 1     
   12    6   11 ar    
   13    6    7 ar    
   14    7    8 ar    
   15    7   21 1     
   16    8    9 ar    
   17    8   22 1     
   18    9   10 ar    
   19    9   23 1     
   20   10   11 ar    
   21   10   24 1     
   22   12   15 1     
   23   12   13 1     
   24   12   25 1     
   25   13   14 1     
   26   13   26 1     
   27   13   27 1     
   28   14   15 1     
   29   14   28 1     
   30   14   29 1     
   31   15   30 1     
   32   15   31 1     
   33    1   32 1     
   34    1   33 1     
   35   11   34 1     
@<TRIPOS>SUBSTRUCTURE
      1 S1             1
@<TRIPOS>SET
LONE_PAIRS      STATIC     ATOMS    <user>   **** ""
3 32 33 34
DONOR_HYDROGENS      STATIC     ATOMS    <user>   **** ""
1 16
ATOM$BLUE        STATIC     ATOMS    COLORGROUP SYSTEM
3 32 33 34
ATOM$RED        STATIC     ATOMS    COLORGROUP SYSTEM
1 16
