AV-unprocessed.smi:2195|AV-procd|sdf|8904|dock1
  -GOLD-   2272012113D 1   1.00000     0.00000
 Structure written by MMmdl.
 39 41  0  0  0  0  0  0  0  0  1 V2000
  152.4474  143.8759  161.8392 C   0  0  0  0  0  0  0  0  0  0  0  0
  152.5295  142.8209  160.7555 C   0  0  0  0  0  0  0  0  0  0  0  0
  153.4965  141.7984  160.8237 C   0  0  0  0  0  0  0  0  0  0  0  0
  153.5631  140.8216  159.8119 C   0  0  0  0  0  0  0  0  0  0  0  0
  152.6699  140.8479  158.7216 C   0  0  0  0  0  0  0  0  0  0  0  0
  152.8064  139.8514  157.7798 O   0  0  0  0  0  0  0  0  0  0  0  0
  151.8396  139.7669  156.7401 C   0  0  0  0  0  0  0  0  0  0  0  0
  152.0896  138.5076  155.8941 C   0  0  2  0  0  0  0  0  0  0  0  0
  153.4219  138.5196  155.4201 O   0  0  0  0  0  0  0  0  0  0  0  0
  151.0828  138.3266  154.7413 C   0  0  0  0  0  0  0  0  0  0  0  0
  149.7086  138.2984  155.2087 N   0  0  0  0  0  0  0  0  0  0  0  0
  149.1073  137.3058  155.8921 C   0  0  0  0  0  0  0  0  0  0  0  0
  147.8323  137.4815  156.2272 N   0  0  0  0  0  0  0  0  0  0  0  0
  147.5760  138.7362  155.7015 C   0  0  0  0  0  0  0  0  0  0  0  0
  146.3945  139.5114  155.7136 C   0  0  0  0  0  0  0  0  0  0  0  0
  146.3676  140.7822  155.1021 C   0  0  0  0  0  0  0  0  0  0  0  0
  147.5185  141.2963  154.4700 C   0  0  0  0  0  0  0  0  0  0  0  0
  148.7074  140.5422  154.4450 C   0  0  0  0  0  0  0  0  0  0  0  0
  148.7304  139.2752  155.0569 C   0  0  0  0  0  0  0  0  0  0  0  0
  151.7005  141.8805  158.6576 C   0  0  0  0  0  0  0  0  0  0  0  0
  151.6339  142.8587  159.6690 C   0  0  0  0  0  0  0  0  0  0  0  0
  153.1654  143.6841  162.6372 H   0  0  0  0  0  0  0  0  0  0  0  0
  151.4488  143.8907  162.2765 H   0  0  0  0  0  0  0  0  0  0  0  0
  152.6552  144.8617  161.4225 H   0  0  0  0  0  0  0  0  0  0  0  0
  154.1904  141.7570  161.6506 H   0  0  0  0  0  0  0  0  0  0  0  0
  154.3071  140.0410  159.8742 H   0  0  0  0  0  0  0  0  0  0  0  0
  150.8257  139.7568  157.1439 H   0  0  0  0  0  0  0  0  0  0  0  0
  151.9321  140.6446  156.0981 H   0  0  0  0  0  0  0  0  0  0  0  0
  152.0138  137.6459  156.5584 H   0  0  0  0  0  0  0  0  0  0  0  0
  154.0044  138.4345  156.1594 H   0  0  0  0  0  0  0  0  0  0  0  0
  151.1825  139.1430  154.0249 H   0  0  0  0  0  0  0  0  0  0  0  0
  151.2821  137.4053  154.1928 H   0  0  0  0  0  0  0  0  0  0  0  0
  149.6360  136.4017  156.1568 H   0  0  0  0  0  0  0  0  0  0  0  0
  145.5069  139.1273  156.1941 H   0  0  0  0  0  0  0  0  0  0  0  0
  145.4586  141.3652  155.1176 H   0  0  0  0  0  0  0  0  0  0  0  0
  147.4875  142.2703  154.0037 H   0  0  0  0  0  0  0  0  0  0  0  0
  149.5900  140.9324  153.9601 H   0  0  0  0  0  0  0  0  0  0  0  0
  150.9964  141.9454  157.8423 H   0  0  0  0  0  0  0  0  0  0  0  0
  150.8905  143.6401  159.6084 H   0  0  0  0  0  0  0  0  0  0  0  0
  1  2  1  0  0  0  0
  1 22  1  0  0  0  0
  1 23  1  0  0  0  0
  1 24  1  0  0  0  0
  2 21  1  0  0  0  0
  2  3  2  0  0  0  0
  3  4  1  0  0  0  0
  3 25  1  0  0  0  0
  4  5  2  0  0  0  0
  4 26  1  0  0  0  0
  5  6  1  0  0  0  0
  5 20  1  0  0  0  0
  6  7  1  0  0  0  0
  7  8  1  0  0  0  0
  7 27  1  0  0  0  0
  7 28  1  0  0  0  0
  8  9  1  0  0  0  0
  8 10  1  0  0  0  0
  8 29  1  0  0  0  0
  9 30  1  0  0  0  0
 10 11  1  0  0  0  0
 10 31  1  0  0  0  0
 10 32  1  0  0  0  0
 11 19  1  0  0  0  0
 11 12  1  0  0  0  0
 12 13  2  0  0  0  0
 12 33  1  0  0  0  0
 13 14  1  0  0  0  0
 14 19  2  0  0  0  0
 14 15  1  0  0  0  0
 15 16  2  0  0  0  0
 15 34  1  0  0  0  0
 16 17  1  0  0  0  0
 16 35  1  0  0  0  0
 17 18  2  0  0  0  0
 17 36  1  0  0  0  0
 18 19  1  0  0  0  0
 18 37  1  0  0  0  0
 20 21  2  0  0  0  0
 20 38  1  0  0  0  0
 21 39  1  0  0  0  0
M  END
> <s_m_source_file>
AV-unprocessed.smi

> <i_m_source_file_index>
2195

> <i_lp_mmshare_version>
43012

> <i_f3d_flags>
0

> <s_epik_input>
W0NIM11jMVtjSF1bY0hdYyhbY0hdW2NIXTEpT1tDSDJdW0NASF0oW09IXSlbQ0gyXW4oW2NIXW4yKWMoYzIzKVtjSF1bY0hdW2NIXVtjSF0z

> <s_epik_cmdline>
J2VwaWtfcHl0aG9uJywgJy1waCcsICc3LjAnLCAnLXRuJywgJzgnLCAnLW1hJywgJzIwMCcsICctbWV0YWxfYmluZGluZycsICctaW1hZScsICc8aW5maWxlLm1hZT4nLCAnLW9tYWUnLCAnPG91dGZpbGUubWFlPic=

> <r_lp_tautomer_probability>
1

> <r_epik_Ionization_Penalty>
0.0609831

> <r_epik_Ionization_Penalty_Charging>
0

> <r_epik_Ionization_Penalty_Neutral>
0.0609831

> <r_epik_State_Penalty>
0.0529032

> <r_epik_Charging_Adjusted_Penalty>
0.0529032

> <i_epik_Tot_Q>
0

> <i_epik_Tot_abs_Q>
0

> <r_epik_Metal_State_Penalty>
5.53344e-05

> <b_epik_Metal_Only>
0

> <s_lp_Force_Field>
OPLS_2005

> <r_lp_Energy>
15.928

> <b_lp_Chiralities_Consistent>
1

> <s_lp_Variant>
AV-unprocessed.smi:2195-1

> <Gold.Version>
5.8.1

> <Gold.Id.Protein>
6NUR|6NUR_protein|mol2

> <Gold.PLP.Fitness>
47.2497

> <Gold.PLP.PLP>
-44.5583

> <Gold.PLP.part.hbond>
-2.0000

> <Gold.PLP.part.metal>
0.0000

> <Gold.PLP.part.buried>
-3.5059

> <Gold.PLP.part.nonpolar>
-37.4715

> <Gold.PLP.part.repulsive>
0.0314

> <Gold.PLP.ligand.clash>
0.0000

> <Gold.PLP.ligand.torsion>
0.1872

> <Gold.PLP.Chemscore.Hbond>
1.0000

> <Gold.PLP.Chemscore.CHOScore>
0.0000

> <Gold.PLP.Chemscore.Metal>
0.0000

> <Gold.Chemscore.Hbonds>
donor molecule, donor type, donor heavy atom, donor atom, acceptor molecule, acceptor atom, score
      P1  H  7997  8009       L1     6  1.00

> <Gold.PLP.Chemscore.Internal.Correction>
0.0659

> <Gold.Rescore>
     Score         DG    S(hbond)    S(metal)    S(lipo)     H(rot)  DE(clash)    DE(int)     intcor
     15.18     -15.46       0.46        0.00     120.02       2.19       0.04       0.24       ----

> <Gold.Chemscore.Fitness>
15.1809

> <Gold.Chemscore.DG>
-15.4613

> <Gold.Chemscore.ZeroCoef>
-5.4800

> <Gold.Chemscore.Hbond>
0.4611

> <Gold.Chemscore.Metal>
0.0000

> <Gold.Chemscore.Lipo>
120.0158

> <Gold.Chemscore.Internal_Hbond>
0.0000

> <Gold.Chemscore.DEClash>
0.0436

> <Gold.Chemscore.DEInternal>
0.2367

> <Gold.Chemscore.Rot>
2.1877

> <Gold.Chemscore.Internal.Correction>
   9.000000E+99

> <Gold.Chemscore.Hbonds>
donor molecule, donor type, donor heavy atom, donor atom, acceptor molecule, acceptor atom, score
      P1  H  7997  8009       L1     6  0.21

> <Gold.Chemscore.Hbond.Weighted>
-1.5399

> <Gold.Chemscore.Metal.Weighted>
-0.0000

> <Gold.Chemscore.Lipo.Weighted>
-14.0419

> <Gold.Chemscore.Internal_Hbond.Weighted>
0.0000

> <Gold.Chemscore.DEClash.Weighted>
0.0436

> <Gold.Chemscore.DEInternal.Weighted>
0.2367

> <Gold.Chemscore.Rot.Weighted>
5.6005

> <Gold.Chemscore.Internal.Correction.Weighted>
   9.000000E+99

> <Gold.Protein.RotatedTorsions>
[ 6907 6896 6895 6894 ] final  -55.62 input  -60.11 | X-H torsion
[ 7974 7965 7964 7962 ] final  120.02 input  175.53 | X-H torsion
[ 8008 7997 7996 7995 ] final  175.73 input   59.86 | X-H torsion
[ 10167 10162 10161 10158 ] final   51.97 input  -65.29 | X-H torsion
[ 10718 10713 10712 10709 ] final -108.81 input   66.30 | X-H torsion
[ 10763 10752 10751 10750 ] final -175.35 input  -60.55 | X-H torsion
[ 11005 11000 10999 10996 ] final -164.47 input  -57.11 | X-H torsion

> <Gold.Protein.ActiveResidues>
 VAL166  LYS551  ARG553  GLY616  TRP617  ASP618  TYR619  PRO620  LYS621  CYS622 
 ASP623  PHE694  ASN695  SER759  ASP760  ASP761  ALA762  ILE779  LEU786  VAL792 
 PHE793  MET794  SER795  GLU796  ALA797  LYS798  CYS799  TRP800  GLU811  SER814 

> <Gold.Protein.RotatedAtoms>
  150.8236  134.7456  159.6793 H   0  0  0  0  0  0  0  0  0  0  0  0  # atno 6907 bound_to 6896
  152.4349  134.5703  159.9929 H   0  0  0  0  0  0  0  0  0  0  0  0  # atno 6908 bound_to 6896
  151.5881  133.3332  159.3058 H   0  0  0  0  0  0  0  0  0  0  0  0  # atno 6909 bound_to 6896
  145.1362  139.3296  143.4639 H   0  0  0  0  0  0  0  0  0  0  0  0  # atno 7974 bound_to 7965
  156.0839  140.1401  156.9677 H   0  0  0  0  0  0  0  0  0  0  0  0  # atno 8008 bound_to 7997
  154.4601  140.0946  156.6918 H   0  0  0  0  0  0  0  0  0  0  0  0  # atno 8009 bound_to 7997
  155.5030  140.3451  155.4377 H   0  0  0  0  0  0  0  0  0  0  0  0  # atno 8010 bound_to 7997
  140.2563  144.3423  150.6332 H   0  0  0  0  0  0  0  0  0  0  0  0  # atno 10167 bound_to 10162
  156.0504  130.5732  150.8013 H   0  0  0  0  0  0  0  0  0  0  0  0  # atno 10718 bound_to 10713
  154.5855  135.2840  155.0690 H   0  0  0  0  0  0  0  0  0  0  0  0  # atno 10763 bound_to 10752
  154.2010  135.6424  153.5091 H   0  0  0  0  0  0  0  0  0  0  0  0  # atno 10764 bound_to 10752
  153.0103  135.5469  154.6523 H   0  0  0  0  0  0  0  0  0  0  0  0  # atno 10765 bound_to 10752
  140.5866  134.5087  157.5186 H   0  0  0  0  0  0  0  0  0  0  0  0  # atno 11005 bound_to 11000
  146.3509  140.1381  142.8595 LP  0  0  0  0  0  0  0  0  0  0  0  0  # atno 17320 bound_to 7965
  145.0582  140.9068  143.4955 LP  0  0  0  0  0  0  0  0  0  0  0  0  # atno 17321 bound_to 7965
  140.6001  143.2167  151.7089 LP  0  0  0  0  0  0  0  0  0  0  0  0  # atno 17342 bound_to 10162
  139.5030  144.3806  152.0379 LP  0  0  0  0  0  0  0  0  0  0  0  0  # atno 17343 bound_to 10162
  157.5425  131.0941  150.9808 LP  0  0  0  0  0  0  0  0  0  0  0  0  # atno 17370 bound_to 10713
  157.0087  130.5628  149.5318 LP  0  0  0  0  0  0  0  0  0  0  0  0  # atno 17371 bound_to 10713
  139.9293  134.7995  156.0977 LP  0  0  0  0  0  0  0  0  0  0  0  0  # atno 17394 bound_to 11000
  141.0962  133.6695  156.2650 LP  0  0  0  0  0  0  0  0  0  0  0  0  # atno 17395 bound_to 11000

$$$$
