AV-unprocessed.smi:1088|AV-procd|sdf|4730|dock5
  -GOLD-   22720 3263D 1   1.00000     0.00000
 Structure written by MMmdl.
 48 49  0  0  0  0  0  0  0  0  2 V2000
  139.2257  136.6283  153.6714 C   0  0  0  0  0  0  0  0  0  0  0  0
  140.3669  135.8229  153.9088 O   0  0  0  0  0  0  0  0  0  0  0  0
  141.5697  136.4515  153.4997 C   0  0  0  0  0  0  0  0  0  0  0  0
  142.7362  135.4743  153.7022 C   0  0  0  0  0  0  0  0  0  0  0  0
  143.5203  135.2806  152.4574 N   0  3  2  0  0  0  0  0  0  0  0  0
  144.1203  133.9383  152.2747 C   0  0  0  0  0  0  0  0  0  0  0  0
  145.3978  134.1363  151.4470 C   0  0  0  0  0  0  0  0  0  0  0  0
  145.3901  135.6131  151.0542 C   0  0  0  0  0  0  0  0  0  0  0  0
  144.5693  136.2856  152.1609 C   0  0  2  0  0  0  0  0  0  0  0  0
  145.4237  136.6692  153.3984 C   0  0  0  0  0  0  0  0  0  0  0  0
  146.5705  137.4956  153.0414 N   0  0  0  0  0  0  0  0  0  0  0  0
  146.8807  138.6795  153.5959 C   0  0  0  0  0  0  0  0  0  0  0  0
  146.2111  139.1865  154.4950 O   0  0  0  0  0  0  0  0  0  0  0  0
  148.1157  139.4295  153.0681 C   0  0  0  0  0  0  0  0  0  0  0  0
  149.2071  139.5820  154.0421 N   0  0  0  0  0  0  0  0  0  0  0  0
  150.0856  138.5346  154.2525 C   0  0  0  0  0  0  0  0  0  0  0  0
  151.1020  138.5817  155.1408 C   0  0  0  0  0  0  0  0  0  0  0  0
  151.3383  139.7736  155.9463 C   0  0  0  0  0  0  0  0  0  0  0  0
  152.2387  139.8497  156.7830 O   0  0  0  0  0  0  0  0  0  0  0  0
  150.4360  140.8362  155.6993 N   0  0  0  0  0  0  0  0  0  0  0  0
  150.5772  142.0592  156.4621 C   0  0  0  0  0  0  0  0  0  0  0  0
  149.3650  140.7747  154.7803 C   0  0  0  0  0  0  0  0  0  0  0  0
  148.5809  141.7146  154.6295 O   0  0  0  0  0  0  0  0  0  0  0  0
  138.3307  136.1016  154.0019 H   0  0  0  0  0  0  0  0  0  0  0  0
  139.1129  136.8496  152.6094 H   0  0  0  0  0  0  0  0  0  0  0  0
  139.2848  137.5686  154.2211 H   0  0  0  0  0  0  0  0  0  0  0  0
  141.4998  136.7188  152.4445 H   0  0  0  0  0  0  0  0  0  0  0  0
  141.7319  137.3755  154.0561 H   0  0  0  0  0  0  0  0  0  0  0  0
  143.3909  135.8639  154.4829 H   0  0  0  0  0  0  0  0  0  0  0  0
  142.3561  134.5146  154.0547 H   0  0  0  0  0  0  0  0  0  0  0  0
  144.3654  133.4837  153.2359 H   0  0  0  0  0  0  0  0  0  0  0  0
  143.4102  133.2846  151.7672 H   0  0  0  0  0  0  0  0  0  0  0  0
  146.2731  133.9198  152.0610 H   0  0  0  0  0  0  0  0  0  0  0  0
  145.4361  133.4814  150.5760 H   0  0  0  0  0  0  0  0  0  0  0  0
  146.3925  136.0229  150.9278 H   0  0  0  0  0  0  0  0  0  0  0  0
  144.8721  135.7291  150.1010 H   0  0  0  0  0  0  0  0  0  0  0  0
  144.0860  137.1834  151.7733 H   0  0  0  0  0  0  0  0  0  0  0  0
  144.8297  137.2089  154.1370 H   0  0  0  0  0  0  0  0  0  0  0  0
  145.7974  135.7751  153.8985 H   0  0  0  0  0  0  0  0  0  0  0  0
  147.1763  137.1454  152.3132 H   0  0  0  0  0  0  0  0  0  0  0  0
  148.4856  138.8938  152.1928 H   0  0  0  0  0  0  0  0  0  0  0  0
  147.8000  140.4052  152.6948 H   0  0  0  0  0  0  0  0  0  0  0  0
  149.9496  137.6269  153.6823 H   0  0  0  0  0  0  0  0  0  0  0  0
  151.7478  137.7240  155.2600 H   0  0  0  0  0  0  0  0  0  0  0  0
  150.4335  142.9045  155.7870 H   0  0  0  0  0  0  0  0  0  0  0  0
  151.5761  142.1320  156.8917 H   0  0  0  0  0  0  0  0  0  0  0  0
  149.8150  142.0357  157.2421 H   0  0  0  0  0  0  0  0  0  0  0  0
  142.8594  135.3795  151.6996 H   0  0  0  0  0  0  0  0  0  0  0  0
  1  2  1  0  0  0  0
  1 24  1  0  0  0  0
  1 25  1  0  0  0  0
  1 26  1  0  0  0  0
  2  3  1  0  0  0  0
  3  4  1  0  0  0  0
  3 27  1  0  0  0  0
  3 28  1  0  0  0  0
  4  5  1  0  0  0  0
  4 29  1  0  0  0  0
  4 30  1  0  0  0  0
  5  9  1  0  0  0  0
  5  6  1  0  0  0  0
  5 48  1  0  0  0  0
  6  7  1  0  0  0  0
  6 31  1  0  0  0  0
  6 32  1  0  0  0  0
  7  8  1  0  0  0  0
  7 33  1  0  0  0  0
  7 34  1  0  0  0  0
  8  9  1  0  0  0  0
  8 35  1  0  0  0  0
  8 36  1  0  0  0  0
  9 10  1  0  0  0  0
  9 37  1  0  0  0  0
 10 11  1  0  0  0  0
 10 38  1  0  0  0  0
 10 39  1  0  0  0  0
 11 12  1  0  0  0  0
 11 40  1  0  0  0  0
 12 13  2  0  0  0  0
 12 14  1  0  0  0  0
 14 15  1  0  0  0  0
 14 41  1  0  0  0  0
 14 42  1  0  0  0  0
 15 22  1  0  0  0  0
 15 16  1  0  0  0  0
 16 17  2  0  0  0  0
 16 43  1  0  0  0  0
 17 18  1  0  0  0  0
 17 44  1  0  0  0  0
 18 19  2  0  0  0  0
 18 20  1  0  0  0  0
 20 21  1  0  0  0  0
 20 22  1  0  0  0  0
 21 45  1  0  0  0  0
 21 46  1  0  0  0  0
 21 47  1  0  0  0  0
 22 23  2  0  0  0  0
M  CHG  1   5   1
M  END
> <s_m_source_file>
AV-unprocessed.smi

> <i_m_source_file_index>
1088

> <i_lp_mmshare_version>
43012

> <i_f3d_flags>
0

> <s_epik_input>
W0NIM11PW0NIMl1bQ0gyXU4xW0NIMl1bQ0gyXVtDSDJdW0NASF0xW0NIMl1bTkhdQyg9TylbQ0gyXW4yW2NIXVtjSF1jKD1PKW4oW0NIM10pYzI9Tw==

> <s_epik_cmdline>
J2VwaWtfcHl0aG9uJywgJy1waCcsICc3LjAnLCAnLXRuJywgJzgnLCAnLW1hJywgJzIwMCcsICctbWV0YWxfYmluZGluZycsICctaW1hZScsICc8aW5maWxlLm1hZT4nLCAnLW9tYWUnLCAnPG91dGZpbGUubWFlPic=

> <r_lp_tautomer_probability>
1

> <r_epik_Ionization_Penalty>
0.0127388

> <r_epik_Ionization_Penalty_Charging>
0.0127387

> <r_epik_Ionization_Penalty_Neutral>
8.26414e-08

> <r_epik_State_Penalty>
0.00987716

> <r_epik_Charging_Adjusted_Penalty>
0.0226159

> <i_epik_Tot_Q>
1

> <i_epik_Tot_abs_Q>
1

> <r_epik_Metal_State_Penalty>
0.00987836

> <b_epik_Metal_Only>
0

> <s_lp_Force_Field>
OPLS_2005

> <r_lp_Energy>
40.6263

> <b_lp_Chiralities_Consistent>
1

> <s_lp_Variant>
AV-unprocessed.smi:1088-3

> <Gold.Version>
5.8.1

> <Gold.Id.Protein>
6NUR|6NUR_protein|mol2

> <Gold.PLP.Fitness>
46.1624

> <Gold.PLP.PLP>
-39.4878

> <Gold.PLP.part.hbond>
-3.0302

> <Gold.PLP.part.metal>
0.0000

> <Gold.PLP.part.buried>
-0.2373

> <Gold.PLP.part.nonpolar>
-36.5931

> <Gold.PLP.part.repulsive>
0.3818

> <Gold.PLP.ligand.clash>
0.0000

> <Gold.PLP.ligand.torsion>
1.0992

> <Gold.PLP.Chemscore.Hbond>
1.8640

> <Gold.PLP.Chemscore.CHOScore>
1.0284

> <Gold.PLP.Chemscore.Metal>
0.0000

> <Gold.Chemscore.Hbonds>
donor molecule, donor type, donor heavy atom, donor atom, acceptor molecule, acceptor atom, score
      L1  H    11    40       P1  7948  0.95
      P1  H  7997  8010       L1    19  0.70
      L1  C    16    43       P1  7948  1.00

> <Gold.PLP.Chemscore.Internal.Correction>
0.1955

> <Gold.Rescore>
     Score         DG    S(hbond)    S(metal)    S(lipo)     H(rot)  DE(clash)    DE(int)     intcor
     10.62     -13.20       1.85        0.00      69.27       2.57       1.57       1.01       ----

> <Gold.Chemscore.Fitness>
10.6188

> <Gold.Chemscore.DG>
-13.1985

> <Gold.Chemscore.ZeroCoef>
-5.4800

> <Gold.Chemscore.Hbond>
1.8538

> <Gold.Chemscore.Metal>
0.0000

> <Gold.Chemscore.Lipo>
69.2650

> <Gold.Chemscore.Internal_Hbond>
0.0000

> <Gold.Chemscore.DEClash>
1.5745

> <Gold.Chemscore.DEInternal>
1.0051

> <Gold.Chemscore.Rot>
2.5692

> <Gold.Chemscore.Internal.Correction>
   9.000000E+99

> <Gold.Chemscore.Hbonds>
donor molecule, donor type, donor heavy atom, donor atom, acceptor molecule, acceptor atom, score
      L1  H    11    40       P1  7948  0.85
      P1  H  7997  8010       L1    19  0.70

> <Gold.Chemscore.Hbond.Weighted>
-6.1916

> <Gold.Chemscore.Metal.Weighted>
-0.0000

> <Gold.Chemscore.Lipo.Weighted>
-8.1040

> <Gold.Chemscore.Internal_Hbond.Weighted>
0.0000

> <Gold.Chemscore.DEClash.Weighted>
1.5745

> <Gold.Chemscore.DEInternal.Weighted>
1.0051

> <Gold.Chemscore.Rot.Weighted>
6.5772

> <Gold.Chemscore.Internal.Correction.Weighted>
   9.000000E+99

> <Gold.Protein.RotatedTorsions>
[ 6907 6896 6895 6894 ] final   58.29 input  -60.11 | X-H torsion
[ 7974 7965 7964 7962 ] final   75.42 input  175.53 | X-H torsion
[ 8008 7997 7996 7995 ] final   75.19 input   59.86 | X-H torsion
[ 10167 10162 10161 10158 ] final  100.18 input  -65.29 | X-H torsion
[ 10718 10713 10712 10709 ] final   94.80 input   66.30 | X-H torsion
[ 10763 10752 10751 10750 ] final   24.44 input  -60.55 | X-H torsion
[ 11005 11000 10999 10996 ] final -151.99 input  -57.11 | X-H torsion

> <Gold.Protein.ActiveResidues>
 VAL166  LYS551  ARG553  GLY616  TRP617  ASP618  TYR619  PRO620  LYS621  CYS622 
 ASP623  PHE694  ASN695  SER759  ASP760  ASP761  ALA762  ILE779  LEU786  VAL792 
 PHE793  MET794  SER795  GLU796  ALA797  LYS798  CYS799  TRP800  GLU811  SER814 

> <Gold.Protein.RotatedAtoms>
  152.3811  134.6589  160.0142 H   0  0  0  0  0  0  0  0  0  0  0  0  # atno 6907 bound_to 6896
  151.6852  133.3306  159.3237 H   0  0  0  0  0  0  0  0  0  0  0  0  # atno 6908 bound_to 6896
  150.7748  134.6682  159.6421 H   0  0  0  0  0  0  0  0  0  0  0  0  # atno 6909 bound_to 6896
  145.7158  139.2631  143.1624 H   0  0  0  0  0  0  0  0  0  0  0  0  # atno 7974 bound_to 7965
  155.8094  140.3473  155.5449 H   0  0  0  0  0  0  0  0  0  0  0  0  # atno 8008 bound_to 7997
  155.8456  140.0948  157.1727 H   0  0  0  0  0  0  0  0  0  0  0  0  # atno 8009 bound_to 7997
  154.4006  140.1386  156.3769 H   0  0  0  0  0  0  0  0  0  0  0  0  # atno 8010 bound_to 7997
  139.7551  144.6972  151.0375 H   0  0  0  0  0  0  0  0  0  0  0  0  # atno 10167 bound_to 10162
  157.6945  131.0524  150.4241 H   0  0  0  0  0  0  0  0  0  0  0  0  # atno 10718 bound_to 10713
  153.0763  135.6605  154.0138 H   0  0  0  0  0  0  0  0  0  0  0  0  # atno 10763 bound_to 10752
  153.9771  135.2959  155.3424 H   0  0  0  0  0  0  0  0  0  0  0  0  # atno 10764 bound_to 10752
  154.7152  135.5188  153.8798 H   0  0  0  0  0  0  0  0  0  0  0  0  # atno 10765 bound_to 10752
  140.7237  134.3698  157.5179 H   0  0  0  0  0  0  0  0  0  0  0  0  # atno 11005 bound_to 11000
  146.0670  140.7909  142.9706 LP  0  0  0  0  0  0  0  0  0  0  0  0  # atno 17320 bound_to 7965
  144.6929  140.3284  143.7220 LP  0  0  0  0  0  0  0  0  0  0  0  0  # atno 17321 bound_to 7965
  140.7802  143.4763  151.0078 LP  0  0  0  0  0  0  0  0  0  0  0  0  # atno 17342 bound_to 10162
  139.8450  143.7513  152.3179 LP  0  0  0  0  0  0  0  0  0  0  0  0  # atno 17343 bound_to 10162
  156.4614  130.4032  149.6574 LP  0  0  0  0  0  0  0  0  0  0  0  0  # atno 17370 bound_to 10713
  156.3688  130.7519  151.2500 LP  0  0  0  0  0  0  0  0  0  0  0  0  # atno 17371 bound_to 10713
  139.8842  134.8972  156.2718 LP  0  0  0  0  0  0  0  0  0  0  0  0  # atno 17394 bound_to 11000
  140.9981  133.7168  156.0918 LP  0  0  0  0  0  0  0  0  0  0  0  0  # atno 17395 bound_to 11000

$$$$
