#       Name:                AV-unprocessed.smi:587
#       Creating user name   scv26
#       Creation time:       Thu Mar 26 23:51:02 2020


#       File generated by GOLD software.
#

@<TRIPOS>MOLECULE
AV-unprocessed.smi:587
    53    55     1
SMALL
NO_CHARGES


@<TRIPOS>ATOM
      1 ****        -2.2420  -3.5191  -0.7019 C.3            1 S1                 0.0000
      2 ****        -1.5246  -2.2618  -0.6696 N.am           1 S1                 0.0000
      3 ****        -2.1259  -1.0045  -0.6716 C.2            1 S1                 0.0000
      4 ****        -3.5113  -0.9322  -0.7044 N.pl3          1 S1                 0.0000
      5 ****        -1.3809   0.1331  -0.6374 C.2            1 S1                 0.0000
      6 ****        -2.1016   1.4435  -0.6330 N.4            1 S1                 1.0000
      7 ****        -1.8953   2.2766  -1.8452 C.3            1 S1                 0.0000
      8 ****        -2.8869   3.4516  -1.8746 C.3            1 S1                 0.0000
      9 ****        -2.7782   4.2942  -0.5956 C.3            1 S1                 0.0000
     10 ****        -2.9562   3.4028   0.6416 C.3            1 S1                 0.0000
     11 ****        -1.9636   2.2285   0.6206 C.3            1 S1                 0.0000
     12 ****         0.0842   0.0822  -0.6011 C.2            1 S1                 0.0000
     13 ****         0.7983   1.0856  -0.5626 O.2            1 S1                 0.0000
     14 ****         0.6600  -1.2076  -0.6020 N.am           1 S1                 0.0000
     15 ****         2.1344  -1.3278  -0.5351 C.3            1 S1                 0.0000
     16 ****         2.6814  -1.3744   0.9003 C.2            1 S1                 0.0000
     17 ****         1.9326  -1.2376   1.8694 O.2            1 S1                 0.0000
     18 ****         4.0037  -1.5654   1.0121 N.am           1 S1                 0.0000
     19 ****         4.7291  -1.6479   2.2383 C.3            1 S1                 0.0000
     20 ****         6.1181  -1.0481   2.2772 C.3            1 S1                 0.0000
     21 ****         5.9495  -2.5425   2.2704 C.3            1 S1                 0.0000
     22 ****        -0.1158  -2.3855  -0.6232 C.2            1 S1                 0.0000
     23 ****         0.4275  -3.4937  -0.5971 O.2            1 S1                 0.0000
     24 ****        -3.3137  -3.3465  -0.7712 H              1 S1                 0.0000
     25 ****        -2.0101  -4.0516   0.2223 H              1 S1                 0.0000
     26 ****        -1.9037  -4.0692  -1.5820 H              1 S1                 0.0000
     27 ****        -4.1018  -1.7504  -0.7269 H              1 S1                 0.0000
     28 ****        -3.9911  -0.0427  -0.7105 H              1 S1                 0.0000
     29 ****        -0.8724   2.6535  -1.8746 H              1 S1                 0.0000
     30 ****        -2.0327   1.6596  -2.7341 H              1 S1                 0.0000
     31 ****        -2.7014   4.0752  -2.7497 H              1 S1                 0.0000
     32 ****        -3.9037   3.0697  -1.9767 H              1 S1                 0.0000
     33 ****        -1.8046   4.7849  -0.5591 H              1 S1                 0.0000
     34 ****        -3.5277   5.0862  -0.6008 H              1 S1                 0.0000
     35 ****        -2.8185   3.9917   1.5490 H              1 S1                 0.0000
     36 ****        -3.9768   3.0191   0.6734 H              1 S1                 0.0000
     37 ****        -2.1487   1.5775   1.4760 H              1 S1                 0.0000
     38 ****        -0.9442   2.6028   0.7206 H              1 S1                 0.0000
     39 ****         2.4797  -2.2161  -1.0668 H              1 S1                 0.0000
     40 ****         2.6192  -0.5046  -1.0624 H              1 S1                 0.0000
     41 ****         4.5391  -1.6678   0.1621 H              1 S1                 0.0000
     42 ****         4.1571  -1.5897   3.1633 H              1 S1                 0.0000
     43 ****         6.4971  -0.5812   1.3701 H              1 S1                 0.0000
     44 ****         6.4371  -0.5830   3.2078 H              1 S1                 0.0000
     45 ****         6.1549  -3.0759   3.1962 H              1 S1                 0.0000
     46 ****         6.2169  -3.0731   1.3584 H              1 S1                 0.0000
     47 ****        -3.0834   1.2120  -0.6646 H              1 S1                 0.0000
     48 ****         0.3826   1.9951  -0.5548 LP             1 S1                 0.0000
     49 ****         1.7935   0.9905  -0.5392 LP             1 S1                 0.0000
     50 ****         0.9531  -1.0937   1.7281 LP             1 S1                 0.0000
     51 ****         2.3044  -1.2705   2.7971 LP             1 S1                 0.0000
     52 ****        -0.1296  -4.3241  -0.6087 LP             1 S1                 0.0000
     53 ****         1.4247  -3.5610  -0.5644 LP             1 S1                 0.0000
@<TRIPOS>BOND
    1    1    2 1     
    2    1   24 1     
    3    1   25 1     
    4    1   26 1     
    5    2   22 am    
    6    2    3 1     
    7    3    4 1     
    8    3    5 2     
    9    4   27 1     
   10    4   28 1     
   11    5    6 1     
   12    5   12 1     
   13    6   11 1     
   14    6    7 1     
   15    6   47 1     
   16    7    8 1     
   17    7   29 1     
   18    7   30 1     
   19    8    9 1     
   20    8   31 1     
   21    8   32 1     
   22    9   10 1     
   23    9   33 1     
   24    9   34 1     
   25   10   11 1     
   26   10   35 1     
   27   10   36 1     
   28   11   37 1     
   29   11   38 1     
   30   12   13 2     
   31   12   14 am    
   32   14   15 1     
   33   14   22 am    
   34   15   16 1     
   35   15   39 1     
   36   15   40 1     
   37   16   17 2     
   38   16   18 am    
   39   18   19 1     
   40   18   41 1     
   41   19   21 1     
   42   19   20 1     
   43   19   42 1     
   44   20   21 1     
   45   20   43 1     
   46   20   44 1     
   47   21   45 1     
   48   21   46 1     
   49   22   23 2     
   50   13   48 1     
   51   13   49 1     
   52   17   50 1     
   53   17   51 1     
   54   23   52 1     
   55   23   53 1     
@<TRIPOS>SUBSTRUCTURE
      1 S1             1
@<TRIPOS>SET
LONE_PAIRS      STATIC     ATOMS    <user>   **** ""
6 48 49 50 51 52 53
DONOR_HYDROGENS      STATIC     ATOMS    <user>   **** ""
4 27 28 47 41
ATOM$BLUE        STATIC     ATOMS    COLORGROUP SYSTEM
6 48 49 50 51 52 53
ATOM$RED        STATIC     ATOMS    COLORGROUP SYSTEM
4 27 28 47 41
