#       Name:                AV-unprocessed.smi:2012
#       Creating user name   scv26
#       Creation time:       Fri Mar 27 10:39:42 2020


#       File generated by GOLD software.
#

@<TRIPOS>MOLECULE
AV-unprocessed.smi:2012
    58    59     1
SMALL
NO_CHARGES


@<TRIPOS>ATOM
      1 ****        -2.9240  -0.3624  -1.4853 C.3            1 S1                 0.0000
      2 ****        -2.2651  -0.0376  -0.1497 C.2            1 S1                 0.0000
      3 ****        -1.7939   1.0818   0.0490 O.2            1 S1                 0.0000
      4 ****        -2.2365  -1.0291   0.7560 N.am           1 S1                 0.0000
      5 ****        -1.6175  -0.9527   2.0815 C.3            1 S1                 0.0000
      6 ****        -0.1189  -1.2676   1.9208 C.2            1 S1                 0.0000
      7 ****         0.2470  -2.3236   1.4021 O.2            1 S1                 0.0000
      8 ****         0.7354  -0.3300   2.3587 N.am           1 S1                 0.0000
      9 ****         2.1870  -0.3871   2.2107 C.3            1 S1                 0.0000
     10 ****         2.7025  -0.0806   0.8078 C.ar           1 S1                 0.0000
     11 ****         4.0387  -0.3796   0.4782 C.ar           1 S1                 0.0000
     12 ****         4.4884  -0.1010  -0.8262 C.ar           1 S1                 0.0000
     13 ****         3.7032   0.4401  -1.7810 N.ar           1 S1                 0.0000
     14 ****         2.4174   0.7443  -1.4764 C.ar           1 S1                 0.0000
     15 ****         1.6000   1.2966  -2.4867 N.3            1 S1                 0.0000
     16 ****         2.1012   1.3062  -3.8594 C.3            1 S1                 0.0000
     17 ****         0.9574   1.6112  -4.8421 C.3            1 S1                 0.0000
     18 ****         0.3163   2.8286  -4.4754 O.3            1 S1                 0.0000
     19 ****        -0.2583   2.7548  -3.1745 C.3            1 S1                 0.0000
     20 ****         0.8444   2.4964  -2.1342 C.3            1 S1                 0.0000
     21 ****         1.8861   0.5017  -0.1883 C.ar           1 S1                 0.0000
     22 ****        -2.2909  -1.9983   3.0184 C.3            1 S1                 0.0000
     23 ****        -3.8095  -1.7644   3.1387 C.3            1 S1                 0.0000
     24 ****        -1.6714  -2.0251   4.4313 C.3            1 S1                 0.0000
     25 ****        -2.3216  -1.0832  -2.0384 H              1 S1                 0.0000
     26 ****        -3.0271   0.5357  -2.0953 H              1 S1                 0.0000
     27 ****        -3.9170  -0.7855  -1.3307 H              1 S1                 0.0000
     28 ****        -2.6462  -1.9156   0.4996 H              1 S1                 0.0000
     29 ****        -1.7503   0.0480   2.4986 H              1 S1                 0.0000
     30 ****         0.3510   0.5068   2.7728 H              1 S1                 0.0000
     31 ****         2.6242   0.3357   2.8996 H              1 S1                 0.0000
     32 ****         2.5486  -1.3685   2.5225 H              1 S1                 0.0000
     33 ****         4.7048  -0.8205   1.2051 H              1 S1                 0.0000
     34 ****         5.5059  -0.3233  -1.1121 H              1 S1                 0.0000
     35 ****         2.8861   2.0583  -3.9510 H              1 S1                 0.0000
     36 ****         2.5419   0.3406  -4.1107 H              1 S1                 0.0000
     37 ****         1.3488   1.7068  -5.8550 H              1 S1                 0.0000
     38 ****         0.2311   0.7968  -4.8570 H              1 S1                 0.0000
     39 ****        -0.7661   3.6944  -2.9571 H              1 S1                 0.0000
     40 ****        -1.0152   1.9691  -3.1412 H              1 S1                 0.0000
     41 ****         0.3874   2.4218  -1.1494 H              1 S1                 0.0000
     42 ****         1.5297   3.3443  -2.0997 H              1 S1                 0.0000
     43 ****         0.8555   0.7353   0.0245 H              1 S1                 0.0000
     44 ****        -2.1553  -2.9918   2.5869 H              1 S1                 0.0000
     45 ****        -4.0252  -0.7723   3.5365 H              1 S1                 0.0000
     46 ****        -4.2675  -2.4947   3.8064 H              1 S1                 0.0000
     47 ****        -4.3145  -1.8543   2.1768 H              1 S1                 0.0000
     48 ****        -1.7334  -1.0458   4.9072 H              1 S1                 0.0000
     49 ****        -0.6228  -2.3226   4.4163 H              1 S1                 0.0000
     50 ****        -2.1906  -2.7376   5.0730 H              1 S1                 0.0000
     51 ****        -1.8431   1.7791  -0.6661 LP             1 S1                 0.0000
     52 ****        -1.3618   1.2940   0.9255 LP             1 S1                 0.0000
     53 ****        -0.4315  -2.9845   1.0813 LP             1 S1                 0.0000
     54 ****         1.2224  -2.5198   1.3018 LP             1 S1                 0.0000
     55 ****         4.0634   0.6138  -2.6976 LP             1 S1                 0.0000
     56 ****         0.9205   0.5635  -2.5160 LP             1 S1                 0.0000
     57 ****        -0.4067   3.0255  -5.1376 LP             1 S1                 0.0000
     58 ****         0.9911   3.5664  -4.4895 LP             1 S1                 0.0000
@<TRIPOS>BOND
    1    1    2 1     
    2    1   25 1     
    3    1   26 1     
    4    1   27 1     
    5    2    3 2     
    6    2    4 am    
    7    4    5 1     
    8    4   28 1     
    9    5    6 1     
   10    5   22 1     
   11    5   29 1     
   12    6    7 2     
   13    6    8 am    
   14    8    9 1     
   15    8   30 1     
   16    9   10 1     
   17    9   31 1     
   18    9   32 1     
   19   10   21 ar    
   20   10   11 ar    
   21   11   12 ar    
   22   11   33 1     
   23   12   13 ar    
   24   12   34 1     
   25   13   14 ar    
   26   14   15 1     
   27   14   21 ar    
   28   15   20 1     
   29   15   16 1     
   30   16   17 1     
   31   16   35 1     
   32   16   36 1     
   33   17   18 1     
   34   17   37 1     
   35   17   38 1     
   36   18   19 1     
   37   19   20 1     
   38   19   39 1     
   39   19   40 1     
   40   20   41 1     
   41   20   42 1     
   42   21   43 1     
   43   22   23 1     
   44   22   24 1     
   45   22   44 1     
   46   23   45 1     
   47   23   46 1     
   48   23   47 1     
   49   24   48 1     
   50   24   49 1     
   51   24   50 1     
   52    3   51 1     
   53    3   52 1     
   54    7   53 1     
   55    7   54 1     
   56   13   55 1     
   57   15   56 1     
   58   18   57 1     
   59   18   58 1     
@<TRIPOS>SUBSTRUCTURE
      1 S1             1
@<TRIPOS>SET
LONE_PAIRS      STATIC     ATOMS    <user>   **** ""
8 51 52 53 54 55 56 57 58
DONOR_HYDROGENS      STATIC     ATOMS    <user>   **** ""
2 28 30
ATOM$BLUE        STATIC     ATOMS    COLORGROUP SYSTEM
8 51 52 53 54 55 56 57 58
ATOM$RED        STATIC     ATOMS    COLORGROUP SYSTEM
2 28 30
