AV-unprocessed.smi:3085|AV-procd|sdf|11762|dock2
  -GOLD-   2272017143D 1   1.00000     0.00000
 Structure written by MMmdl.
 26 27  0  0  0  0  0  0  0  0  2 V2000
  155.4693  139.2900  162.1614 C   0  0  0  0  0  0  0  0  0  0  0  0
  155.7619  139.6449  160.6998 C   0  0  0  0  0  0  0  0  0  0  0  0
  154.5730  140.2887  160.0210 C   0  0  0  0  0  0  0  0  0  0  0  0
  153.9691  141.4075  160.4081 N   0  0  0  0  0  0  0  0  0  0  0  0
  152.9928  141.6245  159.5141 C   0  0  0  0  0  0  0  0  0  0  0  0
  152.0476  142.8096  159.5326 C   0  0  2  0  0  0  0  0  0  0  0  0
  151.2242  142.8828  158.2304 C   0  0  0  0  0  0  0  0  0  0  0  0
  150.3214  144.0338  158.2538 N   0  0  0  0  0  0  0  0  0  0  0  0
  151.0501  145.2734  158.5129 C   0  0  0  0  0  0  0  0  0  0  0  0
  151.8743  145.1473  159.8055 C   0  0  0  0  0  0  0  0  0  0  0  0
  152.7565  144.0361  159.6987 O   0  0  0  0  0  0  0  0  0  0  0  0
  153.0010  140.6757  158.5648 N   0  0  0  0  0  0  0  0  0  0  0  0
  153.9817  139.8590  158.8923 N   0  5  0  0  0  0  0  0  0  0  0  0
  156.3353  138.8222  162.6294 H   0  0  0  0  0  0  0  0  0  0  0  0
  154.6329  138.5945  162.2346 H   0  0  0  0  0  0  0  0  0  0  0  0
  155.2169  140.1802  162.7381 H   0  0  0  0  0  0  0  0  0  0  0  0
  156.6116  140.3261  160.6432 H   0  0  0  0  0  0  0  0  0  0  0  0
  156.0402  138.7474  160.1463 H   0  0  0  0  0  0  0  0  0  0  0  0
  151.3774  142.6734  160.3838 H   0  0  0  0  0  0  0  0  0  0  0  0
  151.8971  142.9569  157.3749 H   0  0  0  0  0  0  0  0  0  0  0  0
  150.6507  141.9652  158.0981 H   0  0  0  0  0  0  0  0  0  0  0  0
  149.8388  144.1027  157.3637 H   0  0  0  0  0  0  0  0  0  0  0  0
  151.7132  145.4959  157.6763 H   0  0  0  0  0  0  0  0  0  0  0  0
  150.3531  146.1078  158.5921 H   0  0  0  0  0  0  0  0  0  0  0  0
  152.4634  146.0507  159.9636 H   0  0  0  0  0  0  0  0  0  0  0  0
  151.2258  145.0337  160.6758 H   0  0  0  0  0  0  0  0  0  0  0  0
  1  2  1  0  0  0  0
  1 14  1  0  0  0  0
  1 15  1  0  0  0  0
  1 16  1  0  0  0  0
  2  3  1  0  0  0  0
  2 17  1  0  0  0  0
  2 18  1  0  0  0  0
  3 13  1  0  0  0  0
  3  4  2  0  0  0  0
  4  5  1  0  0  0  0
  5  6  1  0  0  0  0
  5 12  2  0  0  0  0
  6 11  1  0  0  0  0
  6  7  1  0  0  0  0
  6 19  1  0  0  0  0
  7  8  1  0  0  0  0
  7 20  1  0  0  0  0
  7 21  1  0  0  0  0
  8  9  1  0  0  0  0
  8 22  1  0  0  0  0
  9 10  1  0  0  0  0
  9 23  1  0  0  0  0
  9 24  1  0  0  0  0
 10 11  1  0  0  0  0
 10 25  1  0  0  0  0
 10 26  1  0  0  0  0
 12 13  1  0  0  0  0
M  CHG  1  13  -1
M  END
> <s_m_source_file>
AV-unprocessed.smi

> <i_m_source_file_index>
3085

> <i_lp_mmshare_version>
43012

> <i_f3d_flags>
0

> <s_epik_input>
W0NIM11bQ0gyXWMxbmMobltuSF0xKVtDQEBIXTJbQ0gyXVtOSF1bQ0gyXVtDSDJdTzI=

> <s_epik_cmdline>
J2VwaWtfcHl0aG9uJywgJy1waCcsICc3LjAnLCAnLXRuJywgJzgnLCAnLW1hJywgJzIwMCcsICctbWV0YWxfYmluZGluZycsICctaW1hZScsICc8aW5maWxlLm1hZT4nLCAnLW9tYWUnLCAnPG91dGZpbGUubWFlPic=

> <r_lp_tautomer_probability>
0.948284

> <r_epik_Ionization_Penalty>
17.858

> <r_epik_Ionization_Penalty_Charging>
16.2847

> <r_epik_Ionization_Penalty_Neutral>
1.5733

> <r_epik_State_Penalty>
7.01418

> <r_epik_Charging_Adjusted_Penalty>
23.2989

> <i_epik_Tot_Q>
-1

> <i_epik_Tot_abs_Q>
1

> <r_epik_Metal_State_Penalty>
3.17281

> <b_epik_Metal_Only>
1

> <s_lp_Force_Field>
OPLS_2005

> <r_lp_Energy>
10.8419

> <b_lp_Chiralities_Consistent>
1

> <s_lp_Variant>
AV-unprocessed.smi:3085-13

> <Gold.Version>
5.8.1

> <Gold.Id.Protein>
6NUR|6NUR_protein|mol2

> <Gold.PLP.Fitness>
33.5294

> <Gold.PLP.PLP>
-25.1429

> <Gold.PLP.part.hbond>
-3.1252

> <Gold.PLP.part.metal>
0.0000

> <Gold.PLP.part.buried>
-2.4738

> <Gold.PLP.part.nonpolar>
-18.3665

> <Gold.PLP.part.repulsive>
0.0042

> <Gold.PLP.ligand.clash>
0.0000

> <Gold.PLP.ligand.torsion>
0.1814

> <Gold.PLP.Chemscore.Hbond>
2.9113

> <Gold.PLP.Chemscore.CHOScore>
0.0000

> <Gold.PLP.Chemscore.Metal>
0.0000

> <Gold.Chemscore.Hbonds>
donor molecule, donor type, donor heavy atom, donor atom, acceptor molecule, acceptor atom, score
      L1  H     8    22       P1  8028  1.00
      P1  H  7997  8010       L1    13  1.89

> <Gold.PLP.Chemscore.Internal.Correction>
0.0154

> <Gold.Rescore>
     Score         DG    S(hbond)    S(metal)    S(lipo)     H(rot)  DE(clash)    DE(int)     intcor
     11.97     -12.11       1.03        0.00      54.97       1.26       0.04       0.09       ----

> <Gold.Chemscore.Fitness>
11.9694

> <Gold.Chemscore.DG>
-12.1064

> <Gold.Chemscore.ZeroCoef>
-5.4800

> <Gold.Chemscore.Hbond>
1.0263

> <Gold.Chemscore.Metal>
0.0000

> <Gold.Chemscore.Lipo>
54.9744

> <Gold.Chemscore.Internal_Hbond>
0.0000

> <Gold.Chemscore.DEClash>
0.0427

> <Gold.Chemscore.DEInternal>
0.0943

> <Gold.Chemscore.Rot>
1.2630

> <Gold.Chemscore.Internal.Correction>
   9.000000E+99

> <Gold.Chemscore.Hbonds>
donor molecule, donor type, donor heavy atom, donor atom, acceptor molecule, acceptor atom, score
      L1  H     8    22       P1  8028  0.52
      P1  H  7997  8010       L1    13  0.20

> <Gold.Chemscore.Hbond.Weighted>
-3.4277

> <Gold.Chemscore.Metal.Weighted>
-0.0000

> <Gold.Chemscore.Lipo.Weighted>
-6.4320

> <Gold.Chemscore.Internal_Hbond.Weighted>
0.0000

> <Gold.Chemscore.DEClash.Weighted>
0.0427

> <Gold.Chemscore.DEInternal.Weighted>
0.0943

> <Gold.Chemscore.Rot.Weighted>
3.2333

> <Gold.Chemscore.Internal.Correction.Weighted>
   9.000000E+99

> <Gold.Protein.RotatedTorsions>
[ 6907 6896 6895 6894 ] final   35.30 input  -60.11 | X-H torsion
[ 7974 7965 7964 7962 ] final -170.28 input  175.53 | X-H torsion
[ 8008 7997 7996 7995 ] final   -1.19 input   59.86 | X-H torsion
[ 10167 10162 10161 10158 ] final -142.55 input  -65.29 | X-H torsion
[ 10718 10713 10712 10709 ] final  -52.91 input   66.30 | X-H torsion
[ 10763 10752 10751 10750 ] final  -27.04 input  -60.55 | X-H torsion
[ 11005 11000 10999 10996 ] final  -84.51 input  -57.11 | X-H torsion

> <Gold.Protein.ActiveResidues>
 VAL166  LYS551  ARG553  GLY616  TRP617  ASP618  TYR619  PRO620  LYS621  CYS622 
 ASP623  PHE694  ASN695  SER759  ASP760  ASP761  ALA762  ILE779  LEU786  VAL792 
 PHE793  MET794  SER795  GLU796  ALA797  LYS798  CYS799  TRP800  GLU811  SER814 

> <Gold.Protein.RotatedAtoms>
  152.1142  134.9252  160.0565 H   0  0  0  0  0  0  0  0  0  0  0  0  # atno 6907 bound_to 6896
  152.0418  133.3976  159.4348 H   0  0  0  0  0  0  0  0  0  0  0  0  # atno 6908 bound_to 6896
  150.6845  134.3327  159.4877 H   0  0  0  0  0  0  0  0  0  0  0  0  # atno 6909 bound_to 6896
  144.7172  140.2096  143.6329 H   0  0  0  0  0  0  0  0  0  0  0  0  # atno 7974 bound_to 7965
  154.6495  140.2565  155.7230 H   0  0  0  0  0  0  0  0  0  0  0  0  # atno 8008 bound_to 7997
  156.2568  140.2871  156.0844 H   0  0  0  0  0  0  0  0  0  0  0  0  # atno 8009 bound_to 7997
  155.1472  140.0381  157.2803 H   0  0  0  0  0  0  0  0  0  0  0  0  # atno 8010 bound_to 7997
  139.8077  143.7745  152.2662 H   0  0  0  0  0  0  0  0  0  0  0  0  # atno 10167 bound_to 10162
  156.1580  130.4150  149.9838 H   0  0  0  0  0  0  0  0  0  0  0  0  # atno 10718 bound_to 10713
  153.7257  135.6942  153.5001 H   0  0  0  0  0  0  0  0  0  0  0  0  # atno 10763 bound_to 10752
  153.2172  135.4382  155.0446 H   0  0  0  0  0  0  0  0  0  0  0  0  # atno 10764 bound_to 10752
  154.8270  135.3451  154.6789 H   0  0  0  0  0  0  0  0  0  0  0  0  # atno 10765 bound_to 10752
  141.1650  133.7350  156.8879 H   0  0  0  0  0  0  0  0  0  0  0  0  # atno 11005 bound_to 11000
  145.8603  139.2220  143.1720 LP  0  0  0  0  0  0  0  0  0  0  0  0  # atno 17320 bound_to 7965
  146.0179  140.8375  142.9938 LP  0  0  0  0  0  0  0  0  0  0  0  0  # atno 17321 bound_to 7965
  139.7885  144.7419  150.9989 LP  0  0  0  0  0  0  0  0  0  0  0  0  # atno 17342 bound_to 10162
  140.7819  143.4467  151.0472 LP  0  0  0  0  0  0  0  0  0  0  0  0  # atno 17343 bound_to 10162
  156.7676  130.9174  151.3643 LP  0  0  0  0  0  0  0  0  0  0  0  0  # atno 17370 bound_to 10713
  157.6710  130.9051  150.0041 LP  0  0  0  0  0  0  0  0  0  0  0  0  # atno 17371 bound_to 10713
  140.1669  134.9127  157.2785 LP  0  0  0  0  0  0  0  0  0  0  0  0  # atno 17394 bound_to 11000
  140.2546  134.3642  155.7429 LP  0  0  0  0  0  0  0  0  0  0  0  0  # atno 17395 bound_to 11000

$$$$
