AV-unprocessed.smi:575|AV-procd|sdf|2977|dock2
  -GOLD-   2262023483D 1   1.00000     0.00000
 Structure written by MMmdl.
 33 34  0  0  0  0  0  0  0  0  1 V2000
  146.9341  142.2487  153.9126 C   0  0  0  0  0  0  0  0  0  0  0  0
  146.6488  140.7932  153.7686 C   0  0  0  0  0  0  0  0  0  0  0  0
  147.0726  139.8456  152.8796 C   0  0  0  0  0  0  0  0  0  0  0  0
  146.4099  138.6707  153.3244 C   0  0  0  0  0  0  0  0  0  0  0  0
  146.5865  137.4351  152.6504 N   0  0  0  0  0  0  0  0  0  0  0  0
  145.6338  136.6457  152.1254 C   0  0  0  0  0  0  0  0  0  0  0  0
  144.4240  136.8723  152.1654 O   0  0  0  0  0  0  0  0  0  0  0  0
  146.1653  135.5597  151.5448 N   0  0  0  0  0  0  0  0  0  0  0  0
  145.4060  134.5052  150.8788 C   0  0  0  0  0  0  0  0  0  0  0  0
  144.2494  134.0151  151.7745 C   0  0  0  0  0  0  0  0  0  0  0  0
  143.4812  132.8583  151.1151 C   0  0  0  0  0  0  0  0  0  0  0  0
  144.4220  131.6997  150.7478 C   0  0  0  0  0  0  0  0  0  0  0  0
  145.5757  132.1835  149.8551 C   0  0  0  0  0  0  0  0  0  0  0  0
  146.3451  133.3396  150.5150 C   0  0  0  0  0  0  0  0  0  0  0  0
  145.6497  138.8825  154.3880 N   0  0  0  0  0  0  0  0  0  0  0  0
  145.7988  140.2439  154.6779 O   0  0  0  0  0  0  0  0  0  0  0  0
  147.7796  142.5435  153.2909 H   0  0  0  0  0  0  0  0  0  0  0  0
  147.1729  142.4969  154.9467 H   0  0  0  0  0  0  0  0  0  0  0  0
  146.0702  142.8415  153.6124 H   0  0  0  0  0  0  0  0  0  0  0  0
  147.7476  139.9757  152.0466 H   0  0  0  0  0  0  0  0  0  0  0  0
  147.5409  137.1214  152.5537 H   0  0  0  0  0  0  0  0  0  0  0  0
  147.1691  135.4556  151.5590 H   0  0  0  0  0  0  0  0  0  0  0  0
  144.9881  134.9022  149.9513 H   0  0  0  0  0  0  0  0  0  0  0  0
  144.6411  133.6860  152.7381 H   0  0  0  0  0  0  0  0  0  0  0  0
  143.5611  134.8346  151.9851 H   0  0  0  0  0  0  0  0  0  0  0  0
  142.6977  132.5029  151.7849 H   0  0  0  0  0  0  0  0  0  0  0  0
  142.9796  133.2205  150.2169 H   0  0  0  0  0  0  0  0  0  0  0  0
  144.8257  131.2540  151.6577 H   0  0  0  0  0  0  0  0  0  0  0  0
  143.8632  130.9131  150.2397 H   0  0  0  0  0  0  0  0  0  0  0  0
  146.2552  131.3571  149.6449 H   0  0  0  0  0  0  0  0  0  0  0  0
  145.1806  132.5109  148.8925 H   0  0  0  0  0  0  0  0  0  0  0  0
  147.1299  133.6879  149.8421 H   0  0  0  0  0  0  0  0  0  0  0  0
  146.8467  132.9732  151.4119 H   0  0  0  0  0  0  0  0  0  0  0  0
  1  2  1  0  0  0  0
  1 17  1  0  0  0  0
  1 18  1  0  0  0  0
  1 19  1  0  0  0  0
  2 16  1  0  0  0  0
  2  3  2  0  0  0  0
  3  4  1  0  0  0  0
  3 20  1  0  0  0  0
  4  5  1  0  0  0  0
  4 15  2  0  0  0  0
  5  6  1  0  0  0  0
  5 21  1  0  0  0  0
  6  7  2  0  0  0  0
  6  8  1  0  0  0  0
  8  9  1  0  0  0  0
  8 22  1  0  0  0  0
  9 14  1  0  0  0  0
  9 10  1  0  0  0  0
  9 23  1  0  0  0  0
 10 11  1  0  0  0  0
 10 24  1  0  0  0  0
 10 25  1  0  0  0  0
 11 12  1  0  0  0  0
 11 26  1  0  0  0  0
 11 27  1  0  0  0  0
 12 13  1  0  0  0  0
 12 28  1  0  0  0  0
 12 29  1  0  0  0  0
 13 14  1  0  0  0  0
 13 30  1  0  0  0  0
 13 31  1  0  0  0  0
 14 32  1  0  0  0  0
 14 33  1  0  0  0  0
 15 16  1  0  0  0  0
M  END
> <s_m_source_file>
AV-unprocessed.smi

> <i_m_source_file_index>
575

> <i_lp_mmshare_version>
43012

> <i_f3d_flags>
0

> <s_epik_input>
W0NIM11jMVtjSF1jKG5vMSlbTkhdQyg9TylbTkhdW0NIXTJbQ0gyXVtDSDJdW0NIMl1bQ0gyXVtDSDJdMg==

> <s_epik_cmdline>
J2VwaWtfcHl0aG9uJywgJy1waCcsICc3LjAnLCAnLXRuJywgJzgnLCAnLW1hJywgJzIwMCcsICctbWV0YWxfYmluZGluZycsICctaW1hZScsICc8aW5maWxlLm1hZT4nLCAnLW9tYWUnLCAnPG91dGZpbGUubWFlPic=

> <r_lp_tautomer_probability>
1

> <r_epik_Ionization_Penalty>
2.357e-05

> <r_epik_Ionization_Penalty_Charging>
0

> <r_epik_Ionization_Penalty_Neutral>
2.357e-05

> <r_epik_State_Penalty>
-0

> <r_epik_Charging_Adjusted_Penalty>
0

> <i_epik_Tot_Q>
0

> <i_epik_Tot_abs_Q>
0

> <r_epik_Metal_State_Penalty>
-0

> <b_epik_Metal_Only>
0

> <s_lp_Force_Field>
OPLS_2005

> <r_lp_Energy>
6.74104

> <b_lp_Chiralities_Consistent>
1

> <s_lp_Variant>
AV-unprocessed.smi:575-1

> <Gold.Version>
5.8.1

> <Gold.Id.Protein>
6NUR|6NUR_protein|mol2

> <Gold.PLP.Fitness>
34.6358

> <Gold.PLP.PLP>
-29.8417

> <Gold.PLP.part.hbond>
-2.0000

> <Gold.PLP.part.metal>
0.0000

> <Gold.PLP.part.buried>
-4.0678

> <Gold.PLP.part.nonpolar>
-23.9264

> <Gold.PLP.part.repulsive>
0.7854

> <Gold.PLP.ligand.clash>
0.0000

> <Gold.PLP.ligand.torsion>
0.5928

> <Gold.PLP.Chemscore.Hbond>
1.9920

> <Gold.PLP.Chemscore.CHOScore>
0.0000

> <Gold.PLP.Chemscore.Metal>
0.0000

> <Gold.Chemscore.Hbonds>
donor molecule, donor type, donor heavy atom, donor atom, acceptor molecule, acceptor atom, score
      L1  H     5    21       P1  7948  1.00
      L1  H     8    22       P1  7948  1.00

> <Gold.PLP.Chemscore.Internal.Correction>
0.0036

> <Gold.Rescore>
     Score         DG    S(hbond)    S(metal)    S(lipo)     H(rot)  DE(clash)    DE(int)     intcor
     15.38     -17.12       1.93        0.00      66.33       1.00       0.02       1.72       ----

> <Gold.Chemscore.Fitness>
15.3788

> <Gold.Chemscore.DG>
-17.1207

> <Gold.Chemscore.ZeroCoef>
-5.4800

> <Gold.Chemscore.Hbond>
1.9280

> <Gold.Chemscore.Metal>
0.0000

> <Gold.Chemscore.Lipo>
66.3347

> <Gold.Chemscore.Internal_Hbond>
0.0000

> <Gold.Chemscore.DEClash>
0.0178

> <Gold.Chemscore.DEInternal>
1.7241

> <Gold.Chemscore.Rot>
1.0000

> <Gold.Chemscore.Internal.Correction>
   9.000000E+99

> <Gold.Chemscore.Hbonds>
donor molecule, donor type, donor heavy atom, donor atom, acceptor molecule, acceptor atom, score
      L1  H     5    21       P1  7948  0.99
      L1  H     8    22       P1  7948  0.93

> <Gold.Chemscore.Hbond.Weighted>
-6.4395

> <Gold.Chemscore.Metal.Weighted>
-0.0000

> <Gold.Chemscore.Lipo.Weighted>
-7.7612

> <Gold.Chemscore.Internal_Hbond.Weighted>
0.0000

> <Gold.Chemscore.DEClash.Weighted>
0.0178

> <Gold.Chemscore.DEInternal.Weighted>
1.7241

> <Gold.Chemscore.Rot.Weighted>
2.5600

> <Gold.Chemscore.Internal.Correction.Weighted>
   9.000000E+99

> <Gold.Protein.RotatedTorsions>
[ 6907 6896 6895 6894 ] final  -45.38 input  -60.11 | X-H torsion
[ 7974 7965 7964 7962 ] final  144.81 input  175.53 | X-H torsion
[ 8008 7997 7996 7995 ] final -111.57 input   59.86 | X-H torsion
[ 10167 10162 10161 10158 ] final -135.44 input  -65.29 | X-H torsion
[ 10718 10713 10712 10709 ] final  -81.57 input   66.30 | X-H torsion
[ 10763 10752 10751 10750 ] final  151.88 input  -60.55 | X-H torsion
[ 11005 11000 10999 10996 ] final -135.56 input  -57.11 | X-H torsion

> <Gold.Protein.ActiveResidues>
 VAL166  LYS551  ARG553  GLY616  TRP617  ASP618  TYR619  PRO620  LYS621  CYS622 
 ASP623  PHE694  ASN695  SER759  ASP760  ASP761  ALA762  ILE779  LEU786  VAL792 
 PHE793  MET794  SER795  GLU796  ALA797  LYS798  CYS799  TRP800  GLU811  SER814 

> <Gold.Protein.RotatedAtoms>
  150.9225  134.8643  159.7498 H   0  0  0  0  0  0  0  0  0  0  0  0  # atno 6907 bound_to 6896
  152.4999  134.4197  159.9486 H   0  0  0  0  0  0  0  0  0  0  0  0  # atno 6908 bound_to 6896
  151.4230  133.3653  159.2793 H   0  0  0  0  0  0  0  0  0  0  0  0  # atno 6909 bound_to 6896
  144.8804  139.5708  143.5845 H   0  0  0  0  0  0  0  0  0  0  0  0  # atno 7974 bound_to 7965
  154.9919  140.0395  157.2323 H   0  0  0  0  0  0  0  0  0  0  0  0  # atno 8008 bound_to 7997
  154.7621  140.2786  155.6183 H   0  0  0  0  0  0  0  0  0  0  0  0  # atno 8009 bound_to 7997
  156.2906  140.2626  156.2402 H   0  0  0  0  0  0  0  0  0  0  0  0  # atno 8010 bound_to 7997
  139.8778  143.6877  152.2631 H   0  0  0  0  0  0  0  0  0  0  0  0  # atno 10167 bound_to 10162
  156.0048  130.4608  150.3973 H   0  0  0  0  0  0  0  0  0  0  0  0  # atno 10718 bound_to 10713
  154.1110  135.2839  155.3230 H   0  0  0  0  0  0  0  0  0  0  0  0  # atno 10763 bound_to 10752
  154.6490  135.5376  153.7882 H   0  0  0  0  0  0  0  0  0  0  0  0  # atno 10764 bound_to 10752
  153.0345  135.6505  154.1268 H   0  0  0  0  0  0  0  0  0  0  0  0  # atno 10765 bound_to 10752
  140.8887  134.1839  157.4542 H   0  0  0  0  0  0  0  0  0  0  0  0  # atno 11005 bound_to 11000
  146.2991  139.7369  142.9105 LP  0  0  0  0  0  0  0  0  0  0  0  0  # atno 17320 bound_to 7965
  145.3964  141.0379  143.3095 LP  0  0  0  0  0  0  0  0  0  0  0  0  # atno 17321 bound_to 7965
  139.7224  144.7600  151.0934 LP  0  0  0  0  0  0  0  0  0  0  0  0  # atno 17342 bound_to 10162
  140.7750  143.5191  150.9558 LP  0  0  0  0  0  0  0  0  0  0  0  0  # atno 17343 bound_to 10162
  157.2044  131.0445  151.2633 LP  0  0  0  0  0  0  0  0  0  0  0  0  # atno 17370 bound_to 10713
  157.3946  130.7300  149.6722 LP  0  0  0  0  0  0  0  0  0  0  0  0  # atno 17371 bound_to 10713
  139.8727  134.9849  156.5259 LP  0  0  0  0  0  0  0  0  0  0  0  0  # atno 17394 bound_to 11000
  140.8373  133.8232  155.9041 LP  0  0  0  0  0  0  0  0  0  0  0  0  # atno 17395 bound_to 11000

$$$$
