AV-unprocessed.smi:3202|AV-procd|sdf|12245|dock9
  -GOLD-   2272018 83D 1   1.00000     0.00000
 Structure written by MMmdl.
 43 44  0  0  0  0  0  0  0  0  2 V2000
  144.1298  142.1556  158.6487 C   0  0  0  0  0  0  0  0  0  0  0  0
  144.5403  142.3285  157.2160 C   0  0  0  0  0  0  0  0  0  0  0  0
  145.7747  142.8281  156.7068 C   0  0  0  0  0  0  0  0  0  0  0  0
  145.6257  142.7770  155.3490 C   0  0  0  0  0  0  0  0  0  0  0  0
  146.5519  143.1568  154.2386 C   0  0  0  0  0  0  0  0  0  0  0  0
  147.7273  142.1814  154.0379 C   0  0  2  0  0  0  0  0  0  0  0  0
  147.2735  140.8142  153.5004 C   0  0  0  0  0  0  0  0  0  0  0  0
  148.4435  141.9975  155.3197 N   0  3  0  0  0  0  0  0  0  0  0  0
  149.8367  141.5079  155.2099 C   0  0  2  0  0  0  0  0  0  0  0  0
  149.9368  140.0758  154.6672 C   0  0  0  0  0  0  0  0  0  0  0  0
  151.2638  139.5275  155.2072 C   0  0  0  0  0  0  0  0  0  0  0  0
  151.7739  140.5548  156.2293 C   0  0  0  0  0  0  0  0  0  0  0  0
  150.5848  141.4760  156.5598 C   0  0  0  0  0  0  0  0  0  0  0  0
  151.0653  142.8780  156.9793 C   0  0  0  0  0  0  0  0  0  0  0  0
  149.7424  140.8559  157.6992 C   0  0  0  0  0  0  0  0  0  0  0  0
  144.3677  142.2676  155.1205 N   0  0  0  0  0  0  0  0  0  0  0  0
  143.6948  141.9937  156.2531 N   0  0  0  0  0  0  0  0  0  0  0  0
  143.9589  142.1051  154.2111 H   0  0  0  0  0  0  0  0  0  0  0  0
  144.9519  142.3905  159.3251 H   0  0  0  0  0  0  0  0  0  0  0  0
  143.8201  141.1294  158.8486 H   0  0  0  0  0  0  0  0  0  0  0  0
  143.2957  142.8112  158.8997 H   0  0  0  0  0  0  0  0  0  0  0  0
  146.6377  143.1724  157.2575 H   0  0  0  0  0  0  0  0  0  0  0  0
  146.9401  144.1610  154.4162 H   0  0  0  0  0  0  0  0  0  0  0  0
  145.9763  143.2203  153.3143 H   0  0  0  0  0  0  0  0  0  0  0  0
  148.4062  142.6188  153.3041 H   0  0  0  0  0  0  0  0  0  0  0  0
  146.7931  140.9067  152.5260 H   0  0  0  0  0  0  0  0  0  0  0  0
  146.5636  140.3371  154.1769 H   0  0  0  0  0  0  0  0  0  0  0  0
  148.1214  140.1396  153.3785 H   0  0  0  0  0  0  0  0  0  0  0  0
  148.4676  142.8919  155.7880 H   0  0  0  0  0  0  0  0  0  0  0  0
  150.3809  142.1699  154.5333 H   0  0  0  0  0  0  0  0  0  0  0  0
  149.1135  139.4663  155.0426 H   0  0  0  0  0  0  0  0  0  0  0  0
  149.8932  140.0445  153.5781 H   0  0  0  0  0  0  0  0  0  0  0  0
  151.1059  138.5564  155.6778 H   0  0  0  0  0  0  0  0  0  0  0  0
  151.9919  139.3868  154.4077 H   0  0  0  0  0  0  0  0  0  0  0  0
  152.1997  140.0791  157.1138 H   0  0  0  0  0  0  0  0  0  0  0  0
  152.5761  141.1331  155.7680 H   0  0  0  0  0  0  0  0  0  0  0  0
  151.6609  142.8333  157.8918 H   0  0  0  0  0  0  0  0  0  0  0  0
  150.2237  143.5452  157.1676 H   0  0  0  0  0  0  0  0  0  0  0  0
  151.6830  143.3399  156.2083 H   0  0  0  0  0  0  0  0  0  0  0  0
  150.3334  140.7519  158.6098 H   0  0  0  0  0  0  0  0  0  0  0  0
  149.3697  139.8642  157.4422 H   0  0  0  0  0  0  0  0  0  0  0  0
  148.8816  141.4769  157.9486 H   0  0  0  0  0  0  0  0  0  0  0  0
  147.9218  141.3525  155.8960 H   0  0  0  0  0  0  0  0  0  0  0  0
  1 19  1  0  0  0  0
  1 20  1  0  0  0  0
  1 21  1  0  0  0  0
  1  2  1  0  0  0  0
  2 17  2  0  0  0  0
  2  3  1  0  0  0  0
  3  4  2  0  0  0  0
  3 22  1  0  0  0  0
  4 16  1  0  0  0  0
  4  5  1  0  0  0  0
  5  6  1  0  0  0  0
  5 23  1  0  0  0  0
  5 24  1  0  0  0  0
  6  7  1  0  0  0  0
  6  8  1  0  0  0  0
  6 25  1  0  0  0  0
  7 26  1  0  0  0  0
  7 27  1  0  0  0  0
  7 28  1  0  0  0  0
  8  9  1  0  0  0  0
  8 29  1  0  0  0  0
  8 43  1  0  0  0  0
  9 13  1  0  0  0  0
  9 10  1  0  0  0  0
  9 30  1  0  0  0  0
 10 11  1  0  0  0  0
 10 31  1  0  0  0  0
 10 32  1  0  0  0  0
 11 12  1  0  0  0  0
 11 33  1  0  0  0  0
 11 34  1  0  0  0  0
 12 13  1  0  0  0  0
 12 35  1  0  0  0  0
 12 36  1  0  0  0  0
 13 14  1  0  0  0  0
 13 15  1  0  0  0  0
 14 37  1  0  0  0  0
 14 38  1  0  0  0  0
 14 39  1  0  0  0  0
 15 40  1  0  0  0  0
 15 41  1  0  0  0  0
 15 42  1  0  0  0  0
 16 17  1  0  0  0  0
 16 18  1  0  0  0  0
M  CHG  1   8   1
M  END
> <s_m_source_file>
AV-unprocessed.smi

> <i_m_source_file_index>
3202

> <i_lp_mmshare_version>
43012

> <i_f3d_flags>
0

> <s_epik_input>
W0NIM11jMVtjSF1jKG5bbkhdMSlbQ0gyXVtDQEhdKFtDSDNdKVtOSF1bQ0BASF0oQzIoW0NIM10pW0NIM10pW0NIMl1bQ0gyXVtDSDJdMg==

> <s_epik_cmdline>
J2VwaWtfcHl0aG9uJywgJy1waCcsICc3LjAnLCAnLXRuJywgJzgnLCAnLW1hJywgJzIwMCcsICctbWV0YWxfYmluZGluZycsICctaW1hZScsICc8aW5maWxlLm1hZT4nLCAnLW9tYWUnLCAnPG91dGZpbGUubWFlPic=

> <r_lp_tautomer_probability>
0.5

> <r_epik_Ionization_Penalty>
0.000449684

> <r_epik_Ionization_Penalty_Charging>
0.000404963

> <r_epik_Ionization_Penalty_Neutral>
4.47208e-05

> <r_epik_State_Penalty>
0.41068

> <r_epik_Charging_Adjusted_Penalty>
0.411085

> <i_epik_Tot_Q>
1

> <i_epik_Tot_abs_Q>
1

> <r_epik_Metal_State_Penalty>
0.410687

> <b_epik_Metal_Only>
0

> <s_lp_Force_Field>
OPLS_2005

> <r_lp_Energy>
32.3092

> <b_lp_Chiralities_Consistent>
1

> <s_lp_Variant>
AV-unprocessed.smi:3202-5

> <Gold.Version>
5.8.1

> <Gold.Id.Protein>
6NUR|6NUR_protein|mol2

> <Gold.PLP.Fitness>
37.5515

> <Gold.PLP.PLP>
-30.0498

> <Gold.PLP.part.hbond>
-2.0000

> <Gold.PLP.part.metal>
0.0000

> <Gold.PLP.part.buried>
-0.7057

> <Gold.PLP.part.nonpolar>
-25.8703

> <Gold.PLP.part.repulsive>
0.2260

> <Gold.PLP.ligand.clash>
0.0015

> <Gold.PLP.ligand.torsion>
0.3785

> <Gold.PLP.Chemscore.Hbond>
2.7500

> <Gold.PLP.Chemscore.CHOScore>
0.0000

> <Gold.PLP.Chemscore.Metal>
0.0000

> <Gold.Chemscore.Hbonds>
donor molecule, donor type, donor heavy atom, donor atom, acceptor molecule, acceptor atom, score
      L1  H     8    29       P1  8028  1.86
      L1  H    16    18       P1 10175  0.07

> <Gold.PLP.Chemscore.Internal.Correction>
0.0102

> <Gold.Rescore>
     Score         DG    S(hbond)    S(metal)    S(lipo)     H(rot)  DE(clash)    DE(int)     intcor
     13.65     -14.18       0.97        0.00      78.52       1.46       0.14       0.40       ----

> <Gold.Chemscore.Fitness>
13.6451

> <Gold.Chemscore.DG>
-14.1794

> <Gold.Chemscore.ZeroCoef>
-5.4800

> <Gold.Chemscore.Hbond>
0.9729

> <Gold.Chemscore.Metal>
0.0000

> <Gold.Chemscore.Lipo>
78.5165

> <Gold.Chemscore.Internal_Hbond>
0.0000

> <Gold.Chemscore.DEClash>
0.1372

> <Gold.Chemscore.DEInternal>
0.3971

> <Gold.Chemscore.Rot>
1.4596

> <Gold.Chemscore.Internal.Correction>
   9.000000E+99

> <Gold.Chemscore.Hbonds>
donor molecule, donor type, donor heavy atom, donor atom, acceptor molecule, acceptor atom, score
      L1  H     8    29       P1  8028  0.90

> <Gold.Chemscore.Hbond.Weighted>
-3.2494

> <Gold.Chemscore.Metal.Weighted>
-0.0000

> <Gold.Chemscore.Lipo.Weighted>
-9.1864

> <Gold.Chemscore.Internal_Hbond.Weighted>
0.0000

> <Gold.Chemscore.DEClash.Weighted>
0.1372

> <Gold.Chemscore.DEInternal.Weighted>
0.3971

> <Gold.Chemscore.Rot.Weighted>
3.7365

> <Gold.Chemscore.Internal.Correction.Weighted>
   9.000000E+99

> <Gold.Protein.RotatedTorsions>
[ 6907 6896 6895 6894 ] final  132.32 input  -60.11 | X-H torsion
[ 7974 7965 7964 7962 ] final   17.41 input  175.53 | X-H torsion
[ 8008 7997 7996 7995 ] final -127.42 input   59.86 | X-H torsion
[ 10167 10162 10161 10158 ] final -102.14 input  -65.29 | X-H torsion
[ 10718 10713 10712 10709 ] final   62.01 input   66.30 | X-H torsion
[ 10763 10752 10751 10750 ] final   11.28 input  -60.55 | X-H torsion
[ 11005 11000 10999 10996 ] final -159.55 input  -57.11 | X-H torsion

> <Gold.Protein.ActiveResidues>
 VAL166  LYS551  ARG553  GLY616  TRP617  ASP618  TYR619  PRO620  LYS621  CYS622 
 ASP623  PHE694  ASN695  SER759  ASP760  ASP761  ALA762  ILE779  LEU786  VAL792 
 PHE793  MET794  SER795  GLU796  ALA797  LYS798  CYS799  TRP800  GLU811  SER814 

> <Gold.Protein.RotatedAtoms>
  152.3335  133.5985  159.5826 H   0  0  0  0  0  0  0  0  0  0  0  0  # atno 6907 bound_to 6896
  150.7437  133.9831  159.3591 H   0  0  0  0  0  0  0  0  0  0  0  0  # atno 6908 bound_to 6896
  151.7703  135.0788  160.0410 H   0  0  0  0  0  0  0  0  0  0  0  0  # atno 6909 bound_to 6896
  146.2219  139.8606  142.8605 H   0  0  0  0  0  0  0  0  0  0  0  0  # atno 7974 bound_to 7965
  155.2459  140.0430  157.2981 H   0  0  0  0  0  0  0  0  0  0  0  0  # atno 8008 bound_to 7997
  154.5799  140.2398  155.8038 H   0  0  0  0  0  0  0  0  0  0  0  0  # atno 8009 bound_to 7997
  156.2185  140.2977  155.9905 H   0  0  0  0  0  0  0  0  0  0  0  0  # atno 8010 bound_to 7997
  140.2338  143.3587  152.0863 H   0  0  0  0  0  0  0  0  0  0  0  0  # atno 10167 bound_to 10162
  157.5870  130.9027  149.9534 H   0  0  0  0  0  0  0  0  0  0  0  0  # atno 10718 bound_to 10713
  153.1942  135.6847  153.8313 H   0  0  0  0  0  0  0  0  0  0  0  0  # atno 10763 bound_to 10752
  153.7602  135.3211  155.3337 H   0  0  0  0  0  0  0  0  0  0  0  0  # atno 10764 bound_to 10752
  154.8135  135.4701  154.0679 H   0  0  0  0  0  0  0  0  0  0  0  0  # atno 10765 bound_to 10752
  140.6413  134.4548  157.5233 H   0  0  0  0  0  0  0  0  0  0  0  0  # atno 11005 bound_to 11000
  145.2708  141.0108  143.3773 LP  0  0  0  0  0  0  0  0  0  0  0  0  # atno 17320 bound_to 7965
  144.9225  139.4394  143.6534 LP  0  0  0  0  0  0  0  0  0  0  0  0  # atno 17321 bound_to 7965
  139.5101  144.6878  151.5842 LP  0  0  0  0  0  0  0  0  0  0  0  0  # atno 17342 bound_to 10162
  140.6165  143.9339  150.6492 LP  0  0  0  0  0  0  0  0  0  0  0  0  # atno 17343 bound_to 10162
  156.0920  130.3662  150.0377 LP  0  0  0  0  0  0  0  0  0  0  0  0  # atno 17370 bound_to 10713
  156.8506  130.9457  151.3625 LP  0  0  0  0  0  0  0  0  0  0  0  0  # atno 17371 bound_to 10713
  139.9079  134.8408  156.1636 LP  0  0  0  0  0  0  0  0  0  0  0  0  # atno 17394 bound_to 11000
  141.0605  133.6844  156.1942 LP  0  0  0  0  0  0  0  0  0  0  0  0  # atno 17395 bound_to 11000

$$$$
