AV-unprocessed.smi:87|AV-procd|sdf|822|dock4
  -GOLD-   2262017233D 1   1.00000     0.00000
 Structure written by MMmdl.
 58 60  0  0  0  0  0  0  0  0  1 V2000
  144.7685  143.7903  156.9750 C   0  0  0  0  0  0  0  0  0  0  0  0
  144.7953  144.0541  155.4620 C   0  0  0  0  0  0  0  0  0  0  0  0
  145.8841  143.2627  154.7023 C   0  0  0  0  0  0  0  0  0  0  0  0
  145.8620  143.5820  153.1888 C   0  0  0  0  0  0  0  0  0  0  0  0
  145.2146  144.9292  152.8366 C   0  0  0  0  0  0  0  0  0  0  0  0
  145.7238  141.7385  154.9409 C   0  0  0  0  0  0  0  0  0  0  0  0
  146.8920  140.9415  154.5612 N   0  0  0  0  0  0  0  0  0  0  0  0
  148.1716  141.6353  154.4461 C   0  0  0  0  0  0  0  0  0  0  0  0
  149.1190  141.3287  155.6155 C   0  0  0  0  0  0  0  0  0  0  0  0
  150.2917  140.5470  155.1968 C   0  0  0  0  0  0  0  0  0  0  0  0
  151.2144  139.9318  154.8671 N   0  0  0  0  0  0  0  0  0  0  0  0
  146.7369  139.9316  153.6697 C   0  0  0  0  0  0  0  0  0  0  0  0
  147.0854  140.1873  152.3832 N   0  0  0  0  0  0  0  0  0  0  0  0
  146.9727  139.2352  151.4527 C   0  0  0  0  0  0  0  0  0  0  0  0
  146.5366  137.9817  151.5901 N   0  0  0  0  0  0  0  0  0  0  0  0
  146.1704  137.7234  152.8778 C   0  0  0  0  0  0  0  0  0  0  0  0
  146.2331  138.6323  153.9724 C   0  0  0  0  0  0  0  0  0  0  0  0
  145.7620  138.0106  155.1237 N   0  0  0  0  0  0  0  0  0  0  0  0
  145.4560  136.8030  154.7370 C   0  0  0  0  0  0  0  0  0  0  0  0
  145.6714  136.5448  153.4033 N   0  0  0  0  0  0  0  0  0  0  0  0
  145.4196  135.2924  152.7121 C   0  0  0  0  0  0  0  0  0  0  0  0
  145.2293  135.4853  151.1947 C   0  0  2  0  0  0  0  0  0  0  0  0
  144.1176  136.3309  150.9638 O   0  0  0  0  0  0  0  0  0  0  0  0
  145.0405  134.1408  150.4623 C   0  0  1  0  0  0  0  0  0  0  0  0
  146.1884  133.1201  150.5707 C   0  0  0  0  0  0  0  0  0  0  0  0
  145.5019  131.8511  151.0488 C   0  0  0  0  0  0  0  0  0  0  0  0
  144.0396  132.0915  150.6933 C   0  0  0  0  0  0  0  0  0  0  0  0
  143.8746  133.4783  150.9378 O   0  0  0  0  0  0  0  0  0  0  0  0
  144.0503  144.4471  157.4661 H   0  0  0  0  0  0  0  0  0  0  0  0
  145.7447  143.9747  157.4245 H   0  0  0  0  0  0  0  0  0  0  0  0
  144.4792  142.7659  157.2070 H   0  0  0  0  0  0  0  0  0  0  0  0
  143.8144  143.8420  155.0351 H   0  0  0  0  0  0  0  0  0  0  0  0
  144.9541  145.1229  155.3268 H   0  0  0  0  0  0  0  0  0  0  0  0
  146.8482  143.5870  155.0939 H   0  0  0  0  0  0  0  0  0  0  0  0
  146.8822  143.6087  152.8054 H   0  0  0  0  0  0  0  0  0  0  0  0
  145.3625  142.7787  152.6461 H   0  0  0  0  0  0  0  0  0  0  0  0
  145.3117  145.1328  151.7700 H   0  0  0  0  0  0  0  0  0  0  0  0
  145.6945  145.7484  153.3729 H   0  0  0  0  0  0  0  0  0  0  0  0
  144.1515  144.9480  153.0727 H   0  0  0  0  0  0  0  0  0  0  0  0
  145.4900  141.5274  155.9821 H   0  0  0  0  0  0  0  0  0  0  0  0
  144.8640  141.3823  154.3723 H   0  0  0  0  0  0  0  0  0  0  0  0
  148.6423  141.3394  153.5081 H   0  0  0  0  0  0  0  0  0  0  0  0
  148.0091  142.7114  154.3730 H   0  0  0  0  0  0  0  0  0  0  0  0
  149.4822  142.2500  156.0718 H   0  0  0  0  0  0  0  0  0  0  0  0
  148.6055  140.7618  156.3921 H   0  0  0  0  0  0  0  0  0  0  0  0
  147.2775  139.5176  150.4558 H   0  0  0  0  0  0  0  0  0  0  0  0
  145.0627  136.0626  155.4184 H   0  0  0  0  0  0  0  0  0  0  0  0
  146.2612  134.6260  152.9046 H   0  0  0  0  0  0  0  0  0  0  0  0
  144.5421  134.8177  153.1530 H   0  0  0  0  0  0  0  0  0  0  0  0
  146.1160  135.9787  150.7941 H   0  0  0  0  0  0  0  0  0  0  0  0
  144.4022  137.0659  150.4426 H   0  0  0  0  0  0  0  0  0  0  0  0
  144.8581  134.3409  149.4048 H   0  0  0  0  0  0  0  0  0  0  0  0
  146.6440  132.9676  149.5915 H   0  0  0  0  0  0  0  0  0  0  0  0
  146.9819  133.4212  151.2547 H   0  0  0  0  0  0  0  0  0  0  0  0
  145.9070  130.9473  150.5928 H   0  0  0  0  0  0  0  0  0  0  0  0
  145.6061  131.7612  152.1309 H   0  0  0  0  0  0  0  0  0  0  0  0
  143.8534  131.8798  149.6390 H   0  0  0  0  0  0  0  0  0  0  0  0
  143.3553  131.4914  151.2937 H   0  0  0  0  0  0  0  0  0  0  0  0
  1  2  1  0  0  0  0
  1 29  1  0  0  0  0
  1 30  1  0  0  0  0
  1 31  1  0  0  0  0
  2  3  1  0  0  0  0
  2 32  1  0  0  0  0
  2 33  1  0  0  0  0
  3  4  1  0  0  0  0
  3  6  1  0  0  0  0
  3 34  1  0  0  0  0
  4  5  1  0  0  0  0
  4 35  1  0  0  0  0
  4 36  1  0  0  0  0
  5 37  1  0  0  0  0
  5 38  1  0  0  0  0
  5 39  1  0  0  0  0
  6  7  1  0  0  0  0
  6 40  1  0  0  0  0
  6 41  1  0  0  0  0
  7  8  1  0  0  0  0
  7 12  1  0  0  0  0
  8  9  1  0  0  0  0
  8 42  1  0  0  0  0
  8 43  1  0  0  0  0
  9 10  1  0  0  0  0
  9 44  1  0  0  0  0
  9 45  1  0  0  0  0
 10 11  3  0  0  0  0
 12 17  1  0  0  0  0
 12 13  2  0  0  0  0
 13 14  1  0  0  0  0
 14 15  2  0  0  0  0
 14 46  1  0  0  0  0
 15 16  1  0  0  0  0
 16 20  1  0  0  0  0
 16 17  2  0  0  0  0
 17 18  1  0  0  0  0
 18 19  2  0  0  0  0
 19 20  1  0  0  0  0
 19 47  1  0  0  0  0
 20 21  1  0  0  0  0
 21 22  1  0  0  0  0
 21 48  1  0  0  0  0
 21 49  1  0  0  0  0
 22 23  1  0  0  0  0
 22 24  1  0  0  0  0
 22 50  1  0  0  0  0
 23 51  1  0  0  0  0
 24 28  1  0  0  0  0
 24 25  1  0  0  0  0
 24 52  1  0  0  0  0
 25 26  1  0  0  0  0
 25 53  1  0  0  0  0
 25 54  1  0  0  0  0
 26 27  1  0  0  0  0
 26 55  1  0  0  0  0
 26 56  1  0  0  0  0
 27 28  1  0  0  0  0
 27 57  1  0  0  0  0
 27 58  1  0  0  0  0
M  END
> <s_m_source_file>
AV-unprocessed.smi

> <i_m_source_file_index>
87

> <i_lp_mmshare_version>
43012

> <i_f3d_flags>
0

> <s_epik_input>
W0NIM11bQ0gyXVtDSF0oW0NIMl1bQ0gzXSlbQ0gyXU4oW0NIMl1bQ0gyXUMjTiljKG5bY0hdbjEpYyhjMTIpbltjSF1uMltDSDJdW0NASF0oW09IXSlbQ0BASF0zW0NIMl1bQ0gyXVtDSDJdTzM=

> <s_epik_cmdline>
J2VwaWtfcHl0aG9uJywgJy1waCcsICc3LjAnLCAnLXRuJywgJzgnLCAnLW1hJywgJzIwMCcsICctbWV0YWxfYmluZGluZycsICctaW1hZScsICc8aW5maWxlLm1hZT4nLCAnLW9tYWUnLCAnPG91dGZpbGUubWFlPic=

> <r_lp_tautomer_probability>
1

> <r_epik_Ionization_Penalty>
0.000348566

> <r_epik_Ionization_Penalty_Charging>
0

> <r_epik_Ionization_Penalty_Neutral>
0.000348566

> <r_epik_State_Penalty>
-0

> <r_epik_Charging_Adjusted_Penalty>
0

> <i_epik_Tot_Q>
0

> <i_epik_Tot_abs_Q>
0

> <r_epik_Metal_State_Penalty>
-0

> <b_epik_Metal_Only>
0

> <s_lp_Force_Field>
OPLS_2005

> <r_lp_Energy>
36.8585

> <b_lp_Chiralities_Consistent>
1

> <s_lp_Variant>
AV-unprocessed.smi:87-3

> <Gold.Version>
5.8.1

> <Gold.Id.Protein>
6NUR|6NUR_protein|mol2

> <Gold.PLP.Fitness>
49.0349

> <Gold.PLP.PLP>
-46.0130

> <Gold.PLP.part.hbond>
-2.0000

> <Gold.PLP.part.metal>
0.0000

> <Gold.PLP.part.buried>
-7.0276

> <Gold.PLP.part.nonpolar>
-40.1918

> <Gold.PLP.part.repulsive>
2.5655

> <Gold.PLP.ligand.clash>
0.0000

> <Gold.PLP.ligand.torsion>
2.6617

> <Gold.PLP.Chemscore.Hbond>
1.9920

> <Gold.PLP.Chemscore.CHOScore>
0.3048

> <Gold.PLP.Chemscore.Metal>
0.0000

> <Gold.Chemscore.Hbonds>
donor molecule, donor type, donor heavy atom, donor atom, acceptor molecule, acceptor atom, score
      L1  H    23    51       P1 10171  0.85
      P1  H  7989  7998       L1    11  0.90
      L1  C    14    46       P1  7957  0.30

> <Gold.PLP.Chemscore.Internal.Correction>
1.4549

> <Gold.Rescore>
     Score         DG    S(hbond)    S(metal)    S(lipo)     H(rot)  DE(clash)    DE(int)     intcor
      7.37     -12.69       1.88        0.00      81.71       3.37       1.33       3.99       ----

> <Gold.Chemscore.Fitness>
7.3709

> <Gold.Chemscore.DG>
-12.6939

> <Gold.Chemscore.ZeroCoef>
-5.4800

> <Gold.Chemscore.Hbond>
1.8783

> <Gold.Chemscore.Metal>
0.0000

> <Gold.Chemscore.Lipo>
81.7134

> <Gold.Chemscore.Internal_Hbond>
0.0000

> <Gold.Chemscore.DEClash>
1.3301

> <Gold.Chemscore.DEInternal>
3.9929

> <Gold.Chemscore.Rot>
3.3672

> <Gold.Chemscore.Internal.Correction>
   9.000000E+99

> <Gold.Chemscore.Hbonds>
donor molecule, donor type, donor heavy atom, donor atom, acceptor molecule, acceptor atom, score
      L1  H    23    51       P1 10171  0.83
      P1  H  7989  7998       L1    11  0.18

> <Gold.Chemscore.Hbond.Weighted>
-6.2735

> <Gold.Chemscore.Metal.Weighted>
-0.0000

> <Gold.Chemscore.Lipo.Weighted>
-9.5605

> <Gold.Chemscore.Internal_Hbond.Weighted>
0.0000

> <Gold.Chemscore.DEClash.Weighted>
1.3301

> <Gold.Chemscore.DEInternal.Weighted>
3.9929

> <Gold.Chemscore.Rot.Weighted>
8.6201

> <Gold.Chemscore.Internal.Correction.Weighted>
   9.000000E+99

> <Gold.Protein.RotatedTorsions>
[ 6907 6896 6895 6894 ] final  -46.31 input  -60.11 | X-H torsion
[ 7974 7965 7964 7962 ] final -168.66 input  175.53 | X-H torsion
[ 8008 7997 7996 7995 ] final   10.84 input   59.86 | X-H torsion
[ 10167 10162 10161 10158 ] final   89.35 input  -65.29 | X-H torsion
[ 10718 10713 10712 10709 ] final  150.39 input   66.30 | X-H torsion
[ 10763 10752 10751 10750 ] final  -17.79 input  -60.55 | X-H torsion
[ 11005 11000 10999 10996 ] final  173.78 input  -57.11 | X-H torsion

> <Gold.Protein.ActiveResidues>
 VAL166  LYS551  ARG553  GLY616  TRP617  ASP618  TYR619  PRO620  LYS621  CYS622 
 ASP623  PHE694  ASN695  SER759  ASP760  ASP761  ALA762  ILE779  LEU786  VAL792 
 PHE793  MET794  SER795  GLU796  ALA797  LYS798  CYS799  TRP800  GLU811  SER814 

> <Gold.Protein.RotatedAtoms>
  150.9126  134.8543  159.7434 H   0  0  0  0  0  0  0  0  0  0  0  0  # atno 6907 bound_to 6896
  152.4952  134.4337  159.9530 H   0  0  0  0  0  0  0  0  0  0  0  0  # atno 6908 bound_to 6896
  151.4378  133.3612  159.2813 H   0  0  0  0  0  0  0  0  0  0  0  0  # atno 6909 bound_to 6896
  144.7199  140.2338  143.6300 H   0  0  0  0  0  0  0  0  0  0  0  0  # atno 7974 bound_to 7965
  154.7988  140.2848  155.5937 H   0  0  0  0  0  0  0  0  0  0  0  0  # atno 8008 bound_to 7997
  156.2974  140.2590  156.2781 H   0  0  0  0  0  0  0  0  0  0  0  0  # atno 8009 bound_to 7997
  154.9583  140.0378  157.2167 H   0  0  0  0  0  0  0  0  0  0  0  0  # atno 8010 bound_to 7997
  139.8582  144.6558  150.9089 H   0  0  0  0  0  0  0  0  0  0  0  0  # atno 10167 bound_to 10162
  157.2840  131.0841  151.1511 H   0  0  0  0  0  0  0  0  0  0  0  0  # atno 10718 bound_to 10713
  153.5793  135.7005  153.5470 H   0  0  0  0  0  0  0  0  0  0  0  0  # atno 10763 bound_to 10752
  153.3275  135.4057  155.1467 H   0  0  0  0  0  0  0  0  0  0  0  0  # atno 10764 bound_to 10752
  154.8620  135.3710  154.5320 H   0  0  0  0  0  0  0  0  0  0  0  0  # atno 10765 bound_to 10752
  140.3442  134.7251  157.4223 H   0  0  0  0  0  0  0  0  0  0  0  0  # atno 11005 bound_to 11000
  145.8385  139.2119  143.1841 LP  0  0  0  0  0  0  0  0  0  0  0  0  # atno 17320 bound_to 7965
  146.0367  140.8205  142.9849 LP  0  0  0  0  0  0  0  0  0  0  0  0  # atno 17321 bound_to 7965
  140.7778  143.3767  151.1550 LP  0  0  0  0  0  0  0  0  0  0  0  0  # atno 17342 bound_to 10162
  139.7399  143.8940  152.3046 LP  0  0  0  0  0  0  0  0  0  0  0  0  # atno 17343 bound_to 10162
  157.2933  130.6807  149.6125 LP  0  0  0  0  0  0  0  0  0  0  0  0  # atno 17370 bound_to 10713
  155.9665  130.4414  150.5339 LP  0  0  0  0  0  0  0  0  0  0  0  0  # atno 17371 bound_to 10713
  140.0756  134.5801  155.8594 LP  0  0  0  0  0  0  0  0  0  0  0  0  # atno 17394 bound_to 11000
  141.2030  133.6629  156.6039 LP  0  0  0  0  0  0  0  0  0  0  0  0  # atno 17395 bound_to 11000

$$$$
