AV-unprocessed.smi:2702|AV-procd|sdf|10433|dock1
  -GOLD-   2272014473D 1   1.00000     0.00000
 Structure written by MMmdl.
 47 48  0  0  0  0  0  0  0  0  1 V2000
  150.0181  143.8759  158.2522 C   0  0  0  0  0  0  0  0  0  0  0  0
  149.3396  142.6405  158.1116 O   0  0  0  0  0  0  0  0  0  0  0  0
  150.1143  141.6694  157.4281 C   0  0  0  0  0  0  0  0  0  0  0  0
  149.6517  140.2716  157.7871 C   0  0  0  0  0  0  0  0  0  0  0  0
  150.5087  139.3225  158.2308 C   0  0  0  0  0  0  0  0  0  0  0  0
  150.0285  137.9828  158.5685 C   0  0  0  0  0  0  0  0  0  0  0  0
  150.7764  137.0927  158.9749 O   0  0  0  0  0  0  0  0  0  0  0  0
  148.6866  137.7925  158.3971 N   0  0  0  0  0  0  0  0  0  0  0  0
  148.0568  136.4925  158.6912 C   0  0  0  0  0  0  0  0  0  0  0  0
  147.8029  136.2801  160.1899 C   0  0  0  0  0  0  0  0  0  0  0  0
  147.8765  137.2252  160.9760 O   0  0  0  0  0  0  0  0  0  0  0  0
  147.4963  135.0280  160.5623 N   0  0  0  0  0  0  0  0  0  0  0  0
  147.2483  134.5675  161.9304 C   0  0  1  0  0  0  0  0  0  0  0  0
  146.1265  135.4076  162.5683 C   0  0  0  0  0  0  0  0  0  0  0  0
  144.7587  135.1128  161.9357 C   0  0  0  0  0  0  0  0  0  0  0  0
  144.4338  133.6146  162.0025 C   0  0  0  0  0  0  0  0  0  0  0  0
  145.5291  132.7515  161.3427 C   0  0  2  0  0  0  0  0  0  0  0  0
  145.1390  131.2650  161.4243 C   0  0  0  0  0  0  0  0  0  0  0  0
  146.9173  133.0507  161.9753 C   0  0  1  0  0  0  0  0  0  0  0  0
  148.0529  132.2014  161.3683 C   0  0  0  0  0  0  0  0  0  0  0  0
  147.8364  138.8205  157.9432 C   0  0  0  0  0  0  0  0  0  0  0  0
  148.2867  139.9990  157.6509 N   0  0  0  0  0  0  0  0  0  0  0  0
  149.3829  144.5840  158.7843 H   0  0  0  0  0  0  0  0  0  0  0  0
  150.2605  144.3056  157.2794 H   0  0  0  0  0  0  0  0  0  0  0  0
  150.9402  143.7570  158.8227 H   0  0  0  0  0  0  0  0  0  0  0  0
  150.0401  141.8230  156.3501 H   0  0  0  0  0  0  0  0  0  0  0  0
  151.1668  141.7700  157.6978 H   0  0  0  0  0  0  0  0  0  0  0  0
  151.5604  139.5469  158.3351 H   0  0  0  0  0  0  0  0  0  0  0  0
  147.1069  136.3754  158.1669 H   0  0  0  0  0  0  0  0  0  0  0  0
  148.6892  135.6883  158.3099 H   0  0  0  0  0  0  0  0  0  0  0  0
  147.4561  134.3235  159.8401 H   0  0  0  0  0  0  0  0  0  0  0  0
  148.1448  134.7337  162.5300 H   0  0  0  0  0  0  0  0  0  0  0  0
  146.0794  135.1898  163.6361 H   0  0  0  0  0  0  0  0  0  0  0  0
  146.3562  136.4707  162.4860 H   0  0  0  0  0  0  0  0  0  0  0  0
  143.9837  135.6831  162.4484 H   0  0  0  0  0  0  0  0  0  0  0  0
  144.7478  135.4453  160.8972 H   0  0  0  0  0  0  0  0  0  0  0  0
  144.3116  133.3183  163.0454 H   0  0  0  0  0  0  0  0  0  0  0  0
  143.4733  133.4330  161.5187 H   0  0  0  0  0  0  0  0  0  0  0  0
  145.5698  133.0165  160.2852 H   0  0  0  0  0  0  0  0  0  0  0  0
  145.1505  130.9072  162.4542 H   0  0  0  0  0  0  0  0  0  0  0  0
  145.8136  130.6376  160.8423 H   0  0  0  0  0  0  0  0  0  0  0  0
  144.1363  131.1020  161.0284 H   0  0  0  0  0  0  0  0  0  0  0  0
  146.8573  132.7768  163.0299 H   0  0  0  0  0  0  0  0  0  0  0  0
  148.0937  132.2993  160.2832 H   0  0  0  0  0  0  0  0  0  0  0  0
  147.9324  131.1439  161.6011 H   0  0  0  0  0  0  0  0  0  0  0  0
  149.0223  132.5035  161.7652 H   0  0  0  0  0  0  0  0  0  0  0  0
  146.7811  138.5554  157.8610 H   0  0  0  0  0  0  0  0  0  0  0  0
  1  2  1  0  0  0  0
  1 23  1  0  0  0  0
  1 24  1  0  0  0  0
  1 25  1  0  0  0  0
  2  3  1  0  0  0  0
  3  4  1  0  0  0  0
  3 26  1  0  0  0  0
  3 27  1  0  0  0  0
  4 22  1  0  0  0  0
  4  5  2  0  0  0  0
  5  6  1  0  0  0  0
  5 28  1  0  0  0  0
  6  7  2  0  0  0  0
  6  8  1  0  0  0  0
  8  9  1  0  0  0  0
  8 21  1  0  0  0  0
  9 10  1  0  0  0  0
  9 29  1  0  0  0  0
  9 30  1  0  0  0  0
 10 11  2  0  0  0  0
 10 12  1  0  0  0  0
 12 13  1  0  0  0  0
 12 31  1  0  0  0  0
 13 19  1  0  0  0  0
 13 14  1  0  0  0  0
 13 32  1  0  0  0  0
 14 15  1  0  0  0  0
 14 33  1  0  0  0  0
 14 34  1  0  0  0  0
 15 16  1  0  0  0  0
 15 35  1  0  0  0  0
 15 36  1  0  0  0  0
 16 17  1  0  0  0  0
 16 37  1  0  0  0  0
 16 38  1  0  0  0  0
 17 18  1  0  0  0  0
 17 19  1  0  0  0  0
 17 39  1  0  0  0  0
 18 40  1  0  0  0  0
 18 41  1  0  0  0  0
 18 42  1  0  0  0  0
 19 20  1  0  0  0  0
 19 43  1  0  0  0  0
 20 44  1  0  0  0  0
 20 45  1  0  0  0  0
 20 46  1  0  0  0  0
 21 22  2  0  0  0  0
 21 47  1  0  0  0  0
M  END
> <s_m_source_file>
AV-unprocessed.smi

> <i_m_source_file_index>
2702

> <i_lp_mmshare_version>
43012

> <i_f3d_flags>
0

> <s_epik_input>
W0NIM11PW0NIMl1jMVtjSF1jKD1PKW4oW2NIXW4xKVtDSDJdQyg9TylbTkhdW0NAQEhdMltDSDJdW0NIMl1bQ0gyXVtDQEBIXShbQ0gzXSlbQ0BIXTJbQ0gzXQ==

> <s_epik_cmdline>
J2VwaWtfcHl0aG9uJywgJy1waCcsICc3LjAnLCAnLXRuJywgJzgnLCAnLW1hJywgJzIwMCcsICctbWV0YWxfYmluZGluZycsICctaW1hZScsICc8aW5maWxlLm1hZT4nLCAnLW9tYWUnLCAnPG91dGZpbGUubWFlPic=

> <r_lp_tautomer_probability>
1

> <r_epik_Ionization_Penalty>
1.22164e-06

> <r_epik_Ionization_Penalty_Charging>
3.17988e-07

> <r_epik_Ionization_Penalty_Neutral>
9.03656e-07

> <r_epik_State_Penalty>
-0

> <r_epik_Charging_Adjusted_Penalty>
3.17988e-07

> <i_epik_Tot_Q>
0

> <i_epik_Tot_abs_Q>
0

> <r_epik_Metal_State_Penalty>
-0

> <b_epik_Metal_Only>
0

> <s_lp_Force_Field>
OPLS_2005

> <r_lp_Energy>
16.6041

> <b_lp_Chiralities_Consistent>
1

> <s_lp_Variant>
AV-unprocessed.smi:2702-4

> <Gold.Version>
5.8.1

> <Gold.Id.Protein>
6NUR|6NUR_protein|mol2

> <Gold.PLP.Fitness>
40.6713

> <Gold.PLP.PLP>
-34.4123

> <Gold.PLP.part.hbond>
-2.8186

> <Gold.PLP.part.metal>
0.0000

> <Gold.PLP.part.buried>
-5.2428

> <Gold.PLP.part.nonpolar>
-26.4866

> <Gold.PLP.part.repulsive>
0.1881

> <Gold.PLP.ligand.clash>
0.0000

> <Gold.PLP.ligand.torsion>
0.6325

> <Gold.PLP.Chemscore.Hbond>
2.4799

> <Gold.PLP.Chemscore.CHOScore>
0.0000

> <Gold.PLP.Chemscore.Metal>
0.0000

> <Gold.Chemscore.Hbonds>
donor molecule, donor type, donor heavy atom, donor atom, acceptor molecule, acceptor atom, score
      P1  H  6896  6907       L1     7  0.54
      P1  H  6931  6943       L1    11  0.90
      P1  H  6934  6947       L1    11  0.80

> <Gold.PLP.Chemscore.Internal.Correction>
0.0844

> <Gold.Rescore>
     Score         DG    S(hbond)    S(metal)    S(lipo)     H(rot)  DE(clash)    DE(int)     intcor
     17.24     -17.88       2.63        0.00      73.23       1.93       0.06       0.59       ----

> <Gold.Chemscore.Fitness>
17.2386

> <Gold.Chemscore.DG>
-17.8846

> <Gold.Chemscore.ZeroCoef>
-5.4800

> <Gold.Chemscore.Hbond>
2.6267

> <Gold.Chemscore.Metal>
0.0000

> <Gold.Chemscore.Lipo>
73.2336

> <Gold.Chemscore.Internal_Hbond>
0.0000

> <Gold.Chemscore.DEClash>
0.0572

> <Gold.Chemscore.DEInternal>
0.5887

> <Gold.Chemscore.Rot>
1.9284

> <Gold.Chemscore.Internal.Correction>
   9.000000E+99

> <Gold.Chemscore.Hbonds>
donor molecule, donor type, donor heavy atom, donor atom, acceptor molecule, acceptor atom, score
      P1  H  6896  6907       L1     7  0.52
      P1  H  6931  6943       L1    11  0.88
      P1  H  6934  6947       L1    11  0.79

> <Gold.Chemscore.Hbond.Weighted>
-8.7730

> <Gold.Chemscore.Metal.Weighted>
-0.0000

> <Gold.Chemscore.Lipo.Weighted>
-8.5683

> <Gold.Chemscore.Internal_Hbond.Weighted>
0.0000

> <Gold.Chemscore.DEClash.Weighted>
0.0572

> <Gold.Chemscore.DEInternal.Weighted>
0.5887

> <Gold.Chemscore.Rot.Weighted>
4.9368

> <Gold.Chemscore.Internal.Correction.Weighted>
   9.000000E+99

> <Gold.Protein.RotatedTorsions>
[ 6907 6896 6895 6894 ] final  -29.20 input  -60.11 | X-H torsion
[ 7974 7965 7964 7962 ] final  -91.86 input  175.53 | X-H torsion
[ 8008 7997 7996 7995 ] final -172.47 input   59.86 | X-H torsion
[ 10167 10162 10161 10158 ] final   85.68 input  -65.29 | X-H torsion
[ 10718 10713 10712 10709 ] final   87.51 input   66.30 | X-H torsion
[ 10763 10752 10751 10750 ] final   99.06 input  -60.55 | X-H torsion
[ 11005 11000 10999 10996 ] final   34.50 input  -57.11 | X-H torsion

> <Gold.Protein.ActiveResidues>
 VAL166  LYS551  ARG553  GLY616  TRP617  ASP618  TYR619  PRO620  LYS621  CYS622 
 ASP623  PHE694  ASN695  SER759  ASP760  ASP761  ALA762  ILE779  LEU786  VAL792 
 PHE793  MET794  SER795  GLU796  ALA797  LYS798  CYS799  TRP800  GLU811  SER814 

> <Gold.Protein.RotatedAtoms>
  151.1225  135.0087  159.8544 H   0  0  0  0  0  0  0  0  0  0  0  0  # atno 6907 bound_to 6896
  152.5448  134.1706  159.8605 H   0  0  0  0  0  0  0  0  0  0  0  0  # atno 6908 bound_to 6896
  151.1765  133.4706  159.2627 H   0  0  0  0  0  0  0  0  0  0  0  0  # atno 6909 bound_to 6896
  145.4075  140.9542  143.2252 H   0  0  0  0  0  0  0  0  0  0  0  0  # atno 7974 bound_to 7965
  155.9450  140.1116  157.1024 H   0  0  0  0  0  0  0  0  0  0  0  0  # atno 8008 bound_to 7997
  154.4097  140.1211  156.5043 H   0  0  0  0  0  0  0  0  0  0  0  0  # atno 8009 bound_to 7997
  155.6914  140.3472  155.4897 H   0  0  0  0  0  0  0  0  0  0  0  0  # atno 8010 bound_to 7997
  139.8953  144.6361  150.8695 H   0  0  0  0  0  0  0  0  0  0  0  0  # atno 10167 bound_to 10162
  157.6941  131.0258  150.3134 H   0  0  0  0  0  0  0  0  0  0  0  0  # atno 10718 bound_to 10713
  153.2967  135.4126  155.1216 H   0  0  0  0  0  0  0  0  0  0  0  0  # atno 10763 bound_to 10752
  154.8537  135.3531  154.5907 H   0  0  0  0  0  0  0  0  0  0  0  0  # atno 10764 bound_to 10752
  153.6331  135.7060  153.5326 H   0  0  0  0  0  0  0  0  0  0  0  0  # atno 10765 bound_to 10752
  140.2522  134.3290  155.7886 H   0  0  0  0  0  0  0  0  0  0  0  0  # atno 11005 bound_to 11000
  144.8331  139.5595  143.6934 LP  0  0  0  0  0  0  0  0  0  0  0  0  # atno 17320 bound_to 7965
  146.2721  139.6661  142.9289 LP  0  0  0  0  0  0  0  0  0  0  0  0  # atno 17321 bound_to 7965
  140.7718  143.3478  151.2075 LP  0  0  0  0  0  0  0  0  0  0  0  0  # atno 17342 bound_to 10162
  139.7073  143.9434  152.2932 LP  0  0  0  0  0  0  0  0  0  0  0  0  # atno 17343 bound_to 10162
  156.3632  130.3850  149.7235 LP  0  0  0  0  0  0  0  0  0  0  0  0  # atno 17370 bound_to 10713
  156.4674  130.7980  151.2999 LP  0  0  0  0  0  0  0  0  0  0  0  0  # atno 17371 bound_to 10713
  141.2200  133.7360  156.9054 LP  0  0  0  0  0  0  0  0  0  0  0  0  # atno 17394 bound_to 11000
  140.1547  134.9206  157.2638 LP  0  0  0  0  0  0  0  0  0  0  0  0  # atno 17395 bound_to 11000

$$$$
