AV-unprocessed.smi:2127|AV-procd|sdf|8680|dock3
  -GOLD-   2272011433D 1   1.00000     0.00000
 Structure written by MMmdl.
 34 35  0  0  0  0  0  0  0  0  1 V2000
  150.0271  140.9912  157.6234 O   0  0  0  0  0  0  0  0  0  0  0  0
  149.9161  142.0410  156.9918 C   0  0  0  0  0  0  0  0  0  0  0  0
  150.3795  143.2431  157.3773 N   0  0  0  0  0  0  0  0  0  0  0  0
  151.0881  143.6095  158.5558 C   0  0  0  0  0  0  0  0  0  0  0  0
  152.1022  142.8348  159.1717 C   0  0  0  0  0  0  0  0  0  0  0  0
  152.7190  143.3256  160.3389 C   0  0  0  0  0  0  0  0  0  0  0  0
  152.3032  144.5704  160.8486 C   0  0  0  0  0  0  0  0  0  0  0  0
  151.3402  145.3199  160.2732 N   0  0  0  0  0  0  0  0  0  0  0  0
  150.7533  144.8428  159.1550 C   0  0  0  0  0  0  0  0  0  0  0  0
  149.2984  142.1243  155.8045 N   0  0  0  0  0  0  0  0  0  0  0  0
  148.6982  141.0084  155.0708 C   0  0  1  0  0  0  0  0  0  0  0  0
  147.9256  141.5337  153.8401 C   0  0  0  0  0  0  0  0  0  0  0  0
  146.8387  140.5749  153.3279 C   0  0  0  0  0  0  0  0  0  0  0  0
  147.3583  139.2219  152.8192 C   0  0  0  0  0  0  0  0  0  0  0  0
  147.9985  138.3527  153.9154 C   0  0  0  0  0  0  0  0  0  0  0  0
  149.3610  138.7629  154.2318 N   0  0  0  0  0  0  0  0  0  0  0  0
  149.7570  139.9387  154.7428 C   0  0  0  0  0  0  0  0  0  0  0  0
  150.9511  140.1627  154.9406 O   0  0  0  0  0  0  0  0  0  0  0  0
  150.1986  144.0034  156.7383 H   0  0  0  0  0  0  0  0  0  0  0  0
  152.4253  141.8823  158.7851 H   0  0  0  0  0  0  0  0  0  0  0  0
  153.4947  142.7592  160.8328 H   0  0  0  0  0  0  0  0  0  0  0  0
  152.7560  144.9745  161.7420 H   0  0  0  0  0  0  0  0  0  0  0  0
  149.9871  145.4705  158.7232 H   0  0  0  0  0  0  0  0  0  0  0  0
  149.2574  143.0267  155.3531 H   0  0  0  0  0  0  0  0  0  0  0  0
  147.9861  140.5325  155.7478 H   0  0  0  0  0  0  0  0  0  0  0  0
  147.4329  142.4738  154.0923 H   0  0  0  0  0  0  0  0  0  0  0  0
  148.6217  141.7739  153.0353 H   0  0  0  0  0  0  0  0  0  0  0  0
  146.1001  140.4093  154.1133 H   0  0  0  0  0  0  0  0  0  0  0  0
  146.3012  141.0655  152.5158 H   0  0  0  0  0  0  0  0  0  0  0  0
  146.5132  138.6745  152.4004 H   0  0  0  0  0  0  0  0  0  0  0  0
  148.0566  139.3688  151.9942 H   0  0  0  0  0  0  0  0  0  0  0  0
  147.3852  138.3390  154.8175 H   0  0  0  0  0  0  0  0  0  0  0  0
  148.0508  137.3213  153.5663 H   0  0  0  0  0  0  0  0  0  0  0  0
  150.0838  138.0860  154.0331 H   0  0  0  0  0  0  0  0  0  0  0  0
  1  2  2  0  0  0  0
  2  3  1  0  0  0  0
  2 10  1  0  0  0  0
  3  4  1  0  0  0  0
  3 19  1  0  0  0  0
  4  9  1  0  0  0  0
  4  5  2  0  0  0  0
  5  6  1  0  0  0  0
  5 20  1  0  0  0  0
  6  7  2  0  0  0  0
  6 21  1  0  0  0  0
  7  8  1  0  0  0  0
  7 22  1  0  0  0  0
  8  9  2  0  0  0  0
  9 23  1  0  0  0  0
 10 11  1  0  0  0  0
 10 24  1  0  0  0  0
 11 17  1  0  0  0  0
 11 12  1  0  0  0  0
 11 25  1  0  0  0  0
 12 13  1  0  0  0  0
 12 26  1  0  0  0  0
 12 27  1  0  0  0  0
 13 14  1  0  0  0  0
 13 28  1  0  0  0  0
 13 29  1  0  0  0  0
 14 15  1  0  0  0  0
 14 30  1  0  0  0  0
 14 31  1  0  0  0  0
 15 16  1  0  0  0  0
 15 32  1  0  0  0  0
 15 33  1  0  0  0  0
 16 17  1  0  0  0  0
 16 34  1  0  0  0  0
 17 18  2  0  0  0  0
M  END
> <s_m_source_file>
AV-unprocessed.smi

> <i_m_source_file_index>
2127

> <i_lp_mmshare_version>
43012

> <i_f3d_flags>
0

> <s_epik_input>
W2NIXTFuW2NIXVtjSF1bY0hdYzFbTkhdQyg9TylbTkhdW0NAQEhdMltDSDJdW0NIMl1bQ0gyXVtDSDJdW05IXUMyPU8=

> <s_epik_cmdline>
J2VwaWtfcHl0aG9uJywgJy1waCcsICc3LjAnLCAnLXRuJywgJzgnLCAnLW1hJywgJzIwMCcsICctbWV0YWxfYmluZGluZycsICctaW1hZScsICc8aW5maWxlLm1hZT4nLCAnLW9tYWUnLCAnPG91dGZpbGUubWFlPic=

> <r_epik_Ionization_Penalty>
0.00420494

> <r_epik_Ionization_Penalty_Charging>
0

> <r_epik_Ionization_Penalty_Neutral>
0.00420494

> <r_epik_State_Penalty>
0.0029968

> <r_epik_Charging_Adjusted_Penalty>
0.0029968

> <i_epik_Tot_Q>
0

> <i_epik_Tot_abs_Q>
0

> <r_epik_Metal_State_Penalty>
-0

> <b_epik_Metal_Only>
0

> <s_lp_Force_Field>
OPLS_2005

> <r_lp_Energy>
13.2034

> <b_lp_Chiralities_Consistent>
1

> <s_lp_Variant>
AV-unprocessed.smi:2127-2

> <Gold.Version>
5.8.1

> <Gold.Id.Protein>
6NUR|6NUR_protein|mol2

> <Gold.PLP.Fitness>
43.2915

> <Gold.PLP.PLP>
-32.5741

> <Gold.PLP.part.hbond>
-3.0023

> <Gold.PLP.part.metal>
0.0000

> <Gold.PLP.part.buried>
-2.9589

> <Gold.PLP.part.nonpolar>
-27.6073

> <Gold.PLP.part.repulsive>
0.4666

> <Gold.PLP.ligand.clash>
0.0000

> <Gold.PLP.ligand.torsion>
0.3288

> <Gold.PLP.Chemscore.Hbond>
2.7920

> <Gold.PLP.Chemscore.CHOScore>
0.9906

> <Gold.PLP.Chemscore.Metal>
0.0000

> <Gold.Chemscore.Hbonds>
donor molecule, donor type, donor heavy atom, donor atom, acceptor molecule, acceptor atom, score
      L1  H     3    19       P1  8028  0.86
      L1  H    10    24       P1  8028  0.86
      P1  H  7989  7998       L1    18  1.00
      L1  C     9    23       P1  8029  0.89

> <Gold.PLP.Chemscore.Internal.Correction>
0.0273

> <Gold.Rescore>
     Score         DG    S(hbond)    S(metal)    S(lipo)     H(rot)  DE(clash)    DE(int)     intcor
     20.87     -22.25       2.80        0.00      85.31       1.00       0.23       1.15       ----

> <Gold.Chemscore.Fitness>
20.8729

> <Gold.Chemscore.DG>
-22.2531

> <Gold.Chemscore.ZeroCoef>
-5.4800

> <Gold.Chemscore.Hbond>
2.7999

> <Gold.Chemscore.Metal>
0.0000

> <Gold.Chemscore.Lipo>
85.3111

> <Gold.Chemscore.Internal_Hbond>
0.0000

> <Gold.Chemscore.DEClash>
0.2340

> <Gold.Chemscore.DEInternal>
1.1462

> <Gold.Chemscore.Rot>
1.0000

> <Gold.Chemscore.Internal.Correction>
   9.000000E+99

> <Gold.Chemscore.Hbonds>
donor molecule, donor type, donor heavy atom, donor atom, acceptor molecule, acceptor atom, score
      L1  H     3    19       P1  8028  0.84
      L1  H    10    24       P1  8028  0.85
      P1  H  7989  7998       L1    18  0.70

> <Gold.Chemscore.Hbond.Weighted>
-9.3517

> <Gold.Chemscore.Metal.Weighted>
-0.0000

> <Gold.Chemscore.Lipo.Weighted>
-9.9814

> <Gold.Chemscore.Internal_Hbond.Weighted>
0.0000

> <Gold.Chemscore.DEClash.Weighted>
0.2340

> <Gold.Chemscore.DEInternal.Weighted>
1.1462

> <Gold.Chemscore.Rot.Weighted>
2.5600

> <Gold.Chemscore.Internal.Correction.Weighted>
   9.000000E+99

> <Gold.Protein.RotatedTorsions>
[ 6907 6896 6895 6894 ] final -152.96 input  -60.11 | X-H torsion
[ 7974 7965 7964 7962 ] final  137.08 input  175.53 | X-H torsion
[ 8008 7997 7996 7995 ] final  -27.69 input   59.86 | X-H torsion
[ 10167 10162 10161 10158 ] final  -78.72 input  -65.29 | X-H torsion
[ 10718 10713 10712 10709 ] final  -36.80 input   66.30 | X-H torsion
[ 10763 10752 10751 10750 ] final -176.45 input  -60.55 | X-H torsion
[ 11005 11000 10999 10996 ] final   -7.75 input  -57.11 | X-H torsion

> <Gold.Protein.ActiveResidues>
 VAL166  LYS551  ARG553  GLY616  TRP617  ASP618  TYR619  PRO620  LYS621  CYS622 
 ASP623  PHE694  ASN695  SER759  ASP760  ASP761  ALA762  ILE779  LEU786  VAL792 
 PHE793  MET794  SER795  GLU796  ALA797  LYS798  CYS799  TRP800  GLU811  SER814 

> <Gold.Protein.RotatedAtoms>
  151.2354  133.4428  159.2605 H   0  0  0  0  0  0  0  0  0  0  0  0  # atno 6907 bound_to 6896
  151.0755  134.9825  159.8340 H   0  0  0  0  0  0  0  0  0  0  0  0  # atno 6908 bound_to 6896
  152.5417  134.2297  159.8873 H   0  0  0  0  0  0  0  0  0  0  0  0  # atno 6909 bound_to 6896
  144.9502  139.4827  143.5529 H   0  0  0  0  0  0  0  0  0  0  0  0  # atno 7974 bound_to 7965
  154.4366  140.1865  156.0972 H   0  0  0  0  0  0  0  0  0  0  0  0  # atno 8008 bound_to 7997
  156.0320  140.3329  155.7124 H   0  0  0  0  0  0  0  0  0  0  0  0  # atno 8009 bound_to 7997
  155.5825  140.0623  157.2770 H   0  0  0  0  0  0  0  0  0  0  0  0  # atno 8010 bound_to 7997
  140.4657  143.2441  151.8281 H   0  0  0  0  0  0  0  0  0  0  0  0  # atno 10167 bound_to 10162
  156.3226  130.4268  149.7946 H   0  0  0  0  0  0  0  0  0  0  0  0  # atno 10718 bound_to 10713
  154.5722  135.2829  155.0816 H   0  0  0  0  0  0  0  0  0  0  0  0  # atno 10763 bound_to 10752
  154.2184  135.6395  153.5140 H   0  0  0  0  0  0  0  0  0  0  0  0  # atno 10764 bound_to 10752
  153.0061  135.5508  154.6349 H   0  0  0  0  0  0  0  0  0  0  0  0  # atno 10765 bound_to 10752
  140.7161  133.8867  155.8786 H   0  0  0  0  0  0  0  0  0  0  0  0  # atno 11005 bound_to 11000
  146.3318  139.8582  142.8861 LP  0  0  0  0  0  0  0  0  0  0  0  0  # atno 17320 bound_to 7965
  145.2855  141.0152  143.3693 LP  0  0  0  0  0  0  0  0  0  0  0  0  # atno 17321 bound_to 7965
  139.4812  144.4954  151.9131 LP  0  0  0  0  0  0  0  0  0  0  0  0  # atno 17342 bound_to 10162
  140.4039  144.2457  150.5891 LP  0  0  0  0  0  0  0  0  0  0  0  0  # atno 17343 bound_to 10162
  156.5248  130.8231  151.3216 LP  0  0  0  0  0  0  0  0  0  0  0  0  # atno 17370 bound_to 10713
  157.7415  130.9871  150.2448 LP  0  0  0  0  0  0  0  0  0  0  0  0  # atno 17371 bound_to 10713
  141.0043  134.1107  157.4286 LP  0  0  0  0  0  0  0  0  0  0  0  0  # atno 17394 bound_to 11000
  139.8859  135.0077  156.6467 LP  0  0  0  0  0  0  0  0  0  0  0  0  # atno 17395 bound_to 11000

$$$$
