AV-unprocessed.smi:232|AV-procd|sdf|1782|dock9
  -GOLD-   2262020333D 1   1.00000     0.00000
 Structure written by MMmdl.
 52 55  0  0  0  0  0  0  0  0  1 V2000
  151.2192  144.2629  157.8064 C   0  0  0  0  0  0  0  0  0  0  0  0
  151.1017  142.7639  158.1083 C   0  0  0  0  0  0  0  0  0  0  0  0
  152.4224  142.1427  158.6134 C   0  0  1  0  0  0  0  0  0  0  0  0
  152.9417  142.7905  159.9119 C   0  0  0  0  0  0  0  0  0  0  0  0
  153.2754  141.6261  160.8518 C   0  0  0  0  0  0  0  0  0  0  0  0
  153.2728  140.3864  159.9561 C   0  0  2  0  0  0  0  0  0  0  0  0
  154.6776  140.0882  159.3913 C   0  0  0  0  0  0  0  0  0  0  0  0
  152.2974  140.7183  158.9228 N   0  0  0  0  0  0  0  0  0  0  0  0
  152.1016  139.7980  157.9411 C   0  0  0  0  0  0  0  0  0  0  0  0
  152.6713  139.9747  156.7187 N   0  0  0  0  0  0  0  0  0  0  0  0
  152.5075  139.0623  155.7570 C   0  0  0  0  0  0  0  0  0  0  0  0
  151.8309  137.9137  155.8039 N   0  0  0  0  0  0  0  0  0  0  0  0
  151.2556  137.7294  157.0264 C   0  0  0  0  0  0  0  0  0  0  0  0
  151.3351  138.6149  158.1385 C   0  0  0  0  0  0  0  0  0  0  0  0
  150.6095  138.0974  159.2052 N   0  0  0  0  0  0  0  0  0  0  0  0
  150.1416  136.9657  158.7554 C   0  0  0  0  0  0  0  0  0  0  0  0
  150.5019  136.6541  157.4639 N   0  0  0  0  0  0  0  0  0  0  0  0
  150.1332  135.4600  156.7235 C   0  0  0  0  0  0  0  0  0  0  0  0
  149.1391  135.7286  155.5700 C   0  0  1  0  0  0  0  0  0  0  0  0
  149.8266  136.5624  154.6595 O   0  0  0  0  0  0  0  0  0  0  0  0
  148.6727  134.4800  154.7842 C   0  0  1  0  0  0  0  0  0  0  0  0
  149.7679  133.6697  154.0847 C   0  0  0  0  0  0  0  0  0  0  0  0
  149.1880  132.2685  153.9907 C   0  0  0  0  0  0  0  0  0  0  0  0
  148.0434  132.2773  155.0042 C   0  0  0  0  0  0  0  0  0  0  0  0
  148.1771  133.5101  155.6967 O   0  0  0  0  0  0  0  0  0  0  0  0
  150.2788  144.6531  157.4171 H   0  0  0  0  0  0  0  0  0  0  0  0
  151.9916  144.4530  157.0609 H   0  0  0  0  0  0  0  0  0  0  0  0
  151.4678  144.8340  158.7010 H   0  0  0  0  0  0  0  0  0  0  0  0
  150.3114  142.5981  158.8415 H   0  0  0  0  0  0  0  0  0  0  0  0
  150.7729  142.2640  157.1979 H   0  0  0  0  0  0  0  0  0  0  0  0
  153.1876  142.2586  157.8442 H   0  0  0  0  0  0  0  0  0  0  0  0
  153.8282  143.3903  159.7031 H   0  0  0  0  0  0  0  0  0  0  0  0
  152.2050  143.4476  160.3755 H   0  0  0  0  0  0  0  0  0  0  0  0
  154.2139  141.7688  161.3885 H   0  0  0  0  0  0  0  0  0  0  0  0
  152.4852  141.5317  161.5980 H   0  0  0  0  0  0  0  0  0  0  0  0
  152.9349  139.5312  160.5406 H   0  0  0  0  0  0  0  0  0  0  0  0
  155.3875  139.9040  160.1978 H   0  0  0  0  0  0  0  0  0  0  0  0
  155.0611  140.9182  158.7972 H   0  0  0  0  0  0  0  0  0  0  0  0
  154.6736  139.1998  158.7589 H   0  0  0  0  0  0  0  0  0  0  0  0
  152.9930  139.2818  154.8178 H   0  0  0  0  0  0  0  0  0  0  0  0
  149.5266  136.3174  159.3625 H   0  0  0  0  0  0  0  0  0  0  0  0
  151.0569  135.0350  156.3280 H   0  0  0  0  0  0  0  0  0  0  0  0
  149.7241  134.7199  157.4122 H   0  0  0  0  0  0  0  0  0  0  0  0
  148.2751  136.2779  155.9458 H   0  0  0  0  0  0  0  0  0  0  0  0
  149.3523  136.5690  153.8423 H   0  0  0  0  0  0  0  0  0  0  0  0
  147.8934  134.7399  154.0648 H   0  0  0  0  0  0  0  0  0  0  0  0
  150.0306  134.0702  153.1061 H   0  0  0  0  0  0  0  0  0  0  0  0
  150.6700  133.6441  154.6971 H   0  0  0  0  0  0  0  0  0  0  0  0
  148.8110  132.0604  152.9890 H   0  0  0  0  0  0  0  0  0  0  0  0
  149.9400  131.5162  154.2311 H   0  0  0  0  0  0  0  0  0  0  0  0
  147.0785  132.2505  154.4957 H   0  0  0  0  0  0  0  0  0  0  0  0
  148.0891  131.4352  155.6951 H   0  0  0  0  0  0  0  0  0  0  0  0
  1  2  1  0  0  0  0
  1 26  1  0  0  0  0
  1 27  1  0  0  0  0
  1 28  1  0  0  0  0
  2  3  1  0  0  0  0
  2 29  1  0  0  0  0
  2 30  1  0  0  0  0
  3  8  1  0  0  0  0
  3  4  1  0  0  0  0
  3 31  1  0  0  0  0
  4  5  1  0  0  0  0
  4 32  1  0  0  0  0
  4 33  1  0  0  0  0
  5  6  1  0  0  0  0
  5 34  1  0  0  0  0
  5 35  1  0  0  0  0
  6  7  1  0  0  0  0
  6  8  1  0  0  0  0
  6 36  1  0  0  0  0
  7 37  1  0  0  0  0
  7 38  1  0  0  0  0
  7 39  1  0  0  0  0
  8  9  1  0  0  0  0
  9 14  1  0  0  0  0
  9 10  2  0  0  0  0
 10 11  1  0  0  0  0
 11 12  2  0  0  0  0
 11 40  1  0  0  0  0
 12 13  1  0  0  0  0
 13 17  1  0  0  0  0
 13 14  2  0  0  0  0
 14 15  1  0  0  0  0
 15 16  2  0  0  0  0
 16 17  1  0  0  0  0
 16 41  1  0  0  0  0
 17 18  1  0  0  0  0
 18 19  1  0  0  0  0
 18 42  1  0  0  0  0
 18 43  1  0  0  0  0
 19 20  1  0  0  0  0
 19 21  1  0  0  0  0
 19 44  1  0  0  0  0
 20 45  1  0  0  0  0
 21 25  1  0  0  0  0
 21 22  1  0  0  0  0
 21 46  1  0  0  0  0
 22 23  1  0  0  0  0
 22 47  1  0  0  0  0
 22 48  1  0  0  0  0
 23 24  1  0  0  0  0
 23 49  1  0  0  0  0
 23 50  1  0  0  0  0
 24 25  1  0  0  0  0
 24 51  1  0  0  0  0
 24 52  1  0  0  0  0
M  END
> <s_m_source_file>
AV-unprocessed.smi

> <i_m_source_file_index>
232

> <i_lp_mmshare_version>
43012

> <i_f3d_flags>
0

> <s_epik_input>
W0NIM11bQ0gyXVtDQEBIXTFbQ0gyXVtDSDJdW0NAQEhdKFtDSDNdKU4xYyhuW2NIXW4yKWMoYzIzKW5bY0hdbjNbQ0gyXVtDQEhdKFtPSF0pW0NAQEhdNFtDSDJdW0NIMl1bQ0gyXU80

> <s_epik_cmdline>
J2VwaWtfcHl0aG9uJywgJy1waCcsICc3LjAnLCAnLXRuJywgJzgnLCAnLW1hJywgJzIwMCcsICctbWV0YWxfYmluZGluZycsICctaW1hZScsICc8aW5maWxlLm1hZT4nLCAnLW9tYWUnLCAnPG91dGZpbGUubWFlPic=

> <r_lp_tautomer_probability>
1

> <r_epik_Ionization_Penalty>
0.00258048

> <r_epik_Ionization_Penalty_Charging>
0

> <r_epik_Ionization_Penalty_Neutral>
0.00258048

> <r_epik_State_Penalty>
0.00168551

> <r_epik_Charging_Adjusted_Penalty>
0.00168551

> <i_epik_Tot_Q>
0

> <i_epik_Tot_abs_Q>
0

> <r_epik_Metal_State_Penalty>
-0

> <b_epik_Metal_Only>
0

> <s_lp_Force_Field>
OPLS_2005

> <r_lp_Energy>
55.4366

> <b_lp_Chiralities_Consistent>
1

> <s_lp_Variant>
AV-unprocessed.smi:232-16

> <Gold.Version>
5.8.1

> <Gold.Id.Protein>
6NUR|6NUR_protein|mol2

> <Gold.PLP.Fitness>
43.7773

> <Gold.PLP.PLP>
-38.9368

> <Gold.PLP.part.hbond>
-2.9342

> <Gold.PLP.part.metal>
0.0000

> <Gold.PLP.part.buried>
-2.8121

> <Gold.PLP.part.nonpolar>
-31.8828

> <Gold.PLP.part.repulsive>
0.0217

> <Gold.PLP.ligand.clash>
0.0000

> <Gold.PLP.ligand.torsion>
0.7214

> <Gold.PLP.Chemscore.Hbond>
1.9920

> <Gold.PLP.Chemscore.CHOScore>
0.0000

> <Gold.PLP.Chemscore.Metal>
0.0000

> <Gold.Chemscore.Hbonds>
donor molecule, donor type, donor heavy atom, donor atom, acceptor molecule, acceptor atom, score
      L1  H    20    45       P1  7948  1.00
      P1  H  7997  8010       L1    10  0.91

> <Gold.PLP.Chemscore.Internal.Correction>
0.3073

> <Gold.Rescore>
     Score         DG    S(hbond)    S(metal)    S(lipo)     H(rot)  DE(clash)    DE(int)     intcor
     14.51     -15.88       1.80        0.00      90.44       2.43       0.03       1.33       ----

> <Gold.Chemscore.Fitness>
14.5133

> <Gold.Chemscore.DG>
-15.8751

> <Gold.Chemscore.ZeroCoef>
-5.4800

> <Gold.Chemscore.Hbond>
1.8038

> <Gold.Chemscore.Metal>
0.0000

> <Gold.Chemscore.Lipo>
90.4357

> <Gold.Chemscore.Internal_Hbond>
0.0000

> <Gold.Chemscore.DEClash>
0.0285

> <Gold.Chemscore.DEInternal>
1.3333

> <Gold.Chemscore.Rot>
2.4260

> <Gold.Chemscore.Internal.Correction>
   9.000000E+99

> <Gold.Chemscore.Hbonds>
donor molecule, donor type, donor heavy atom, donor atom, acceptor molecule, acceptor atom, score
      L1  H    20    45       P1  7948  0.86
      P1  H  7997  8010       L1    10  0.23

> <Gold.Chemscore.Hbond.Weighted>
-6.0248

> <Gold.Chemscore.Metal.Weighted>
-0.0000

> <Gold.Chemscore.Lipo.Weighted>
-10.5810

> <Gold.Chemscore.Internal_Hbond.Weighted>
0.0000

> <Gold.Chemscore.DEClash.Weighted>
0.0285

> <Gold.Chemscore.DEInternal.Weighted>
1.3333

> <Gold.Chemscore.Rot.Weighted>
6.2107

> <Gold.Chemscore.Internal.Correction.Weighted>
   9.000000E+99

> <Gold.Protein.RotatedTorsions>
[ 6907 6896 6895 6894 ] final  -35.07 input  -60.11 | X-H torsion
[ 7974 7965 7964 7962 ] final  157.12 input  175.53 | X-H torsion
[ 8008 7997 7996 7995 ] final   48.66 input   59.86 | X-H torsion
[ 10167 10162 10161 10158 ] final   71.08 input  -65.29 | X-H torsion
[ 10718 10713 10712 10709 ] final  163.27 input   66.30 | X-H torsion
[ 10763 10752 10751 10750 ] final  -66.42 input  -60.55 | X-H torsion
[ 11005 11000 10999 10996 ] final  -95.13 input  -57.11 | X-H torsion

> <Gold.Protein.ActiveResidues>
 VAL166  LYS551  ARG553  GLY616  TRP617  ASP618  TYR619  PRO620  LYS621  CYS622 
 ASP623  PHE694  ASN695  SER759  ASP760  ASP761  ALA762  ILE779  LEU786  VAL792 
 PHE793  MET794  SER795  GLU796  ALA797  LYS798  CYS799  TRP800  GLU811  SER814 

> <Gold.Protein.RotatedAtoms>
  151.0445  134.9630  159.8178 H   0  0  0  0  0  0  0  0  0  0  0  0  # atno 6907 bound_to 6896
  152.5370  134.2616  159.8947 H   0  0  0  0  0  0  0  0  0  0  0  0  # atno 6908 bound_to 6896
  151.2629  133.4250  159.2651 H   0  0  0  0  0  0  0  0  0  0  0  0  # atno 6909 bound_to 6896
  144.7922  139.7297  143.6216 H   0  0  0  0  0  0  0  0  0  0  0  0  # atno 7974 bound_to 7965
  155.3894  140.3432  155.4250 H   0  0  0  0  0  0  0  0  0  0  0  0  # atno 8008 bound_to 7997
  156.1566  140.1587  156.8715 H   0  0  0  0  0  0  0  0  0  0  0  0  # atno 8009 bound_to 7997
  154.5101  140.0792  156.7953 H   0  0  0  0  0  0  0  0  0  0  0  0  # atno 8010 bound_to 7997
  140.0500  144.5319  150.7370 H   0  0  0  0  0  0  0  0  0  0  0  0  # atno 10167 bound_to 10162
  157.1109  131.0467  151.2458 H   0  0  0  0  0  0  0  0  0  0  0  0  # atno 10718 bound_to 10713
  154.3596  135.6119  153.5684 H   0  0  0  0  0  0  0  0  0  0  0  0  # atno 10763 bound_to 10752
  152.9794  135.5812  154.4648 H   0  0  0  0  0  0  0  0  0  0  0  0  # atno 10764 bound_to 10752
  154.4384  135.2849  155.1842 H   0  0  0  0  0  0  0  0  0  0  0  0  # atno 10765 bound_to 10752
  141.1450  133.8005  157.0394 H   0  0  0  0  0  0  0  0  0  0  0  0  # atno 11005 bound_to 11000
  146.2178  139.5581  142.9638 LP  0  0  0  0  0  0  0  0  0  0  0  0  # atno 17320 bound_to 7965
  145.5765  141.0388  143.2146 LP  0  0  0  0  0  0  0  0  0  0  0  0  # atno 17321 bound_to 7965
  140.7221  143.2599  151.4244 LP  0  0  0  0  0  0  0  0  0  0  0  0  # atno 17342 bound_to 10162
  139.5959  144.1399  152.2143 LP  0  0  0  0  0  0  0  0  0  0  0  0  # atno 17343 bound_to 10162
  157.4560  130.7626  149.7193 LP  0  0  0  0  0  0  0  0  0  0  0  0  # atno 17370 bound_to 10713
  155.9851  130.3986  150.3280 LP  0  0  0  0  0  0  0  0  0  0  0  0  # atno 17371 bound_to 10713
  140.0703  134.9706  157.1455 LP  0  0  0  0  0  0  0  0  0  0  0  0  # atno 17394 bound_to 11000
  140.3721  134.2379  155.7177 LP  0  0  0  0  0  0  0  0  0  0  0  0  # atno 17395 bound_to 11000

$$$$
