AV-unprocessed.smi:157|AV-procd|sdf|1318|dock9
  -GOLD-   2262019 13D 1   1.00000     0.00000
 Structure written by MMmdl.
 36 38  0  0  0  0  0  0  0  0  2 V2000
  150.5070  135.7328  157.9183 O   0  0  0  0  0  0  0  0  0  0  0  0
  150.1987  136.1424  156.6028 C   0  0  0  0  0  0  0  0  0  0  0  0
  151.3334  137.0090  156.0361 C   0  0  2  0  0  0  0  0  0  0  0  0
  151.3844  138.2280  156.7746 O   0  0  0  0  0  0  0  0  0  0  0  0
  151.7781  139.2334  155.9042 C   0  0  2  0  0  0  0  0  0  0  0  0
  151.3591  140.5531  156.4619 N   0  0  0  0  0  0  0  0  0  0  0  0
  150.4681  141.4083  155.9175 C   0  0  0  0  0  0  0  0  0  0  0  0
  150.2836  142.5179  156.6131 N   0  3  0  0  0  0  0  0  0  0  0  0
  151.1069  142.4294  157.7159 C   0  0  0  0  0  0  0  0  0  0  0  0
  151.7753  141.2081  157.5973 C   0  0  0  0  0  0  0  0  0  0  0  0
  152.7396  140.6252  158.4335 N   0  0  0  0  0  0  0  0  0  0  0  0
  153.3852  141.2928  159.3335 C   0  0  0  0  0  0  0  0  0  0  0  0
  153.2256  142.6118  159.7242 N   0  0  0  0  0  0  0  0  0  0  0  0
  151.9287  143.2065  159.9949 C   0  0  0  0  0  0  0  0  0  0  0  0
  151.1226  143.5305  158.7300 C   0  0  1  0  0  0  0  0  0  0  0  0
  151.5912  144.7521  158.1970 O   0  0  0  0  0  0  0  0  0  0  0  0
  151.0491  138.9377  154.6038 C   0  0  0  0  0  0  0  0  0  0  0  0
  151.1354  137.4208  154.5588 C   0  0  1  0  0  0  0  0  0  0  0  0
  152.2511  137.0247  153.7861 O   0  0  0  0  0  0  0  0  0  0  0  0
  152.2905  136.5017  156.1739 H   0  0  0  0  0  0  0  0  0  0  0  0
  152.8645  139.2689  155.8078 H   0  0  0  0  0  0  0  0  0  0  0  0
  150.0915  143.7128  159.0345 H   0  0  0  0  0  0  0  0  0  0  0  0
  150.2346  136.9914  154.1189 H   0  0  0  0  0  0  0  0  0  0  0  0
  151.1549  135.0457  157.8760 H   0  0  0  0  0  0  0  0  0  0  0  0
  150.0232  135.2679  155.9754 H   0  0  0  0  0  0  0  0  0  0  0  0
  149.2696  136.7124  156.6312 H   0  0  0  0  0  0  0  0  0  0  0  0
  149.9531  141.2000  154.9966 H   0  0  0  0  0  0  0  0  0  0  0  0
  154.1723  140.7914  159.8988 H   0  0  0  0  0  0  0  0  0  0  0  0
  153.9523  143.0423  160.2782 H   0  0  0  0  0  0  0  0  0  0  0  0
  151.3649  142.4951  160.6004 H   0  0  0  0  0  0  0  0  0  0  0  0
  152.0543  144.0961  160.6130 H   0  0  0  0  0  0  0  0  0  0  0  0
  152.2518  145.1025  158.7744 H   0  0  0  0  0  0  0  0  0  0  0  0
  150.0085  139.2536  154.6935 H   0  0  0  0  0  0  0  0  0  0  0  0
  151.5090  139.4513  153.7582 H   0  0  0  0  0  0  0  0  0  0  0  0
  151.9666  136.8941  152.8940 H   0  0  0  0  0  0  0  0  0  0  0  0
  149.6563  143.2769  156.3793 H   0  0  0  0  0  0  0  0  0  0  0  0
  1  2  1  0  0  0  0
  1 24  1  0  0  0  0
  2  3  1  0  0  0  0
  2 25  1  0  0  0  0
  2 26  1  0  0  0  0
  3 20  1  0  0  0  0
  3 18  1  0  0  0  0
  3  4  1  0  0  0  0
  4  5  1  0  0  0  0
  5 21  1  0  0  0  0
  5  6  1  0  0  0  0
  5 17  1  0  0  0  0
  6 10  1  0  0  0  0
  6  7  1  0  0  0  0
  7  8  2  0  0  0  0
  7 27  1  0  0  0  0
  8  9  1  0  0  0  0
  8 36  1  0  0  0  0
  9 15  1  0  0  0  0
  9 10  2  0  0  0  0
 10 11  1  0  0  0  0
 11 12  2  0  0  0  0
 12 13  1  0  0  0  0
 12 28  1  0  0  0  0
 13 14  1  0  0  0  0
 13 29  1  0  0  0  0
 14 15  1  0  0  0  0
 14 30  1  0  0  0  0
 14 31  1  0  0  0  0
 15 22  1  0  0  0  0
 15 16  1  0  0  0  0
 16 32  1  0  0  0  0
 17 18  1  0  0  0  0
 17 33  1  0  0  0  0
 17 34  1  0  0  0  0
 18 23  1  0  0  0  0
 18 19  1  0  0  0  0
 19 35  1  0  0  0  0
M  CHG  1   8   1
M  END
> <s_m_source_file>
AV-unprocessed.smi

> <i_m_source_file_index>
157

> <i_lp_mmshare_version>
43012

> <i_f3d_flags>
0

> <s_epik_input>
W09IXVtDSDJdW0NASF0xT1tDQEhdKFtDSDJdW0NAQEhdMVtPSF0pbihbY0hdbjIpYyhjMjMpTj1bQ0hdW05IXVtDSDJdW0NASF0zW09IXQ==

> <s_epik_cmdline>
J2VwaWtfcHl0aG9uJywgJy1waCcsICc3LjAnLCAnLXRuJywgJzgnLCAnLW1hJywgJzIwMCcsICctbWV0YWxfYmluZGluZycsICctaW1hZScsICc8aW5maWxlLm1hZT4nLCAnLW9tYWUnLCAnPG91dGZpbGUubWFlPic=

> <r_epik_Ionization_Penalty>
1.68594

> <r_epik_Ionization_Penalty_Charging>
0

> <r_epik_Ionization_Penalty_Neutral>
1.68594

> <r_epik_State_Penalty>
1.79006

> <r_epik_Charging_Adjusted_Penalty>
1.79006

> <i_epik_Tot_Q>
1

> <i_epik_Tot_abs_Q>
1

> <r_epik_Metal_State_Penalty>
5.85324

> <b_epik_Metal_Only>
0

> <s_epik_Chemistry_Notes>
This compound has an imine and may undergo hydrolysis. This compound contains an acetal/aminal-like group ( X-CH(R)-Y where X, Y are N, S, or O) that may be acid/base labile, releasing an aldehyde.

> <s_lp_Force_Field>
OPLS_2005

> <r_lp_Energy>
52.5204

> <b_lp_Chiralities_Consistent>
1

> <s_lp_Variant>
AV-unprocessed.smi:157-28

> <Gold.Version>
5.8.1

> <Gold.Id.Protein>
6NUR|6NUR_protein|mol2

> <Gold.PLP.Fitness>
47.0267

> <Gold.PLP.PLP>
-34.5562

> <Gold.PLP.part.hbond>
-4.6846

> <Gold.PLP.part.metal>
0.0000

> <Gold.PLP.part.buried>
-4.3557

> <Gold.PLP.part.nonpolar>
-24.2173

> <Gold.PLP.part.repulsive>
0.1081

> <Gold.PLP.ligand.clash>
0.0000

> <Gold.PLP.ligand.torsion>
0.0408

> <Gold.PLP.Chemscore.Hbond>
4.1750

> <Gold.PLP.Chemscore.CHOScore>
0.0000

> <Gold.PLP.Chemscore.Metal>
0.0000

> <Gold.Chemscore.Hbonds>
donor molecule, donor type, donor heavy atom, donor atom, acceptor molecule, acceptor atom, score
      L1  H     8    36       P1  8028  2.00
      L1  H    19    35       P1  7949  1.00
      P1  H  7997  8009       L1    11  0.01
      P1  H 10752 10764       L1    19  0.99

> <Gold.PLP.Chemscore.Internal.Correction>
0.0270

> <Gold.Rescore>
     Score         DG    S(hbond)    S(metal)    S(lipo)     H(rot)  DE(clash)    DE(int)     intcor
     11.53     -11.56       2.79        0.00      52.51       3.67       0.01       0.01       ----

> <Gold.Chemscore.Fitness>
11.5348

> <Gold.Chemscore.DG>
-11.5564

> <Gold.Chemscore.ZeroCoef>
-5.4800

> <Gold.Chemscore.Hbond>
2.7898

> <Gold.Chemscore.Metal>
0.0000

> <Gold.Chemscore.Lipo>
52.5078

> <Gold.Chemscore.Internal_Hbond>
0.0000

> <Gold.Chemscore.DEClash>
0.0081

> <Gold.Chemscore.DEInternal>
0.0135

> <Gold.Chemscore.Rot>
3.6659

> <Gold.Chemscore.Internal.Correction>
   9.000000E+99

> <Gold.Chemscore.Hbonds>
donor molecule, donor type, donor heavy atom, donor atom, acceptor molecule, acceptor atom, score
      L1  H     8    36       P1  8028  1.00
      L1  H    19    35       P1  7949  0.99
      P1  H  7997  8009       L1    11  0.01
      P1  H 10752 10764       L1    19  0.34

> <Gold.Chemscore.Hbond.Weighted>
-9.3178

> <Gold.Chemscore.Metal.Weighted>
-0.0000

> <Gold.Chemscore.Lipo.Weighted>
-6.1434

> <Gold.Chemscore.Internal_Hbond.Weighted>
0.0000

> <Gold.Chemscore.DEClash.Weighted>
0.0081

> <Gold.Chemscore.DEInternal.Weighted>
0.0135

> <Gold.Chemscore.Rot.Weighted>
9.3848

> <Gold.Chemscore.Internal.Correction.Weighted>
   9.000000E+99

> <Gold.Protein.RotatedTorsions>
[ 6907 6896 6895 6894 ] final   33.06 input  -60.11 | X-H torsion
[ 7974 7965 7964 7962 ] final   68.76 input  175.53 | X-H torsion
[ 8008 7997 7996 7995 ] final  174.04 input   59.86 | X-H torsion
[ 10167 10162 10161 10158 ] final  -90.39 input  -65.29 | X-H torsion
[ 10718 10713 10712 10709 ] final  172.89 input   66.30 | X-H torsion
[ 10763 10752 10751 10750 ] final  -87.78 input  -60.55 | X-H torsion
[ 11005 11000 10999 10996 ] final -160.55 input  -57.11 | X-H torsion

> <Gold.Protein.ActiveResidues>
 VAL166  LYS551  ARG553  GLY616  TRP617  ASP618  TYR619  PRO620  LYS621  CYS622 
 ASP623  PHE694  ASN695  SER759  ASP760  ASP761  ALA762  ILE779  LEU786  VAL792 
 PHE793  MET794  SER795  GLU796  ALA797  LYS798  CYS799  TRP800  GLU811  SER814 

> <Gold.Protein.RotatedAtoms>
  152.0832  134.9457  160.0572 H   0  0  0  0  0  0  0  0  0  0  0  0  # atno 6907 bound_to 6896
  152.0737  133.4114  159.4479 H   0  0  0  0  0  0  0  0  0  0  0  0  # atno 6908 bound_to 6896
  150.6836  134.2982  159.4738 H   0  0  0  0  0  0  0  0  0  0  0  0  # atno 6909 bound_to 6896
  145.7986  139.2970  143.1168 H   0  0  0  0  0  0  0  0  0  0  0  0  # atno 7974 bound_to 7965
  156.1014  140.1444  156.9462 H   0  0  0  0  0  0  0  0  0  0  0  0  # atno 8008 bound_to 7997
  154.4705  140.0911  156.7178 H   0  0  0  0  0  0  0  0  0  0  0  0  # atno 8009 bound_to 7997
  155.4753  140.3443  155.4334 H   0  0  0  0  0  0  0  0  0  0  0  0  # atno 8010 bound_to 7997
  140.3554  143.2869  151.9677 H   0  0  0  0  0  0  0  0  0  0  0  0  # atno 10167 bound_to 10162
  156.9723  131.0094  151.2902 H   0  0  0  0  0  0  0  0  0  0  0  0  # atno 10718 bound_to 10713
  154.6373  135.5401  153.7749 H   0  0  0  0  0  0  0  0  0  0  0  0  # atno 10763 bound_to 10752
  153.0315  135.6450  154.1212 H   0  0  0  0  0  0  0  0  0  0  0  0  # atno 10764 bound_to 10752
  154.1138  135.2925  155.3204 H   0  0  0  0  0  0  0  0  0  0  0  0  # atno 10765 bound_to 10752
  140.6302  134.4659  157.5229 H   0  0  0  0  0  0  0  0  0  0  0  0  # atno 11005 bound_to 11000
  145.9901  140.8610  143.0070 LP  0  0  0  0  0  0  0  0  0  0  0  0  # atno 17320 bound_to 7965
  144.6772  140.2204  143.7367 LP  0  0  0  0  0  0  0  0  0  0  0  0  # atno 17321 bound_to 7965
  139.4821  144.6040  151.7555 LP  0  0  0  0  0  0  0  0  0  0  0  0  # atno 17342 bound_to 10162
  140.5179  144.0924  150.6014 LP  0  0  0  0  0  0  0  0  0  0  0  0  # atno 17343 bound_to 10162
  157.5584  130.8229  149.8233 LP  0  0  0  0  0  0  0  0  0  0  0  0  # atno 17370 bound_to 10713
  156.0277  130.3774  150.1774 LP  0  0  0  0  0  0  0  0  0  0  0  0  # atno 17371 bound_to 10713
  139.9119  134.8327  156.1499 LP  0  0  0  0  0  0  0  0  0  0  0  0  # atno 17394 bound_to 11000
  141.0680  133.6810  156.2084 LP  0  0  0  0  0  0  0  0  0  0  0  0  # atno 17395 bound_to 11000

$$$$
