AV-unprocessed.smi:1859|AV-procd|sdf|7543|dock7
  -GOLD-   22720 9253D 1   1.00000     0.00000
 Structure written by MMmdl.
 45 47  0  0  0  0  0  0  0  0  1 V2000
  151.0029  137.1499  159.8114 O   0  0  0  0  0  0  0  0  0  0  0  0
  150.6250  137.4976  158.6925 C   0  0  0  0  0  0  0  0  0  0  0  0
  150.8735  138.7154  158.1839 N   0  0  0  0  0  0  0  0  0  0  0  0
  151.5868  139.7921  158.8669 C   0  0  0  0  0  0  0  0  0  0  0  0
  152.1608  140.8351  157.8896 C   0  0  0  0  0  0  0  0  0  0  0  0
  152.0647  142.2677  158.3867 C   0  0  0  0  0  0  0  0  0  0  0  0
  152.6480  142.6465  159.6148 C   0  0  0  0  0  0  0  0  0  0  0  0
  152.5396  143.9899  160.0222 C   0  0  0  0  0  0  0  0  0  0  0  0
  151.8505  144.8968  159.1941 C   0  0  0  0  0  0  0  0  0  0  0  0
  151.2981  144.4176  157.9900 C   0  0  0  0  0  0  0  0  0  0  0  0
  151.4053  143.1339  157.5845 N   0  0  0  0  0  0  0  0  0  0  0  0
  149.8190  136.5354  157.7981 C   0  0  2  0  0  0  0  0  0  0  0  0
  149.1010  137.2823  156.6449 C   0  0  0  0  0  0  0  0  0  0  0  0
  147.7914  137.9730  157.0804 C   0  0  0  0  0  0  0  0  0  0  0  0
  146.9046  136.9988  157.8712 C   0  0  0  0  0  0  0  0  0  0  0  0
  147.6587  136.4928  159.0259 N   0  0  0  0  0  0  0  0  0  0  0  0
  147.3699  136.7253  160.3304 C   0  0  0  0  0  0  0  0  0  0  0  0
  146.5912  137.6161  160.6717 O   0  0  0  0  0  0  0  0  0  0  0  0
  147.9945  135.8192  161.3523 C   0  0  0  0  0  0  0  0  0  0  0  0
  147.0809  134.8998  162.1424 C   0  0  0  0  0  0  0  0  0  0  0  0
  147.6918  136.1065  162.8078 C   0  0  0  0  0  0  0  0  0  0  0  0
  148.8077  135.6768  158.6027 C   0  0  0  0  0  0  0  0  0  0  0  0
  150.5286  138.9172  157.2567 H   0  0  0  0  0  0  0  0  0  0  0  0
  150.8849  140.2804  159.5431 H   0  0  0  0  0  0  0  0  0  0  0  0
  152.3821  139.3926  159.4982 H   0  0  0  0  0  0  0  0  0  0  0  0
  153.2047  140.6001  157.6782 H   0  0  0  0  0  0  0  0  0  0  0  0
  151.6390  140.7641  156.9345 H   0  0  0  0  0  0  0  0  0  0  0  0
  153.1660  141.9270  160.2317 H   0  0  0  0  0  0  0  0  0  0  0  0
  152.9706  144.3178  160.9565 H   0  0  0  0  0  0  0  0  0  0  0  0
  151.7402  145.9324  159.4794 H   0  0  0  0  0  0  0  0  0  0  0  0
  150.7591  145.0842  157.3333 H   0  0  0  0  0  0  0  0  0  0  0  0
  150.5361  135.8502  157.3424 H   0  0  0  0  0  0  0  0  0  0  0  0
  149.7684  138.0125  156.1844 H   0  0  0  0  0  0  0  0  0  0  0  0
  148.8673  136.5609  155.8610 H   0  0  0  0  0  0  0  0  0  0  0  0
  148.0086  138.8507  157.6894 H   0  0  0  0  0  0  0  0  0  0  0  0
  147.2563  138.3362  156.2026 H   0  0  0  0  0  0  0  0  0  0  0  0
  145.9556  137.4633  158.1354 H   0  0  0  0  0  0  0  0  0  0  0  0
  146.6321  136.1558  157.2343 H   0  0  0  0  0  0  0  0  0  0  0  0
  148.9651  135.3896  161.1147 H   0  0  0  0  0  0  0  0  0  0  0  0
  146.0096  134.9229  161.9505 H   0  0  0  0  0  0  0  0  0  0  0  0
  147.4759  133.9199  162.4026 H   0  0  0  0  0  0  0  0  0  0  0  0
  148.4985  135.9463  163.5200 H   0  0  0  0  0  0  0  0  0  0  0  0
  147.0280  136.9370  163.0425 H   0  0  0  0  0  0  0  0  0  0  0  0
  148.4475  134.8543  157.9832 H   0  0  0  0  0  0  0  0  0  0  0  0
  149.3203  135.2022  159.4414 H   0  0  0  0  0  0  0  0  0  0  0  0
  1  2  2  0  0  0  0
  2  3  1  0  0  0  0
  2 12  1  0  0  0  0
  3  4  1  0  0  0  0
  3 23  1  0  0  0  0
  4  5  1  0  0  0  0
  4 24  1  0  0  0  0
  4 25  1  0  0  0  0
  5  6  1  0  0  0  0
  5 26  1  0  0  0  0
  5 27  1  0  0  0  0
  6 11  1  0  0  0  0
  6  7  2  0  0  0  0
  7  8  1  0  0  0  0
  7 28  1  0  0  0  0
  8  9  2  0  0  0  0
  8 29  1  0  0  0  0
  9 10  1  0  0  0  0
  9 30  1  0  0  0  0
 10 11  2  0  0  0  0
 10 31  1  0  0  0  0
 12 22  1  0  0  0  0
 12 13  1  0  0  0  0
 12 32  1  0  0  0  0
 13 14  1  0  0  0  0
 13 33  1  0  0  0  0
 13 34  1  0  0  0  0
 14 15  1  0  0  0  0
 14 35  1  0  0  0  0
 14 36  1  0  0  0  0
 15 16  1  0  0  0  0
 15 37  1  0  0  0  0
 15 38  1  0  0  0  0
 16 17  1  0  0  0  0
 16 22  1  0  0  0  0
 17 18  2  0  0  0  0
 17 19  1  0  0  0  0
 19 21  1  0  0  0  0
 19 20  1  0  0  0  0
 19 39  1  0  0  0  0
 20 21  1  0  0  0  0
 20 40  1  0  0  0  0
 20 41  1  0  0  0  0
 21 42  1  0  0  0  0
 21 43  1  0  0  0  0
 22 44  1  0  0  0  0
 22 45  1  0  0  0  0
M  END
> <s_m_source_file>
AV-unprocessed.smi

> <i_m_source_file_index>
1859

> <i_lp_mmshare_version>
43012

> <i_f3d_flags>
0

> <s_epik_input>
W0NIMl0xW0NIMl1bQ0hdMUMoPU8pTihbQ0gyXTIpW0NIMl1bQ0gyXVtDSDJdW0NASF0yQyg9TylbTkhdW0NIMl1bQ0gyXWMzW2NIXVtjSF1bY0hdW2NIXW4z

> <s_epik_cmdline>
J2VwaWtfcHl0aG9uJywgJy1waCcsICc3LjAnLCAnLXRuJywgJzgnLCAnLW1hJywgJzIwMCcsICctbWV0YWxfYmluZGluZycsICctaW1hZScsICc8aW5maWxlLm1hZT4nLCAnLW9tYWUnLCAnPG91dGZpbGUubWFlPic=

> <r_epik_Ionization_Penalty>
0.0268048

> <r_epik_Ionization_Penalty_Charging>
0

> <r_epik_Ionization_Penalty_Neutral>
0.0268048

> <r_epik_State_Penalty>
0.0219025

> <r_epik_Charging_Adjusted_Penalty>
0.0219025

> <i_epik_Tot_Q>
0

> <i_epik_Tot_abs_Q>
0

> <r_epik_Metal_State_Penalty>
0.020951

> <b_epik_Metal_Only>
0

> <s_lp_Force_Field>
OPLS_2005

> <r_lp_Energy>
24.9831

> <b_lp_Chiralities_Consistent>
1

> <s_lp_Variant>
AV-unprocessed.smi:1859-1

> <Gold.Version>
5.8.1

> <Gold.Id.Protein>
6NUR|6NUR_protein|mol2

> <Gold.PLP.Fitness>
48.6663

> <Gold.PLP.PLP>
-41.5285

> <Gold.PLP.part.hbond>
-1.9924

> <Gold.PLP.part.metal>
0.0000

> <Gold.PLP.part.buried>
-6.2163

> <Gold.PLP.part.nonpolar>
-33.7097

> <Gold.PLP.part.repulsive>
0.1769

> <Gold.PLP.ligand.clash>
0.0000

> <Gold.PLP.ligand.torsion>
1.1143

> <Gold.PLP.Chemscore.Hbond>
2.0000

> <Gold.PLP.Chemscore.CHOScore>
1.0000

> <Gold.PLP.Chemscore.Metal>
0.0000

> <Gold.Chemscore.Hbonds>
donor molecule, donor type, donor heavy atom, donor atom, acceptor molecule, acceptor atom, score
      P1  H  6896  6907       L1     1  0.99
      P1  H  6934  6947       L1    18  1.00
      L1  C    10    31       P1  8028  1.00

> <Gold.PLP.Chemscore.Internal.Correction>
0.3665

> <Gold.Rescore>
     Score         DG    S(hbond)    S(metal)    S(lipo)     H(rot)  DE(clash)    DE(int)     intcor
     19.18     -20.23       1.95        0.00     105.14       1.59       0.00       1.04       ----

> <Gold.Chemscore.Fitness>
19.1845

> <Gold.Chemscore.DG>
-20.2292

> <Gold.Chemscore.ZeroCoef>
-5.4800

> <Gold.Chemscore.Hbond>
1.9550

> <Gold.Chemscore.Metal>
0.0000

> <Gold.Chemscore.Lipo>
105.1362

> <Gold.Chemscore.Internal_Hbond>
0.0000

> <Gold.Chemscore.DEClash>
0.0000

> <Gold.Chemscore.DEInternal>
1.0447

> <Gold.Chemscore.Rot>
1.5943

> <Gold.Chemscore.Internal.Correction>
   9.000000E+99

> <Gold.Chemscore.Hbonds>
donor molecule, donor type, donor heavy atom, donor atom, acceptor molecule, acceptor atom, score
      P1  H  6896  6907       L1     1  0.73
      P1  H  6934  6947       L1    18  0.90

> <Gold.Chemscore.Hbond.Weighted>
-6.5296

> <Gold.Chemscore.Metal.Weighted>
-0.0000

> <Gold.Chemscore.Lipo.Weighted>
-12.3009

> <Gold.Chemscore.Internal_Hbond.Weighted>
0.0000

> <Gold.Chemscore.DEClash.Weighted>
0.0000

> <Gold.Chemscore.DEInternal.Weighted>
1.0447

> <Gold.Chemscore.Rot.Weighted>
4.0814

> <Gold.Chemscore.Internal.Correction.Weighted>
   9.000000E+99

> <Gold.Protein.RotatedTorsions>
[ 6907 6896 6895 6894 ] final  -18.60 input  -60.11 | X-H torsion
[ 7974 7965 7964 7962 ] final  -33.28 input  175.53 | X-H torsion
[ 8008 7997 7996 7995 ] final   37.56 input   59.86 | X-H torsion
[ 10167 10162 10161 10158 ] final  148.77 input  -65.29 | X-H torsion
[ 10718 10713 10712 10709 ] final   26.16 input   66.30 | X-H torsion
[ 10763 10752 10751 10750 ] final  150.57 input  -60.55 | X-H torsion
[ 11005 11000 10999 10996 ] final   57.31 input  -57.11 | X-H torsion

> <Gold.Protein.ActiveResidues>
 VAL166  LYS551  ARG553  GLY616  TRP617  ASP618  TYR619  PRO620  LYS621  CYS622 
 ASP623  PHE694  ASN695  SER759  ASP760  ASP761  ALA762  ILE779  LEU786  VAL792 
 PHE793  MET794  SER795  GLU796  ALA797  LYS798  CYS799  TRP800  GLU811  SER814 

> <Gold.Protein.RotatedAtoms>
  151.2758  135.0698  159.9150 H   0  0  0  0  0  0  0  0  0  0  0  0  # atno 6907 bound_to 6896
  152.5343  134.0083  159.7937 H   0  0  0  0  0  0  0  0  0  0  0  0  # atno 6908 bound_to 6896
  151.0328  133.5724  159.2690 H   0  0  0  0  0  0  0  0  0  0  0  0  # atno 6909 bound_to 6896
  146.0923  140.5896  142.8858 H   0  0  0  0  0  0  0  0  0  0  0  0  # atno 7974 bound_to 7965
  155.2058  140.3319  155.4336 H   0  0  0  0  0  0  0  0  0  0  0  0  # atno 8008 bound_to 7997
  156.2389  140.1886  156.7091 H   0  0  0  0  0  0  0  0  0  0  0  0  # atno 8009 bound_to 7997
  154.6111  140.0609  156.9480 H   0  0  0  0  0  0  0  0  0  0  0  0  # atno 8010 bound_to 7997
  139.4870  144.5654  151.7154 H   0  0  0  0  0  0  0  0  0  0  0  0  # atno 10167 bound_to 10162
  157.2031  130.6899  149.6197 H   0  0  0  0  0  0  0  0  0  0  0  0  # atno 10718 bound_to 10713
  154.0896  135.2853  155.3274 H   0  0  0  0  0  0  0  0  0  0  0  0  # atno 10763 bound_to 10752
  154.6629  135.5328  153.8043 H   0  0  0  0  0  0  0  0  0  0  0  0  # atno 10764 bound_to 10752
  153.0418  135.6538  154.1066 H   0  0  0  0  0  0  0  0  0  0  0  0  # atno 10765 bound_to 10752
  140.0462  134.5802  155.9319 H   0  0  0  0  0  0  0  0  0  0  0  0  # atno 11005 bound_to 11000
  144.7369  140.4835  143.6897 LP  0  0  0  0  0  0  0  0  0  0  0  0  # atno 17320 bound_to 7965
  145.6015  139.1504  143.3126 LP  0  0  0  0  0  0  0  0  0  0  0  0  # atno 17321 bound_to 7965
  140.5231  144.0848  150.6029 LP  0  0  0  0  0  0  0  0  0  0  0  0  # atno 17342 bound_to 10162
  140.3812  143.2801  152.0168 LP  0  0  0  0  0  0  0  0  0  0  0  0  # atno 17343 bound_to 10162
  155.9698  130.4576  150.5968 LP  0  0  0  0  0  0  0  0  0  0  0  0  # atno 17370 bound_to 10713
  157.3747  131.0771  151.1528 LP  0  0  0  0  0  0  0  0  0  0  0  0  # atno 17371 bound_to 10713
  141.1908  133.6569  156.5428 LP  0  0  0  0  0  0  0  0  0  0  0  0  # atno 17394 bound_to 11000
  140.3989  134.7374  157.4768 LP  0  0  0  0  0  0  0  0  0  0  0  0  # atno 17395 bound_to 11000

$$$$
