AV-unprocessed.smi:450|AV-procd|sdf|2608|dock7
  -GOLD-   2262023 03D 1   1.00000     0.00000
 Structure written by MMmdl.
 32 32  0  0  0  0  0  0  0  0  1 V2000
  153.0303  142.5300  160.2152 C   0  0  0  0  0  0  0  0  0  0  0  0
  152.6332  142.9782  158.8007 C   0  0  0  0  0  0  0  0  0  0  0  0
  151.2107  143.5629  158.7112 C   0  0  1  0  0  0  0  0  0  0  0  0
  151.2256  145.0991  158.7604 C   0  0  0  0  0  0  0  0  0  0  0  0
  150.5588  143.1030  157.4884 N   0  0  0  0  0  0  0  0  0  0  0  0
  150.6481  141.8681  156.9710 C   0  0  0  0  0  0  0  0  0  0  0  0
  151.2629  140.9473  157.5077 O   0  0  0  0  0  0  0  0  0  0  0  0
  149.9454  141.6405  155.6320 C   0  0  0  0  0  0  0  0  0  0  0  0
  149.4967  140.2556  155.5083 N   0  0  0  0  0  0  0  0  0  0  0  0
  148.2392  139.7736  155.5852 C   0  0  0  0  0  0  0  0  0  0  0  0
  147.1618  140.6141  155.8245 N   0  0  0  0  0  0  0  0  0  0  0  0
  148.1428  138.4586  155.4111 N   0  0  0  0  0  0  0  0  0  0  0  0
  149.4496  138.0237  155.1996 C   0  0  0  0  0  0  0  0  0  0  0  0
  149.7595  136.6532  154.9690 C   0  0  0  0  0  0  0  0  0  0  0  0
  150.0140  135.5400  154.7831 N   0  0  0  0  0  0  0  0  0  0  0  0
  150.2743  139.1265  155.2597 C   0  0  0  0  0  0  0  0  0  0  0  0
  151.6756  139.1335  155.0937 C   0  0  0  0  0  0  0  0  0  0  0  0
  152.8241  139.1389  154.9569 N   0  0  0  0  0  0  0  0  0  0  0  0
  154.0596  142.1709  160.2315 H   0  0  0  0  0  0  0  0  0  0  0  0
  152.3954  141.7200  160.5752 H   0  0  0  0  0  0  0  0  0  0  0  0
  152.9556  143.3551  160.9241 H   0  0  0  0  0  0  0  0  0  0  0  0
  153.3493  143.7267  158.4596 H   0  0  0  0  0  0  0  0  0  0  0  0
  152.7296  142.1341  158.1165 H   0  0  0  0  0  0  0  0  0  0  0  0
  150.6459  143.1988  159.5715 H   0  0  0  0  0  0  0  0  0  0  0  0
  151.7091  145.4566  159.6698 H   0  0  0  0  0  0  0  0  0  0  0  0
  150.2141  145.5062  158.7478 H   0  0  0  0  0  0  0  0  0  0  0  0
  151.7640  145.5189  157.9101 H   0  0  0  0  0  0  0  0  0  0  0  0
  150.0344  143.7934  156.9712 H   0  0  0  0  0  0  0  0  0  0  0  0
  149.0876  142.3077  155.5403 H   0  0  0  0  0  0  0  0  0  0  0  0
  150.6169  141.8886  154.8094 H   0  0  0  0  0  0  0  0  0  0  0  0
  147.2911  141.6084  155.9472 H   0  0  0  0  0  0  0  0  0  0  0  0
  146.2121  140.2716  155.8310 H   0  0  0  0  0  0  0  0  0  0  0  0
  1  2  1  0  0  0  0
  1 19  1  0  0  0  0
  1 20  1  0  0  0  0
  1 21  1  0  0  0  0
  2  3  1  0  0  0  0
  2 22  1  0  0  0  0
  2 23  1  0  0  0  0
  3  4  1  0  0  0  0
  3  5  1  0  0  0  0
  3 24  1  0  0  0  0
  4 25  1  0  0  0  0
  4 26  1  0  0  0  0
  4 27  1  0  0  0  0
  5  6  1  0  0  0  0
  5 28  1  0  0  0  0
  6  7  2  0  0  0  0
  6  8  1  0  0  0  0
  8  9  1  0  0  0  0
  8 29  1  0  0  0  0
  8 30  1  0  0  0  0
  9 16  1  0  0  0  0
  9 10  1  0  0  0  0
 10 11  1  0  0  0  0
 10 12  2  0  0  0  0
 11 31  1  0  0  0  0
 11 32  1  0  0  0  0
 12 13  1  0  0  0  0
 13 14  1  0  0  0  0
 13 16  2  0  0  0  0
 14 15  3  0  0  0  0
 16 17  1  0  0  0  0
 17 18  3  0  0  0  0
M  END
> <s_m_source_file>
AV-unprocessed.smi

> <i_m_source_file_index>
450

> <i_lp_mmshare_version>
43012

> <i_f3d_flags>
0

> <s_epik_input>
W0NIM11bQ0gyXVtDQEhdKFtDSDNdKVtOSF1DKD1PKVtDSDJdbjFjKFtOSDJdKW5jKEMjTiljMUMjTg==

> <s_epik_cmdline>
J2VwaWtfcHl0aG9uJywgJy1waCcsICc3LjAnLCAnLXRuJywgJzgnLCAnLW1hJywgJzIwMCcsICctbWV0YWxfYmluZGluZycsICctaW1hZScsICc8aW5maWxlLm1hZT4nLCAnLW9tYWUnLCAnPG91dGZpbGUubWFlPic=

> <r_epik_Ionization_Penalty>
0.000482749

> <r_epik_Ionization_Penalty_Charging>
7.71074e-10

> <r_epik_Ionization_Penalty_Neutral>
0.000482748

> <r_epik_State_Penalty>
0.000433536

> <r_epik_Charging_Adjusted_Penalty>
0.000433537

> <i_epik_Tot_Q>
0

> <i_epik_Tot_abs_Q>
0

> <r_epik_Metal_State_Penalty>
-0

> <b_epik_Metal_Only>
0

> <s_lp_Force_Field>
OPLS_2005

> <r_lp_Energy>
5.27204

> <b_lp_Chiralities_Consistent>
1

> <s_lp_Variant>
AV-unprocessed.smi:450-2

> <Gold.Version>
5.8.1

> <Gold.Id.Protein>
6NUR|6NUR_protein|mol2

> <Gold.PLP.Fitness>
40.2022

> <Gold.PLP.PLP>
-33.8642

> <Gold.PLP.part.hbond>
-3.4917

> <Gold.PLP.part.metal>
0.0000

> <Gold.PLP.part.buried>
-2.6371

> <Gold.PLP.part.nonpolar>
-27.8384

> <Gold.PLP.part.repulsive>
0.2737

> <Gold.PLP.ligand.clash>
0.0000

> <Gold.PLP.ligand.torsion>
1.3371

> <Gold.PLP.Chemscore.Hbond>
3.0000

> <Gold.PLP.Chemscore.CHOScore>
0.0000

> <Gold.PLP.Chemscore.Metal>
0.0000

> <Gold.Chemscore.Hbonds>
donor molecule, donor type, donor heavy atom, donor atom, acceptor molecule, acceptor atom, score
      L1  H     5    28       P1  8028  1.00
      P1  H  7997  8009       L1    18  0.65

> <Gold.PLP.Chemscore.Internal.Correction>
0.0124

> <Gold.Rescore>
     Score         DG    S(hbond)    S(metal)    S(lipo)     H(rot)  DE(clash)    DE(int)     intcor
     13.54     -17.10       2.83        0.00      67.01       2.21       0.72       2.84       ----

> <Gold.Chemscore.Fitness>
13.5443

> <Gold.Chemscore.DG>
-17.1046

> <Gold.Chemscore.ZeroCoef>
-5.4800

> <Gold.Chemscore.Hbond>
2.8284

> <Gold.Chemscore.Metal>
0.0000

> <Gold.Chemscore.Lipo>
67.0135

> <Gold.Chemscore.Internal_Hbond>
0.0000

> <Gold.Chemscore.DEClash>
0.7209

> <Gold.Chemscore.DEInternal>
2.8394

> <Gold.Chemscore.Rot>
2.2121

> <Gold.Chemscore.Internal.Correction>
   9.000000E+99

> <Gold.Chemscore.Hbonds>
donor molecule, donor type, donor heavy atom, donor atom, acceptor molecule, acceptor atom, score
      L1  H     5    28       P1  8028  0.97
      P1  H  7997  8009       L1    18  0.65

> <Gold.Chemscore.Hbond.Weighted>
-9.4469

> <Gold.Chemscore.Metal.Weighted>
-0.0000

> <Gold.Chemscore.Lipo.Weighted>
-7.8406

> <Gold.Chemscore.Internal_Hbond.Weighted>
0.0000

> <Gold.Chemscore.DEClash.Weighted>
0.7209

> <Gold.Chemscore.DEInternal.Weighted>
2.8394

> <Gold.Chemscore.Rot.Weighted>
5.6629

> <Gold.Chemscore.Internal.Correction.Weighted>
   9.000000E+99

> <Gold.Protein.RotatedTorsions>
[ 6907 6896 6895 6894 ] final   -7.74 input  -60.11 | X-H torsion
[ 7974 7965 7964 7962 ] final  171.92 input  175.53 | X-H torsion
[ 8008 7997 7996 7995 ] final -127.35 input   59.86 | X-H torsion
[ 10167 10162 10161 10158 ] final  -51.60 input  -65.29 | X-H torsion
[ 10718 10713 10712 10709 ] final   73.71 input   66.30 | X-H torsion
[ 10763 10752 10751 10750 ] final  -64.57 input  -60.55 | X-H torsion
[ 11005 11000 10999 10996 ] final -107.38 input  -57.11 | X-H torsion

> <Gold.Protein.ActiveResidues>
 VAL166  LYS551  ARG553  GLY616  TRP617  ASP618  TYR619  PRO620  LYS621  CYS622 
 ASP623  PHE694  ASN695  SER759  ASP760  ASP761  ALA762  ILE779  LEU786  VAL792 
 PHE793  MET794  SER795  GLU796  ALA797  LYS798  CYS799  TRP800  GLU811  SER814 

> <Gold.Protein.RotatedAtoms>
  151.4448  135.1024  159.9680 H   0  0  0  0  0  0  0  0  0  0  0  0  # atno 6907 bound_to 6896
  152.4910  133.8495  159.7205 H   0  0  0  0  0  0  0  0  0  0  0  0  # atno 6908 bound_to 6896
  150.9063  133.6995  159.2893 H   0  0  0  0  0  0  0  0  0  0  0  0  # atno 6909 bound_to 6896
  144.7282  139.9421  143.6429 H   0  0  0  0  0  0  0  0  0  0  0  0  # atno 7974 bound_to 7965
  155.2448  140.0430  157.2979 H   0  0  0  0  0  0  0  0  0  0  0  0  # atno 8008 bound_to 7997
  154.5806  140.2399  155.8029 H   0  0  0  0  0  0  0  0  0  0  0  0  # atno 8009 bound_to 7997
  156.2190  140.2976  155.9915 H   0  0  0  0  0  0  0  0  0  0  0  0  # atno 8010 bound_to 7997
  140.6580  143.2614  151.4527 H   0  0  0  0  0  0  0  0  0  0  0  0  # atno 10167 bound_to 10162
  157.6560  130.9642  150.1108 H   0  0  0  0  0  0  0  0  0  0  0  0  # atno 10718 bound_to 10713
  154.3321  135.6174  153.5556 H   0  0  0  0  0  0  0  0  0  0  0  0  # atno 10763 bound_to 10752
  152.9810  135.5749  154.4950 H   0  0  0  0  0  0  0  0  0  0  0  0  # atno 10764 bound_to 10752
  154.4638  135.2857  155.1670 H   0  0  0  0  0  0  0  0  0  0  0  0  # atno 10765 bound_to 10752
  141.0957  133.8975  157.1968 H   0  0  0  0  0  0  0  0  0  0  0  0  # atno 11005 bound_to 11000
  146.0777  139.3764  143.0484 LP  0  0  0  0  0  0  0  0  0  0  0  0  # atno 17320 bound_to 7965
  145.7883  140.9825  143.1062 LP  0  0  0  0  0  0  0  0  0  0  0  0  # atno 17321 bound_to 7965
  139.5807  144.1716  152.1964 LP  0  0  0  0  0  0  0  0  0  0  0  0  # atno 17342 bound_to 10162
  140.1041  144.5514  150.6969 LP  0  0  0  0  0  0  0  0  0  0  0  0  # atno 17343 bound_to 10162
  156.2005  130.3660  149.8794 LP  0  0  0  0  0  0  0  0  0  0  0  0  # atno 17370 bound_to 10713
  156.6699  130.8816  151.3560 LP  0  0  0  0  0  0  0  0  0  0  0  0  # atno 17371 bound_to 10713
  139.9793  135.0103  156.9710 LP  0  0  0  0  0  0  0  0  0  0  0  0  # atno 17394 bound_to 11000
  140.5146  134.0968  155.7278 LP  0  0  0  0  0  0  0  0  0  0  0  0  # atno 17395 bound_to 11000

$$$$
