AV-unprocessed.smi:2881|AV-procd|sdf|11064|dock10
  -GOLD-   2272015533D 1   1.00000     0.00000
 Structure written by MMmdl.
 40 42  0  0  0  0  0  0  0  0  1 V2000
  152.5285  143.8154  161.8934 C   0  0  0  0  0  0  0  0  0  0  0  0
  152.3670  143.2346  160.5197 C   0  0  0  0  0  0  0  0  0  0  0  0
  151.4831  143.6573  159.4839 C   0  0  0  0  0  0  0  0  0  0  0  0
  151.7398  142.8010  158.4498 C   0  0  0  0  0  0  0  0  0  0  0  0
  151.1491  142.7038  157.0773 C   0  0  0  0  0  0  0  0  0  0  0  0
  150.2045  141.5071  156.9147 C   0  0  0  0  0  0  0  0  0  0  0  0
  150.5548  140.3703  157.2353 O   0  0  0  0  0  0  0  0  0  0  0  0
  148.9995  141.7878  156.3959 N   0  0  0  0  0  0  0  0  0  0  0  0
  147.9327  140.8201  156.1315 C   0  0  1  0  0  0  0  0  0  0  0  0
  146.6569  141.4959  155.5683 C   0  0  1  0  0  0  0  0  0  0  0  0
  146.9890  142.4258  154.3815 C   0  0  0  0  0  0  0  0  0  0  0  0
  147.3931  141.4297  153.2798 C   0  0  0  0  0  0  0  0  0  0  0  0
  147.1866  140.0593  153.9598 C   0  0  2  0  0  0  0  0  0  0  0  0
  145.9756  140.3409  154.8415 C   0  0  0  0  0  0  0  0  0  0  0  0
  148.2703  139.7753  155.0260 C   0  0  1  0  0  0  0  0  0  0  0  0
  149.7151  139.7187  154.4792 C   0  0  0  0  0  0  0  0  0  0  0  0
  149.8335  138.7136  153.4943 O   0  0  0  0  0  0  0  0  0  0  0  0
  152.7177  141.9415  158.8987 N   0  0  0  0  0  0  0  0  0  0  0  0
  153.1094  142.1980  160.1604 N   0  0  0  0  0  0  0  0  0  0  0  0
  153.1257  141.1909  158.3599 H   0  0  0  0  0  0  0  0  0  0  0  0
  151.7749  144.5784  162.0891 H   0  0  0  0  0  0  0  0  0  0  0  0
  153.5084  144.2792  162.0097 H   0  0  0  0  0  0  0  0  0  0  0  0
  152.4287  143.0470  162.6603 H   0  0  0  0  0  0  0  0  0  0  0  0
  150.7703  144.4685  159.4982 H   0  0  0  0  0  0  0  0  0  0  0  0
  151.9462  142.6160  156.3383 H   0  0  0  0  0  0  0  0  0  0  0  0
  150.6084  143.6222  156.8445 H   0  0  0  0  0  0  0  0  0  0  0  0
  148.8012  142.7498  156.1620 H   0  0  0  0  0  0  0  0  0  0  0  0
  147.6683  140.2909  157.0494 H   0  0  0  0  0  0  0  0  0  0  0  0
  146.0462  141.9751  156.3339 H   0  0  0  0  0  0  0  0  0  0  0  0
  146.1018  142.9830  154.0782 H   0  0  0  0  0  0  0  0  0  0  0  0
  147.7673  143.1577  154.5959 H   0  0  0  0  0  0  0  0  0  0  0  0
  146.7330  141.5335  152.4178 H   0  0  0  0  0  0  0  0  0  0  0  0
  148.4122  141.5847  152.9278 H   0  0  0  0  0  0  0  0  0  0  0  0
  147.0506  139.2399  153.2533 H   0  0  0  0  0  0  0  0  0  0  0  0
  145.7116  139.5104  155.4988 H   0  0  0  0  0  0  0  0  0  0  0  0
  145.0900  140.6433  154.2794 H   0  0  0  0  0  0  0  0  0  0  0  0
  148.0508  138.7856  155.4322 H   0  0  0  0  0  0  0  0  0  0  0  0
  149.9731  140.6709  154.0151 H   0  0  0  0  0  0  0  0  0  0  0  0
  150.4483  139.5401  155.2653 H   0  0  0  0  0  0  0  0  0  0  0  0
  149.5103  139.0545  152.6743 H   0  0  0  0  0  0  0  0  0  0  0  0
  1 21  1  0  0  0  0
  1 22  1  0  0  0  0
  1 23  1  0  0  0  0
  1  2  1  0  0  0  0
  2 19  2  0  0  0  0
  2  3  1  0  0  0  0
  3  4  2  0  0  0  0
  3 24  1  0  0  0  0
  4 18  1  0  0  0  0
  4  5  1  0  0  0  0
  5  6  1  0  0  0  0
  5 25  1  0  0  0  0
  5 26  1  0  0  0  0
  6  7  2  0  0  0  0
  6  8  1  0  0  0  0
  8  9  1  0  0  0  0
  8 27  1  0  0  0  0
  9 15  1  0  0  0  0
  9 10  1  0  0  0  0
  9 28  1  0  0  0  0
 10 14  1  0  0  0  0
 10 11  1  0  0  0  0
 10 29  1  0  0  0  0
 11 12  1  0  0  0  0
 11 30  1  0  0  0  0
 11 31  1  0  0  0  0
 12 13  1  0  0  0  0
 12 32  1  0  0  0  0
 12 33  1  0  0  0  0
 13 14  1  0  0  0  0
 13 15  1  0  0  0  0
 13 34  1  0  0  0  0
 14 35  1  0  0  0  0
 14 36  1  0  0  0  0
 15 16  1  0  0  0  0
 15 37  1  0  0  0  0
 16 17  1  0  0  0  0
 16 38  1  0  0  0  0
 16 39  1  0  0  0  0
 17 40  1  0  0  0  0
 18 19  1  0  0  0  0
 18 20  1  0  0  0  0
M  END
> <s_m_source_file>
AV-unprocessed.smi

> <i_m_source_file_index>
2881

> <i_lp_mmshare_version>
43012

> <i_f3d_flags>
0

> <s_epik_input>
W0NIM11jMVtjSF1jKG5bbkhdMSlbQ0gyXUMoPU8pW05IXVtDQEhdKFtDQEBIXTIzKVtDQEhdKFtDSDJdW09IXSlbQ0BASF0oW0NIMl0zKVtDSDJdW0NIMl0y

> <s_epik_cmdline>
J2VwaWtfcHl0aG9uJywgJy1waCcsICc3LjAnLCAnLXRuJywgJzgnLCAnLW1hJywgJzIwMCcsICctbWV0YWxfYmluZGluZycsICctaW1hZScsICc8aW5maWxlLm1hZT4nLCAnLW9tYWUnLCAnPG91dGZpbGUubWFlPic=

> <r_lp_tautomer_probability>
0.5

> <r_epik_Ionization_Penalty>
0.00013396

> <r_epik_Ionization_Penalty_Charging>
0

> <r_epik_Ionization_Penalty_Neutral>
0.00013396

> <r_epik_State_Penalty>
0.41068

> <r_epik_Charging_Adjusted_Penalty>
0.41068

> <i_epik_Tot_Q>
0

> <i_epik_Tot_abs_Q>
0

> <r_epik_Metal_State_Penalty>
0.41066

> <b_epik_Metal_Only>
0

> <s_lp_Force_Field>
OPLS_2005

> <r_lp_Energy>
49.8973

> <b_lp_Chiralities_Consistent>
1

> <s_lp_Variant>
AV-unprocessed.smi:2881-10

> <Gold.Version>
5.8.1

> <Gold.Id.Protein>
6NUR|6NUR_protein|mol2

> <Gold.PLP.Fitness>
39.1034

> <Gold.PLP.PLP>
-33.5949

> <Gold.PLP.part.hbond>
-2.8903

> <Gold.PLP.part.metal>
0.0000

> <Gold.PLP.part.buried>
-6.6783

> <Gold.PLP.part.nonpolar>
-24.8600

> <Gold.PLP.part.repulsive>
0.1113

> <Gold.PLP.ligand.clash>
0.0000

> <Gold.PLP.ligand.torsion>
0.2532

> <Gold.PLP.Chemscore.Hbond>
2.0000

> <Gold.PLP.Chemscore.CHOScore>
0.0000

> <Gold.PLP.Chemscore.Metal>
0.0000

> <Gold.Chemscore.Hbonds>
donor molecule, donor type, donor heavy atom, donor atom, acceptor molecule, acceptor atom, score
      L1  H     8    27       P1  8028  1.00
      L1  H    17    40       P1  7957  1.00

> <Gold.PLP.Chemscore.Internal.Correction>
0.0149

> <Gold.Rescore>
     Score         DG    S(hbond)    S(metal)    S(lipo)     H(rot)  DE(clash)    DE(int)     intcor
     16.52     -17.29       1.96        0.00      94.92       2.28       0.62       0.15       ----

> <Gold.Chemscore.Fitness>
16.5223

> <Gold.Chemscore.DG>
-17.2913

> <Gold.Chemscore.ZeroCoef>
-5.4800

> <Gold.Chemscore.Hbond>
1.9553

> <Gold.Chemscore.Metal>
0.0000

> <Gold.Chemscore.Lipo>
94.9203

> <Gold.Chemscore.Internal_Hbond>
0.0000

> <Gold.Chemscore.DEClash>
0.6198

> <Gold.Chemscore.DEInternal>
0.1492

> <Gold.Chemscore.Rot>
2.2755

> <Gold.Chemscore.Internal.Correction>
   9.000000E+99

> <Gold.Chemscore.Hbonds>
donor molecule, donor type, donor heavy atom, donor atom, acceptor molecule, acceptor atom, score
      L1  H     8    27       P1  8028  0.93
      L1  H    17    40       P1  7957  0.95

> <Gold.Chemscore.Hbond.Weighted>
-6.5308

> <Gold.Chemscore.Metal.Weighted>
-0.0000

> <Gold.Chemscore.Lipo.Weighted>
-11.1057

> <Gold.Chemscore.Internal_Hbond.Weighted>
0.0000

> <Gold.Chemscore.DEClash.Weighted>
0.6198

> <Gold.Chemscore.DEInternal.Weighted>
0.1492

> <Gold.Chemscore.Rot.Weighted>
5.8252

> <Gold.Chemscore.Internal.Correction.Weighted>
   9.000000E+99

> <Gold.Protein.RotatedTorsions>
[ 6907 6896 6895 6894 ] final  -25.94 input  -60.11 | X-H torsion
[ 7974 7965 7964 7962 ] final   94.07 input  175.53 | X-H torsion
[ 8008 7997 7996 7995 ] final  133.88 input   59.86 | X-H torsion
[ 10167 10162 10161 10158 ] final  -54.86 input  -65.29 | X-H torsion
[ 10718 10713 10712 10709 ] final -131.35 input   66.30 | X-H torsion
[ 10763 10752 10751 10750 ] final   86.02 input  -60.55 | X-H torsion
[ 11005 11000 10999 10996 ] final  -69.68 input  -57.11 | X-H torsion

> <Gold.Protein.ActiveResidues>
 VAL166  LYS551  ARG553  GLY616  TRP617  ASP618  TYR619  PRO620  LYS621  CYS622 
 ASP623  PHE694  ASN695  SER759  ASP760  ASP761  ALA762  ILE779  LEU786  VAL792 
 PHE793  MET794  SER795  GLU796  ALA797  LYS798  CYS799  TRP800  GLU811  SER814 

> <Gold.Protein.RotatedAtoms>
  151.1680  135.0304  159.8738 H   0  0  0  0  0  0  0  0  0  0  0  0  # atno 6907 bound_to 6896
  152.5449  134.1203  159.8406 H   0  0  0  0  0  0  0  0  0  0  0  0  # atno 6908 bound_to 6896
  151.1306  133.4993  159.2632 H   0  0  0  0  0  0  0  0  0  0  0  0  # atno 6909 bound_to 6896
  145.4704  139.2282  143.2938 H   0  0  0  0  0  0  0  0  0  0  0  0  # atno 7974 bound_to 7965
  156.2995  140.2510  156.3326 H   0  0  0  0  0  0  0  0  0  0  0  0  # atno 8008 bound_to 7997
  154.9131  140.0403  157.1976 H   0  0  0  0  0  0  0  0  0  0  0  0  # atno 8009 bound_to 7997
  154.8385  140.2887  155.5679 H   0  0  0  0  0  0  0  0  0  0  0  0  # atno 8010 bound_to 7997
  140.6407  143.2506  151.4998 H   0  0  0  0  0  0  0  0  0  0  0  0  # atno 10167 bound_to 10162
  156.2236  130.6993  151.0782 H   0  0  0  0  0  0  0  0  0  0  0  0  # atno 10718 bound_to 10713
  153.1530  135.4596  154.9664 H   0  0  0  0  0  0  0  0  0  0  0  0  # atno 10763 bound_to 10752
  154.7839  135.3197  154.7931 H   0  0  0  0  0  0  0  0  0  0  0  0  # atno 10764 bound_to 10752
  153.8433  135.6928  153.4855 H   0  0  0  0  0  0  0  0  0  0  0  0  # atno 10765 bound_to 10752
  141.1559  133.6770  156.6637 H   0  0  0  0  0  0  0  0  0  0  0  0  # atno 11005 bound_to 11000
  146.2400  140.5482  142.8938 LP  0  0  0  0  0  0  0  0  0  0  0  0  # atno 17320 bound_to 7965
  144.7948  140.6102  143.6517 LP  0  0  0  0  0  0  0  0  0  0  0  0  # atno 17321 bound_to 7965
  139.5616  144.2143  152.1700 LP  0  0  0  0  0  0  0  0  0  0  0  0  # atno 17342 bound_to 10162
  140.1412  144.5200  150.6743 LP  0  0  0  0  0  0  0  0  0  0  0  0  # atno 17343 bound_to 10162
  157.7099  131.0739  150.6536 LP  0  0  0  0  0  0  0  0  0  0  0  0  # atno 17370 bound_to 10713
  156.6600  130.4509  149.5690 LP  0  0  0  0  0  0  0  0  0  0  0  0  # atno 17371 bound_to 10713
  140.3228  134.7994  157.4265 LP  0  0  0  0  0  0  0  0  0  0  0  0  # atno 17394 bound_to 11000
  140.1083  134.5380  155.8289 LP  0  0  0  0  0  0  0  0  0  0  0  0  # atno 17395 bound_to 11000

$$$$
