AV-unprocessed.smi:1244|AV-procd|sdf|5233|dock4
  -GOLD-   22720 4333D 1   1.00000     0.00000
 Structure written by MMmdl.
 56 58  0  0  0  0  0  0  0  0  3 V2000
  154.4098  134.1610  164.5332 C   0  0  0  0  0  0  0  0  0  0  0  0
  154.3612  135.5794  163.9545 C   0  0  2  0  0  0  0  0  0  0  0  0
  155.0318  135.6626  162.5681 C   0  0  0  0  0  0  0  0  0  0  0  0
  155.0532  137.0566  162.0612 N   0  3  1  0  0  0  0  0  0  0  0  0
  153.7460  137.5138  161.5193 C   0  0  0  0  0  0  0  0  0  0  0  0
  153.5930  137.1996  160.0184 C   0  0  0  0  0  0  0  0  0  0  0  0
  152.7378  138.1741  159.3499 N   0  0  0  0  0  0  0  0  0  0  0  0
  152.9879  139.4894  159.2792 C   0  0  0  0  0  0  0  0  0  0  0  0
  153.9744  140.0206  159.7890 O   0  0  0  0  0  0  0  0  0  0  0  0
  152.0413  140.1315  158.5740 N   0  0  0  0  0  0  0  0  0  0  0  0
  151.9763  141.5181  158.2550 C   0  0  0  0  0  0  0  0  0  0  0  0
  152.7200  142.4777  158.9895 C   0  0  0  0  0  0  0  0  0  0  0  0
  152.5810  143.8480  158.6993 C   0  0  0  0  0  0  0  0  0  0  0  0
  151.6875  144.2419  157.6891 C   0  0  0  0  0  0  0  0  0  0  0  0
  150.9848  143.3072  157.0169 N   0  3  0  0  0  0  0  0  0  0  0  0
  151.0856  141.9727  157.2393 C   0  0  0  0  0  0  0  0  0  0  0  0
  150.2958  141.1088  156.4470 N   0  0  0  0  0  0  0  0  0  0  0  0
  149.2579  141.6496  155.5768 C   0  0  0  0  0  0  0  0  0  0  0  0
  148.8910  140.5025  154.6395 C   0  0  0  0  0  0  0  0  0  0  0  0
  150.2319  139.8025  154.4387 C   0  0  0  0  0  0  0  0  0  0  0  0
  150.9408  139.9781  155.7862 C   0  0  0  0  0  0  0  0  0  0  0  0
  155.6614  137.9636  163.0684 C   0  0  0  0  0  0  0  0  0  0  0  0
  154.9937  137.8113  164.4525 C   0  0  2  0  0  0  0  0  0  0  0  0
  155.6992  138.6481  165.5253 C   0  0  0  0  0  0  0  0  0  0  0  0
  155.0479  136.4458  164.8513 O   0  0  0  0  0  0  0  0  0  0  0  0
  153.8886  133.4547  163.8865 H   0  0  0  0  0  0  0  0  0  0  0  0
  153.9360  134.1241  165.5145 H   0  0  0  0  0  0  0  0  0  0  0  0
  155.4376  133.8153  164.6468 H   0  0  0  0  0  0  0  0  0  0  0  0
  153.3162  135.8861  163.8856 H   0  0  0  0  0  0  0  0  0  0  0  0
  156.0623  135.3119  162.6413 H   0  0  0  0  0  0  0  0  0  0  0  0
  154.5366  135.0029  161.8544 H   0  0  0  0  0  0  0  0  0  0  0  0
  152.9418  137.0025  162.0503 H   0  0  0  0  0  0  0  0  0  0  0  0
  153.6062  138.5775  161.7112 H   0  0  0  0  0  0  0  0  0  0  0  0
  154.5591  137.1687  159.5139 H   0  0  0  0  0  0  0  0  0  0  0  0
  153.1460  136.2132  159.8903 H   0  0  0  0  0  0  0  0  0  0  0  0
  151.9062  137.8191  158.9006 H   0  0  0  0  0  0  0  0  0  0  0  0
  151.3425  139.5510  158.1336 H   0  0  0  0  0  0  0  0  0  0  0  0
  153.3812  142.1858  159.7912 H   0  0  0  0  0  0  0  0  0  0  0  0
  153.1425  144.5861  159.2533 H   0  0  0  0  0  0  0  0  0  0  0  0
  151.5102  145.2685  157.4027 H   0  0  0  0  0  0  0  0  0  0  0  0
  148.3970  141.9956  156.1497 H   0  0  0  0  0  0  0  0  0  0  0  0
  149.6443  142.4867  154.9940 H   0  0  0  0  0  0  0  0  0  0  0  0
  148.1884  139.8274  155.1303 H   0  0  0  0  0  0  0  0  0  0  0  0
  148.4407  140.8431  153.7065 H   0  0  0  0  0  0  0  0  0  0  0  0
  150.1276  138.7570  154.1476 H   0  0  0  0  0  0  0  0  0  0  0  0
  150.7969  140.3130  153.6575 H   0  0  0  0  0  0  0  0  0  0  0  0
  152.0120  140.1353  155.6526 H   0  0  0  0  0  0  0  0  0  0  0  0
  150.8025  139.0867  156.3986 H   0  0  0  0  0  0  0  0  0  0  0  0
  156.7193  137.7093  163.1496 H   0  0  0  0  0  0  0  0  0  0  0  0
  155.6261  139.0004  162.7370 H   0  0  0  0  0  0  0  0  0  0  0  0
  153.9514  138.1297  164.4076 H   0  0  0  0  0  0  0  0  0  0  0  0
  155.6787  139.7085  165.2724 H   0  0  0  0  0  0  0  0  0  0  0  0
  156.7423  138.3506  165.6369 H   0  0  0  0  0  0  0  0  0  0  0  0
  155.2136  138.5291  166.4941 H   0  0  0  0  0  0  0  0  0  0  0  0
  155.6777  137.0485  161.2673 H   0  0  0  0  0  0  0  0  0  0  0  0
  150.3433  143.6250  156.2902 H   0  0  0  0  0  0  0  0  0  0  0  0
  1  2  1  0  0  0  0
  1 26  1  0  0  0  0
  1 27  1  0  0  0  0
  1 28  1  0  0  0  0
  2 25  1  0  0  0  0
  2  3  1  0  0  0  0
  2 29  1  0  0  0  0
  3  4  1  0  0  0  0
  3 30  1  0  0  0  0
  3 31  1  0  0  0  0
  4  5  1  0  0  0  0
  4 22  1  0  0  0  0
  4 55  1  0  0  0  0
  5  6  1  0  0  0  0
  5 32  1  0  0  0  0
  5 33  1  0  0  0  0
  6  7  1  0  0  0  0
  6 34  1  0  0  0  0
  6 35  1  0  0  0  0
  7  8  1  0  0  0  0
  7 36  1  0  0  0  0
  8  9  2  0  0  0  0
  8 10  1  0  0  0  0
 10 11  1  0  0  0  0
 10 37  1  0  0  0  0
 11 16  1  0  0  0  0
 11 12  2  0  0  0  0
 12 13  1  0  0  0  0
 12 38  1  0  0  0  0
 13 14  2  0  0  0  0
 13 39  1  0  0  0  0
 14 15  1  0  0  0  0
 14 40  1  0  0  0  0
 15 16  2  0  0  0  0
 15 56  1  0  0  0  0
 16 17  1  0  0  0  0
 17 21  1  0  0  0  0
 17 18  1  0  0  0  0
 18 19  1  0  0  0  0
 18 41  1  0  0  0  0
 18 42  1  0  0  0  0
 19 20  1  0  0  0  0
 19 43  1  0  0  0  0
 19 44  1  0  0  0  0
 20 21  1  0  0  0  0
 20 45  1  0  0  0  0
 20 46  1  0  0  0  0
 21 47  1  0  0  0  0
 21 48  1  0  0  0  0
 22 23  1  0  0  0  0
 22 49  1  0  0  0  0
 22 50  1  0  0  0  0
 23 24  1  0  0  0  0
 23 25  1  0  0  0  0
 23 51  1  0  0  0  0
 24 52  1  0  0  0  0
 24 53  1  0  0  0  0
 24 54  1  0  0  0  0
M  CHG  1   4   1
M  CHG  1  15   1
M  END
> <s_m_source_file>
AV-unprocessed.smi

> <i_m_source_file_index>
1244

> <i_lp_mmshare_version>
43012

> <i_f3d_flags>
0

> <s_epik_input>
W0NIM11bQ0BASF0xW0NIMl1OKFtDSDJdW0NASF0oTzEpW0NIM10pW0NIMl1bQ0gyXVtOSF1DKD1PKVtOSF1jMltjSF1bY0hdW2NIXW5jMk4zW0NIMl1bQ0gyXVtDSDJdW0NIMl0z

> <s_epik_cmdline>
J2VwaWtfcHl0aG9uJywgJy1waCcsICc3LjAnLCAnLXRuJywgJzgnLCAnLW1hJywgJzIwMCcsICctbWV0YWxfYmluZGluZycsICctaW1hZScsICc8aW5maWxlLm1hZT4nLCAnLW9tYWUnLCAnPG91dGZpbGUubWFlPic=

> <r_lp_tautomer_probability>
0.999994

> <r_epik_Ionization_Penalty>
1.81601

> <r_epik_Ionization_Penalty_Charging>
1.81599

> <r_epik_Ionization_Penalty_Neutral>
2.01972e-05

> <r_epik_State_Penalty>
1.85672

> <r_epik_Charging_Adjusted_Penalty>
3.6727

> <i_epik_Tot_Q>
2

> <i_epik_Tot_abs_Q>
2

> <r_epik_Metal_State_Penalty>
1.93796

> <b_epik_Metal_Only>
0

> <s_lp_Force_Field>
OPLS_2005

> <r_lp_Energy>
53.9706

> <b_lp_Chiralities_Consistent>
1

> <s_lp_Variant>
AV-unprocessed.smi:1244-13

> <Gold.Version>
5.8.1

> <Gold.Id.Protein>
6NUR|6NUR_protein|mol2

> <Gold.PLP.Fitness>
50.7667

> <Gold.PLP.PLP>
-46.0847

> <Gold.PLP.part.hbond>
-1.0000

> <Gold.PLP.part.metal>
0.0000

> <Gold.PLP.part.buried>
-4.2943

> <Gold.PLP.part.nonpolar>
-42.6133

> <Gold.PLP.part.repulsive>
1.5969

> <Gold.PLP.ligand.clash>
0.0000

> <Gold.PLP.ligand.torsion>
0.8648

> <Gold.PLP.Chemscore.Hbond>
2.0000

> <Gold.PLP.Chemscore.CHOScore>
0.0000

> <Gold.PLP.Chemscore.Metal>
0.0000

> <Gold.Chemscore.Hbonds>
donor molecule, donor type, donor heavy atom, donor atom, acceptor molecule, acceptor atom, score
      L1  H    15    56       P1  8028  2.00

> <Gold.PLP.Chemscore.Internal.Correction>
0.4115

> <Gold.Rescore>
     Score         DG    S(hbond)    S(metal)    S(lipo)     H(rot)  DE(clash)    DE(int)     intcor
     15.01     -19.14       0.94        0.00     125.48       1.63       0.30       3.83       ----

> <Gold.Chemscore.Fitness>
15.0105

> <Gold.Chemscore.DG>
-19.1413

> <Gold.Chemscore.ZeroCoef>
-5.4800

> <Gold.Chemscore.Hbond>
0.9436

> <Gold.Chemscore.Metal>
0.0000

> <Gold.Chemscore.Lipo>
125.4751

> <Gold.Chemscore.Internal_Hbond>
0.0000

> <Gold.Chemscore.DEClash>
0.3016

> <Gold.Chemscore.DEInternal>
3.8292

> <Gold.Chemscore.Rot>
1.6293

> <Gold.Chemscore.Internal.Correction>
   9.000000E+99

> <Gold.Chemscore.Hbonds>
donor molecule, donor type, donor heavy atom, donor atom, acceptor molecule, acceptor atom, score
      L1  H    15    56       P1  8028  0.96

> <Gold.Chemscore.Hbond.Weighted>
-3.1516

> <Gold.Chemscore.Metal.Weighted>
-0.0000

> <Gold.Chemscore.Lipo.Weighted>
-14.6806

> <Gold.Chemscore.Internal_Hbond.Weighted>
0.0000

> <Gold.Chemscore.DEClash.Weighted>
0.3016

> <Gold.Chemscore.DEInternal.Weighted>
3.8292

> <Gold.Chemscore.Rot.Weighted>
4.1709

> <Gold.Chemscore.Internal.Correction.Weighted>
   9.000000E+99

> <Gold.Protein.RotatedTorsions>
[ 6907 6896 6895 6894 ] final   24.80 input  -60.11 | X-H torsion
[ 7974 7965 7964 7962 ] final -150.92 input  175.53 | X-H torsion
[ 8008 7997 7996 7995 ] final  -98.66 input   59.86 | X-H torsion
[ 10167 10162 10161 10158 ] final   35.68 input  -65.29 | X-H torsion
[ 10718 10713 10712 10709 ] final   24.10 input   66.30 | X-H torsion
[ 10763 10752 10751 10750 ] final   11.11 input  -60.55 | X-H torsion
[ 11005 11000 10999 10996 ] final  -69.83 input  -57.11 | X-H torsion

> <Gold.Protein.ActiveResidues>
 VAL166  LYS551  ARG553  GLY616  TRP617  ASP618  TYR619  PRO620  LYS621  CYS622 
 ASP623  PHE694  ASN695  SER759  ASP760  ASP761  ALA762  ILE779  LEU786  VAL792 
 PHE793  MET794  SER795  GLU796  ALA797  LYS798  CYS799  TRP800  GLU811  SER814 

> <Gold.Protein.RotatedAtoms>
  151.9629  135.0115  160.0548 H   0  0  0  0  0  0  0  0  0  0  0  0  # atno 6907 bound_to 6896
  152.1852  133.4730  159.4987 H   0  0  0  0  0  0  0  0  0  0  0  0  # atno 6908 bound_to 6896
  150.6925  134.1699  159.4251 H   0  0  0  0  0  0  0  0  0  0  0  0  # atno 6909 bound_to 6896
  144.7879  140.4867  143.5793 H   0  0  0  0  0  0  0  0  0  0  0  0  # atno 7974 bound_to 7965
  154.8042  140.0453  157.1295 H   0  0  0  0  0  0  0  0  0  0  0  0  # atno 8008 bound_to 7997
  154.9443  140.3057  155.5085 H   0  0  0  0  0  0  0  0  0  0  0  0  # atno 8009 bound_to 7997
  156.2965  140.2300  156.4515 H   0  0  0  0  0  0  0  0  0  0  0  0  # atno 8010 bound_to 7997
  140.4199  144.1474  150.6147 H   0  0  0  0  0  0  0  0  0  0  0  0  # atno 10167 bound_to 10162
  157.1751  130.6777  149.6092 H   0  0  0  0  0  0  0  0  0  0  0  0  # atno 10718 bound_to 10713
  153.1960  135.6849  153.8291 H   0  0  0  0  0  0  0  0  0  0  0  0  # atno 10763 bound_to 10752
  153.7574  135.3215  155.3332 H   0  0  0  0  0  0  0  0  0  0  0  0  # atno 10764 bound_to 10752
  154.8145  135.4695  154.0705 H   0  0  0  0  0  0  0  0  0  0  0  0  # atno 10765 bound_to 10752
  141.1562  133.6774  156.6659 H   0  0  0  0  0  0  0  0  0  0  0  0  # atno 11005 bound_to 11000
  145.5872  139.1493  143.3202 LP  0  0  0  0  0  0  0  0  0  0  0  0  # atno 17320 bound_to 7965
  146.2119  140.5999  142.9055 LP  0  0  0  0  0  0  0  0  0  0  0  0  # atno 17321 bound_to 7965
  140.4545  143.2473  151.9303 LP  0  0  0  0  0  0  0  0  0  0  0  0  # atno 17342 bound_to 10162
  139.4782  144.5529  151.8358 LP  0  0  0  0  0  0  0  0  0  0  0  0  # atno 17343 bound_to 10162
  155.9732  130.4665  150.6293 LP  0  0  0  0  0  0  0  0  0  0  0  0  # atno 17370 bound_to 10713
  157.4006  131.0809  151.1312 LP  0  0  0  0  0  0  0  0  0  0  0  0  # atno 17371 bound_to 10713
  140.3211  134.8006  157.4253 LP  0  0  0  0  0  0  0  0  0  0  0  0  # atno 17394 bound_to 11000
  140.1096  134.5364  155.8278 LP  0  0  0  0  0  0  0  0  0  0  0  0  # atno 17395 bound_to 11000

$$$$
