AV-unprocessed.smi:1978|AV-procd|sdf|7999|dock3
  -GOLD-   2272010183D 1   1.00000     0.00000
 Structure written by MMmdl.
 45 46  0  0  0  0  0  0  0  0  2 V2000
  152.0624  139.2502  158.2848 C   0  0  0  0  0  0  0  0  0  0  0  0
  151.6756  139.2743  156.8457 C   0  0  0  0  0  0  0  0  0  0  0  0
  150.5065  139.0036  156.1916 C   0  0  0  0  0  0  0  0  0  0  0  0
  150.8428  139.2280  154.8302 C   0  0  0  0  0  0  0  0  0  0  0  0
  149.8800  139.0505  153.8041 N   0  0  0  0  0  0  0  0  0  0  0  0
  148.5867  138.7141  153.9452 C   0  0  0  0  0  0  0  0  0  0  0  0
  148.0210  138.4957  155.0169 O   0  0  0  0  0  0  0  0  0  0  0  0
  147.9676  138.6426  152.7578 N   0  0  0  0  0  0  0  0  0  0  0  0
  146.5624  138.2907  152.5708 C   0  0  0  0  0  0  0  0  0  0  0  0
  146.1238  137.0338  153.3797 C   0  0  1  0  0  0  0  0  0  0  0  0
  144.6459  137.1878  153.8185 C   0  0  0  0  0  0  0  0  0  0  0  0
  146.3459  135.7498  152.6255 N   0  3  2  0  0  0  0  0  0  0  0  0
  145.4000  135.5498  151.4842 C   0  0  0  0  0  0  0  0  0  0  0  0
  145.7834  134.3378  150.6190 C   0  0  0  0  0  0  0  0  0  0  0  0
  145.8724  133.0610  151.4551 C   0  0  0  0  0  0  0  0  0  0  0  0
  146.8447  133.2859  152.6165 C   0  0  0  0  0  0  0  0  0  0  0  0
  146.4605  134.5127  153.4706 C   0  0  2  0  0  0  0  0  0  0  0  0
  145.2117  134.2450  154.3408 C   0  0  0  0  0  0  0  0  0  0  0  0
  152.1031  139.6001  154.6672 N   0  0  0  0  0  0  0  0  0  0  0  0
  152.6433  139.6322  155.9584 O   0  0  0  0  0  0  0  0  0  0  0  0
  151.2454  138.8756  158.9017 H   0  0  0  0  0  0  0  0  0  0  0  0
  152.3173  140.2514  158.6325 H   0  0  0  0  0  0  0  0  0  0  0  0
  152.9275  138.6058  158.4425 H   0  0  0  0  0  0  0  0  0  0  0  0
  149.5646  138.6961  156.6211 H   0  0  0  0  0  0  0  0  0  0  0  0
  150.2134  139.1936  152.8624 H   0  0  0  0  0  0  0  0  0  0  0  0
  148.5060  138.8345  151.9254 H   0  0  0  0  0  0  0  0  0  0  0  0
  145.9571  139.1500  152.8613 H   0  0  0  0  0  0  0  0  0  0  0  0
  146.4220  138.1603  151.4985 H   0  0  0  0  0  0  0  0  0  0  0  0
  146.7269  136.9861  154.2872 H   0  0  0  0  0  0  0  0  0  0  0  0
  144.4501  138.1573  154.2749 H   0  0  0  0  0  0  0  0  0  0  0  0
  144.3577  136.4611  154.5761 H   0  0  0  0  0  0  0  0  0  0  0  0
  143.9680  137.0856  152.9707 H   0  0  0  0  0  0  0  0  0  0  0  0
  144.3808  135.4449  151.8575 H   0  0  0  0  0  0  0  0  0  0  0  0
  145.3970  136.4085  150.8175 H   0  0  0  0  0  0  0  0  0  0  0  0
  145.0544  134.2070  149.8187 H   0  0  0  0  0  0  0  0  0  0  0  0
  146.7427  134.5242  150.1337 H   0  0  0  0  0  0  0  0  0  0  0  0
  144.8861  132.7885  151.8318 H   0  0  0  0  0  0  0  0  0  0  0  0
  146.2096  132.2285  150.8369 H   0  0  0  0  0  0  0  0  0  0  0  0
  146.8944  132.3919  153.2394 H   0  0  0  0  0  0  0  0  0  0  0  0
  147.8493  133.4285  152.2158 H   0  0  0  0  0  0  0  0  0  0  0  0
  147.3061  134.6347  154.1446 H   0  0  0  0  0  0  0  0  0  0  0  0
  145.3448  133.3420  154.9370 H   0  0  0  0  0  0  0  0  0  0  0  0
  144.3111  134.1067  153.7435 H   0  0  0  0  0  0  0  0  0  0  0  0
  145.0192  135.0571  155.0412 H   0  0  0  0  0  0  0  0  0  0  0  0
  147.2553  135.8542  152.1987 H   0  0  0  0  0  0  0  0  0  0  0  0
  1  2  1  0  0  0  0
  1 21  1  0  0  0  0
  1 22  1  0  0  0  0
  1 23  1  0  0  0  0
  2 20  1  0  0  0  0
  2  3  2  0  0  0  0
  3  4  1  0  0  0  0
  3 24  1  0  0  0  0
  4  5  1  0  0  0  0
  4 19  2  0  0  0  0
  5  6  1  0  0  0  0
  5 25  1  0  0  0  0
  6  7  2  0  0  0  0
  6  8  1  0  0  0  0
  8  9  1  0  0  0  0
  8 26  1  0  0  0  0
  9 10  1  0  0  0  0
  9 27  1  0  0  0  0
  9 28  1  0  0  0  0
 10 11  1  0  0  0  0
 10 12  1  0  0  0  0
 10 29  1  0  0  0  0
 11 30  1  0  0  0  0
 11 31  1  0  0  0  0
 11 32  1  0  0  0  0
 12 17  1  0  0  0  0
 12 13  1  0  0  0  0
 12 45  1  0  0  0  0
 13 14  1  0  0  0  0
 13 33  1  0  0  0  0
 13 34  1  0  0  0  0
 14 15  1  0  0  0  0
 14 35  1  0  0  0  0
 14 36  1  0  0  0  0
 15 16  1  0  0  0  0
 15 37  1  0  0  0  0
 15 38  1  0  0  0  0
 16 17  1  0  0  0  0
 16 39  1  0  0  0  0
 16 40  1  0  0  0  0
 17 18  1  0  0  0  0
 17 41  1  0  0  0  0
 18 42  1  0  0  0  0
 18 43  1  0  0  0  0
 18 44  1  0  0  0  0
 19 20  1  0  0  0  0
M  CHG  1  12   1
M  END
> <s_m_source_file>
AV-unprocessed.smi

> <i_m_source_file_index>
1978

> <i_lp_mmshare_version>
43012

> <i_f3d_flags>
0

> <s_epik_input>
W0NIM11jMVtjSF1jKG5vMSlbTkhdQyg9TylbTkhdW0NIMl1bQ0BIXShbQ0gzXSlOMltDSDJdW0NIMl1bQ0gyXVtDSDJdW0NASF0yW0NIM10=

> <s_epik_cmdline>
J2VwaWtfcHl0aG9uJywgJy1waCcsICc3LjAnLCAnLXRuJywgJzgnLCAnLW1hJywgJzIwMCcsICctbWV0YWxfYmluZGluZycsICctaW1hZScsICc8aW5maWxlLm1hZT4nLCAnLW9tYWUnLCAnPG91dGZpbGUubWFlPic=

> <r_epik_Ionization_Penalty>
0.00265971

> <r_epik_Ionization_Penalty_Charging>
0.00262393

> <r_epik_Ionization_Penalty_Neutral>
3.57846e-05

> <r_epik_State_Penalty>
0.00182566

> <r_epik_Charging_Adjusted_Penalty>
0.00444959

> <i_epik_Tot_Q>
1

> <i_epik_Tot_abs_Q>
1

> <r_epik_Metal_State_Penalty>
0.0216344

> <b_epik_Metal_Only>
0

> <s_lp_Force_Field>
OPLS_2005

> <r_lp_Energy>
22.4222

> <b_lp_Chiralities_Consistent>
1

> <s_lp_Variant>
AV-unprocessed.smi:1978-8

> <Gold.Version>
5.8.1

> <Gold.Id.Protein>
6NUR|6NUR_protein|mol2

> <Gold.PLP.Fitness>
44.4880

> <Gold.PLP.PLP>
-28.0915

> <Gold.PLP.part.hbond>
-5.9517

> <Gold.PLP.part.metal>
0.0000

> <Gold.PLP.part.buried>
-4.1210

> <Gold.PLP.part.nonpolar>
-19.2179

> <Gold.PLP.part.repulsive>
0.3008

> <Gold.PLP.ligand.clash>
0.0000

> <Gold.PLP.ligand.torsion>
0.7133

> <Gold.PLP.Chemscore.Hbond>
5.9120

> <Gold.PLP.Chemscore.CHOScore>
0.0000

> <Gold.PLP.Chemscore.Metal>
0.0000

> <Gold.Chemscore.Hbonds>
donor molecule, donor type, donor heavy atom, donor atom, acceptor molecule, acceptor atom, score
      L1  H     5    25       P1  7957  0.80
      L1  H     8    26       P1  7957  0.90
      L1  H    12    45       P1  7948  2.00
      P1  H  7989  7998       L1    19  0.55
      P1  H  7997  8010       L1    20  1.00

> <Gold.PLP.Chemscore.Internal.Correction>
0.0872

> <Gold.Rescore>
     Score         DG    S(hbond)    S(metal)    S(lipo)     H(rot)  DE(clash)    DE(int)     intcor
     19.15     -22.87       4.61        0.00      50.86       1.55       0.00       3.72       ----

> <Gold.Chemscore.Fitness>
19.1540

> <Gold.Chemscore.DG>
-22.8748

> <Gold.Chemscore.ZeroCoef>
-5.4800

> <Gold.Chemscore.Hbond>
4.6123

> <Gold.Chemscore.Metal>
0.0000

> <Gold.Chemscore.Lipo>
50.8616

> <Gold.Chemscore.Internal_Hbond>
0.0000

> <Gold.Chemscore.DEClash>
0.0009

> <Gold.Chemscore.DEInternal>
3.7199

> <Gold.Chemscore.Rot>
1.5474

> <Gold.Chemscore.Internal.Correction>
   9.000000E+99

> <Gold.Chemscore.Hbonds>
donor molecule, donor type, donor heavy atom, donor atom, acceptor molecule, acceptor atom, score
      L1  H     5    25       P1  7957  0.61
      L1  H     8    26       P1  7957  0.75
      L1  H    12    45       P1  7948  1.00
      P1  H  7989  7998       L1    19  0.05
      P1  H  7997  8010       L1    20  0.98

> <Gold.Chemscore.Hbond.Weighted>
-15.4052

> <Gold.Chemscore.Metal.Weighted>
-0.0000

> <Gold.Chemscore.Lipo.Weighted>
-5.9508

> <Gold.Chemscore.Internal_Hbond.Weighted>
0.0000

> <Gold.Chemscore.DEClash.Weighted>
0.0009

> <Gold.Chemscore.DEInternal.Weighted>
3.7199

> <Gold.Chemscore.Rot.Weighted>
3.9612

> <Gold.Chemscore.Internal.Correction.Weighted>
   9.000000E+99

> <Gold.Protein.RotatedTorsions>
[ 6907 6896 6895 6894 ] final   44.32 input  -60.11 | X-H torsion
[ 7974 7965 7964 7962 ] final   85.55 input  175.53 | X-H torsion
[ 8008 7997 7996 7995 ] final   83.57 input   59.86 | X-H torsion
[ 10167 10162 10161 10158 ] final  -27.84 input  -65.29 | X-H torsion
[ 10718 10713 10712 10709 ] final  -41.44 input   66.30 | X-H torsion
[ 10763 10752 10751 10750 ] final -140.52 input  -60.55 | X-H torsion
[ 11005 11000 10999 10996 ] final   69.23 input  -57.11 | X-H torsion

> <Gold.Protein.ActiveResidues>
 VAL166  LYS551  ARG553  GLY616  TRP617  ASP618  TYR619  PRO620  LYS621  CYS622 
 ASP623  PHE694  ASN695  SER759  ASP760  ASP761  ALA762  ILE779  LEU786  VAL792 
 PHE793  MET794  SER795  GLU796  ALA797  LYS798  CYS799  TRP800  GLU811  SER814 

> <Gold.Protein.RotatedAtoms>
  152.2310  134.8321  160.0473 H   0  0  0  0  0  0  0  0  0  0  0  0  # atno 6907 bound_to 6896
  151.9070  133.3547  159.3858 H   0  0  0  0  0  0  0  0  0  0  0  0  # atno 6908 bound_to 6896
  150.7026  134.4696  159.5463 H   0  0  0  0  0  0  0  0  0  0  0  0  # atno 6909 bound_to 6896
  145.5840  139.2329  143.2337 H   0  0  0  0  0  0  0  0  0  0  0  0  # atno 7974 bound_to 7965
  155.9256  140.3418  155.6208 H   0  0  0  0  0  0  0  0  0  0  0  0  # atno 8008 bound_to 7997
  155.7220  140.0784  157.2345 H   0  0  0  0  0  0  0  0  0  0  0  0  # atno 8009 bound_to 7997
  154.4076  140.1604  156.2400 H   0  0  0  0  0  0  0  0  0  0  0  0  # atno 8010 bound_to 7997
  140.7274  143.4059  151.1186 H   0  0  0  0  0  0  0  0  0  0  0  0  # atno 10167 bound_to 10162
  156.2703  130.4206  149.8445 H   0  0  0  0  0  0  0  0  0  0  0  0  # atno 10718 bound_to 10713
  154.8576  135.3551  154.5721 H   0  0  0  0  0  0  0  0  0  0  0  0  # atno 10763 bound_to 10752
  153.6334  135.7001  153.5272 H   0  0  0  0  0  0  0  0  0  0  0  0  # atno 10764 bound_to 10752
  153.3031  135.4200  155.1229 H   0  0  0  0  0  0  0  0  0  0  0  0  # atno 10765 bound_to 10752
  139.9666  134.6971  156.0534 H   0  0  0  0  0  0  0  0  0  0  0  0  # atno 11005 bound_to 11000
  146.1695  140.6666  142.9239 LP  0  0  0  0  0  0  0  0  0  0  0  0  # atno 17320 bound_to 7965
  144.7381  140.4865  143.6889 LP  0  0  0  0  0  0  0  0  0  0  0  0  # atno 17321 bound_to 7965
  139.7686  143.8528  152.3116 LP  0  0  0  0  0  0  0  0  0  0  0  0  # atno 17342 bound_to 10162
  139.8439  144.7197  150.9297 LP  0  0  0  0  0  0  0  0  0  0  0  0  # atno 17343 bound_to 10162
  156.5929  130.8514  151.3412 LP  0  0  0  0  0  0  0  0  0  0  0  0  # atno 17370 bound_to 10713
  157.7281  130.9653  150.1730 LP  0  0  0  0  0  0  0  0  0  0  0  0  # atno 17371 bound_to 10713
  141.1345  133.6578  156.3556 LP  0  0  0  0  0  0  0  0  0  0  0  0  # atno 17394 bound_to 11000
  140.5384  134.6144  157.5372 LP  0  0  0  0  0  0  0  0  0  0  0  0  # atno 17395 bound_to 11000

$$$$
