#       Name:                AV-unprocessed.smi:2954
#       Creating user name   scv26
#       Creation time:       Fri Mar 27 16:19:24 2020


#       File generated by GOLD software.
#

@<TRIPOS>MOLECULE
AV-unprocessed.smi:2954
    47    49     1
SMALL
NO_CHARGES


@<TRIPOS>ATOM
      1 ****        -2.7292   3.7329  -1.7195 C.3            1 S1                 0.0000
      2 ****        -2.0527   4.1228  -0.3989 C.3            1 S1                 0.0000
      3 ****        -0.9757   3.1871  -0.0855 N.am           1 S1                 0.0000
      4 ****        -0.4908   2.9784   1.1455 C.2            1 S1                 0.0000
      5 ****        -0.9137   3.5583   2.1422 O.2            1 S1                 0.0000
      6 ****        -1.4889   5.5217  -0.4438 C.2            1 S1                 0.0000
      7 ****        -0.3867   5.8200  -1.1376 N.2            1 S1                 0.0000
      8 ****        -0.2233   7.1684  -0.8934 C.ar           1 S1                 0.0000
      9 ****         0.7720   8.0680  -1.3376 C.ar           1 S1                 0.0000
     10 ****         0.7357   9.4223  -0.9467 C.ar           1 S1                 0.0000
     11 ****        -0.2944   9.8955  -0.1086 C.ar           1 S1                 0.0000
     12 ****        -1.2972   9.0160   0.3424 C.ar           1 S1                 0.0000
     13 ****        -1.2570   7.6647  -0.0512 C.ar           1 S1                 0.0000
     14 ****        -2.0657   6.5625   0.2115 N.pl3          1 S1                 0.0000
     15 ****        -3.2637   6.5655   1.0408 C.3            1 S1                 0.0000
     16 ****        -2.9684   6.1128   2.4786 C.3            1 S1                 0.0000
     17 ****        -1.8735   6.8660   2.9823 O.3            1 S1                 0.0000
     18 ****        -1.2927   6.4718   4.1676 C.ar           1 S1                 0.0000
     19 ****        -1.8493   5.4949   5.0316 C.ar           1 S1                 0.0000
     20 ****        -1.1944   5.1444   6.2279 C.ar           1 S1                 0.0000
     21 ****         0.0193   5.7643   6.5766 C.ar           1 S1                 0.0000
     22 ****         0.5775   6.7375   5.7276 C.ar           1 S1                 0.0000
     23 ****        -0.0754   7.0899   4.5301 C.ar           1 S1                 0.0000
     24 ****         0.6327   8.2817   3.4988 Cl             1 S1                 0.0000
     25 ****        -3.5487   4.4136  -1.9518 H              1 S1                 0.0000
     26 ****        -3.1419   2.7250  -1.6675 H              1 S1                 0.0000
     27 ****        -2.0255   3.7632  -2.5522 H              1 S1                 0.0000
     28 ****        -2.7987   4.0424   0.3905 H              1 S1                 0.0000
     29 ****        -0.5745   2.6688  -0.8535 H              1 S1                 0.0000
     30 ****         0.3174   2.2310   1.1489 H              1 S1                 0.0000
     31 ****         1.5665   7.7145  -1.9779 H              1 S1                 0.0000
     32 ****         1.5027  10.1009  -1.2902 H              1 S1                 0.0000
     33 ****        -0.3140  10.9335   0.1892 H              1 S1                 0.0000
     34 ****        -2.0835   9.3755   0.9888 H              1 S1                 0.0000
     35 ****        -3.6710   7.5767   1.0531 H              1 S1                 0.0000
     36 ****        -4.0283   5.9395   0.5806 H              1 S1                 0.0000
     37 ****        -3.8494   6.2604   3.1046 H              1 S1                 0.0000
     38 ****        -2.7300   5.0491   2.4839 H              1 S1                 0.0000
     39 ****        -2.7819   5.0033   4.7998 H              1 S1                 0.0000
     40 ****        -1.6254   4.3988   6.8797 H              1 S1                 0.0000
     41 ****         0.5211   5.4941   7.4940 H              1 S1                 0.0000
     42 ****         1.5093   7.2134   5.9958 H              1 S1                 0.0000
     43 ****        -1.6557   4.2232   2.0566 LP             1 S1                 0.0000
     44 ****        -0.5160   3.3655   3.0392 LP             1 S1                 0.0000
     45 ****         0.1804   5.2149  -1.6964 LP             1 S1                 0.0000
     46 ****        -2.1945   7.8045   3.1089 LP             1 S1                 0.0000
     47 ****        -1.1582   6.8498   2.2837 LP             1 S1                 0.0000
@<TRIPOS>BOND
    1    1    2 1     
    2    1   25 1     
    3    1   26 1     
    4    1   27 1     
    5    2    3 1     
    6    2    6 1     
    7    2   28 1     
    8    3    4 am    
    9    3   29 1     
   10    4    5 2     
   11    4   30 1     
   12    6   14 1     
   13    6    7 2     
   14    7    8 1     
   15    8   13 ar    
   16    8    9 ar    
   17    9   10 ar    
   18    9   31 1     
   19   10   11 ar    
   20   10   32 1     
   21   11   12 ar    
   22   11   33 1     
   23   12   13 ar    
   24   12   34 1     
   25   13   14 1     
   26   14   15 1     
   27   15   16 1     
   28   15   35 1     
   29   15   36 1     
   30   16   17 1     
   31   16   37 1     
   32   16   38 1     
   33   17   18 1     
   34   18   23 ar    
   35   18   19 ar    
   36   19   20 ar    
   37   19   39 1     
   38   20   21 ar    
   39   20   40 1     
   40   21   22 ar    
   41   21   41 1     
   42   22   23 ar    
   43   22   42 1     
   44   23   24 1     
   45    5   43 1     
   46    5   44 1     
   47    7   45 1     
   48   17   46 1     
   49   17   47 1     
@<TRIPOS>SUBSTRUCTURE
      1 S1             1
@<TRIPOS>SET
LONE_PAIRS      STATIC     ATOMS    <user>   **** ""
5 43 44 45 46 47
DONOR_HYDROGENS      STATIC     ATOMS    <user>   **** ""
1 29
ATOM$BLUE        STATIC     ATOMS    COLORGROUP SYSTEM
5 43 44 45 46 47
ATOM$RED        STATIC     ATOMS    COLORGROUP SYSTEM
1 29
