AV-unprocessed.smi:652|AV-procd|sdf|3193|dock10
  -GOLD-   22720 0123D 1   1.00000     0.00000
 Structure written by MMmdl.
 48 49  0  0  0  0  0  0  0  0  2 V2000
  146.0021  143.1774  154.0923 C   0  0  0  0  0  0  0  0  0  0  0  0
  146.1586  141.7336  154.5943 C   0  0  0  0  0  0  0  0  0  0  0  0
  147.0557  140.9048  153.6654 C   0  0  0  0  0  0  0  0  0  0  0  0
  144.8523  141.0911  154.7076 N   0  0  0  0  0  0  0  0  0  0  0  0
  144.3810  140.4703  155.8003 C   0  0  0  0  0  0  0  0  0  0  0  0
  145.0185  140.3721  156.8491 O   0  0  0  0  0  0  0  0  0  0  0  0
  142.9753  139.8731  155.6733 C   0  0  0  0  0  0  0  0  0  0  0  0
  142.9693  138.3967  155.2221 C   0  0  0  0  0  0  0  0  0  0  0  0
  142.4505  138.2202  153.8386 N   0  3  2  0  0  0  0  0  0  0  0  0
  140.9889  138.4487  153.7253 C   0  0  0  0  0  0  0  0  0  0  0  0
  140.1937  137.2330  154.2360 C   0  0  0  0  0  0  0  0  0  0  0  0
  140.5998  136.0675  153.5289 O   0  0  0  0  0  0  0  0  0  0  0  0
  141.9775  135.7612  153.7232 C   0  0  1  0  0  0  0  0  0  0  0  0
  142.2918  134.4569  152.9781 C   0  0  0  0  0  0  0  0  0  0  0  0
  143.6359  133.9810  153.2741 N   0  0  0  0  0  0  0  0  0  0  0  0
  144.3972  133.3275  152.2962 C   0  0  0  0  0  0  0  0  0  0  0  0
  143.7428  132.7862  151.1719 C   0  0  0  0  0  0  0  0  0  0  0  0
  144.5319  132.1314  150.2106 C   0  0  0  0  0  0  0  0  0  0  0  0
  145.9172  132.0681  150.4474 C   0  0  0  0  0  0  0  0  0  0  0  0
  146.4934  132.6069  151.5455 N   0  0  0  0  0  0  0  0  0  0  0  0
  145.7406  133.2295  152.4599 N   0  0  0  0  0  0  0  0  0  0  0  0
  142.8205  136.9377  153.1860 C   0  0  0  0  0  0  0  0  0  0  0  0
  146.9709  143.6720  154.0180 H   0  0  0  0  0  0  0  0  0  0  0  0
  145.3845  143.7679  154.7697 H   0  0  0  0  0  0  0  0  0  0  0  0
  145.5375  143.2072  153.1060 H   0  0  0  0  0  0  0  0  0  0  0  0
  146.6325  141.7574  155.5773 H   0  0  0  0  0  0  0  0  0  0  0  0
  148.0483  141.3481  153.5821 H   0  0  0  0  0  0  0  0  0  0  0  0
  146.6361  140.8391  152.6608 H   0  0  0  0  0  0  0  0  0  0  0  0
  147.1808  139.8892  154.0423 H   0  0  0  0  0  0  0  0  0  0  0  0
  144.2615  141.1236  153.8894 H   0  0  0  0  0  0  0  0  0  0  0  0
  142.4808  139.9638  156.6414 H   0  0  0  0  0  0  0  0  0  0  0  0
  142.4153  140.4913  154.9721 H   0  0  0  0  0  0  0  0  0  0  0  0
  143.9644  137.9626  155.3211 H   0  0  0  0  0  0  0  0  0  0  0  0
  142.3220  137.8338  155.8965 H   0  0  0  0  0  0  0  0  0  0  0  0
  140.6958  139.3556  154.2553 H   0  0  0  0  0  0  0  0  0  0  0  0
  140.7494  138.6185  152.6747 H   0  0  0  0  0  0  0  0  0  0  0  0
  140.3284  137.0910  155.3091 H   0  0  0  0  0  0  0  0  0  0  0  0
  139.1276  137.3883  154.0704 H   0  0  0  0  0  0  0  0  0  0  0  0
  142.1778  135.6138  154.7855 H   0  0  0  0  0  0  0  0  0  0  0  0
  141.5624  133.6873  153.2344 H   0  0  0  0  0  0  0  0  0  0  0  0
  142.2154  134.6282  151.9033 H   0  0  0  0  0  0  0  0  0  0  0  0
  144.0085  134.1048  154.2043 H   0  0  0  0  0  0  0  0  0  0  0  0
  142.6726  132.8673  151.0492 H   0  0  0  0  0  0  0  0  0  0  0  0
  144.0926  131.6935  149.3267 H   0  0  0  0  0  0  0  0  0  0  0  0
  146.5751  131.5779  149.7451 H   0  0  0  0  0  0  0  0  0  0  0  0
  142.6458  137.0443  152.1144 H   0  0  0  0  0  0  0  0  0  0  0  0
  143.8845  136.7321  153.2936 H   0  0  0  0  0  0  0  0  0  0  0  0
  142.8872  138.9535  153.2985 H   0  0  0  0  0  0  0  0  0  0  0  0
  1  2  1  0  0  0  0
  1 23  1  0  0  0  0
  1 24  1  0  0  0  0
  1 25  1  0  0  0  0
  2  3  1  0  0  0  0
  2  4  1  0  0  0  0
  2 26  1  0  0  0  0
  3 27  1  0  0  0  0
  3 28  1  0  0  0  0
  3 29  1  0  0  0  0
  4  5  1  0  0  0  0
  4 30  1  0  0  0  0
  5  6  2  0  0  0  0
  5  7  1  0  0  0  0
  7  8  1  0  0  0  0
  7 31  1  0  0  0  0
  7 32  1  0  0  0  0
  8  9  1  0  0  0  0
  8 33  1  0  0  0  0
  8 34  1  0  0  0  0
  9 22  1  0  0  0  0
  9 10  1  0  0  0  0
  9 48  1  0  0  0  0
 10 11  1  0  0  0  0
 10 35  1  0  0  0  0
 10 36  1  0  0  0  0
 11 12  1  0  0  0  0
 11 37  1  0  0  0  0
 11 38  1  0  0  0  0
 12 13  1  0  0  0  0
 13 14  1  0  0  0  0
 13 22  1  0  0  0  0
 13 39  1  0  0  0  0
 14 15  1  0  0  0  0
 14 40  1  0  0  0  0
 14 41  1  0  0  0  0
 15 16  1  0  0  0  0
 15 42  1  0  0  0  0
 16 21  1  0  0  0  0
 16 17  2  0  0  0  0
 17 18  1  0  0  0  0
 17 43  1  0  0  0  0
 18 19  2  0  0  0  0
 18 44  1  0  0  0  0
 19 20  1  0  0  0  0
 19 45  1  0  0  0  0
 20 21  2  0  0  0  0
 22 46  1  0  0  0  0
 22 47  1  0  0  0  0
M  CHG  1   9   1
M  END
> <s_m_source_file>
AV-unprocessed.smi

> <i_m_source_file_index>
652

> <i_lp_mmshare_version>
43012

> <i_f3d_flags>
0

> <s_epik_input>
W0NIM11bQ0hdKFtDSDNdKVtOSF1DKD1PKVtDSDJdW0NIMl1OMVtDSDJdW0NIMl1PW0NASF0oW0NIMl0xKVtDSDJdW05IXWMyW2NIXVtjSF1bY0hdbm4y

> <s_epik_cmdline>
J2VwaWtfcHl0aG9uJywgJy1waCcsICc3LjAnLCAnLXRuJywgJzgnLCAnLW1hJywgJzIwMCcsICctbWV0YWxfYmluZGluZycsICctaW1hZScsICc8aW5maWxlLm1hZT4nLCAnLW9tYWUnLCAnPG91dGZpbGUubWFlPic=

> <r_lp_tautomer_probability>
0.999978

> <r_epik_Ionization_Penalty>
0.433079

> <r_epik_Ionization_Penalty_Charging>
0.413784

> <r_epik_Ionization_Penalty_Neutral>
0.0192945

> <r_epik_State_Penalty>
0.425138

> <r_epik_Charging_Adjusted_Penalty>
0.838922

> <i_epik_Tot_Q>
1

> <i_epik_Tot_abs_Q>
1

> <r_epik_Metal_State_Penalty>
0.422073

> <b_epik_Metal_Only>
0

> <s_lp_Force_Field>
OPLS_2005

> <r_lp_Energy>
24.1608

> <b_lp_Chiralities_Consistent>
1

> <s_lp_Variant>
AV-unprocessed.smi:652-2

> <Gold.Version>
5.8.1

> <Gold.Id.Protein>
6NUR|6NUR_protein|mol2

> <Gold.PLP.Fitness>
44.6307

> <Gold.PLP.PLP>
-35.1200

> <Gold.PLP.part.hbond>
-3.0000

> <Gold.PLP.part.metal>
0.0000

> <Gold.PLP.part.buried>
-7.8362

> <Gold.PLP.part.nonpolar>
-26.6872

> <Gold.PLP.part.repulsive>
0.4059

> <Gold.PLP.ligand.clash>
0.0000

> <Gold.PLP.ligand.torsion>
1.1965

> <Gold.PLP.Chemscore.Hbond>
3.0000

> <Gold.PLP.Chemscore.CHOScore>
0.9293

> <Gold.PLP.Chemscore.Metal>
0.0000

> <Gold.Chemscore.Hbonds>
donor molecule, donor type, donor heavy atom, donor atom, acceptor molecule, acceptor atom, score
      L1  H     4    30       P1 10175  1.00
      L1  H     9    48       P1 10175  2.00
      L1  C    19    45       P1 10747  0.87

> <Gold.PLP.Chemscore.Internal.Correction>
0.1157

> <Gold.Rescore>
     Score         DG    S(hbond)    S(metal)    S(lipo)     H(rot)  DE(clash)    DE(int)     intcor
     14.16     -15.41       1.99        0.00      77.53       2.26       0.05       1.21       ----

> <Gold.Chemscore.Fitness>
14.1557

> <Gold.Chemscore.DG>
-15.4114

> <Gold.Chemscore.ZeroCoef>
-5.4800

> <Gold.Chemscore.Hbond>
1.9894

> <Gold.Chemscore.Metal>
0.0000

> <Gold.Chemscore.Lipo>
77.5307

> <Gold.Chemscore.Internal_Hbond>
0.0000

> <Gold.Chemscore.DEClash>
0.0456

> <Gold.Chemscore.DEInternal>
1.2101

> <Gold.Chemscore.Rot>
2.2594

> <Gold.Chemscore.Internal.Correction>
   9.000000E+99

> <Gold.Chemscore.Hbonds>
donor molecule, donor type, donor heavy atom, donor atom, acceptor molecule, acceptor atom, score
      L1  H     4    30       P1 10175  0.58
      L1  H     9    48       P1 10175  1.00

> <Gold.Chemscore.Hbond.Weighted>
-6.6445

> <Gold.Chemscore.Metal.Weighted>
-0.0000

> <Gold.Chemscore.Lipo.Weighted>
-9.0711

> <Gold.Chemscore.Internal_Hbond.Weighted>
0.0000

> <Gold.Chemscore.DEClash.Weighted>
0.0456

> <Gold.Chemscore.DEInternal.Weighted>
1.2101

> <Gold.Chemscore.Rot.Weighted>
5.7841

> <Gold.Chemscore.Internal.Correction.Weighted>
   9.000000E+99

> <Gold.Protein.RotatedTorsions>
[ 6907 6896 6895 6894 ] final  -32.33 input  -60.11 | X-H torsion
[ 7974 7965 7964 7962 ] final   47.80 input  175.53 | X-H torsion
[ 8008 7997 7996 7995 ] final  155.03 input   59.86 | X-H torsion
[ 10167 10162 10161 10158 ] final   64.10 input  -65.29 | X-H torsion
[ 10718 10713 10712 10709 ] final  162.06 input   66.30 | X-H torsion
[ 10763 10752 10751 10750 ] final  -34.61 input  -60.55 | X-H torsion
[ 11005 11000 10999 10996 ] final   29.03 input  -57.11 | X-H torsion

> <Gold.Protein.ActiveResidues>
 VAL166  LYS551  ARG553  GLY616  TRP617  ASP618  TYR619  PRO620  LYS621  CYS622 
 ASP623  PHE694  ASN695  SER759  ASP760  ASP761  ALA762  ILE779  LEU786  VAL792 
 PHE793  MET794  SER795  GLU796  ALA797  LYS798  CYS799  TRP800  GLU811  SER814 

> <Gold.Protein.RotatedAtoms>
  151.0802  134.9853  159.8351 H   0  0  0  0  0  0  0  0  0  0  0  0  # atno 6907 bound_to 6896
  152.5418  134.2191  159.8790 H   0  0  0  0  0  0  0  0  0  0  0  0  # atno 6908 bound_to 6896
  151.2221  133.4453  159.2634 H   0  0  0  0  0  0  0  0  0  0  0  0  # atno 6909 bound_to 6896
  146.0263  139.4711  142.9865 H   0  0  0  0  0  0  0  0  0  0  0  0  # atno 7974 bound_to 7965
  156.2500  140.1950  156.6738 H   0  0  0  0  0  0  0  0  0  0  0  0  # atno 8008 bound_to 7997
  154.6373  140.0588  156.9829 H   0  0  0  0  0  0  0  0  0  0  0  0  # atno 8009 bound_to 7997
  155.1618  140.3260  155.4412 H   0  0  0  0  0  0  0  0  0  0  0  0  # atno 8010 bound_to 7997
  140.1258  144.4689  150.6893 H   0  0  0  0  0  0  0  0  0  0  0  0  # atno 10167 bound_to 10162
  157.1278  131.0509  151.2385 H   0  0  0  0  0  0  0  0  0  0  0  0  # atno 10718 bound_to 10713
  153.8496  135.6850  153.4794 H   0  0  0  0  0  0  0  0  0  0  0  0  # atno 10763 bound_to 10752
  153.1405  135.4659  154.9486 H   0  0  0  0  0  0  0  0  0  0  0  0  # atno 10764 bound_to 10752
  154.7808  135.3268  154.7941 H   0  0  0  0  0  0  0  0  0  0  0  0  # atno 10765 bound_to 10752
  140.3093  134.2668  155.7737 H   0  0  0  0  0  0  0  0  0  0  0  0  # atno 11005 bound_to 11000
  145.7112  141.0105  143.1452 LP  0  0  0  0  0  0  0  0  0  0  0  0  # atno 17320 bound_to 7965
  144.7011  139.8759  143.7444 LP  0  0  0  0  0  0  0  0  0  0  0  0  # atno 17321 bound_to 7965
  140.6846  143.2343  151.5295 LP  0  0  0  0  0  0  0  0  0  0  0  0  # atno 17342 bound_to 10162
  139.5545  144.2311  152.1588 LP  0  0  0  0  0  0  0  0  0  0  0  0  # atno 17343 bound_to 10162
  157.4419  130.7549  149.7077 LP  0  0  0  0  0  0  0  0  0  0  0  0  # atno 17370 bound_to 10713
  155.9814  130.4019  150.3472 LP  0  0  0  0  0  0  0  0  0  0  0  0  # atno 17371 bound_to 10713
  141.2112  133.7697  156.9883 LP  0  0  0  0  0  0  0  0  0  0  0  0  # atno 17394 bound_to 11000
  140.1039  134.9518  157.1965 LP  0  0  0  0  0  0  0  0  0  0  0  0  # atno 17395 bound_to 11000

$$$$
