#       Name:                AV-unprocessed.smi:2482
#       Creating user name   scv26
#       Creation time:       Fri Mar 27 13:42:04 2020


#       File generated by GOLD software.
#

@<TRIPOS>MOLECULE
AV-unprocessed.smi:2482
    40    41     1
SMALL
NO_CHARGES


@<TRIPOS>ATOM
      1 ****        -5.3325   2.5250   0.8368 C.3            1 S1                 0.0000
      2 ****        -4.5474   1.2322   0.7153 C.ar           1 S1                 0.0000
      3 ****        -5.2865   0.1055   0.6213 N.ar           1 S1                 0.0000
      4 ****        -4.6382  -1.0724   0.5165 C.ar           1 S1                 0.0000
      5 ****        -3.2349  -1.1852   0.4945 C.ar           1 S1                 0.0000
      6 ****        -2.4573  -0.0052   0.5768 C.ar           1 S1                 0.0000
      7 ****        -1.0350  -0.0018   0.5853 N.am           1 S1                 0.0000
      8 ****        -0.1807  -0.9140   0.0845 C.2            1 S1                 0.0000
      9 ****        -0.5251  -1.9546  -0.4756 O.2            1 S1                 0.0000
     10 ****         1.3127  -0.5912   0.2498 C.3            1 S1                 0.0000
     11 ****         2.2019  -1.3270  -0.7801 C.3            1 S1                 0.0000
     12 ****         3.6194  -0.9258  -0.6275 N.4            1 S1                 1.0000
     13 ****         4.5160  -1.6326  -1.5668 C.3            1 S1                 0.0000
     14 ****         3.7640   0.5454  -0.6981 C.3            1 S1                 0.0000
     15 ****         2.8412   1.2193   0.3292 C.3            1 S1                 0.0000
     16 ****         1.4974   0.8159   0.0974 O.3            1 S1                 0.0000
     17 ****        -3.1327   1.2313   0.7034 C.ar           1 S1                 0.0000
     18 ****        -2.2465   2.7142   0.8339 Cl             1 S1                 0.0000
     19 ****        -5.0951   3.1912   0.0071 H              1 S1                 0.0000
     20 ****        -5.0865   3.0329   1.7697 H              1 S1                 0.0000
     21 ****        -6.4082   2.3438   0.8253 H              1 S1                 0.0000
     22 ****        -5.2574  -1.9550   0.4553 H              1 S1                 0.0000
     23 ****        -2.7906  -2.1661   0.4294 H              1 S1                 0.0000
     24 ****        -0.6122   0.8418   0.9454 H              1 S1                 0.0000
     25 ****         1.5994  -0.8833   1.2615 H              1 S1                 0.0000
     26 ****         2.1228  -2.4068  -0.6447 H              1 S1                 0.0000
     27 ****         1.8701  -1.1050  -1.7963 H              1 S1                 0.0000
     28 ****         4.2713  -1.3887  -2.6015 H              1 S1                 0.0000
     29 ****         4.4301  -2.7123  -1.4405 H              1 S1                 0.0000
     30 ****         5.5558  -1.3579  -1.3867 H              1 S1                 0.0000
     31 ****         4.8006   0.8238  -0.5049 H              1 S1                 0.0000
     32 ****         3.5198   0.8915  -1.7038 H              1 S1                 0.0000
     33 ****         3.1395   0.9669   1.3479 H              1 S1                 0.0000
     34 ****         2.9053   2.3036   0.2379 H              1 S1                 0.0000
     35 ****         3.9009  -1.2004   0.3031 H              1 S1                 0.0000
     36 ****        -6.2858   0.1437   0.6292 LP             1 S1                 0.0000
     37 ****        -1.4964  -2.1671  -0.5824 LP             1 S1                 0.0000
     38 ****         0.1664  -2.5874  -0.8239 LP             1 S1                 0.0000
     39 ****         0.9040   1.2892   0.7485 LP             1 S1                 0.0000
     40 ****         1.2419   1.0734  -0.8345 LP             1 S1                 0.0000
@<TRIPOS>BOND
    1    1    2 1     
    2    1   19 1     
    3    1   20 1     
    4    1   21 1     
    5    2   17 ar    
    6    2    3 ar    
    7    3    4 ar    
    8    4    5 ar    
    9    4   22 1     
   10    5    6 ar    
   11    5   23 1     
   12    6    7 1     
   13    6   17 ar    
   14    7    8 am    
   15    7   24 1     
   16    8    9 2     
   17    8   10 1     
   18   10   16 1     
   19   10   11 1     
   20   10   25 1     
   21   11   12 1     
   22   11   26 1     
   23   11   27 1     
   24   12   13 1     
   25   12   14 1     
   26   12   35 1     
   27   13   28 1     
   28   13   29 1     
   29   13   30 1     
   30   14   15 1     
   31   14   31 1     
   32   14   32 1     
   33   15   16 1     
   34   15   33 1     
   35   15   34 1     
   36   17   18 1     
   37    3   36 1     
   38    9   37 1     
   39    9   38 1     
   40   16   39 1     
   41   16   40 1     
@<TRIPOS>SUBSTRUCTURE
      1 S1             1
@<TRIPOS>SET
LONE_PAIRS      STATIC     ATOMS    <user>   **** ""
5 36 37 38 39 40
DONOR_HYDROGENS      STATIC     ATOMS    <user>   **** ""
2 24 35
ATOM$BLUE        STATIC     ATOMS    COLORGROUP SYSTEM
5 36 37 38 39 40
ATOM$RED        STATIC     ATOMS    COLORGROUP SYSTEM
2 24 35
