AV-unprocessed.smi:2763|AV-procd|sdf|10639|dock6
  -GOLD-   2272015 93D 1   1.00000     0.00000
 Structure written by MMmdl.
 37 38  0  0  0  0  0  0  0  0  1 V2000
  152.5757  143.0658  163.5954 O   0  0  0  0  0  0  0  0  0  0  0  0
  153.5460  142.3850  163.2622 C   0  0  0  0  0  0  0  0  0  0  0  0
  153.6852  141.8346  162.0476 N   0  0  0  0  0  0  0  0  0  0  0  0
  152.7308  141.9525  160.9508 C   0  0  0  0  0  0  0  0  0  0  0  0
  153.1857  141.1106  159.7490 C   0  0  0  0  0  0  0  0  0  0  0  0
  152.0931  140.9507  158.6792 C   0  0  1  0  0  0  0  0  0  0  0  0
  151.5373  142.3118  158.2159 C   0  0  0  0  0  0  0  0  0  0  0  0
  150.5087  142.1235  157.0947 C   0  0  0  0  0  0  0  0  0  0  0  0
  151.1161  141.2756  155.9721 C   0  0  0  0  0  0  0  0  0  0  0  0
  151.6962  139.9719  156.5424 C   0  0  0  0  0  0  0  0  0  0  0  0
  152.6509  140.2703  157.5564 O   0  0  0  0  0  0  0  0  0  0  0  0
  154.5992  142.0974  164.0476 N   0  0  0  0  0  0  0  0  0  0  0  0
  154.8199  142.4799  165.3978 C   0  0  0  0  0  0  0  0  0  0  0  0
  154.4209  143.7975  165.7187 C   0  0  0  0  0  0  0  0  0  0  0  0
  154.5989  144.2756  167.0318 C   0  0  0  0  0  0  0  0  0  0  0  0
  155.1735  143.4217  167.9896 C   0  0  0  0  0  0  0  0  0  0  0  0
  155.3651  143.8371  169.2641 F   0  0  0  0  0  0  0  0  0  0  0  0
  155.5441  142.1246  167.5892 C   0  0  0  0  0  0  0  0  0  0  0  0
  155.3733  141.6651  166.3312 N   0  0  0  0  0  0  0  0  0  0  0  0
  154.5177  141.2936  161.8656 H   0  0  0  0  0  0  0  0  0  0  0  0
  151.7333  141.6381  161.2621 H   0  0  0  0  0  0  0  0  0  0  0  0
  152.6576  143.0034  160.6691 H   0  0  0  0  0  0  0  0  0  0  0  0
  154.0602  141.5802  159.2964 H   0  0  0  0  0  0  0  0  0  0  0  0
  153.5081  140.1264  160.0918 H   0  0  0  0  0  0  0  0  0  0  0  0
  151.2809  140.3518  159.0951 H   0  0  0  0  0  0  0  0  0  0  0  0
  151.0799  142.8399  159.0533 H   0  0  0  0  0  0  0  0  0  0  0  0
  152.3538  142.9404  157.8580 H   0  0  0  0  0  0  0  0  0  0  0  0
  149.6209  141.6284  157.4901 H   0  0  0  0  0  0  0  0  0  0  0  0
  150.1839  143.0901  156.7087 H   0  0  0  0  0  0  0  0  0  0  0  0
  150.3630  141.0556  155.2149 H   0  0  0  0  0  0  0  0  0  0  0  0
  151.9071  141.8376  155.4741 H   0  0  0  0  0  0  0  0  0  0  0  0
  150.9060  139.3371  156.9465 H   0  0  0  0  0  0  0  0  0  0  0  0
  152.1876  139.4033  155.7526 H   0  0  0  0  0  0  0  0  0  0  0  0
  155.3284  141.5377  163.6310 H   0  0  0  0  0  0  0  0  0  0  0  0
  153.9818  144.4399  164.9690 H   0  0  0  0  0  0  0  0  0  0  0  0
  154.3003  145.2789  167.2974 H   0  0  0  0  0  0  0  0  0  0  0  0
  155.9887  141.4385  168.2947 H   0  0  0  0  0  0  0  0  0  0  0  0
  1  2  2  0  0  0  0
  2  3  1  0  0  0  0
  2 12  1  0  0  0  0
  3  4  1  0  0  0  0
  3 20  1  0  0  0  0
  4  5  1  0  0  0  0
  4 21  1  0  0  0  0
  4 22  1  0  0  0  0
  5  6  1  0  0  0  0
  5 23  1  0  0  0  0
  5 24  1  0  0  0  0
  6 11  1  0  0  0  0
  6  7  1  0  0  0  0
  6 25  1  0  0  0  0
  7  8  1  0  0  0  0
  7 26  1  0  0  0  0
  7 27  1  0  0  0  0
  8  9  1  0  0  0  0
  8 28  1  0  0  0  0
  8 29  1  0  0  0  0
  9 10  1  0  0  0  0
  9 30  1  0  0  0  0
  9 31  1  0  0  0  0
 10 11  1  0  0  0  0
 10 32  1  0  0  0  0
 10 33  1  0  0  0  0
 12 13  1  0  0  0  0
 12 34  1  0  0  0  0
 13 19  1  0  0  0  0
 13 14  2  0  0  0  0
 14 15  1  0  0  0  0
 14 35  1  0  0  0  0
 15 16  2  0  0  0  0
 15 36  1  0  0  0  0
 16 17  1  0  0  0  0
 16 18  1  0  0  0  0
 18 19  2  0  0  0  0
 18 37  1  0  0  0  0
M  END
> <s_m_source_file>
AV-unprocessed.smi

> <i_m_source_file_index>
2763

> <i_lp_mmshare_version>
43012

> <i_f3d_flags>
0

> <s_epik_input>
bjFbY0hdYyhGKVtjSF1bY0hdYzFbTkhdQyg9TylbTkhdW0NIMl1bQ0gyXVtDQEBIXTJbQ0gyXVtDSDJdW0NIMl1bQ0gyXU8y

> <s_epik_cmdline>
J2VwaWtfcHl0aG9uJywgJy1waCcsICc3LjAnLCAnLXRuJywgJzgnLCAnLW1hJywgJzIwMCcsICctbWV0YWxfYmluZGluZycsICctaW1hZScsICc8aW5maWxlLm1hZT4nLCAnLW9tYWUnLCAnPG91dGZpbGUubWFlPic=

> <r_lp_tautomer_probability>
1

> <r_epik_Ionization_Penalty>
3.67849e-05

> <r_epik_Ionization_Penalty_Charging>
0

> <r_epik_Ionization_Penalty_Neutral>
3.67849e-05

> <r_epik_State_Penalty>
-0

> <r_epik_Charging_Adjusted_Penalty>
0

> <i_epik_Tot_Q>
0

> <i_epik_Tot_abs_Q>
0

> <r_epik_Metal_State_Penalty>
-0

> <b_epik_Metal_Only>
0

> <s_lp_Force_Field>
OPLS_2005

> <r_lp_Energy>
13.3257

> <b_lp_Chiralities_Consistent>
1

> <s_lp_Variant>
AV-unprocessed.smi:2763-2

> <Gold.Version>
5.8.1

> <Gold.Id.Protein>
6NUR|6NUR_protein|mol2

> <Gold.PLP.Fitness>
43.9429

> <Gold.PLP.PLP>
-41.6617

> <Gold.PLP.part.hbond>
-2.5285

> <Gold.PLP.part.metal>
0.0000

> <Gold.PLP.part.buried>
-5.1413

> <Gold.PLP.part.nonpolar>
-33.8289

> <Gold.PLP.part.repulsive>
1.1844

> <Gold.PLP.ligand.clash>
0.0000

> <Gold.PLP.ligand.torsion>
0.3641

> <Gold.PLP.Chemscore.Hbond>
1.0000

> <Gold.PLP.Chemscore.CHOScore>
0.0000

> <Gold.PLP.Chemscore.Metal>
0.0000

> <Gold.Chemscore.Hbonds>
donor molecule, donor type, donor heavy atom, donor atom, acceptor molecule, acceptor atom, score
      P1  H  7997  8010       L1    11  0.98

> <Gold.PLP.Chemscore.Internal.Correction>
0.0093

> <Gold.Rescore>
     Score         DG    S(hbond)    S(metal)    S(lipo)     H(rot)  DE(clash)    DE(int)     intcor
     11.60     -14.69       0.94        0.00      85.52       1.54       1.45       1.64       ----

> <Gold.Chemscore.Fitness>
11.6006

> <Gold.Chemscore.DG>
-14.6945

> <Gold.Chemscore.ZeroCoef>
-5.4800

> <Gold.Chemscore.Hbond>
0.9420

> <Gold.Chemscore.Metal>
0.0000

> <Gold.Chemscore.Lipo>
85.5247

> <Gold.Chemscore.Internal_Hbond>
0.0000

> <Gold.Chemscore.DEClash>
1.4502

> <Gold.Chemscore.DEInternal>
1.6437

> <Gold.Chemscore.Rot>
1.5384

> <Gold.Chemscore.Internal.Correction>
   9.000000E+99

> <Gold.Chemscore.Hbonds>
donor molecule, donor type, donor heavy atom, donor atom, acceptor molecule, acceptor atom, score
      P1  H  7997  8010       L1    11  0.51

> <Gold.Chemscore.Hbond.Weighted>
-3.1463

> <Gold.Chemscore.Metal.Weighted>
-0.0000

> <Gold.Chemscore.Lipo.Weighted>
-10.0064

> <Gold.Chemscore.Internal_Hbond.Weighted>
0.0000

> <Gold.Chemscore.DEClash.Weighted>
1.4502

> <Gold.Chemscore.DEInternal.Weighted>
1.6437

> <Gold.Chemscore.Rot.Weighted>
3.9382

> <Gold.Chemscore.Internal.Correction.Weighted>
   9.000000E+99

> <Gold.Protein.RotatedTorsions>
[ 6907 6896 6895 6894 ] final  122.60 input  -60.11 | X-H torsion
[ 7974 7965 7964 7962 ] final   43.05 input  175.53 | X-H torsion
[ 8008 7997 7996 7995 ] final   55.28 input   59.86 | X-H torsion
[ 10167 10162 10161 10158 ] final -150.07 input  -65.29 | X-H torsion
[ 10718 10713 10712 10709 ] final   44.90 input   66.30 | X-H torsion
[ 10763 10752 10751 10750 ] final  -12.89 input  -60.55 | X-H torsion
[ 11005 11000 10999 10996 ] final   47.68 input  -57.11 | X-H torsion

> <Gold.Protein.ActiveResidues>
 VAL166  LYS551  ARG553  GLY616  TRP617  ASP618  TYR619  PRO620  LYS621  CYS622 
 ASP623  PHE694  ASN695  SER759  ASP760  ASP761  ALA762  ILE779  LEU786  VAL792 
 PHE793  MET794  SER795  GLU796  ALA797  LYS798  CYS799  TRP800  GLU811  SER814 

> <Gold.Protein.RotatedAtoms>
  152.4230  133.7147  159.6498 H   0  0  0  0  0  0  0  0  0  0  0  0  # atno 6907 bound_to 6896
  150.8106  133.8419  159.3190 H   0  0  0  0  0  0  0  0  0  0  0  0  # atno 6908 bound_to 6896
  151.6130  135.1040  160.0137 H   0  0  0  0  0  0  0  0  0  0  0  0  # atno 6909 bound_to 6896
  146.0688  139.5230  142.9611 H   0  0  0  0  0  0  0  0  0  0  0  0  # atno 7974 bound_to 7965
  155.4985  140.3473  155.4367 H   0  0  0  0  0  0  0  0  0  0  0  0  # atno 8008 bound_to 7997
  156.0929  140.1415  156.9596 H   0  0  0  0  0  0  0  0  0  0  0  0  # atno 8009 bound_to 7997
  154.4646  140.0922  156.6963 H   0  0  0  0  0  0  0  0  0  0  0  0  # atno 8010 bound_to 7997
  139.7387  143.8696  152.2556 H   0  0  0  0  0  0  0  0  0  0  0  0  # atno 10167 bound_to 10162
  157.4318  130.8029  149.7610 H   0  0  0  0  0  0  0  0  0  0  0  0  # atno 10718 bound_to 10713
  153.5052  135.7017  153.5810 H   0  0  0  0  0  0  0  0  0  0  0  0  # atno 10763 bound_to 10752
  153.3925  135.3892  155.1932 H   0  0  0  0  0  0  0  0  0  0  0  0  # atno 10764 bound_to 10752
  154.8707  135.3861  154.4526 H   0  0  0  0  0  0  0  0  0  0  0  0  # atno 10765 bound_to 10752
  140.1258  134.4770  155.8561 H   0  0  0  0  0  0  0  0  0  0  0  0  # atno 11005 bound_to 11000
  145.6429  141.0280  143.1802 LP  0  0  0  0  0  0  0  0  0  0  0  0  # atno 17320 bound_to 7965
  144.7219  139.8003  143.7379 LP  0  0  0  0  0  0  0  0  0  0  0  0  # atno 17321 bound_to 7965
  139.8640  144.7103  150.9066 LP  0  0  0  0  0  0  0  0  0  0  0  0  # atno 17342 bound_to 10162
  140.7782  143.3794  151.1505 LP  0  0  0  0  0  0  0  0  0  0  0  0  # atno 17343 bound_to 10162
  155.9916  130.3936  150.2978 LP  0  0  0  0  0  0  0  0  0  0  0  0  # atno 17370 bound_to 10713
  157.1136  131.0228  151.3038 LP  0  0  0  0  0  0  0  0  0  0  0  0  # atno 17371 bound_to 10713
  141.2161  133.6777  156.6975 LP  0  0  0  0  0  0  0  0  0  0  0  0  # atno 17394 bound_to 11000
  140.2906  134.8243  157.4013 LP  0  0  0  0  0  0  0  0  0  0  0  0  # atno 17395 bound_to 11000

$$$$
