AV-unprocessed.smi:2893|AV-procd|sdf|11122|dock4
  -GOLD-   2272015593D 1   1.00000     0.00000
 Structure written by MMmdl.
 37 39  0  0  0  0  0  0  0  0  1 V2000
  147.6009  135.5149  162.2895 C   0  0  0  0  0  0  0  0  0  0  0  0
  147.3999  135.6527  160.7747 C   0  0  0  0  0  0  0  0  0  0  0  0
  148.2164  136.7269  160.2222 N   0  0  0  0  0  0  0  0  0  0  0  0
  149.1626  136.5760  159.2794 C   0  0  0  0  0  0  0  0  0  0  0  0
  149.4600  135.4849  158.7911 O   0  0  0  0  0  0  0  0  0  0  0  0
  149.8867  137.8298  158.8677 C   0  0  0  0  0  0  0  0  0  0  0  0
  151.2412  137.7685  158.4743 C   0  0  0  0  0  0  0  0  0  0  0  0
  151.8660  138.9646  158.0819 C   0  0  0  0  0  0  0  0  0  0  0  0
  151.0970  140.1434  158.1040 C   0  0  0  0  0  0  0  0  0  0  0  0
  151.6956  141.3492  157.7120 N   0  0  0  0  0  0  0  0  0  0  0  0
  151.3498  142.6145  158.3510 C   0  0  2  0  0  0  0  0  0  0  0  0
  151.5019  143.8054  157.3994 C   0  0  0  0  0  0  0  0  0  0  0  0
  152.4408  144.7264  158.1889 C   0  0  1  0  0  0  0  0  0  0  0  0
  151.7679  145.3162  159.4363 C   0  0  0  0  0  0  0  0  0  0  0  0
  151.7144  144.1037  160.3657 C   0  0  0  0  0  0  0  0  0  0  0  0
  152.3197  143.0036  159.4838 C   0  0  2  0  0  0  0  0  0  0  0  0
  153.2914  143.7614  158.7808 O   0  0  0  0  0  0  0  0  0  0  0  0
  149.7962  140.1394  158.4864 N   0  0  0  0  0  0  0  0  0  0  0  0
  149.2016  139.0017  158.8605 N   0  0  0  0  0  0  0  0  0  0  0  0
  147.0084  134.6900  162.6855 H   0  0  0  0  0  0  0  0  0  0  0  0
  147.2977  136.4213  162.8145 H   0  0  0  0  0  0  0  0  0  0  0  0
  148.6461  135.3202  162.5321 H   0  0  0  0  0  0  0  0  0  0  0  0
  147.6816  134.7226  160.2808 H   0  0  0  0  0  0  0  0  0  0  0  0
  146.3464  135.8199  160.5447 H   0  0  0  0  0  0  0  0  0  0  0  0
  148.0484  137.6585  160.5742 H   0  0  0  0  0  0  0  0  0  0  0  0
  151.7906  136.8383  158.4712 H   0  0  0  0  0  0  0  0  0  0  0  0
  152.9009  138.9728  157.7728 H   0  0  0  0  0  0  0  0  0  0  0  0
  152.4699  141.3322  157.0644 H   0  0  0  0  0  0  0  0  0  0  0  0
  150.3259  142.5582  158.7231 H   0  0  0  0  0  0  0  0  0  0  0  0
  151.9698  143.5128  156.4580 H   0  0  0  0  0  0  0  0  0  0  0  0
  150.5490  144.2824  157.1679 H   0  0  0  0  0  0  0  0  0  0  0  0
  152.9576  145.4629  157.5732 H   0  0  0  0  0  0  0  0  0  0  0  0
  152.3804  146.1056  159.8732 H   0  0  0  0  0  0  0  0  0  0  0  0
  150.7821  145.7279  159.2177 H   0  0  0  0  0  0  0  0  0  0  0  0
  152.3305  144.2723  161.2496 H   0  0  0  0  0  0  0  0  0  0  0  0
  150.7026  143.8651  160.6952 H   0  0  0  0  0  0  0  0  0  0  0  0
  152.7236  142.1648  160.0516 H   0  0  0  0  0  0  0  0  0  0  0  0
  1  2  1  0  0  0  0
  1 20  1  0  0  0  0
  1 21  1  0  0  0  0
  1 22  1  0  0  0  0
  2  3  1  0  0  0  0
  2 23  1  0  0  0  0
  2 24  1  0  0  0  0
  3  4  1  0  0  0  0
  3 25  1  0  0  0  0
  4  5  2  0  0  0  0
  4  6  1  0  0  0  0
  6 19  1  0  0  0  0
  6  7  2  0  0  0  0
  7  8  1  0  0  0  0
  7 26  1  0  0  0  0
  8  9  2  0  0  0  0
  8 27  1  0  0  0  0
  9 10  1  0  0  0  0
  9 18  1  0  0  0  0
 10 11  1  0  0  0  0
 10 28  1  0  0  0  0
 11 16  1  0  0  0  0
 11 12  1  0  0  0  0
 11 29  1  0  0  0  0
 12 13  1  0  0  0  0
 12 30  1  0  0  0  0
 12 31  1  0  0  0  0
 13 17  1  0  0  0  0
 13 14  1  0  0  0  0
 13 32  1  0  0  0  0
 14 15  1  0  0  0  0
 14 33  1  0  0  0  0
 14 34  1  0  0  0  0
 15 16  1  0  0  0  0
 15 35  1  0  0  0  0
 15 36  1  0  0  0  0
 16 17  1  0  0  0  0
 16 37  1  0  0  0  0
 18 19  2  0  0  0  0
M  END
> <s_m_source_file>
AV-unprocessed.smi

> <i_m_source_file_index>
2893

> <i_lp_mmshare_version>
43012

> <i_f3d_flags>
0

> <s_epik_input>
W0NIM11bQ0gyXVtOSF1DKD1PKWMxW2NIXVtjSF1jKG5uMSlbTkhdW0NASF0oW0NIMl1bQ0BASF0yMylbQ0BASF0oTzMpW0NIMl1bQ0gyXTI=

> <s_epik_cmdline>
J2VwaWtfcHl0aG9uJywgJy1waCcsICc3LjAnLCAnLXRuJywgJzgnLCAnLW1hJywgJzIwMCcsICctbWV0YWxfYmluZGluZycsICctaW1hZScsICc8aW5maWxlLm1hZT4nLCAnLW9tYWUnLCAnPG91dGZpbGUubWFlPic=

> <r_lp_tautomer_probability>
1

> <r_epik_Ionization_Penalty>
0.00432031

> <r_epik_Ionization_Penalty_Charging>
0

> <r_epik_Ionization_Penalty_Neutral>
0.00432031

> <r_epik_State_Penalty>
-0

> <r_epik_Charging_Adjusted_Penalty>
0

> <i_epik_Tot_Q>
0

> <i_epik_Tot_abs_Q>
0

> <r_epik_Metal_State_Penalty>
-0

> <b_epik_Metal_Only>
0

> <s_lp_Force_Field>
OPLS_2005

> <r_lp_Energy>
51.3486

> <b_lp_Chiralities_Consistent>
1

> <s_lp_Variant>
AV-unprocessed.smi:2893-1

> <Gold.Version>
5.8.1

> <Gold.Id.Protein>
6NUR|6NUR_protein|mol2

> <Gold.PLP.Fitness>
38.7214

> <Gold.PLP.PLP>
-37.7693

> <Gold.PLP.part.hbond>
-2.7980

> <Gold.PLP.part.metal>
0.0000

> <Gold.PLP.part.buried>
-2.8076

> <Gold.PLP.part.nonpolar>
-32.7344

> <Gold.PLP.part.repulsive>
0.2891

> <Gold.PLP.ligand.clash>
0.0000

> <Gold.PLP.ligand.torsion>
1.0355

> <Gold.PLP.Chemscore.Hbond>
1.0000

> <Gold.PLP.Chemscore.CHOScore>
0.0000

> <Gold.PLP.Chemscore.Metal>
0.0000

> <Gold.Chemscore.Hbonds>
donor molecule, donor type, donor heavy atom, donor atom, acceptor molecule, acceptor atom, score
      P1  H  6896  6908       L1     5  1.00

> <Gold.PLP.Chemscore.Internal.Correction>
0.0231

> <Gold.Rescore>
     Score         DG    S(hbond)    S(metal)    S(lipo)     H(rot)  DE(clash)    DE(int)     intcor
     16.31     -17.09       0.99        0.00      97.33       1.21       0.08       0.69       ----

> <Gold.Chemscore.Fitness>
16.3142

> <Gold.Chemscore.DG>
-17.0903

> <Gold.Chemscore.ZeroCoef>
-5.4800

> <Gold.Chemscore.Hbond>
0.9910

> <Gold.Chemscore.Metal>
0.0000

> <Gold.Chemscore.Lipo>
97.3332

> <Gold.Chemscore.Internal_Hbond>
0.0000

> <Gold.Chemscore.DEClash>
0.0814

> <Gold.Chemscore.DEInternal>
0.6947

> <Gold.Chemscore.Rot>
1.2061

> <Gold.Chemscore.Internal.Correction>
   9.000000E+99

> <Gold.Chemscore.Hbonds>
donor molecule, donor type, donor heavy atom, donor atom, acceptor molecule, acceptor atom, score
      P1  H  6896  6908       L1     5  0.74

> <Gold.Chemscore.Hbond.Weighted>
-3.3099

> <Gold.Chemscore.Metal.Weighted>
-0.0000

> <Gold.Chemscore.Lipo.Weighted>
-11.3880

> <Gold.Chemscore.Internal_Hbond.Weighted>
0.0000

> <Gold.Chemscore.DEClash.Weighted>
0.0814

> <Gold.Chemscore.DEInternal.Weighted>
0.6947

> <Gold.Chemscore.Rot.Weighted>
3.0876

> <Gold.Chemscore.Internal.Correction.Weighted>
   9.000000E+99

> <Gold.Protein.RotatedTorsions>
[ 6907 6896 6895 6894 ] final -174.22 input  -60.11 | X-H torsion
[ 7974 7965 7964 7962 ] final  -91.02 input  175.53 | X-H torsion
[ 8008 7997 7996 7995 ] final    5.31 input   59.86 | X-H torsion
[ 10167 10162 10161 10158 ] final   84.32 input  -65.29 | X-H torsion
[ 10718 10713 10712 10709 ] final   91.85 input   66.30 | X-H torsion
[ 10763 10752 10751 10750 ] final  151.17 input  -60.55 | X-H torsion
[ 11005 11000 10999 10996 ] final  -59.56 input  -57.11 | X-H torsion

> <Gold.Protein.ActiveResidues>
 VAL166  LYS551  ARG553  GLY616  TRP617  ASP618  TYR619  PRO620  LYS621  CYS622 
 ASP623  PHE694  ASN695  SER759  ASP760  ASP761  ALA762  ILE779  LEU786  VAL792 
 PHE793  MET794  SER795  GLU796  ALA797  LYS798  CYS799  TRP800  GLU811  SER814 

> <Gold.Protein.RotatedAtoms>
  151.5688  133.3393  159.2985 H   0  0  0  0  0  0  0  0  0  0  0  0  # atno 6907 bound_to 6896
  150.8379  134.7663  159.6919 H   0  0  0  0  0  0  0  0  0  0  0  0  # atno 6908 bound_to 6896
  152.4452  134.5516  159.9920 H   0  0  0  0  0  0  0  0  0  0  0  0  # atno 6909 bound_to 6896
  145.4187  140.9550  143.2193 H   0  0  0  0  0  0  0  0  0  0  0  0  # atno 7974 bound_to 7965
  154.7268  140.2722  155.6491 H   0  0  0  0  0  0  0  0  0  0  0  0  # atno 8008 bound_to 7997
  156.2839  140.2723  156.1882 H   0  0  0  0  0  0  0  0  0  0  0  0  # atno 8009 bound_to 7997
  155.0434  140.0371  157.2507 H   0  0  0  0  0  0  0  0  0  0  0  0  # atno 8010 bound_to 7997
  139.9092  144.6282  150.8555 H   0  0  0  0  0  0  0  0  0  0  0  0  # atno 10167 bound_to 10162
  157.6960  131.0422  150.3792 H   0  0  0  0  0  0  0  0  0  0  0  0  # atno 10718 bound_to 10713
  154.0995  135.2846  155.3254 H   0  0  0  0  0  0  0  0  0  0  0  0  # atno 10763 bound_to 10752
  154.6565  135.5350  153.7968 H   0  0  0  0  0  0  0  0  0  0  0  0  # atno 10764 bound_to 10752
  153.0384  135.6523  154.1159 H   0  0  0  0  0  0  0  0  0  0  0  0  # atno 10765 bound_to 10752
  141.1253  133.6617  156.5089 H   0  0  0  0  0  0  0  0  0  0  0  0  # atno 11005 bound_to 11000
  144.8260  139.5710  143.6965 LP  0  0  0  0  0  0  0  0  0  0  0  0  # atno 17320 bound_to 7965
  146.2667  139.6538  142.9324 LP  0  0  0  0  0  0  0  0  0  0  0  0  # atno 17321 bound_to 7965
  140.7689  143.3378  151.2272 LP  0  0  0  0  0  0  0  0  0  0  0  0  # atno 17342 bound_to 10162
  139.6957  143.9617  152.2881 LP  0  0  0  0  0  0  0  0  0  0  0  0  # atno 17343 bound_to 10162
  156.4208  130.3952  149.6826 LP  0  0  0  0  0  0  0  0  0  0  0  0  # atno 17370 bound_to 10713
  156.4078  130.7707  151.2718 LP  0  0  0  0  0  0  0  0  0  0  0  0  # atno 17371 bound_to 10713
  140.4385  134.7037  157.4979 LP  0  0  0  0  0  0  0  0  0  0  0  0  # atno 17394 bound_to 11000
  140.0245  134.6497  155.9192 LP  0  0  0  0  0  0  0  0  0  0  0  0  # atno 17395 bound_to 11000

$$$$
