AV-unprocessed.smi:1322|AV-procd|sdf|5464|dock7
  -GOLD-   22720 5 33D 1   1.00000     0.00000
 Structure written by MMmdl.
 32 33  0  0  0  0  0  0  0  0  1 V2000
  149.5837  140.8561  157.4579 C   0  0  0  0  0  0  0  0  0  0  0  0
  151.1141  140.7614  157.6004 C   0  0  1  0  0  0  0  0  0  0  0  0
  151.8355  140.5156  156.2604 C   0  0  0  0  0  0  0  0  0  0  0  0
  151.2952  139.3823  155.5310 N   0  0  0  0  0  0  0  0  0  0  0  0
  151.4173  138.0407  155.8255 C   0  0  0  0  0  0  0  0  0  0  0  0
  150.7441  137.3495  154.8592 C   0  0  0  0  0  0  0  0  0  0  0  0
  150.2395  138.3691  154.0044 C   0  0  0  0  0  0  0  0  0  0  0  0
  150.5729  139.5845  154.4076 N   0  0  0  0  0  0  0  0  0  0  0  0
  151.6389  141.9816  158.2077 N   0  0  0  0  0  0  0  0  0  0  0  0
  152.3997  142.0382  159.3117 C   0  0  0  0  0  0  0  0  0  0  0  0
  152.7413  141.0410  159.9488 O   0  0  0  0  0  0  0  0  0  0  0  0
  152.8362  143.4408  159.7551 C   0  0  0  0  0  0  0  0  0  0  0  0
  152.0260  144.0253  160.9259 C   0  0  0  0  0  0  0  0  0  0  0  0
  151.9704  145.3559  160.1694 C   0  0  0  0  0  0  0  0  0  0  0  0
  152.2884  144.5854  158.8846 C   0  0  0  0  0  0  0  0  0  0  0  0
  149.1601  139.9291  157.0716 H   0  0  0  0  0  0  0  0  0  0  0  0
  149.2987  141.6606  156.7791 H   0  0  0  0  0  0  0  0  0  0  0  0
  149.1084  141.0486  158.4202 H   0  0  0  0  0  0  0  0  0  0  0  0
  151.3426  139.9194  158.2568 H   0  0  0  0  0  0  0  0  0  0  0  0
  151.7769  141.4040  155.6288 H   0  0  0  0  0  0  0  0  0  0  0  0
  152.8961  140.3278  156.4339 H   0  0  0  0  0  0  0  0  0  0  0  0
  151.9652  137.6947  156.6897 H   0  0  0  0  0  0  0  0  0  0  0  0
  150.6299  136.2790  154.7757 H   0  0  0  0  0  0  0  0  0  0  0  0
  149.6452  138.2627  153.1088 H   0  0  0  0  0  0  0  0  0  0  0  0
  151.4060  142.8518  157.7514 H   0  0  0  0  0  0  0  0  0  0  0  0
  153.9121  143.5314  159.9187 H   0  0  0  0  0  0  0  0  0  0  0  0
  151.0401  143.5767  161.0603 H   0  0  0  0  0  0  0  0  0  0  0  0
  152.5707  144.0746  161.8690 H   0  0  0  0  0  0  0  0  0  0  0  0
  150.9954  145.8439  160.1781 H   0  0  0  0  0  0  0  0  0  0  0  0
  152.7693  146.0397  160.4602 H   0  0  0  0  0  0  0  0  0  0  0  0
  153.0357  145.0665  158.2532 H   0  0  0  0  0  0  0  0  0  0  0  0
  151.3931  144.3289  158.3151 H   0  0  0  0  0  0  0  0  0  0  0  0
  1  2  1  0  0  0  0
  1 16  1  0  0  0  0
  1 17  1  0  0  0  0
  1 18  1  0  0  0  0
  2  3  1  0  0  0  0
  2  9  1  0  0  0  0
  2 19  1  0  0  0  0
  3  4  1  0  0  0  0
  3 20  1  0  0  0  0
  3 21  1  0  0  0  0
  4  8  1  0  0  0  0
  4  5  1  0  0  0  0
  5  6  2  0  0  0  0
  5 22  1  0  0  0  0
  6  7  1  0  0  0  0
  6 23  1  0  0  0  0
  7  8  2  0  0  0  0
  7 24  1  0  0  0  0
  9 10  1  0  0  0  0
  9 25  1  0  0  0  0
 10 11  2  0  0  0  0
 10 12  1  0  0  0  0
 12 15  1  0  0  0  0
 12 13  1  0  0  0  0
 12 26  1  0  0  0  0
 13 14  1  0  0  0  0
 13 27  1  0  0  0  0
 13 28  1  0  0  0  0
 14 15  1  0  0  0  0
 14 29  1  0  0  0  0
 14 30  1  0  0  0  0
 15 31  1  0  0  0  0
 15 32  1  0  0  0  0
M  END
> <s_m_source_file>
AV-unprocessed.smi

> <i_m_source_file_index>
1322

> <i_lp_mmshare_version>
43012

> <i_f3d_flags>
0

> <s_epik_input>
W0NIMl0xW0NIMl1bQ0gyXVtDSF0xQyg9TylbTkhdW0NASF0oW0NIM10pW0NIMl1uMltjSF1bY0hdW2NIXW4y

> <s_epik_cmdline>
J2VwaWtfcHl0aG9uJywgJy1waCcsICc3LjAnLCAnLXRuJywgJzgnLCAnLW1hJywgJzIwMCcsICctbWV0YWxfYmluZGluZycsICctaW1hZScsICc8aW5maWxlLm1hZT4nLCAnLW9tYWUnLCAnPG91dGZpbGUubWFlPic=

> <r_lp_tautomer_probability>
1

> <r_epik_Ionization_Penalty>
0.000326653

> <r_epik_Ionization_Penalty_Charging>
0

> <r_epik_Ionization_Penalty_Neutral>
0.000326653

> <r_epik_State_Penalty>
-0

> <r_epik_Charging_Adjusted_Penalty>
0

> <i_epik_Tot_Q>
0

> <i_epik_Tot_abs_Q>
0

> <r_epik_Metal_State_Penalty>
-0

> <b_epik_Metal_Only>
0

> <s_lp_Force_Field>
OPLS_2005

> <r_lp_Energy>
10.775

> <b_lp_Chiralities_Consistent>
1

> <s_lp_Variant>
AV-unprocessed.smi:1322-2

> <Gold.Version>
5.8.1

> <Gold.Id.Protein>
6NUR|6NUR_protein|mol2

> <Gold.PLP.Fitness>
43.8969

> <Gold.PLP.PLP>
-35.6923

> <Gold.PLP.part.hbond>
-1.0000

> <Gold.PLP.part.metal>
0.0000

> <Gold.PLP.part.buried>
-5.7567

> <Gold.PLP.part.nonpolar>
-29.9332

> <Gold.PLP.part.repulsive>
0.2002

> <Gold.PLP.ligand.clash>
0.0000

> <Gold.PLP.ligand.torsion>
0.4600

> <Gold.PLP.Chemscore.Hbond>
1.0000

> <Gold.PLP.Chemscore.CHOScore>
1.9021

> <Gold.PLP.Chemscore.Metal>
0.0000

> <Gold.Chemscore.Hbonds>
donor molecule, donor type, donor heavy atom, donor atom, acceptor molecule, acceptor atom, score
      P1  H  7989  7998       L1     8  1.00
      L1  C     7    24       P1  7948  1.00
      L1  C     7    24       P1  7957  0.69

> <Gold.PLP.Chemscore.Internal.Correction>
0.4184

> <Gold.Rescore>
     Score         DG    S(hbond)    S(metal)    S(lipo)     H(rot)  DE(clash)    DE(int)     intcor
     13.98     -14.61       0.94        0.00      85.02       1.55       0.07       0.57       ----

> <Gold.Chemscore.Fitness>
13.9806

> <Gold.Chemscore.DG>
-14.6146

> <Gold.Chemscore.ZeroCoef>
-5.4800

> <Gold.Chemscore.Hbond>
0.9424

> <Gold.Chemscore.Metal>
0.0000

> <Gold.Chemscore.Lipo>
85.0227

> <Gold.Chemscore.Internal_Hbond>
0.0000

> <Gold.Chemscore.DEClash>
0.0679

> <Gold.Chemscore.DEInternal>
0.5661

> <Gold.Chemscore.Rot>
1.5471

> <Gold.Chemscore.Internal.Correction>
   9.000000E+99

> <Gold.Chemscore.Hbonds>
donor molecule, donor type, donor heavy atom, donor atom, acceptor molecule, acceptor atom, score
      P1  H  7989  7998       L1     8  0.35

> <Gold.Chemscore.Hbond.Weighted>
-3.1476

> <Gold.Chemscore.Metal.Weighted>
-0.0000

> <Gold.Chemscore.Lipo.Weighted>
-9.9477

> <Gold.Chemscore.Internal_Hbond.Weighted>
0.0000

> <Gold.Chemscore.DEClash.Weighted>
0.0679

> <Gold.Chemscore.DEInternal.Weighted>
0.5661

> <Gold.Chemscore.Rot.Weighted>
3.9606

> <Gold.Chemscore.Internal.Correction.Weighted>
   9.000000E+99

> <Gold.Protein.RotatedTorsions>
[ 6907 6896 6895 6894 ] final -120.74 input  -60.11 | X-H torsion
[ 7974 7965 7964 7962 ] final   77.07 input  175.53 | X-H torsion
[ 8008 7997 7996 7995 ] final  115.04 input   59.86 | X-H torsion
[ 10167 10162 10161 10158 ] final  156.49 input  -65.29 | X-H torsion
[ 10718 10713 10712 10709 ] final  -59.79 input   66.30 | X-H torsion
[ 10763 10752 10751 10750 ] final  134.76 input  -60.55 | X-H torsion
[ 11005 11000 10999 10996 ] final -121.38 input  -57.11 | X-H torsion

> <Gold.Protein.ActiveResidues>
 VAL166  LYS551  ARG553  GLY616  TRP617  ASP618  TYR619  PRO620  LYS621  CYS622 
 ASP623  PHE694  ASN695  SER759  ASP760  ASP761  ALA762  ILE779  LEU786  VAL792 
 PHE793  MET794  SER795  GLU796  ALA797  LYS798  CYS799  TRP800  GLU811  SER814 

> <Gold.Protein.RotatedAtoms>
  150.8420  133.7921  159.3057 H   0  0  0  0  0  0  0  0  0  0  0  0  # atno 6907 bound_to 6896
  151.5619  135.1063  159.9984 H   0  0  0  0  0  0  0  0  0  0  0  0  # atno 6908 bound_to 6896
  152.4482  133.7535  159.6763 H   0  0  0  0  0  0  0  0  0  0  0  0  # atno 6909 bound_to 6896
  145.6948  139.2563  143.1739 H   0  0  0  0  0  0  0  0  0  0  0  0  # atno 7974 bound_to 7965
  156.2357  140.2947  156.0307 H   0  0  0  0  0  0  0  0  0  0  0  0  # atno 8008 bound_to 7997
  155.2097  140.0412  157.2948 H   0  0  0  0  0  0  0  0  0  0  0  0  # atno 8009 bound_to 7997
  154.6075  140.2443  155.7719 H   0  0  0  0  0  0  0  0  0  0  0  0  # atno 8010 bound_to 7997
  139.4821  144.5004  151.8176 H   0  0  0  0  0  0  0  0  0  0  0  0  # atno 10167 bound_to 10162
  156.1036  130.4183  150.0764 H   0  0  0  0  0  0  0  0  0  0  0  0  # atno 10718 bound_to 10713
  153.8289  135.3106  155.3417 H   0  0  0  0  0  0  0  0  0  0  0  0  # atno 10763 bound_to 10752
  154.7981  135.4743  154.0213 H   0  0  0  0  0  0  0  0  0  0  0  0  # atno 10764 bound_to 10752
  153.1647  135.6867  153.8783 H   0  0  0  0  0  0  0  0  0  0  0  0  # atno 10765 bound_to 10752
  141.0074  134.0314  157.3459 H   0  0  0  0  0  0  0  0  0  0  0  0  # atno 11005 bound_to 11000
  146.0850  140.7721  142.9623 LP  0  0  0  0  0  0  0  0  0  0  0  0  # atno 17320 bound_to 7965
  144.6986  140.3548  143.7175 LP  0  0  0  0  0  0  0  0  0  0  0  0  # atno 17321 bound_to 7965
  140.4497  144.1872  150.5896 LP  0  0  0  0  0  0  0  0  0  0  0  0  # atno 17342 bound_to 10162
  140.4598  143.2453  151.9236 LP  0  0  0  0  0  0  0  0  0  0  0  0  # atno 17343 bound_to 10162
  156.8745  130.9535  151.3606 LP  0  0  0  0  0  0  0  0  0  0  0  0  # atno 17370 bound_to 10713
  157.6210  130.8655  149.9109 LP  0  0  0  0  0  0  0  0  0  0  0  0  # atno 17371 bound_to 10713
  139.9071  135.0182  156.7532 LP  0  0  0  0  0  0  0  0  0  0  0  0  # atno 17394 bound_to 11000
  140.6790  133.9491  155.7899 LP  0  0  0  0  0  0  0  0  0  0  0  0  # atno 17395 bound_to 11000

$$$$
