AV-unprocessed.smi:109|AV-procd|sdf|1048|dock9
  -GOLD-   2262018 93D 1   1.00000     0.00000
 Structure written by MMmdl.
 58 61  0  0  0  0  0  0  0  0  1 V2000
  149.1561  141.2695  153.5074 O   0  0  0  0  0  0  0  0  0  0  0  0
  150.0035  140.8878  154.5694 C   0  0  0  0  0  0  0  0  0  0  0  0
  149.4539  141.4293  155.9010 C   0  0  0  0  0  0  0  0  0  0  0  0
  150.1078  140.8039  157.1579 C   0  0  1  0  0  0  0  0  0  0  0  0
  150.5000  139.4228  156.8665 N   0  0  0  0  0  0  0  0  0  0  0  0
  149.6704  138.3789  157.0892 C   0  0  0  0  0  0  0  0  0  0  0  0
  148.7488  138.4038  158.0870 N   0  0  0  0  0  0  0  0  0  0  0  0
  147.9375  137.3588  158.2768 C   0  0  0  0  0  0  0  0  0  0  0  0
  147.8797  136.2125  157.5947 N   0  0  0  0  0  0  0  0  0  0  0  0
  148.8049  136.1840  156.5921 C   0  0  0  0  0  0  0  0  0  0  0  0
  149.7297  137.2172  156.2776 C   0  0  0  0  0  0  0  0  0  0  0  0
  150.5064  136.8377  155.1909 N   0  0  0  0  0  0  0  0  0  0  0  0
  150.0561  135.6515  154.8801 C   0  0  0  0  0  0  0  0  0  0  0  0
  149.0298  135.1829  155.6729 N   0  0  0  0  0  0  0  0  0  0  0  0
  148.2802  133.8871  155.5886 C   0  0  2  0  0  0  0  0  0  0  0  0
  149.1715  132.8683  155.9295 O   0  0  0  0  0  0  0  0  0  0  0  0
  149.4015  132.0008  154.8221 C   0  0  2  0  0  0  0  0  0  0  0  0
  150.8790  131.5763  154.7918 C   0  0  0  0  0  0  0  0  0  0  0  0
  151.1166  130.5332  155.7124 O   0  0  0  0  0  0  0  0  0  0  0  0
  148.9253  132.7776  153.5889 C   0  0  1  0  0  0  0  0  0  0  0  0
  148.4397  131.8978  152.5947 O   0  0  0  0  0  0  0  0  0  0  0  0
  147.7879  133.6110  154.1548 C   0  0  2  0  0  0  0  0  0  0  0  0
  147.5780  134.7744  153.3738 O   0  0  0  0  0  0  0  0  0  0  0  0
  151.3434  141.5923  157.6793 C   0  0  0  0  0  0  0  0  0  0  0  0
  151.9542  140.9013  158.9255 C   0  0  0  0  0  0  0  0  0  0  0  0
  153.1771  141.6512  159.4765 C   0  0  0  0  0  0  0  0  0  0  0  0
  152.8286  143.1060  159.8123 C   0  0  0  0  0  0  0  0  0  0  0  0
  152.2488  143.8174  158.5842 C   0  0  0  0  0  0  0  0  0  0  0  0
  151.0273  143.0692  158.0252 C   0  0  0  0  0  0  0  0  0  0  0  0
  147.4790  133.9791  156.3229 H   0  0  0  0  0  0  0  0  0  0  0  0
  148.7635  131.1295  154.9842 H   0  0  0  0  0  0  0  0  0  0  0  0
  149.7218  133.4121  153.1967 H   0  0  0  0  0  0  0  0  0  0  0  0
  146.8693  133.0262  154.2238 H   0  0  0  0  0  0  0  0  0  0  0  0
  149.1210  140.5629  152.8808 H   0  0  0  0  0  0  0  0  0  0  0  0
  150.0698  139.8000  154.5952 H   0  0  0  0  0  0  0  0  0  0  0  0
  151.0032  141.2725  154.3676 H   0  0  0  0  0  0  0  0  0  0  0  0
  149.5616  142.5146  155.9306 H   0  0  0  0  0  0  0  0  0  0  0  0
  148.3843  141.2255  155.9037 H   0  0  0  0  0  0  0  0  0  0  0  0
  149.3661  140.8344  157.9555 H   0  0  0  0  0  0  0  0  0  0  0  0
  151.3688  139.3211  156.3617 H   0  0  0  0  0  0  0  0  0  0  0  0
  147.2334  137.4565  159.0901 H   0  0  0  0  0  0  0  0  0  0  0  0
  150.4635  135.0881  154.0548 H   0  0  0  0  0  0  0  0  0  0  0  0
  151.1815  131.2583  153.7944 H   0  0  0  0  0  0  0  0  0  0  0  0
  151.5141  132.4185  155.0673 H   0  0  0  0  0  0  0  0  0  0  0  0
  150.3761  130.4730  156.2966 H   0  0  0  0  0  0  0  0  0  0  0  0
  148.8828  132.0930  151.7830 H   0  0  0  0  0  0  0  0  0  0  0  0
  148.4159  135.0799  153.0606 H   0  0  0  0  0  0  0  0  0  0  0  0
  152.0988  141.5942  156.8917 H   0  0  0  0  0  0  0  0  0  0  0  0
  151.1971  140.8228  159.7070 H   0  0  0  0  0  0  0  0  0  0  0  0
  152.2556  139.8800  158.6920 H   0  0  0  0  0  0  0  0  0  0  0  0
  153.5522  141.1452  160.3664 H   0  0  0  0  0  0  0  0  0  0  0  0
  153.9835  141.6261  158.7425 H   0  0  0  0  0  0  0  0  0  0  0  0
  152.1057  143.1330  160.6287 H   0  0  0  0  0  0  0  0  0  0  0  0
  153.7161  143.6320  160.1651 H   0  0  0  0  0  0  0  0  0  0  0  0
  151.9702  144.8389  158.8450 H   0  0  0  0  0  0  0  0  0  0  0  0
  153.0146  143.8947  157.8113 H   0  0  0  0  0  0  0  0  0  0  0  0
  150.6912  143.6105  157.1424 H   0  0  0  0  0  0  0  0  0  0  0  0
  150.2111  143.1121  158.7478 H   0  0  0  0  0  0  0  0  0  0  0  0
  1  2  1  0  0  0  0
  1 34  1  0  0  0  0
  2  3  1  0  0  0  0
  2 35  1  0  0  0  0
  2 36  1  0  0  0  0
  3  4  1  0  0  0  0
  3 37  1  0  0  0  0
  3 38  1  0  0  0  0
  4  5  1  0  0  0  0
  4 24  1  0  0  0  0
  4 39  1  0  0  0  0
  5  6  1  0  0  0  0
  5 40  1  0  0  0  0
  6 11  1  0  0  0  0
  6  7  2  0  0  0  0
  7  8  1  0  0  0  0
  8  9  2  0  0  0  0
  8 41  1  0  0  0  0
  9 10  1  0  0  0  0
 10 14  1  0  0  0  0
 10 11  2  0  0  0  0
 11 12  1  0  0  0  0
 12 13  2  0  0  0  0
 13 14  1  0  0  0  0
 13 42  1  0  0  0  0
 14 15  1  0  0  0  0
 15 30  1  0  0  0  0
 15 22  1  0  0  0  0
 15 16  1  0  0  0  0
 16 17  1  0  0  0  0
 17 31  1  0  0  0  0
 17 18  1  0  0  0  0
 17 20  1  0  0  0  0
 18 19  1  0  0  0  0
 18 43  1  0  0  0  0
 18 44  1  0  0  0  0
 19 45  1  0  0  0  0
 20 32  1  0  0  0  0
 20 21  1  0  0  0  0
 20 22  1  0  0  0  0
 21 46  1  0  0  0  0
 22 33  1  0  0  0  0
 22 23  1  0  0  0  0
 23 47  1  0  0  0  0
 24 29  1  0  0  0  0
 24 25  1  0  0  0  0
 24 48  1  0  0  0  0
 25 26  1  0  0  0  0
 25 49  1  0  0  0  0
 25 50  1  0  0  0  0
 26 27  1  0  0  0  0
 26 51  1  0  0  0  0
 26 52  1  0  0  0  0
 27 28  1  0  0  0  0
 27 53  1  0  0  0  0
 27 54  1  0  0  0  0
 28 29  1  0  0  0  0
 28 55  1  0  0  0  0
 28 56  1  0  0  0  0
 29 57  1  0  0  0  0
 29 58  1  0  0  0  0
M  END
> <s_m_source_file>
AV-unprocessed.smi

> <i_m_source_file_index>
109

> <i_lp_mmshare_version>
43012

> <i_f3d_flags>
0

> <s_epik_input>
W0NIMl0xW0NIMl1bQ0gyXVtDSDJdW0NIMl1bQ0hdMVtDQEhdKFtDSDJdW0NIMl1bT0hdKVtOSF1jKG5bY0hdbjIpYyhjMjMpbltjSF1uM1tDQEBIXTRPW0NASF0oW0NIMl1bT0hdKVtDQEBIXShbT0hdKVtDQEhdNFtPSF0=

> <s_epik_cmdline>
J2VwaWtfcHl0aG9uJywgJy1waCcsICc3LjAnLCAnLXRuJywgJzgnLCAnLW1hJywgJzIwMCcsICctbWV0YWxfYmluZGluZycsICctaW1hZScsICc8aW5maWxlLm1hZT4nLCAnLW9tYWUnLCAnPG91dGZpbGUubWFlPic=

> <r_lp_tautomer_probability>
1

> <r_epik_Ionization_Penalty>
0.000793976

> <r_epik_Ionization_Penalty_Charging>
0

> <r_epik_Ionization_Penalty_Neutral>
0.000793976

> <r_epik_State_Penalty>
-0

> <r_epik_Charging_Adjusted_Penalty>
0

> <i_epik_Tot_Q>
0

> <i_epik_Tot_abs_Q>
0

> <r_epik_Metal_State_Penalty>
-0

> <b_epik_Metal_Only>
0

> <s_epik_Chemistry_Notes>
This compound contains an acetal/aminal-like group ( X-CH(R)-Y where X, Y are N, S, or O) that may be acid/base labile, releasing an aldehyde.

> <s_lp_Force_Field>
OPLS_2005

> <r_lp_Energy>
53.2153

> <b_lp_Chiralities_Consistent>
1

> <s_lp_Variant>
AV-unprocessed.smi:109-18

> <Gold.Version>
5.8.1

> <Gold.Id.Protein>
6NUR|6NUR_protein|mol2

> <Gold.PLP.Fitness>
46.6041

> <Gold.PLP.PLP>
-39.9686

> <Gold.PLP.part.hbond>
-5.0000

> <Gold.PLP.part.metal>
0.0000

> <Gold.PLP.part.buried>
-4.1578

> <Gold.PLP.part.nonpolar>
-30.6047

> <Gold.PLP.part.repulsive>
0.1248

> <Gold.PLP.ligand.clash>
0.0000

> <Gold.PLP.ligand.torsion>
1.3134

> <Gold.PLP.Chemscore.Hbond>
3.0320

> <Gold.PLP.Chemscore.CHOScore>
0.0000

> <Gold.PLP.Chemscore.Metal>
0.0000

> <Gold.Chemscore.Hbonds>
donor molecule, donor type, donor heavy atom, donor atom, acceptor molecule, acceptor atom, score
      L1  H     1    34       P1  7957  0.88
      L1  H    21    46       P1 10747  0.50
      L1  H    23    47       P1  7948  0.74
      P1  H  8011  8017       L1     1  0.62
      L1  C    13    42       P1  7948  0.01
      L1  C    13    42       P1  7949  0.09

> <Gold.PLP.Chemscore.Internal.Correction>
0.1663

> <Gold.Rescore>
     Score         DG    S(hbond)    S(metal)    S(lipo)     H(rot)  DE(clash)    DE(int)     intcor
      8.09     -11.57       2.47        0.00     101.18       5.47       1.50       1.98       ----

> <Gold.Chemscore.Fitness>
8.0906

> <Gold.Chemscore.DG>
-11.5682

> <Gold.Chemscore.ZeroCoef>
-5.4800

> <Gold.Chemscore.Hbond>
2.4681

> <Gold.Chemscore.Metal>
0.0000

> <Gold.Chemscore.Lipo>
101.1831

> <Gold.Chemscore.Internal_Hbond>
0.0000

> <Gold.Chemscore.DEClash>
1.5010

> <Gold.Chemscore.DEInternal>
1.9766

> <Gold.Chemscore.Rot>
5.4662

> <Gold.Chemscore.Internal.Correction>
   9.000000E+99

> <Gold.Chemscore.Hbonds>
donor molecule, donor type, donor heavy atom, donor atom, acceptor molecule, acceptor atom, score
      L1  H     1    34       P1  7957  0.86
      L1  H    21    46       P1 10747  0.47
      L1  H    23    47       P1  7948  0.61
      P1  H  8011  8017       L1     1  0.05

> <Gold.Chemscore.Hbond.Weighted>
-8.2433

> <Gold.Chemscore.Metal.Weighted>
-0.0000

> <Gold.Chemscore.Lipo.Weighted>
-11.8384

> <Gold.Chemscore.Internal_Hbond.Weighted>
0.0000

> <Gold.Chemscore.DEClash.Weighted>
1.5010

> <Gold.Chemscore.DEInternal.Weighted>
1.9766

> <Gold.Chemscore.Rot.Weighted>
13.9935

> <Gold.Chemscore.Internal.Correction.Weighted>
   9.000000E+99

> <Gold.Protein.RotatedTorsions>
[ 6907 6896 6895 6894 ] final  -38.80 input  -60.11 | X-H torsion
[ 7974 7965 7964 7962 ] final  104.80 input  175.53 | X-H torsion
[ 8008 7997 7996 7995 ] final    0.60 input   59.86 | X-H torsion
[ 10167 10162 10161 10158 ] final  -62.66 input  -65.29 | X-H torsion
[ 10718 10713 10712 10709 ] final -145.71 input   66.30 | X-H torsion
[ 10763 10752 10751 10750 ] final   70.29 input  -60.55 | X-H torsion
[ 11005 11000 10999 10996 ] final  117.27 input  -57.11 | X-H torsion

> <Gold.Protein.ActiveResidues>
 VAL166  LYS551  ARG553  GLY616  TRP617  ASP618  TYR619  PRO620  LYS621  CYS622 
 ASP623  PHE694  ASN695  SER759  ASP760  ASP761  ALA762  ILE779  LEU786  VAL792 
 PHE793  MET794  SER795  GLU796  ALA797  LYS798  CYS799  TRP800  GLU811  SER814 

> <Gold.Protein.RotatedAtoms>
  150.9981  134.9299  159.7937 H   0  0  0  0  0  0  0  0  0  0  0  0  # atno 6907 bound_to 6896
  152.5270  134.3192  159.9152 H   0  0  0  0  0  0  0  0  0  0  0  0  # atno 6908 bound_to 6896
  151.3197  133.4004  159.2688 H   0  0  0  0  0  0  0  0  0  0  0  0  # atno 6909 bound_to 6896
  145.3280  139.2494  143.3676 H   0  0  0  0  0  0  0  0  0  0  0  0  # atno 7974 bound_to 7965
  154.6700  140.2609  155.7018 H   0  0  0  0  0  0  0  0  0  0  0  0  # atno 8008 bound_to 7997
  156.2655  140.2831  156.1127 H   0  0  0  0  0  0  0  0  0  0  0  0  # atno 8009 bound_to 7997
  155.1183  140.0376  157.2733 H   0  0  0  0  0  0  0  0  0  0  0  0  # atno 8010 bound_to 7997
  140.5923  143.2344  151.6111 H   0  0  0  0  0  0  0  0  0  0  0  0  # atno 10167 bound_to 10162
  156.3859  130.7861  151.2058 H   0  0  0  0  0  0  0  0  0  0  0  0  # atno 10718 bound_to 10713
  153.0333  135.5179  154.7419 H   0  0  0  0  0  0  0  0  0  0  0  0  # atno 10763 bound_to 10752
  154.6415  135.2913  155.0099 H   0  0  0  0  0  0  0  0  0  0  0  0  # atno 10764 bound_to 10752
  154.1015  135.6635  153.4921 H   0  0  0  0  0  0  0  0  0  0  0  0  # atno 10765 bound_to 10752
  139.9069  134.9608  156.7326 H   0  0  0  0  0  0  0  0  0  0  0  0  # atno 11005 bound_to 11000
  146.3057  140.3851  142.8688 LP  0  0  0  0  0  0  0  0  0  0  0  0  # atno 17320 bound_to 7965
  144.8887  140.7495  143.5940 LP  0  0  0  0  0  0  0  0  0  0  0  0  # atno 17321 bound_to 7965
  139.5236  144.3129  152.0977 LP  0  0  0  0  0  0  0  0  0  0  0  0  # atno 17342 bound_to 10162
  140.2296  144.4382  150.6306 LP  0  0  0  0  0  0  0  0  0  0  0  0  # atno 17343 bound_to 10162
  157.7496  131.0330  150.4253 LP  0  0  0  0  0  0  0  0  0  0  0  0  # atno 17370 bound_to 10713
  156.4505  130.4010  149.6639 LP  0  0  0  0  0  0  0  0  0  0  0  0  # atno 17371 bound_to 10713
  140.6913  133.9387  155.7968 LP  0  0  0  0  0  0  0  0  0  0  0  0  # atno 17394 bound_to 11000
  141.0439  134.0582  157.3868 LP  0  0  0  0  0  0  0  0  0  0  0  0  # atno 17395 bound_to 11000

$$$$
