#       Name:                AV-unprocessed.smi:1194
#       Creating user name   scv26
#       Creation time:       Fri Mar 27 03:59:15 2020


#       File generated by GOLD software.
#

@<TRIPOS>MOLECULE
AV-unprocessed.smi:1194
    52    53     1
SMALL
NO_CHARGES


@<TRIPOS>ATOM
      1 ****        -4.6279   3.4311  -0.7589 C.3            1 S1                 0.0000
      2 ****        -4.1926   1.9681  -0.8975 C.3            1 S1                 0.0000
      3 ****        -3.1532   1.5611   0.1650 C.3            1 S1                 0.0000
      4 ****        -2.6815   0.0990   0.0552 C.2            1 S1                 0.0000
      5 ****        -3.1520  -0.6039  -0.8408 O.2            1 S1                 0.0000
      6 ****        -1.7544  -0.3696   0.9324 N.am           1 S1                 0.0000
      7 ****        -1.2131   0.4159   2.0615 C.3            1 S1                 0.0000
      8 ****        -1.6677  -0.2097   3.3916 C.3            1 S1                 0.0000
      9 ****        -1.2739  -1.6943   3.4685 C.3            1 S1                 0.0000
     10 ****        -1.7689  -2.4533   2.2245 C.3            1 S1                 0.0000
     11 ****        -1.3037  -1.7825   0.9082 C.3            1 S1                 0.0000
     12 ****         0.1994  -1.9562   0.5987 C.2            1 S1                 0.0000
     13 ****         0.8249  -2.9077   1.0669 O.2            1 S1                 0.0000
     14 ****         0.7707  -1.0391  -0.1977 N.am           1 S1                 0.0000
     15 ****         2.1718  -1.0431  -0.5904 C.3            1 S1                 0.0000
     16 ****         2.4536   0.0904  -1.5847 C.3            1 S1                 0.0000
     17 ****         3.9056   0.1195  -2.0183 C.ar           1 S1                 0.0000
     18 ****         4.3507  -0.6600  -3.1056 C.ar           1 S1                 0.0000
     19 ****         5.7103  -0.6052  -3.4677 C.ar           1 S1                 0.0000
     20 ****         6.5689   0.2292  -2.7245 C.ar           1 S1                 0.0000
     21 ****         6.1538   0.9795  -1.6810 N.ar           1 S1                 0.0000
     22 ****         4.8485   0.9209  -1.3401 C.ar           1 S1                 0.0000
     23 ****        -5.3675   3.6893  -1.5170 H              1 S1                 0.0000
     24 ****        -3.7805   4.1069  -0.8774 H              1 S1                 0.0000
     25 ****        -5.0736   3.6191   0.2182 H              1 S1                 0.0000
     26 ****        -5.0727   1.3281  -0.8208 H              1 S1                 0.0000
     27 ****        -3.7828   1.8151  -1.8970 H              1 S1                 0.0000
     28 ****        -2.2854   2.2157   0.0755 H              1 S1                 0.0000
     29 ****        -3.5814   1.7176   1.1560 H              1 S1                 0.0000
     30 ****        -0.1241   0.4209   2.0161 H              1 S1                 0.0000
     31 ****        -1.4926   1.4671   2.0521 H              1 S1                 0.0000
     32 ****        -1.2332   0.3348   4.2303 H              1 S1                 0.0000
     33 ****        -2.7501  -0.1137   3.4869 H              1 S1                 0.0000
     34 ****        -0.1897  -1.7815   3.5485 H              1 S1                 0.0000
     35 ****        -1.6861  -2.1455   4.3713 H              1 S1                 0.0000
     36 ****        -1.4438  -3.4935   2.2683 H              1 S1                 0.0000
     37 ****        -2.8592  -2.4851   2.2396 H              1 S1                 0.0000
     38 ****        -1.7925  -2.3378   0.1071 H              1 S1                 0.0000
     39 ****         0.1942  -0.2899  -0.5528 H              1 S1                 0.0000
     40 ****         2.7941  -0.9284   0.2984 H              1 S1                 0.0000
     41 ****         2.4211  -2.0057  -1.0400 H              1 S1                 0.0000
     42 ****         1.8233  -0.0214  -2.4682 H              1 S1                 0.0000
     43 ****         2.1946   1.0526  -1.1409 H              1 S1                 0.0000
     44 ****         3.6642  -1.2906  -3.6514 H              1 S1                 0.0000
     45 ****         6.0865  -1.1892  -4.2945 H              1 S1                 0.0000
     46 ****         7.6173   0.2952  -2.9749 H              1 S1                 0.0000
     47 ****         4.5489   1.5303  -0.5002 H              1 S1                 0.0000
     48 ****        -3.8237  -0.2218  -1.4754 LP             1 S1                 0.0000
     49 ****        -2.8620  -1.5565  -0.9333 LP             1 S1                 0.0000
     50 ****         0.3599  -3.5730   1.6509 LP             1 S1                 0.0000
     51 ****         1.7980  -3.0152   0.8632 LP             1 S1                 0.0000
     52 ****         6.7930   1.5601  -1.1767 LP             1 S1                 0.0000
@<TRIPOS>BOND
    1    1    2 1     
    2    1   23 1     
    3    1   24 1     
    4    1   25 1     
    5    2    3 1     
    6    2   26 1     
    7    2   27 1     
    8    3    4 1     
    9    3   28 1     
   10    3   29 1     
   11    4    5 2     
   12    4    6 am    
   13    6   11 1     
   14    6    7 1     
   15    7    8 1     
   16    7   30 1     
   17    7   31 1     
   18    8    9 1     
   19    8   32 1     
   20    8   33 1     
   21    9   10 1     
   22    9   34 1     
   23    9   35 1     
   24   10   11 1     
   25   10   36 1     
   26   10   37 1     
   27   11   12 1     
   28   11   38 1     
   29   12   13 2     
   30   12   14 am    
   31   14   15 1     
   32   14   39 1     
   33   15   16 1     
   34   15   40 1     
   35   15   41 1     
   36   16   17 1     
   37   16   42 1     
   38   16   43 1     
   39   17   22 ar    
   40   17   18 ar    
   41   18   19 ar    
   42   18   44 1     
   43   19   20 ar    
   44   19   45 1     
   45   20   21 ar    
   46   20   46 1     
   47   21   22 ar    
   48   22   47 1     
   49    5   48 1     
   50    5   49 1     
   51   13   50 1     
   52   13   51 1     
   53   21   52 1     
@<TRIPOS>SUBSTRUCTURE
      1 S1             1
@<TRIPOS>SET
LONE_PAIRS      STATIC     ATOMS    <user>   **** ""
5 48 49 50 51 52
DONOR_HYDROGENS      STATIC     ATOMS    <user>   **** ""
1 39
ATOM$BLUE        STATIC     ATOMS    COLORGROUP SYSTEM
5 48 49 50 51 52
ATOM$RED        STATIC     ATOMS    COLORGROUP SYSTEM
1 39
