AV-unprocessed.smi:1267|AV-procd|sdf|5322|dock10
  -GOLD-   22720 4443D 1   1.00000     0.00000
 Structure written by MMmdl.
 37 38  0  0  0  0  0  0  0  0  1 V2000
  150.5773  141.8409  156.0548 C   0  0  0  0  0  0  0  0  0  0  0  0
  150.4334  140.0732  155.5666 S   0  0  0  0  0  0  0  0  0  0  0  0
  151.0400  139.9143  154.2361 O   0  0  0  0  0  0  0  0  0  0  0  0
  150.9090  139.2480  156.6875 O   0  0  0  0  0  0  0  0  0  0  0  0
  148.7199  139.8142  155.4047 N   0  0  0  0  0  0  0  0  0  0  0  0
  147.9708  140.4873  154.3246 C   0  0  0  0  0  0  0  0  0  0  0  0
  147.6886  139.5352  153.1490 C   0  0  0  0  0  0  0  0  0  0  0  0
  146.9894  138.2517  153.6198 C   0  0  0  0  0  0  0  0  0  0  0  0
  146.7961  137.3528  152.4865 N   0  0  0  0  0  0  0  0  0  0  0  0
  145.6197  136.8406  152.0927 C   0  0  0  0  0  0  0  0  0  0  0  0
  144.5535  137.0662  152.6648 O   0  0  0  0  0  0  0  0  0  0  0  0
  145.6510  135.9343  150.8619 C   0  0  0  0  0  0  0  0  0  0  0  0
  144.9101  134.7088  151.0986 N   0  0  0  0  0  0  0  0  0  0  0  0
  144.8403  133.5836  150.3039 C   0  0  0  0  0  0  0  0  0  0  0  0
  144.0302  132.6868  150.9394 C   0  0  0  0  0  0  0  0  0  0  0  0
  143.6485  133.3622  152.1323 C   0  0  0  0  0  0  0  0  0  0  0  0
  144.1763  134.5722  152.2252 N   0  0  0  0  0  0  0  0  0  0  0  0
  147.8385  137.5836  154.7148 C   0  0  0  0  0  0  0  0  0  0  0  0
  148.1168  138.5520  155.8775 C   0  0  0  0  0  0  0  0  0  0  0  0
  151.6307  142.0900  156.1793 H   0  0  0  0  0  0  0  0  0  0  0  0
  150.0613  142.0091  156.9982 H   0  0  0  0  0  0  0  0  0  0  0  0
  150.1543  142.4763  155.2788 H   0  0  0  0  0  0  0  0  0  0  0  0
  147.0271  140.8487  154.7346 H   0  0  0  0  0  0  0  0  0  0  0  0
  148.5121  141.3673  153.9784 H   0  0  0  0  0  0  0  0  0  0  0  0
  147.0699  140.0457  152.4099 H   0  0  0  0  0  0  0  0  0  0  0  0
  148.6204  139.2853  152.6427 H   0  0  0  0  0  0  0  0  0  0  0  0
  146.0148  138.5197  154.0326 H   0  0  0  0  0  0  0  0  0  0  0  0
  147.6169  137.1148  151.9484 H   0  0  0  0  0  0  0  0  0  0  0  0
  145.2328  136.4531  149.9977 H   0  0  0  0  0  0  0  0  0  0  0  0
  146.6824  135.6791  150.6144 H   0  0  0  0  0  0  0  0  0  0  0  0
  145.3680  133.5164  149.3638 H   0  0  0  0  0  0  0  0  0  0  0  0
  143.7533  131.6987  150.6038 H   0  0  0  0  0  0  0  0  0  0  0  0
  143.0079  133.0111  152.9277 H   0  0  0  0  0  0  0  0  0  0  0  0
  147.3285  136.6998  155.0995 H   0  0  0  0  0  0  0  0  0  0  0  0
  148.7782  137.2303  154.2915 H   0  0  0  0  0  0  0  0  0  0  0  0
  148.7579  138.0782  156.6203 H   0  0  0  0  0  0  0  0  0  0  0  0
  147.1810  138.7877  156.3855 H   0  0  0  0  0  0  0  0  0  0  0  0
  1  2  1  0  0  0  0
  1 20  1  0  0  0  0
  1 21  1  0  0  0  0
  1 22  1  0  0  0  0
  2  3  2  0  0  0  0
  2  4  2  0  0  0  0
  2  5  1  0  0  0  0
  5 19  1  0  0  0  0
  5  6  1  0  0  0  0
  6  7  1  0  0  0  0
  6 23  1  0  0  0  0
  6 24  1  0  0  0  0
  7  8  1  0  0  0  0
  7 25  1  0  0  0  0
  7 26  1  0  0  0  0
  8  9  1  0  0  0  0
  8 18  1  0  0  0  0
  8 27  1  0  0  0  0
  9 10  1  0  0  0  0
  9 28  1  0  0  0  0
 10 11  2  0  0  0  0
 10 12  1  0  0  0  0
 12 13  1  0  0  0  0
 12 29  1  0  0  0  0
 12 30  1  0  0  0  0
 13 17  1  0  0  0  0
 13 14  1  0  0  0  0
 14 15  2  0  0  0  0
 14 31  1  0  0  0  0
 15 16  1  0  0  0  0
 15 32  1  0  0  0  0
 16 17  2  0  0  0  0
 16 33  1  0  0  0  0
 18 19  1  0  0  0  0
 18 34  1  0  0  0  0
 18 35  1  0  0  0  0
 19 36  1  0  0  0  0
 19 37  1  0  0  0  0
M  END
> <s_m_source_file>
AV-unprocessed.smi

> <i_m_source_file_index>
1267

> <i_lp_mmshare_version>
43012

> <i_f3d_flags>
0

> <s_epik_input>
W0NIM11TKD1PKSg9TylOMVtDSDJdW0NIMl1bQ0hdKFtDSDJdW0NIMl0xKVtOSF1DKD1PKVtDSDJdbjJbY0hdW2NIXVtjSF1uMg==

> <s_epik_cmdline>
J2VwaWtfcHl0aG9uJywgJy1waCcsICc3LjAnLCAnLXRuJywgJzgnLCAnLW1hJywgJzIwMCcsICctbWV0YWxfYmluZGluZycsICctaW1hZScsICc8aW5maWxlLm1hZT4nLCAnLW9tYWUnLCAnPG91dGZpbGUubWFlPic=

> <r_lp_tautomer_probability>
1

> <r_epik_Ionization_Penalty>
1.58465e-05

> <r_epik_Ionization_Penalty_Charging>
0

> <r_epik_Ionization_Penalty_Neutral>
1.58465e-05

> <r_epik_State_Penalty>
-0

> <r_epik_Charging_Adjusted_Penalty>
0

> <i_epik_Tot_Q>
0

> <i_epik_Tot_abs_Q>
0

> <r_epik_Metal_State_Penalty>
-0

> <b_epik_Metal_Only>
0

> <s_lp_Force_Field>
OPLS_2005

> <r_lp_Energy>
-1.31745

> <b_lp_Chiralities_Consistent>
1

> <s_lp_Variant>
AV-unprocessed.smi:1267-1

> <Gold.Version>
5.8.1

> <Gold.Id.Protein>
6NUR|6NUR_protein|mol2

> <Gold.PLP.Fitness>
38.8066

> <Gold.PLP.PLP>
-27.3908

> <Gold.PLP.part.hbond>
-2.0000

> <Gold.PLP.part.metal>
0.0000

> <Gold.PLP.part.buried>
-1.7660

> <Gold.PLP.part.nonpolar>
-24.0595

> <Gold.PLP.part.repulsive>
0.7604

> <Gold.PLP.ligand.clash>
0.0000

> <Gold.PLP.ligand.torsion>
1.3187

> <Gold.PLP.Chemscore.Hbond>
2.0000

> <Gold.PLP.Chemscore.CHOScore>
2.0000

> <Gold.PLP.Chemscore.Metal>
0.0000

> <Gold.Chemscore.Hbonds>
donor molecule, donor type, donor heavy atom, donor atom, acceptor molecule, acceptor atom, score
      L1  H     9    28       P1  7948  0.96
      P1  H  7989  7998       L1     3  0.52
      L1  C    14    31       P1  7921  1.00
      L1  C    16    33       P1 10957  1.00

> <Gold.PLP.Chemscore.Internal.Correction>
2.0533

> <Gold.Rescore>
     Score         DG    S(hbond)    S(metal)    S(lipo)     H(rot)  DE(clash)    DE(int)     intcor
     11.47     -14.43       1.99        0.00      53.30       1.53       0.34       2.62       ----

> <Gold.Chemscore.Fitness>
11.4672

> <Gold.Chemscore.DG>
-14.4310

> <Gold.Chemscore.ZeroCoef>
-5.4800

> <Gold.Chemscore.Hbond>
1.9874

> <Gold.Chemscore.Metal>
0.0000

> <Gold.Chemscore.Lipo>
53.2999

> <Gold.Chemscore.Internal_Hbond>
0.0000

> <Gold.Chemscore.DEClash>
0.3392

> <Gold.Chemscore.DEInternal>
2.6245

> <Gold.Chemscore.Rot>
1.5324

> <Gold.Chemscore.Internal.Correction>
   9.000000E+99

> <Gold.Chemscore.Hbonds>
donor molecule, donor type, donor heavy atom, donor atom, acceptor molecule, acceptor atom, score
      L1  H     9    28       P1  7948  0.90
      P1  H  7989  7998       L1     3  0.52

> <Gold.Chemscore.Hbond.Weighted>
-6.6378

> <Gold.Chemscore.Metal.Weighted>
-0.0000

> <Gold.Chemscore.Lipo.Weighted>
-6.2361

> <Gold.Chemscore.Internal_Hbond.Weighted>
0.0000

> <Gold.Chemscore.DEClash.Weighted>
0.3392

> <Gold.Chemscore.DEInternal.Weighted>
2.6245

> <Gold.Chemscore.Rot.Weighted>
3.9229

> <Gold.Chemscore.Internal.Correction.Weighted>
   9.000000E+99

> <Gold.Protein.RotatedTorsions>
[ 6907 6896 6895 6894 ] final   35.44 input  -60.11 | X-H torsion
[ 7974 7965 7964 7962 ] final  -31.11 input  175.53 | X-H torsion
[ 8008 7997 7996 7995 ] final  140.14 input   59.86 | X-H torsion
[ 10167 10162 10161 10158 ] final  -80.32 input  -65.29 | X-H torsion
[ 10718 10713 10712 10709 ] final   68.84 input   66.30 | X-H torsion
[ 10763 10752 10751 10750 ] final  -47.71 input  -60.55 | X-H torsion
[ 11005 11000 10999 10996 ] final -175.51 input  -57.11 | X-H torsion

> <Gold.Protein.ActiveResidues>
 VAL166  LYS551  ARG553  GLY616  TRP617  ASP618  TYR619  PRO620  LYS621  CYS622 
 ASP623  PHE694  ASN695  SER759  ASP760  ASP761  ALA762  ILE779  LEU786  VAL792 
 PHE793  MET794  SER795  GLU796  ALA797  LYS798  CYS799  TRP800  GLU811  SER814 

> <Gold.Protein.RotatedAtoms>
  152.1161  134.9239  160.0564 H   0  0  0  0  0  0  0  0  0  0  0  0  # atno 6907 bound_to 6896
  152.0398  133.3967  159.4340 H   0  0  0  0  0  0  0  0  0  0  0  0  # atno 6908 bound_to 6896
  150.6846  134.3349  159.4886 H   0  0  0  0  0  0  0  0  0  0  0  0  # atno 6909 bound_to 6896
  146.1092  140.5625  142.8785 H   0  0  0  0  0  0  0  0  0  0  0  0  # atno 7974 bound_to 7965
  156.2982  140.2349  156.4352 H   0  0  0  0  0  0  0  0  0  0  0  0  # atno 8008 bound_to 7997
  154.8235  140.0436  157.1448 H   0  0  0  0  0  0  0  0  0  0  0  0  # atno 8009 bound_to 7997
  154.9288  140.3014  155.5182 H   0  0  0  0  0  0  0  0  0  0  0  0  # atno 8010 bound_to 7997
  140.4514  143.2482  151.8483 H   0  0  0  0  0  0  0  0  0  0  0  0  # atno 10167 bound_to 10162
  157.6312  130.9395  150.0432 H   0  0  0  0  0  0  0  0  0  0  0  0  # atno 10718 bound_to 10713
  154.0658  135.6611  153.4818 H   0  0  0  0  0  0  0  0  0  0  0  0  # atno 10763 bound_to 10752
  153.0409  135.5145  154.7614 H   0  0  0  0  0  0  0  0  0  0  0  0  # atno 10764 bound_to 10752
  154.6665  135.3023  154.9766 H   0  0  0  0  0  0  0  0  0  0  0  0  # atno 10765 bound_to 10752
  140.4625  134.6241  157.4848 H   0  0  0  0  0  0  0  0  0  0  0  0  # atno 11005 bound_to 11000
  144.7497  140.5160  143.6810 LP  0  0  0  0  0  0  0  0  0  0  0  0  # atno 17320 bound_to 7965
  145.5697  139.1483  143.3295 LP  0  0  0  0  0  0  0  0  0  0  0  0  # atno 17321 bound_to 7965
  139.4797  144.5116  151.8925 LP  0  0  0  0  0  0  0  0  0  0  0  0  # atno 17342 bound_to 10162
  140.4203  144.2252  150.5887 LP  0  0  0  0  0  0  0  0  0  0  0  0  # atno 17343 bound_to 10162
  156.1517  130.3642  149.9428 LP  0  0  0  0  0  0  0  0  0  0  0  0  # atno 17370 bound_to 10713
  156.7446  130.9092  151.3634 LP  0  0  0  0  0  0  0  0  0  0  0  0  # atno 17371 bound_to 10713
  139.9936  134.6946  155.9647 LP  0  0  0  0  0  0  0  0  0  0  0  0  # atno 17394 bound_to 11000
  141.1615  133.6538  156.4334 LP  0  0  0  0  0  0  0  0  0  0  0  0  # atno 17395 bound_to 11000

$$$$
