AV-unprocessed.smi:3354|AV-procd|sdf|12956|dock4
  -GOLD-   2272019393D 1   1.00000     0.00000
 Structure written by MMmdl.
 38 40  0  0  0  0  0  0  0  0  1 V2000
  149.6572  130.1377  158.8675 C   0  0  0  0  0  0  0  0  0  0  0  0
  151.1383  130.3095  158.5918 C   0  0  1  0  0  0  0  0  0  0  0  0
  151.7854  129.6329  157.4056 C   0  0  0  0  0  0  0  0  0  0  0  0
  151.6562  131.1432  157.4358 C   0  0  1  0  0  0  0  0  0  0  0  0
  150.7304  131.8138  156.5704 N   0  0  0  0  0  0  0  0  0  0  0  0
  150.8470  131.7597  155.1195 C   0  0  0  0  0  0  0  0  0  0  0  0
  149.9673  132.9080  154.5936 C   0  0  1  0  0  0  0  0  0  0  0  0
  149.1361  132.4664  153.4751 N   0  0  0  0  0  0  0  0  0  0  0  0
  147.9862  133.0337  153.0833 C   0  0  0  0  0  0  0  0  0  0  0  0
  147.4895  134.0178  153.6308 O   0  0  0  0  0  0  0  0  0  0  0  0
  147.4737  132.3989  152.0149 N   0  0  0  0  0  0  0  0  0  0  0  0
  146.2641  132.6697  151.3193 C   0  0  0  0  0  0  0  0  0  0  0  0
  145.3768  133.7249  151.6429 C   0  0  0  0  0  0  0  0  0  0  0  0
  144.1969  133.8763  150.8891 C   0  0  0  0  0  0  0  0  0  0  0  0
  143.9434  132.9649  149.8458 C   0  0  0  0  0  0  0  0  0  0  0  0
  144.7729  131.9468  149.5349 N   0  0  0  0  0  0  0  0  0  0  0  0
  145.9018  131.8075  150.2623 C   0  0  0  0  0  0  0  0  0  0  0  0
  149.1190  133.3533  155.7924 C   0  0  0  0  0  0  0  0  0  0  0  0
  149.8097  132.6959  156.9748 C   0  0  0  0  0  0  0  0  0  0  0  0
  149.5408  132.9769  158.1419 O   0  0  0  0  0  0  0  0  0  0  0  0
  149.0955  130.0051  157.9427 H   0  0  0  0  0  0  0  0  0  0  0  0
  149.2706  131.0148  159.3867 H   0  0  0  0  0  0  0  0  0  0  0  0
  149.4945  129.2619  159.4956 H   0  0  0  0  0  0  0  0  0  0  0  0
  151.7375  130.3563  159.4993 H   0  0  0  0  0  0  0  0  0  0  0  0
  152.7784  129.2134  157.5526 H   0  0  0  0  0  0  0  0  0  0  0  0
  151.1378  129.0584  156.7466 H   0  0  0  0  0  0  0  0  0  0  0  0
  152.5847  131.6811  157.6210 H   0  0  0  0  0  0  0  0  0  0  0  0
  151.8833  131.8763  154.7991 H   0  0  0  0  0  0  0  0  0  0  0  0
  150.4931  130.7883  154.7709 H   0  0  0  0  0  0  0  0  0  0  0  0
  150.6137  133.7390  154.3053 H   0  0  0  0  0  0  0  0  0  0  0  0
  149.4661  131.6650  152.9573 H   0  0  0  0  0  0  0  0  0  0  0  0
  148.0413  131.6619  151.6226 H   0  0  0  0  0  0  0  0  0  0  0  0
  145.5664  134.4070  152.4570 H   0  0  0  0  0  0  0  0  0  0  0  0
  143.4991  134.6706  151.1098 H   0  0  0  0  0  0  0  0  0  0  0  0
  143.0472  133.0522  149.2494 H   0  0  0  0  0  0  0  0  0  0  0  0
  146.5396  130.9800  149.9877 H   0  0  0  0  0  0  0  0  0  0  0  0
  149.0962  134.4384  155.8984 H   0  0  0  0  0  0  0  0  0  0  0  0
  148.0927  132.9879  155.7337 H   0  0  0  0  0  0  0  0  0  0  0  0
  1  2  1  0  0  0  0
  1 21  1  0  0  0  0
  1 22  1  0  0  0  0
  1 23  1  0  0  0  0
  2  4  1  0  0  0  0
  2  3  1  0  0  0  0
  2 24  1  0  0  0  0
  3  4  1  0  0  0  0
  3 25  1  0  0  0  0
  3 26  1  0  0  0  0
  4  5  1  0  0  0  0
  4 27  1  0  0  0  0
  5 19  1  0  0  0  0
  5  6  1  0  0  0  0
  6  7  1  0  0  0  0
  6 28  1  0  0  0  0
  6 29  1  0  0  0  0
  7  8  1  0  0  0  0
  7 18  1  0  0  0  0
  7 30  1  0  0  0  0
  8  9  1  0  0  0  0
  8 31  1  0  0  0  0
  9 10  2  0  0  0  0
  9 11  1  0  0  0  0
 11 12  1  0  0  0  0
 11 32  1  0  0  0  0
 12 17  1  0  0  0  0
 12 13  2  0  0  0  0
 13 14  1  0  0  0  0
 13 33  1  0  0  0  0
 14 15  2  0  0  0  0
 14 34  1  0  0  0  0
 15 16  1  0  0  0  0
 15 35  1  0  0  0  0
 16 17  2  0  0  0  0
 17 36  1  0  0  0  0
 18 19  1  0  0  0  0
 18 37  1  0  0  0  0
 18 38  1  0  0  0  0
 19 20  2  0  0  0  0
M  END
> <s_m_source_file>
AV-unprocessed.smi

> <i_m_source_file_index>
3354

> <i_lp_mmshare_version>
43012

> <i_f3d_flags>
0

> <s_epik_input>
W0NIM11bQ0BASF0xW0NIMl1bQ0BIXTFOMltDSDJdW0NASF0oW0NIMl1DMj1PKVtOSF1DKD1PKVtOSF1jM1tjSF1bY0hdW2NIXW5bY0hdMw==

> <s_epik_cmdline>
J2VwaWtfcHl0aG9uJywgJy1waCcsICc3LjAnLCAnLXRuJywgJzgnLCAnLW1hJywgJzIwMCcsICctbWV0YWxfYmluZGluZycsICctaW1hZScsICc8aW5maWxlLm1hZT4nLCAnLW9tYWUnLCAnPG91dGZpbGUubWFlPic=

> <r_epik_Ionization_Penalty>
0.00456191

> <r_epik_Ionization_Penalty_Charging>
0

> <r_epik_Ionization_Penalty_Neutral>
0.00456191

> <r_epik_State_Penalty>
0.00327094

> <r_epik_Charging_Adjusted_Penalty>
0.00327094

> <i_epik_Tot_Q>
0

> <i_epik_Tot_abs_Q>
0

> <r_epik_Metal_State_Penalty>
-0

> <b_epik_Metal_Only>
0

> <s_lp_Force_Field>
OPLS_2005

> <r_lp_Energy>
43.9825

> <b_lp_Chiralities_Consistent>
1

> <s_lp_Variant>
AV-unprocessed.smi:3354-2

> <Gold.Version>
5.8.1

> <Gold.Id.Protein>
6NUR|6NUR_protein|mol2

> <Gold.PLP.Fitness>
39.4092

> <Gold.PLP.PLP>
-28.2862

> <Gold.PLP.part.hbond>
-2.6645

> <Gold.PLP.part.metal>
0.0000

> <Gold.PLP.part.buried>
-5.5794

> <Gold.PLP.part.nonpolar>
-21.3937

> <Gold.PLP.part.repulsive>
0.7647

> <Gold.PLP.ligand.clash>
0.0000

> <Gold.PLP.ligand.torsion>
0.4268

> <Gold.PLP.Chemscore.Hbond>
2.0000

> <Gold.PLP.Chemscore.CHOScore>
1.9239

> <Gold.PLP.Chemscore.Metal>
0.0000

> <Gold.Chemscore.Hbonds>
donor molecule, donor type, donor heavy atom, donor atom, acceptor molecule, acceptor atom, score
      L1  H    11    32       P1 10747  1.00
      P1  H  6896  6909       L1    20  1.00
      L1  C    15    35       P1 10186  1.00
      L1  C    17    36       P1 10747  0.95

> <Gold.PLP.Chemscore.Internal.Correction>
0.2048

> <Gold.Rescore>
     Score         DG    S(hbond)    S(metal)    S(lipo)     H(rot)  DE(clash)    DE(int)     intcor
     13.16     -16.78       2.07        0.00      64.52       1.24       0.07       3.55       ----

> <Gold.Chemscore.Fitness>
13.1608

> <Gold.Chemscore.DG>
-16.7833

> <Gold.Chemscore.ZeroCoef>
-5.4800

> <Gold.Chemscore.Hbond>
2.0715

> <Gold.Chemscore.Metal>
0.0000

> <Gold.Chemscore.Lipo>
64.5205

> <Gold.Chemscore.Internal_Hbond>
0.0000

> <Gold.Chemscore.DEClash>
0.0727

> <Gold.Chemscore.DEInternal>
3.5497

> <Gold.Chemscore.Rot>
1.2361

> <Gold.Chemscore.Internal.Correction>
   9.000000E+99

> <Gold.Chemscore.Hbonds>
donor molecule, donor type, donor heavy atom, donor atom, acceptor molecule, acceptor atom, score
      L1  H    11    32       P1 10747  0.98
      P1  H  6896  6909       L1    20  0.99

> <Gold.Chemscore.Hbond.Weighted>
-6.9187

> <Gold.Chemscore.Metal.Weighted>
-0.0000

> <Gold.Chemscore.Lipo.Weighted>
-7.5489

> <Gold.Chemscore.Internal_Hbond.Weighted>
0.0000

> <Gold.Chemscore.DEClash.Weighted>
0.0727

> <Gold.Chemscore.DEInternal.Weighted>
3.5497

> <Gold.Chemscore.Rot.Weighted>
3.1643

> <Gold.Chemscore.Internal.Correction.Weighted>
   9.000000E+99

> <Gold.Protein.RotatedTorsions>
[ 6907 6896 6895 6894 ] final    0.52 input  -60.11 | X-H torsion
[ 7974 7965 7964 7962 ] final -167.29 input  175.53 | X-H torsion
[ 8008 7997 7996 7995 ] final    9.95 input   59.86 | X-H torsion
[ 10167 10162 10161 10158 ] final   22.76 input  -65.29 | X-H torsion
[ 10718 10713 10712 10709 ] final   33.90 input   66.30 | X-H torsion
[ 10763 10752 10751 10750 ] final -148.98 input  -60.55 | X-H torsion
[ 11005 11000 10999 10996 ] final -168.89 input  -57.11 | X-H torsion

> <Gold.Protein.ActiveResidues>
 VAL166  LYS551  ARG553  GLY616  TRP617  ASP618  TYR619  PRO620  LYS621  CYS622 
 ASP623  PHE694  ASN695  SER759  ASP760  ASP761  ALA762  ILE779  LEU786  VAL792 
 PHE793  MET794  SER795  GLU796  ALA797  LYS798  CYS799  TRP800  GLU811  SER814 

> <Gold.Protein.RotatedAtoms>
  151.5778  135.1060  160.0009 H   0  0  0  0  0  0  0  0  0  0  0  0  # atno 6907 bound_to 6896
  152.4369  133.7373  159.6632 H   0  0  0  0  0  0  0  0  0  0  0  0  # atno 6908 bound_to 6896
  150.8268  133.8088  159.3138 H   0  0  0  0  0  0  0  0  0  0  0  0  # atno 6909 bound_to 6896
  144.7226  140.2540  143.6274 H   0  0  0  0  0  0  0  0  0  0  0  0  # atno 7974 bound_to 7965
  154.7868  140.2828  155.6022 H   0  0  0  0  0  0  0  0  0  0  0  0  # atno 8008 bound_to 7997
  156.2958  140.2612  156.2635 H   0  0  0  0  0  0  0  0  0  0  0  0  # atno 8009 bound_to 7997
  154.9718  140.0376  157.2227 H   0  0  0  0  0  0  0  0  0  0  0  0  # atno 8010 bound_to 7997
  140.5323  143.9820  150.6472 H   0  0  0  0  0  0  0  0  0  0  0  0  # atno 10167 bound_to 10162
  157.3037  130.7363  149.6682 H   0  0  0  0  0  0  0  0  0  0  0  0  # atno 10718 bound_to 10713
  154.8203  135.3321  154.7058 H   0  0  0  0  0  0  0  0  0  0  0  0  # atno 10763 bound_to 10752
  153.7692  135.6927  153.4914 H   0  0  0  0  0  0  0  0  0  0  0  0  # atno 10764 bound_to 10752
  153.2057  135.4500  155.0268 H   0  0  0  0  0  0  0  0  0  0  0  0  # atno 10765 bound_to 10752
  140.5369  134.5561  157.5089 H   0  0  0  0  0  0  0  0  0  0  0  0  # atno 11005 bound_to 11000
  145.8200  139.2040  143.1943 LP  0  0  0  0  0  0  0  0  0  0  0  0  # atno 17320 bound_to 7965
  146.0522  140.8058  142.9776 LP  0  0  0  0  0  0  0  0  0  0  0  0  # atno 17321 bound_to 7965
  140.3198  143.3144  152.0795 LP  0  0  0  0  0  0  0  0  0  0  0  0  # atno 17342 bound_to 10162
  139.4958  144.6581  151.6527 LP  0  0  0  0  0  0  0  0  0  0  0  0  # atno 17343 bound_to 10162
  155.9673  130.4272  150.4734 LP  0  0  0  0  0  0  0  0  0  0  0  0  # atno 17370 bound_to 10713
  157.2720  131.0589  151.2254 LP  0  0  0  0  0  0  0  0  0  0  0  0  # atno 17371 bound_to 10713
  139.9525  134.7593  156.0417 LP  0  0  0  0  0  0  0  0  0  0  0  0  # atno 17394 bound_to 11000
  141.1250  133.6602  156.3312 LP  0  0  0  0  0  0  0  0  0  0  0  0  # atno 17395 bound_to 11000

$$$$
