AV-unprocessed.smi:949|AV-procd|sdf|4247|dock1
  -GOLD-   22720 2153D 1   1.00000     0.00000
 Structure written by MMmdl.
 32 33  0  0  0  0  0  0  0  0  1 V2000
  151.5841  139.4523  158.6324 C   0  0  0  0  0  0  0  0  0  0  0  0
  151.4863  140.7567  157.8205 C   0  0  1  0  0  0  0  0  0  0  0  0
  152.4653  141.7287  158.2955 N   0  0  0  0  0  0  0  0  0  0  0  0
  152.1076  142.9702  158.8508 C   0  0  0  0  0  0  0  0  0  0  0  0
  152.5158  143.3786  160.1431 C   0  0  0  0  0  0  0  0  0  0  0  0
  152.1088  144.6401  160.6196 C   0  0  0  0  0  0  0  0  0  0  0  0
  151.3427  145.4919  159.9084 N   0  0  0  0  0  0  0  0  0  0  0  0
  150.9519  145.1038  158.6772 C   0  0  0  0  0  0  0  0  0  0  0  0
  151.3015  143.8636  158.1025 C   0  0  0  0  0  0  0  0  0  0  0  0
  150.8479  143.5489  156.8191 N   0  0  0  0  0  0  0  0  0  0  0  0
  151.6896  140.4893  156.3162 C   0  0  2  0  0  0  0  0  0  0  0  0
  150.5274  139.7542  155.6425 C   0  0  0  0  0  0  0  0  0  0  0  0
  151.2177  139.0817  154.4790 C   0  0  0  0  0  0  0  0  0  0  0  0
  152.5386  138.6623  155.1129 C   0  0  0  0  0  0  0  0  0  0  0  0
  152.8206  139.6437  156.1067 O   0  0  0  0  0  0  0  0  0  0  0  0
  150.8336  138.7301  158.3104 H   0  0  0  0  0  0  0  0  0  0  0  0
  151.4275  139.6259  159.6969 H   0  0  0  0  0  0  0  0  0  0  0  0
  152.5629  138.9858  158.5154 H   0  0  0  0  0  0  0  0  0  0  0  0
  150.4874  141.1756  157.9417 H   0  0  0  0  0  0  0  0  0  0  0  0
  153.4442  141.4972  158.2115 H   0  0  0  0  0  0  0  0  0  0  0  0
  153.1310  142.7567  160.7745 H   0  0  0  0  0  0  0  0  0  0  0  0
  152.4081  144.9736  161.6022 H   0  0  0  0  0  0  0  0  0  0  0  0
  150.3387  145.8076  158.1334 H   0  0  0  0  0  0  0  0  0  0  0  0
  151.0843  142.6681  156.3854 H   0  0  0  0  0  0  0  0  0  0  0  0
  150.1257  144.0951  156.3724 H   0  0  0  0  0  0  0  0  0  0  0  0
  151.8753  141.4248  155.7858 H   0  0  0  0  0  0  0  0  0  0  0  0
  150.1071  139.0012  156.3110 H   0  0  0  0  0  0  0  0  0  0  0  0
  149.7232  140.4223  155.3330 H   0  0  0  0  0  0  0  0  0  0  0  0
  150.6547  138.2427  154.0694 H   0  0  0  0  0  0  0  0  0  0  0  0
  151.3936  139.8020  153.6789 H   0  0  0  0  0  0  0  0  0  0  0  0
  152.4332  137.6943  155.6045 H   0  0  0  0  0  0  0  0  0  0  0  0
  153.3464  138.5869  154.3846 H   0  0  0  0  0  0  0  0  0  0  0  0
  1  2  1  0  0  0  0
  1 16  1  0  0  0  0
  1 17  1  0  0  0  0
  1 18  1  0  0  0  0
  2  3  1  0  0  0  0
  2 11  1  0  0  0  0
  2 19  1  0  0  0  0
  3  4  1  0  0  0  0
  3 20  1  0  0  0  0
  4  9  1  0  0  0  0
  4  5  2  0  0  0  0
  5  6  1  0  0  0  0
  5 21  1  0  0  0  0
  6  7  2  0  0  0  0
  6 22  1  0  0  0  0
  7  8  1  0  0  0  0
  8  9  2  0  0  0  0
  8 23  1  0  0  0  0
  9 10  1  0  0  0  0
 10 24  1  0  0  0  0
 10 25  1  0  0  0  0
 11 15  1  0  0  0  0
 11 12  1  0  0  0  0
 11 26  1  0  0  0  0
 12 13  1  0  0  0  0
 12 27  1  0  0  0  0
 12 28  1  0  0  0  0
 13 14  1  0  0  0  0
 13 29  1  0  0  0  0
 13 30  1  0  0  0  0
 14 15  1  0  0  0  0
 14 31  1  0  0  0  0
 14 32  1  0  0  0  0
M  END
> <s_m_source_file>
AV-unprocessed.smi

> <i_m_source_file_index>
949

> <i_lp_mmshare_version>
43012

> <i_f3d_flags>
0

> <s_epik_input>
TzFbQ0gyXVtDSDJdW0NIMl1bQ0BIXTFbQ0BIXShbQ0gzXSlbTkhdYzJbY0hdW2NIXW5bY0hdYzJbTkgyXQ==

> <s_epik_cmdline>
J2VwaWtfcHl0aG9uJywgJy1waCcsICc3LjAnLCAnLXRuJywgJzgnLCAnLW1hJywgJzIwMCcsICctbWV0YWxfYmluZGluZycsICctaW1hZScsICc8aW5maWxlLm1hZT4nLCAnLW9tYWUnLCAnPG91dGZpbGUubWFlPic=

> <r_epik_Ionization_Penalty>
3.88091

> <r_epik_Ionization_Penalty_Charging>
0

> <r_epik_Ionization_Penalty_Neutral>
3.88091

> <r_epik_State_Penalty>
3.88049

> <r_epik_Charging_Adjusted_Penalty>
3.88049

> <i_epik_Tot_Q>
0

> <i_epik_Tot_abs_Q>
0

> <r_epik_Metal_State_Penalty>
0.313783

> <b_epik_Metal_Only>
1

> <s_lp_Force_Field>
OPLS_2005

> <r_lp_Energy>
23.3849

> <b_lp_Chiralities_Consistent>
1

> <s_lp_Variant>
AV-unprocessed.smi:949-6

> <Gold.Version>
5.8.1

> <Gold.Id.Protein>
6NUR|6NUR_protein|mol2

> <Gold.PLP.Fitness>
41.2108

> <Gold.PLP.PLP>
-33.6150

> <Gold.PLP.part.hbond>
-2.0000

> <Gold.PLP.part.metal>
0.0000

> <Gold.PLP.part.buried>
-3.8951

> <Gold.PLP.part.nonpolar>
-27.3941

> <Gold.PLP.part.repulsive>
0.2878

> <Gold.PLP.ligand.clash>
0.0000

> <Gold.PLP.ligand.torsion>
0.7100

> <Gold.PLP.Chemscore.Hbond>
2.0000

> <Gold.PLP.Chemscore.CHOScore>
1.0000

> <Gold.PLP.Chemscore.Metal>
0.0000

> <Gold.Chemscore.Hbonds>
donor molecule, donor type, donor heavy atom, donor atom, acceptor molecule, acceptor atom, score
      L1  H    10    25       P1  8028  1.00
      P1  H  7997  8009       L1    15  1.00
      L1  C     8    23       P1  8029  0.92

> <Gold.PLP.Chemscore.Internal.Correction>
0.0158

> <Gold.Rescore>
     Score         DG    S(hbond)    S(metal)    S(lipo)     H(rot)  DE(clash)    DE(int)     intcor
     19.64     -20.47       1.98        0.00      98.34       1.22       0.11       0.71       ----

> <Gold.Chemscore.Fitness>
19.6426

> <Gold.Chemscore.DG>
-20.4718

> <Gold.Chemscore.ZeroCoef>
-5.4800

> <Gold.Chemscore.Hbond>
1.9764

> <Gold.Chemscore.Metal>
0.0000

> <Gold.Chemscore.Lipo>
98.3418

> <Gold.Chemscore.Internal_Hbond>
0.0000

> <Gold.Chemscore.DEClash>
0.1143

> <Gold.Chemscore.DEInternal>
0.7149

> <Gold.Chemscore.Rot>
1.2169

> <Gold.Chemscore.Internal.Correction>
   9.000000E+99

> <Gold.Chemscore.Hbonds>
donor molecule, donor type, donor heavy atom, donor atom, acceptor molecule, acceptor atom, score
      L1  H    10    25       P1  8028  0.94
      P1  H  7997  8009       L1    15  0.93

> <Gold.Chemscore.Hbond.Weighted>
-6.6010

> <Gold.Chemscore.Metal.Weighted>
-0.0000

> <Gold.Chemscore.Lipo.Weighted>
-11.5060

> <Gold.Chemscore.Internal_Hbond.Weighted>
0.0000

> <Gold.Chemscore.DEClash.Weighted>
0.1143

> <Gold.Chemscore.DEInternal.Weighted>
0.7149

> <Gold.Chemscore.Rot.Weighted>
3.1152

> <Gold.Chemscore.Internal.Correction.Weighted>
   9.000000E+99

> <Gold.Protein.RotatedTorsions>
[ 6907 6896 6895 6894 ] final -174.91 input  -60.11 | X-H torsion
[ 7974 7965 7964 7962 ] final   26.77 input  175.53 | X-H torsion
[ 8008 7997 7996 7995 ] final -157.05 input   59.86 | X-H torsion
[ 10167 10162 10161 10158 ] final -163.94 input  -65.29 | X-H torsion
[ 10718 10713 10712 10709 ] final  -19.75 input   66.30 | X-H torsion
[ 10763 10752 10751 10750 ] final  114.01 input  -60.55 | X-H torsion
[ 11005 11000 10999 10996 ] final -149.43 input  -57.11 | X-H torsion

> <Gold.Protein.ActiveResidues>
 VAL166  LYS551  ARG553  GLY616  TRP617  ASP618  TYR619  PRO620  LYS621  CYS622 
 ASP623  PHE694  ASN695  SER759  ASP760  ASP761  ALA762  ILE779  LEU786  VAL792 
 PHE793  MET794  SER795  GLU796  ALA797  LYS798  CYS799  TRP800  GLU811  SER814 

> <Gold.Protein.RotatedAtoms>
  151.5801  133.3379  159.3006 H   0  0  0  0  0  0  0  0  0  0  0  0  # atno 6907 bound_to 6896
  150.8318  134.7578  159.6871 H   0  0  0  0  0  0  0  0  0  0  0  0  # atno 6908 bound_to 6896
  152.4401  134.5615  159.9947 H   0  0  0  0  0  0  0  0  0  0  0  0  # atno 6909 bound_to 6896
  146.1820  139.7283  142.8893 H   0  0  0  0  0  0  0  0  0  0  0  0  # atno 7974 bound_to 7965
  155.7265  140.0796  157.2308 H   0  0  0  0  0  0  0  0  0  0  0  0  # atno 8008 bound_to 7997
  154.4038  140.1603  156.2515 H   0  0  0  0  0  0  0  0  0  0  0  0  # atno 8009 bound_to 7997
  155.9149  140.3401  155.6130 H   0  0  0  0  0  0  0  0  0  0  0  0  # atno 8010 bound_to 7997
  139.6285  144.0485  152.1996 H   0  0  0  0  0  0  0  0  0  0  0  0  # atno 10167 bound_to 10162
  156.5413  130.4679  149.6497 H   0  0  0  0  0  0  0  0  0  0  0  0  # atno 10718 bound_to 10713
  153.5010  135.3638  155.2540 H   0  0  0  0  0  0  0  0  0  0  0  0  # atno 10763 bound_to 10752
  154.8747  135.4000  154.3478 H   0  0  0  0  0  0  0  0  0  0  0  0  # atno 10764 bound_to 10752
  153.4114  135.7078  153.6422 H   0  0  0  0  0  0  0  0  0  0  0  0  # atno 10765 bound_to 10752
  140.7508  134.3409  157.5126 H   0  0  0  0  0  0  0  0  0  0  0  0  # atno 11005 bound_to 11000
  145.4048  141.0389  143.3050 LP  0  0  0  0  0  0  0  0  0  0  0  0  # atno 17320 bound_to 7965
  144.8331  139.5594  143.6934 LP  0  0  0  0  0  0  0  0  0  0  0  0  # atno 17321 bound_to 7965
  140.0145  144.6199  150.7619 LP  0  0  0  0  0  0  0  0  0  0  0  0  # atno 17342 bound_to 10162
  140.7425  143.2833  151.3535 LP  0  0  0  0  0  0  0  0  0  0  0  0  # atno 17343 bound_to 10162
  156.2969  130.7155  151.2017 LP  0  0  0  0  0  0  0  0  0  0  0  0  # atno 17370 bound_to 10713
  157.7405  131.0516  150.5164 LP  0  0  0  0  0  0  0  0  0  0  0  0  # atno 17371 bound_to 10713
  139.8788  134.9140  156.3098 LP  0  0  0  0  0  0  0  0  0  0  0  0  # atno 17394 bound_to 11000
  140.9753  133.7302  156.0593 LP  0  0  0  0  0  0  0  0  0  0  0  0  # atno 17395 bound_to 11000

$$$$
