AV-unprocessed.smi:3257|AV-procd|sdf|12467|dock10
  -GOLD-   2272018363D 1   1.00000     0.00000
 Structure written by MMmdl.
 38 39  0  0  0  0  0  0  0  0  1 V2000
  151.0798  143.9593  160.0964 C   0  0  0  0  0  0  0  0  0  0  0  0
  151.9824  142.9492  160.6061 N   0  0  0  0  0  0  0  0  0  0  0  0
  152.8770  142.1657  159.9098 C   0  0  0  0  0  0  0  0  0  0  0  0
  153.5080  141.3597  160.8152 C   0  0  0  0  0  0  0  0  0  0  0  0
  154.5725  140.3268  160.5733 C   0  0  0  0  0  0  0  0  0  0  0  0
  153.9656  138.9310  160.3575 C   0  0  0  0  0  0  0  0  0  0  0  0
  153.0431  138.9166  159.2286 N   0  0  0  0  0  0  0  0  0  0  0  0
  152.2176  137.9048  158.9106 C   0  0  0  0  0  0  0  0  0  0  0  0
  152.1683  136.8691  159.5756 O   0  0  0  0  0  0  0  0  0  0  0  0
  151.4424  138.1250  157.8178 N   0  0  0  0  0  0  0  0  0  0  0  0
  151.4221  139.3465  156.9924 C   0  0  0  0  0  0  0  0  0  0  0  0
  152.1075  139.0486  155.6462 C   0  0  0  0  0  0  0  0  0  0  0  0
  151.4200  137.8657  154.9357 C   0  0  0  0  0  0  0  0  0  0  0  0
  152.1538  137.5051  153.7847 O   0  0  0  0  0  0  0  0  0  0  0  0
  151.2807  136.6479  155.8707 C   0  0  0  0  0  0  0  0  0  0  0  0
  150.6370  137.0576  157.2085 C   0  0  0  0  0  0  0  0  0  0  0  0
  152.9155  141.7302  162.0562 C   0  0  0  0  0  0  0  0  0  0  0  0
  152.0035  142.6804  161.9278 N   0  0  0  0  0  0  0  0  0  0  0  0
  151.3339  144.1995  159.0636 H   0  0  0  0  0  0  0  0  0  0  0  0
  151.1560  144.8655  160.6987 H   0  0  0  0  0  0  0  0  0  0  0  0
  150.0555  143.5883  160.1335 H   0  0  0  0  0  0  0  0  0  0  0  0
  152.9919  142.2463  158.8388 H   0  0  0  0  0  0  0  0  0  0  0  0
  155.1752  140.5993  159.7061 H   0  0  0  0  0  0  0  0  0  0  0  0
  155.2651  140.2919  161.4151 H   0  0  0  0  0  0  0  0  0  0  0  0
  154.7562  138.2092  160.1505 H   0  0  0  0  0  0  0  0  0  0  0  0
  153.4603  138.5874  161.2622 H   0  0  0  0  0  0  0  0  0  0  0  0
  153.0291  139.7380  158.6420 H   0  0  0  0  0  0  0  0  0  0  0  0
  150.3864  139.6439  156.8228 H   0  0  0  0  0  0  0  0  0  0  0  0
  151.8934  140.2090  157.4630 H   0  0  0  0  0  0  0  0  0  0  0  0
  152.0843  139.9342  155.0102 H   0  0  0  0  0  0  0  0  0  0  0  0
  153.1597  138.8183  155.8213 H   0  0  0  0  0  0  0  0  0  0  0  0
  150.4255  138.1773  154.6138 H   0  0  0  0  0  0  0  0  0  0  0  0
  151.5536  137.1621  153.1401 H   0  0  0  0  0  0  0  0  0  0  0  0
  150.6844  135.8714  155.3906 H   0  0  0  0  0  0  0  0  0  0  0  0
  152.2623  136.2116  156.0630 H   0  0  0  0  0  0  0  0  0  0  0  0
  150.5346  136.1840  157.8536 H   0  0  0  0  0  0  0  0  0  0  0  0
  149.6218  137.4202  157.0412 H   0  0  0  0  0  0  0  0  0  0  0  0
  153.1208  141.3381  163.0413 H   0  0  0  0  0  0  0  0  0  0  0  0
  1  2  1  0  0  0  0
  1 19  1  0  0  0  0
  1 20  1  0  0  0  0
  1 21  1  0  0  0  0
  2 18  1  0  0  0  0
  2  3  1  0  0  0  0
  3  4  2  0  0  0  0
  3 22  1  0  0  0  0
  4  5  1  0  0  0  0
  4 17  1  0  0  0  0
  5  6  1  0  0  0  0
  5 23  1  0  0  0  0
  5 24  1  0  0  0  0
  6  7  1  0  0  0  0
  6 25  1  0  0  0  0
  6 26  1  0  0  0  0
  7  8  1  0  0  0  0
  7 27  1  0  0  0  0
  8  9  2  0  0  0  0
  8 10  1  0  0  0  0
 10 16  1  0  0  0  0
 10 11  1  0  0  0  0
 11 12  1  0  0  0  0
 11 28  1  0  0  0  0
 11 29  1  0  0  0  0
 12 13  1  0  0  0  0
 12 30  1  0  0  0  0
 12 31  1  0  0  0  0
 13 14  1  0  0  0  0
 13 15  1  0  0  0  0
 13 32  1  0  0  0  0
 14 33  1  0  0  0  0
 15 16  1  0  0  0  0
 15 34  1  0  0  0  0
 15 35  1  0  0  0  0
 16 36  1  0  0  0  0
 16 37  1  0  0  0  0
 17 18  2  0  0  0  0
 17 38  1  0  0  0  0
M  END
> <s_m_source_file>
AV-unprocessed.smi

> <i_m_source_file_index>
3257

> <i_lp_mmshare_version>
43012

> <i_f3d_flags>
0

> <s_epik_input>
W0NIM11uMVtjSF1jKFtjSF1uMSlbQ0gyXVtDSDJdW05IXUMoPU8pTjJbQ0gyXVtDSDJdW0NIXShbT0hdKVtDSDJdW0NIMl0y

> <s_epik_cmdline>
J2VwaWtfcHl0aG9uJywgJy1waCcsICc3LjAnLCAnLXRuJywgJzgnLCAnLW1hJywgJzIwMCcsICctbWV0YWxfYmluZGluZycsICctaW1hZScsICc8aW5maWxlLm1hZT4nLCAnLW9tYWUnLCAnPG91dGZpbGUubWFlPic=

> <r_lp_tautomer_probability>
1

> <r_epik_Ionization_Penalty>
0.000563034

> <r_epik_Ionization_Penalty_Charging>
0

> <r_epik_Ionization_Penalty_Neutral>
0.000563034

> <r_epik_State_Penalty>
-0

> <r_epik_Charging_Adjusted_Penalty>
0

> <i_epik_Tot_Q>
0

> <i_epik_Tot_abs_Q>
0

> <r_epik_Metal_State_Penalty>
-0

> <b_epik_Metal_Only>
0

> <s_lp_Force_Field>
OPLS_2005

> <r_lp_Energy>
25.1646

> <b_lp_Chiralities_Consistent>
1

> <s_lp_Variant>
AV-unprocessed.smi:3257-1

> <Gold.Version>
5.8.1

> <Gold.Id.Protein>
6NUR|6NUR_protein|mol2

> <Gold.PLP.Fitness>
47.2079

> <Gold.PLP.PLP>
-39.2972

> <Gold.PLP.part.hbond>
-2.9205

> <Gold.PLP.part.metal>
0.0000

> <Gold.PLP.part.buried>
-6.7290

> <Gold.PLP.part.nonpolar>
-30.6745

> <Gold.PLP.part.repulsive>
0.1893

> <Gold.PLP.ligand.clash>
0.0000

> <Gold.PLP.ligand.torsion>
0.4404

> <Gold.PLP.Chemscore.Hbond>
2.9183

> <Gold.PLP.Chemscore.CHOScore>
0.0000

> <Gold.PLP.Chemscore.Metal>
0.0000

> <Gold.Chemscore.Hbonds>
donor molecule, donor type, donor heavy atom, donor atom, acceptor molecule, acceptor atom, score
      L1  H    14    33       P1  7949  0.93
      P1  H  6896  6909       L1     9  1.00
      P1  H  6933  6945       L1    18  0.53
      P1  H 10752 10765       L1    14  0.59

> <Gold.PLP.Chemscore.Internal.Correction>
0.0367

> <Gold.Rescore>
     Score         DG    S(hbond)    S(metal)    S(lipo)     H(rot)  DE(clash)    DE(int)     intcor
     19.22     -19.53       2.69        0.00      85.96       1.95       0.00       0.31       ----

> <Gold.Chemscore.Fitness>
19.2164

> <Gold.Chemscore.DG>
-19.5250

> <Gold.Chemscore.ZeroCoef>
-5.4800

> <Gold.Chemscore.Hbond>
2.6850

> <Gold.Chemscore.Metal>
0.0000

> <Gold.Chemscore.Lipo>
85.9593

> <Gold.Chemscore.Internal_Hbond>
0.0000

> <Gold.Chemscore.DEClash>
0.0000

> <Gold.Chemscore.DEInternal>
0.3086

> <Gold.Chemscore.Rot>
1.9454

> <Gold.Chemscore.Internal.Correction>
   9.000000E+99

> <Gold.Chemscore.Hbonds>
donor molecule, donor type, donor heavy atom, donor atom, acceptor molecule, acceptor atom, score
      L1  H    14    33       P1  7949  0.78
      P1  H  6896  6909       L1     9  0.98
      P1  H  6933  6945       L1    18  0.12
      P1  H 10752 10765       L1    14  0.03

> <Gold.Chemscore.Hbond.Weighted>
-8.9680

> <Gold.Chemscore.Metal.Weighted>
-0.0000

> <Gold.Chemscore.Lipo.Weighted>
-10.0572

> <Gold.Chemscore.Internal_Hbond.Weighted>
0.0000

> <Gold.Chemscore.DEClash.Weighted>
0.0000

> <Gold.Chemscore.DEInternal.Weighted>
0.3086

> <Gold.Chemscore.Rot.Weighted>
4.9802

> <Gold.Chemscore.Internal.Correction.Weighted>
   9.000000E+99

> <Gold.Protein.RotatedTorsions>
[ 6907 6896 6895 6894 ] final  118.51 input  -60.11 | X-H torsion
[ 7974 7965 7964 7962 ] final    8.41 input  175.53 | X-H torsion
[ 8008 7997 7996 7995 ] final  169.61 input   59.86 | X-H torsion
[ 10167 10162 10161 10158 ] final  128.60 input  -65.29 | X-H torsion
[ 10718 10713 10712 10709 ] final   87.66 input   66.30 | X-H torsion
[ 10763 10752 10751 10750 ] final  152.63 input  -60.55 | X-H torsion
[ 11005 11000 10999 10996 ] final  -96.37 input  -57.11 | X-H torsion

> <Gold.Protein.ActiveResidues>
 VAL166  LYS551  ARG553  GLY616  TRP617  ASP618  TYR619  PRO620  LYS621  CYS622 
 ASP623  PHE694  ASN695  SER759  ASP760  ASP761  ALA762  ILE779  LEU786  VAL792 
 PHE793  MET794  SER795  GLU796  ALA797  LYS798  CYS799  TRP800  GLU811  SER814 

> <Gold.Protein.RotatedAtoms>
  152.4538  133.7682  159.6783 H   0  0  0  0  0  0  0  0  0  0  0  0  # atno 6907 bound_to 6896
  150.8458  133.7854  159.3050 H   0  0  0  0  0  0  0  0  0  0  0  0  # atno 6908 bound_to 6896
  151.5465  135.1071  159.9991 H   0  0  0  0  0  0  0  0  0  0  0  0  # atno 6909 bound_to 6896
  146.2416  139.9938  142.8423 H   0  0  0  0  0  0  0  0  0  0  0  0  # atno 7974 bound_to 7965
  156.1441  140.1559  156.8874 H   0  0  0  0  0  0  0  0  0  0  0  0  # atno 8008 bound_to 7997
  154.5013  140.0824  156.7841 H   0  0  0  0  0  0  0  0  0  0  0  0  # atno 8009 bound_to 7997
  155.4022  140.3415  155.4260 H   0  0  0  0  0  0  0  0  0  0  0  0  # atno 8010 bound_to 7997
  139.5519  144.6819  151.4298 H   0  0  0  0  0  0  0  0  0  0  0  0  # atno 10167 bound_to 10162
  157.6942  131.0264  150.3157 H   0  0  0  0  0  0  0  0  0  0  0  0  # atno 10718 bound_to 10713
  154.1232  135.2831  155.3203 H   0  0  0  0  0  0  0  0  0  0  0  0  # atno 10763 bound_to 10752
  154.6409  135.5403  153.7791 H   0  0  0  0  0  0  0  0  0  0  0  0  # atno 10764 bound_to 10752
  153.0306  135.6486  154.1385 H   0  0  0  0  0  0  0  0  0  0  0  0  # atno 10765 bound_to 10752
  141.1413  133.8093  157.0562 H   0  0  0  0  0  0  0  0  0  0  0  0  # atno 11005 bound_to 11000
  145.1479  140.9607  143.4450 LP  0  0  0  0  0  0  0  0  0  0  0  0  # atno 17320 bound_to 7965
  145.0233  139.3404  143.6061 LP  0  0  0  0  0  0  0  0  0  0  0  0  # atno 17321 bound_to 7965
  140.6783  143.8139  150.7088 LP  0  0  0  0  0  0  0  0  0  0  0  0  # atno 17342 bound_to 10162
  140.1584  143.4296  152.2083 LP  0  0  0  0  0  0  0  0  0  0  0  0  # atno 17343 bound_to 10162
  156.3652  130.3854  149.7219 LP  0  0  0  0  0  0  0  0  0  0  0  0  # atno 17370 bound_to 10713
  156.4652  130.7971  151.2990 LP  0  0  0  0  0  0  0  0  0  0  0  0  # atno 17371 bound_to 10713
  140.0600  134.9760  157.1288 LP  0  0  0  0  0  0  0  0  0  0  0  0  # atno 17394 bound_to 11000
  140.3862  134.2233  155.7168 LP  0  0  0  0  0  0  0  0  0  0  0  0  # atno 17395 bound_to 11000

$$$$
