AV-unprocessed.smi:3|AV-procd|sdf|32|dock4
  -GOLD-   2262015143D 1   1.00000     0.00000
 Structure written by MMmdl.
 33 35  0  0  0  0  0  0  0  0  1 V2000
  154.3218  141.3989  161.0164 C   0  0  0  0  0  0  0  0  0  0  0  0
  153.3057  141.5297  159.9823 N   0  0  0  0  0  0  0  0  0  0  0  0
  153.2657  142.7484  159.1784 C   0  0  0  0  0  0  0  0  0  0  0  0
  151.9147  143.4545  159.2730 C   0  0  1  0  0  0  0  0  0  0  0  0
  151.5787  144.3063  160.5067 C   0  0  0  0  0  0  0  0  0  0  0  0
  150.8978  145.3287  159.5926 C   0  0  2  0  0  0  0  0  0  0  0  0
  149.4885  145.2938  159.5291 O   0  0  0  0  0  0  0  0  0  0  0  0
  151.6619  144.7054  158.4203 C   0  0  0  0  0  0  0  0  0  0  0  0
  152.6584  140.3847  159.4721 C   0  0  0  0  0  0  0  0  0  0  0  0
  151.7342  140.5816  158.4982 N   0  0  0  0  0  0  0  0  0  0  0  0
  151.1021  139.4924  157.9937 C   0  0  0  0  0  0  0  0  0  0  0  0
  151.2790  138.1936  158.3368 N   0  0  0  0  0  0  0  0  0  0  0  0
  152.2129  137.9684  159.3074 C   0  0  0  0  0  0  0  0  0  0  0  0
  152.5939  136.7992  159.8113 N   0  0  0  0  0  0  0  0  0  0  0  0
  153.5493  137.0725  160.7146 C   0  0  0  0  0  0  0  0  0  0  0  0
  153.8367  138.4856  160.8342 C   0  0  0  0  0  0  0  0  0  0  0  0
  152.9180  139.0490  159.8940 C   0  0  0  0  0  0  0  0  0  0  0  0
  151.0938  142.7570  159.0962 H   0  0  0  0  0  0  0  0  0  0  0  0
  151.2216  146.3495  159.7976 H   0  0  0  0  0  0  0  0  0  0  0  0
  154.1179  140.5497  161.6692 H   0  0  0  0  0  0  0  0  0  0  0  0
  154.3387  142.2943  161.6384 H   0  0  0  0  0  0  0  0  0  0  0  0
  155.3110  141.2804  160.5748 H   0  0  0  0  0  0  0  0  0  0  0  0
  154.0727  143.4252  159.4599 H   0  0  0  0  0  0  0  0  0  0  0  0
  153.4656  142.4762  158.1417 H   0  0  0  0  0  0  0  0  0  0  0  0
  150.9176  143.8126  161.2200 H   0  0  0  0  0  0  0  0  0  0  0  0
  152.4638  144.7110  161.0002 H   0  0  0  0  0  0  0  0  0  0  0  0
  149.2446  145.5506  158.6530 H   0  0  0  0  0  0  0  0  0  0  0  0
  152.5762  145.2508  158.1816 H   0  0  0  0  0  0  0  0  0  0  0  0
  151.0629  144.5233  157.5274 H   0  0  0  0  0  0  0  0  0  0  0  0
  150.3701  139.6844  157.2233 H   0  0  0  0  0  0  0  0  0  0  0  0
  154.0364  136.2820  161.2720 H   0  0  0  0  0  0  0  0  0  0  0  0
  154.5643  138.9688  161.4725 H   0  0  0  0  0  0  0  0  0  0  0  0
  150.7389  137.4782  157.8715 H   0  0  0  0  0  0  0  0  0  0  0  0
  1  2  1  0  0  0  0
  1 20  1  0  0  0  0
  1 21  1  0  0  0  0
  1 22  1  0  0  0  0
  2  3  1  0  0  0  0
  2  9  1  0  0  0  0
  3  4  1  0  0  0  0
  3 23  1  0  0  0  0
  3 24  1  0  0  0  0
  4 18  1  0  0  0  0
  4  8  1  0  0  0  0
  4  5  1  0  0  0  0
  5  6  1  0  0  0  0
  5 25  1  0  0  0  0
  5 26  1  0  0  0  0
  6 19  1  0  0  0  0
  6  7  1  0  0  0  0
  6  8  1  0  0  0  0
  7 27  1  0  0  0  0
  8 28  1  0  0  0  0
  8 29  1  0  0  0  0
  9 17  2  0  0  0  0
  9 10  1  0  0  0  0
 10 11  2  0  0  0  0
 11 12  1  0  0  0  0
 11 30  1  0  0  0  0
 12 13  1  0  0  0  0
 12 33  1  0  0  0  0
 13 17  1  0  0  0  0
 13 14  2  0  0  0  0
 14 15  1  0  0  0  0
 15 16  2  0  0  0  0
 15 31  1  0  0  0  0
 16 17  1  0  0  0  0
 16 32  1  0  0  0  0
M  END
> <s_m_source_file>
AV-unprocessed.smi

> <i_m_source_file_index>
3

> <i_lp_mmshare_version>
43012

> <i_f3d_flags>
0

> <s_epik_input>
W25IXTFbY0hdW2NIXWMoYzEyKWMobltjSF1uMilOKFtDSDNdKVtDSDJdW0NASF0zW0NIMl1bQ0BASF0oW09IXSlbQ0gyXTM=

> <s_epik_cmdline>
J2VwaWtfcHl0aG9uJywgJy1waCcsICc3LjAnLCAnLXRuJywgJzgnLCAnLW1hJywgJzIwMCcsICctbWV0YWxfYmluZGluZycsICctaW1hZScsICc8aW5maWxlLm1hZT4nLCAnLW9tYWUnLCAnPG91dGZpbGUubWFlPic=

> <r_lp_tautomer_probability>
1.75997e-05

> <r_epik_Ionization_Penalty>
5.52529

> <r_epik_Ionization_Penalty_Charging>
0

> <r_epik_Ionization_Penalty_Neutral>
5.52529

> <r_epik_State_Penalty>
8.99615

> <r_epik_Charging_Adjusted_Penalty>
8.99615

> <i_epik_Tot_Q>
0

> <i_epik_Tot_abs_Q>
0

> <r_epik_Metal_State_Penalty>
6.01519

> <b_epik_Metal_Only>
1

> <s_lp_Force_Field>
OPLS_2005

> <r_lp_Energy>
26.4435

> <b_lp_Chiralities_Consistent>
1

> <s_lp_Variant>
AV-unprocessed.smi:3-6

> <Gold.Version>
5.8.1

> <Gold.Id.Protein>
6NUR|6NUR_protein|mol2

> <Gold.PLP.Fitness>
43.8819

> <Gold.PLP.PLP>
-38.2692

> <Gold.PLP.part.hbond>
-2.7607

> <Gold.PLP.part.metal>
0.0000

> <Gold.PLP.part.buried>
-4.6738

> <Gold.PLP.part.nonpolar>
-31.4037

> <Gold.PLP.part.repulsive>
0.0635

> <Gold.PLP.ligand.clash>
1.3557

> <Gold.PLP.ligand.torsion>
0.2817

> <Gold.PLP.Chemscore.Hbond>
2.0000

> <Gold.PLP.Chemscore.CHOScore>
0.0000

> <Gold.PLP.Chemscore.Metal>
0.0000

> <Gold.Chemscore.Hbonds>
donor molecule, donor type, donor heavy atom, donor atom, acceptor molecule, acceptor atom, score
      L1  H     7    27       P1  8029  1.00
      P1  H  6896  6909       L1    14  1.00

> <Gold.PLP.Chemscore.Internal.Correction>
1.5319

> <Gold.Rescore>
     Score         DG    S(hbond)    S(metal)    S(lipo)     H(rot)  DE(clash)    DE(int)     intcor
     14.69     -17.42       1.98        0.00      85.69       1.84       0.04       2.70       ----

> <Gold.Chemscore.Fitness>
14.6860

> <Gold.Chemscore.DG>
-17.4239

> <Gold.Chemscore.ZeroCoef>
-5.4800

> <Gold.Chemscore.Hbond>
1.9845

> <Gold.Chemscore.Metal>
0.0000

> <Gold.Chemscore.Lipo>
85.6862

> <Gold.Chemscore.Internal_Hbond>
0.0000

> <Gold.Chemscore.DEClash>
0.0407

> <Gold.Chemscore.DEInternal>
2.6972

> <Gold.Chemscore.Rot>
1.8396

> <Gold.Chemscore.Internal.Correction>
   9.000000E+99

> <Gold.Chemscore.Hbonds>
donor molecule, donor type, donor heavy atom, donor atom, acceptor molecule, acceptor atom, score
      L1  H     7    27       P1  8029  0.93
      P1  H  6896  6909       L1    14  0.78

> <Gold.Chemscore.Hbond.Weighted>
-6.6281

> <Gold.Chemscore.Metal.Weighted>
-0.0000

> <Gold.Chemscore.Lipo.Weighted>
-10.0253

> <Gold.Chemscore.Internal_Hbond.Weighted>
0.0000

> <Gold.Chemscore.DEClash.Weighted>
0.0407

> <Gold.Chemscore.DEInternal.Weighted>
2.6972

> <Gold.Chemscore.Rot.Weighted>
4.7095

> <Gold.Chemscore.Internal.Correction.Weighted>
   9.000000E+99

> <Gold.Protein.RotatedTorsions>
[ 6907 6896 6895 6894 ] final  139.76 input  -60.11 | X-H torsion
[ 7974 7965 7964 7962 ] final  -38.26 input  175.53 | X-H torsion
[ 8008 7997 7996 7995 ] final  122.69 input   59.86 | X-H torsion
[ 10167 10162 10161 10158 ] final   61.55 input  -65.29 | X-H torsion
[ 10718 10713 10712 10709 ] final  -19.22 input   66.30 | X-H torsion
[ 10763 10752 10751 10750 ] final  -94.75 input  -60.55 | X-H torsion
[ 11005 11000 10999 10996 ] final -122.12 input  -57.11 | X-H torsion

> <Gold.Protein.ActiveResidues>
 VAL166  LYS551  ARG553  GLY616  TRP617  ASP618  TYR619  PRO620  LYS621  CYS622 
 ASP623  PHE694  ASN695  SER759  ASP760  ASP761  ALA762  ILE779  LEU786  VAL792 
 PHE793  MET794  SER795  GLU796  ALA797  LYS798  CYS799  TRP800  GLU811  SER814 

> <Gold.Protein.RotatedAtoms>
  152.2511  133.5216  159.5325 H   0  0  0  0  0  0  0  0  0  0  0  0  # atno 6907 bound_to 6896
  150.7094  134.0959  159.3957 H   0  0  0  0  0  0  0  0  0  0  0  0  # atno 6908 bound_to 6896
  151.8878  135.0428  160.0545 H   0  0  0  0  0  0  0  0  0  0  0  0  # atno 6909 bound_to 6896
  146.0502  140.6491  142.9045 H   0  0  0  0  0  0  0  0  0  0  0  0  # atno 7974 bound_to 7965
  156.2737  140.2780  156.1508 H   0  0  0  0  0  0  0  0  0  0  0  0  # atno 8008 bound_to 7997
  155.0855  140.0388  157.2670 H   0  0  0  0  0  0  0  0  0  0  0  0  # atno 8009 bound_to 7997
  154.6930  140.2633  155.6799 H   0  0  0  0  0  0  0  0  0  0  0  0  # atno 8010 bound_to 7997
  140.1535  144.4439  150.6746 H   0  0  0  0  0  0  0  0  0  0  0  0  # atno 10167 bound_to 10162
  156.5487  130.4696  149.6462 H   0  0  0  0  0  0  0  0  0  0  0  0  # atno 10718 bound_to 10713
  154.7084  135.5146  153.8630 H   0  0  0  0  0  0  0  0  0  0  0  0  # atno 10763 bound_to 10752
  153.0760  135.6616  154.0153 H   0  0  0  0  0  0  0  0  0  0  0  0  # atno 10764 bound_to 10752
  154.0000  135.3012  155.3383 H   0  0  0  0  0  0  0  0  0  0  0  0  # atno 10765 bound_to 10752
  141.0019  134.0390  157.3526 H   0  0  0  0  0  0  0  0  0  0  0  0  # atno 11005 bound_to 11000
  144.7119  140.4069  143.7074 LP  0  0  0  0  0  0  0  0  0  0  0  0  # atno 17320 bound_to 7965
  145.6737  139.1604  143.2740 LP  0  0  0  0  0  0  0  0  0  0  0  0  # atno 17321 bound_to 7965
  140.6687  143.2277  151.5678 LP  0  0  0  0  0  0  0  0  0  0  0  0  # atno 17342 bound_to 10162
  139.5414  144.2636  152.1359 LP  0  0  0  0  0  0  0  0  0  0  0  0  # atno 17343 bound_to 10162
  156.2904  130.7121  151.1968 LP  0  0  0  0  0  0  0  0  0  0  0  0  # atno 17370 bound_to 10713
  157.7391  131.0532  150.5249 LP  0  0  0  0  0  0  0  0  0  0  0  0  # atno 17371 bound_to 10713
  139.9043  135.0175  156.7415 LP  0  0  0  0  0  0  0  0  0  0  0  0  # atno 17394 bound_to 11000
  140.6875  133.9420  155.7946 LP  0  0  0  0  0  0  0  0  0  0  0  0  # atno 17395 bound_to 11000

$$$$
