AV-unprocessed.smi:328|AV-procd|sdf|2347|dock6
  -GOLD-   2262022263D 1   1.00000     0.00000
 Structure written by MMmdl.
 23 24  0  0  0  0  0  0  0  0  2 V2000
  150.8212  138.0272  159.6212 O   0  0  0  0  0  0  0  0  0  0  0  0
  152.0464  137.7800  159.5766 C   0  0  0  0  0  0  0  0  0  0  0  0
  152.6176  136.8286  160.1543 O   0  5  0  0  0  0  0  0  0  0  0  0
  152.9224  138.7159  158.7402 C   0  0  0  0  0  0  0  0  0  0  0  0
  152.9759  140.0523  159.4254 C   0  0  0  0  0  0  0  0  0  0  0  0
  153.7449  140.3936  160.5124 C   0  0  0  0  0  0  0  0  0  0  0  0
  153.5067  142.0517  160.9896 S   0  0  0  0  0  0  0  0  0  0  0  0
  152.3630  142.2339  159.6612 C   0  0  0  0  0  0  0  0  0  0  0  0
  151.6788  143.4540  159.3797 N   0  0  0  0  0  0  0  0  0  0  0  0
  152.1238  144.7178  159.9542 C   0  0  0  0  0  0  0  0  0  0  0  0
  151.1243  145.7375  159.4164 C   0  0  0  0  0  0  0  0  0  0  0  0
  150.2577  144.9151  158.6057 N   0  0  0  0  0  0  0  0  0  0  0  0
  150.5918  143.6226  158.5977 C   0  0  0  0  0  0  0  0  0  0  0  0
  149.9851  142.7597  157.9652 O   0  0  0  0  0  0  0  0  0  0  0  0
  152.2013  141.1146  158.9458 N   0  0  0  0  0  0  0  0  0  0  0  0
  153.9225  138.2934  158.6361 H   0  0  0  0  0  0  0  0  0  0  0  0
  152.5075  138.7990  157.7346 H   0  0  0  0  0  0  0  0  0  0  0  0
  154.4275  139.7639  161.0635 H   0  0  0  0  0  0  0  0  0  0  0  0
  152.1023  144.6751  161.0441 H   0  0  0  0  0  0  0  0  0  0  0  0
  153.1403  144.9499  159.6333 H   0  0  0  0  0  0  0  0  0  0  0  0
  150.5591  146.2189  160.2151 H   0  0  0  0  0  0  0  0  0  0  0  0
  151.6064  146.5040  158.8086 H   0  0  0  0  0  0  0  0  0  0  0  0
  149.4746  145.2947  158.0936 H   0  0  0  0  0  0  0  0  0  0  0  0
  1  2  2  0  0  0  0
  2  3  1  0  0  0  0
  2  4  1  0  0  0  0
  4  5  1  0  0  0  0
  4 16  1  0  0  0  0
  4 17  1  0  0  0  0
  5 15  1  0  0  0  0
  5  6  2  0  0  0  0
  6  7  1  0  0  0  0
  6 18  1  0  0  0  0
  7  8  1  0  0  0  0
  8  9  1  0  0  0  0
  8 15  2  0  0  0  0
  9 13  1  0  0  0  0
  9 10  1  0  0  0  0
 10 11  1  0  0  0  0
 10 19  1  0  0  0  0
 10 20  1  0  0  0  0
 11 12  1  0  0  0  0
 11 21  1  0  0  0  0
 11 22  1  0  0  0  0
 12 13  1  0  0  0  0
 12 23  1  0  0  0  0
 13 14  2  0  0  0  0
M  CHG  1   3  -1
M  END
> <s_m_source_file>
AV-unprocessed.smi

> <i_m_source_file_index>
328

> <i_lp_mmshare_version>
43012

> <i_f3d_flags>
0

> <s_epik_input>
Tz1DKFtPSF0pW0NIMl1jMVtjSF1zYyhuMSlOMltDSDJdW0NIMl1bTkhdQzI9Tw==

> <s_epik_cmdline>
J2VwaWtfcHl0aG9uJywgJy1waCcsICc3LjAnLCAnLXRuJywgJzgnLCAnLW1hJywgJzIwMCcsICctbWV0YWxfYmluZGluZycsICctaW1hZScsICc8aW5maWxlLm1hZT4nLCAnLW9tYWUnLCAnPG91dGZpbGUubWFlPic=

> <r_lp_tautomer_probability>
1

> <r_epik_Ionization_Penalty>
0.000968476

> <r_epik_Ionization_Penalty_Charging>
0.000722293

> <r_epik_Ionization_Penalty_Neutral>
0.000246183

> <r_epik_State_Penalty>
0.000460635

> <r_epik_Charging_Adjusted_Penalty>
0.00118293

> <i_epik_Tot_Q>
-1

> <i_epik_Tot_abs_Q>
1

> <r_epik_Metal_State_Penalty>
-0

> <b_epik_Metal_Only>
0

> <s_lp_Force_Field>
OPLS_2005

> <r_lp_Energy>
33.9917

> <b_lp_Chiralities_Consistent>
1

> <s_lp_Variant>
AV-unprocessed.smi:328-1

> <Gold.Version>
5.8.1

> <Gold.Id.Protein>
6NUR|6NUR_protein|mol2

> <Gold.PLP.Fitness>
38.1085

> <Gold.PLP.PLP>
-29.9729

> <Gold.PLP.part.hbond>
-2.3054

> <Gold.PLP.part.metal>
0.0000

> <Gold.PLP.part.buried>
-3.5101

> <Gold.PLP.part.nonpolar>
-23.9034

> <Gold.PLP.part.repulsive>
0.3021

> <Gold.PLP.ligand.clash>
0.0000

> <Gold.PLP.ligand.torsion>
0.4332

> <Gold.PLP.Chemscore.Hbond>
3.0000

> <Gold.PLP.Chemscore.CHOScore>
0.0000

> <Gold.PLP.Chemscore.Metal>
0.0000

> <Gold.Chemscore.Hbonds>
donor molecule, donor type, donor heavy atom, donor atom, acceptor molecule, acceptor atom, score
      L1  H    12    23       P1  8029  1.00
      P1  H  6896  6908       L1     3  2.00

> <Gold.PLP.Chemscore.Internal.Correction>
0.0020

> <Gold.Rescore>
     Score         DG    S(hbond)    S(metal)    S(lipo)     H(rot)  DE(clash)    DE(int)     intcor
     12.40     -14.12       1.90        0.00      53.76       1.57       0.07       1.65       ----

> <Gold.Chemscore.Fitness>
12.4019

> <Gold.Chemscore.DG>
-14.1180

> <Gold.Chemscore.ZeroCoef>
-5.4800

> <Gold.Chemscore.Hbond>
1.9030

> <Gold.Chemscore.Metal>
0.0000

> <Gold.Chemscore.Lipo>
53.7561

> <Gold.Chemscore.Internal_Hbond>
0.0000

> <Gold.Chemscore.DEClash>
0.0699

> <Gold.Chemscore.DEInternal>
1.6462

> <Gold.Chemscore.Rot>
1.5654

> <Gold.Chemscore.Internal.Correction>
   9.000000E+99

> <Gold.Chemscore.Hbonds>
donor molecule, donor type, donor heavy atom, donor atom, acceptor molecule, acceptor atom, score
      L1  H    12    23       P1  8029  0.35
      P1  H  6896  6908       L1     3  0.99

> <Gold.Chemscore.Hbond.Weighted>
-6.3561

> <Gold.Chemscore.Metal.Weighted>
-0.0000

> <Gold.Chemscore.Lipo.Weighted>
-6.2895

> <Gold.Chemscore.Internal_Hbond.Weighted>
0.0000

> <Gold.Chemscore.DEClash.Weighted>
0.0699

> <Gold.Chemscore.DEInternal.Weighted>
1.6462

> <Gold.Chemscore.Rot.Weighted>
4.0075

> <Gold.Chemscore.Internal.Correction.Weighted>
   9.000000E+99

> <Gold.Protein.RotatedTorsions>
[ 6907 6896 6895 6894 ] final  -92.68 input  -60.11 | X-H torsion
[ 7974 7965 7964 7962 ] final   -5.94 input  175.53 | X-H torsion
[ 8008 7997 7996 7995 ] final  127.20 input   59.86 | X-H torsion
[ 10167 10162 10161 10158 ] final  -37.63 input  -65.29 | X-H torsion
[ 10718 10713 10712 10709 ] final    4.35 input   66.30 | X-H torsion
[ 10763 10752 10751 10750 ] final  124.76 input  -60.55 | X-H torsion
[ 11005 11000 10999 10996 ] final  -33.52 input  -57.11 | X-H torsion

> <Gold.Protein.ActiveResidues>
 VAL166  LYS551  ARG553  GLY616  TRP617  ASP618  TYR619  PRO620  LYS621  CYS622 
 ASP623  PHE694  ASN695  SER759  ASP760  ASP761  ALA762  ILE779  LEU786  VAL792 
 PHE793  MET794  SER795  GLU796  ALA797  LYS798  CYS799  TRP800  GLU811  SER814 

> <Gold.Protein.RotatedAtoms>
  150.6910  134.2085  159.4349 H   0  0  0  0  0  0  0  0  0  0  0  0  # atno 6907 bound_to 6896
  152.0048  134.9906  160.0575 H   0  0  0  0  0  0  0  0  0  0  0  0  # atno 6908 bound_to 6896
  152.1544  133.4507  159.4866 H   0  0  0  0  0  0  0  0  0  0  0  0  # atno 6909 bound_to 6896
  146.2342  140.2096  142.8335 H   0  0  0  0  0  0  0  0  0  0  0  0  # atno 7974 bound_to 7965
  156.2884  140.2674  156.2235 H   0  0  0  0  0  0  0  0  0  0  0  0  # atno 8008 bound_to 7997
  155.0144  140.0387  157.2430 H   0  0  0  0  0  0  0  0  0  0  0  0  # atno 8009 bound_to 7997
  154.7490  140.2739  155.6314 H   0  0  0  0  0  0  0  0  0  0  0  0  # atno 8010 bound_to 7997
  140.7113  143.3329  151.2528 H   0  0  0  0  0  0  0  0  0  0  0  0  # atno 10167 bound_to 10162
  156.8912  130.5688  149.5650 H   0  0  0  0  0  0  0  0  0  0  0  0  # atno 10718 bound_to 10713
  153.6665  135.3337  155.3141 H   0  0  0  0  0  0  0  0  0  0  0  0  # atno 10763 bound_to 10752
  154.8501  135.4376  154.1749 H   0  0  0  0  0  0  0  0  0  0  0  0  # atno 10764 bound_to 10752
  153.2730  135.7002  153.7537 H   0  0  0  0  0  0  0  0  0  0  0  0  # atno 10765 bound_to 10752
  140.9642  133.7147  156.1418 H   0  0  0  0  0  0  0  0  0  0  0  0  # atno 11005 bound_to 11000
  144.9717  140.8375  143.5451 LP  0  0  0  0  0  0  0  0  0  0  0  0  # atno 17320 bound_to 7965
  145.2078  139.2220  143.5159 LP  0  0  0  0  0  0  0  0  0  0  0  0  # atno 17321 bound_to 7965
  139.6816  143.9844  152.2811 LP  0  0  0  0  0  0  0  0  0  0  0  0  # atno 17342 bound_to 10162
  139.9476  144.6641  150.8203 LP  0  0  0  0  0  0  0  0  0  0  0  0  # atno 17343 bound_to 10162
  156.0628  130.5677  150.9227 LP  0  0  0  0  0  0  0  0  0  0  0  0  # atno 17370 bound_to 10713
  157.6082  131.0938  150.8841 LP  0  0  0  0  0  0  0  0  0  0  0  0  # atno 17371 bound_to 10713
  140.7424  134.4136  157.5553 LP  0  0  0  0  0  0  0  0  0  0  0  0  # atno 17394 bound_to 11000
  139.8888  134.8845  156.2452 LP  0  0  0  0  0  0  0  0  0  0  0  0  # atno 17395 bound_to 11000

$$$$
