AV-unprocessed.smi:265|AV-procd|sdf|2030|dock1
  -GOLD-   2262021233D 1   1.00000     0.00000
 Structure written by MMmdl.
 52 56  0  0  0  0  0  0  0  0  1 V2000
  145.2002  139.0148  154.9182 C   0  0  0  0  0  0  0  0  0  0  0  0
  146.0089  138.2087  153.8901 C   0  0  1  0  0  0  0  0  0  0  0  0
  145.0809  137.5499  153.0317 O   0  0  0  0  0  0  0  0  0  0  0  0
  145.6611  137.4106  151.7472 C   0  0  0  0  0  0  0  0  0  0  0  0
  146.3745  138.7410  151.5656 C   0  0  0  0  0  0  0  0  0  0  0  0
  146.9521  139.0141  152.9519 C   0  0  2  0  0  0  0  0  0  0  0  0
  148.2341  138.4118  153.0124 O   0  0  0  0  0  0  0  0  0  0  0  0
  147.1149  140.5244  153.2682 C   0  0  0  0  0  0  0  0  0  0  0  0
  148.0470  140.7915  154.3530 N   0  0  0  0  0  0  0  0  0  0  0  0
  149.4181  140.8727  154.2609 C   0  0  0  0  0  0  0  0  0  0  0  0
  150.0373  141.1211  155.3820 N   0  0  0  0  0  0  0  0  0  0  0  0
  149.0152  141.2352  156.3175 C   0  0  0  0  0  0  0  0  0  0  0  0
  148.9761  141.4981  157.7165 C   0  0  0  0  0  0  0  0  0  0  0  0
  150.0929  141.7355  158.4508 N   0  0  0  0  0  0  0  0  0  0  0  0
  150.7418  143.0432  158.3017 C   0  0  0  0  0  0  0  0  0  0  0  0
  151.7665  143.2939  159.4249 C   0  0  0  0  0  0  0  0  0  0  0  0
  152.7584  142.1258  159.4995 C   0  0  1  0  0  0  0  0  0  0  0  0
  153.6618  142.2608  160.5862 O   0  0  0  0  0  0  0  0  0  0  0  0
  154.6968  141.2712  160.5890 C   0  0  0  0  0  0  0  0  0  0  0  0
  154.1584  139.8420  160.3643 C   0  0  0  0  0  0  0  0  0  0  0  0
  154.8814  138.8733  160.5856 O   0  0  0  0  0  0  0  0  0  0  0  0
  152.9109  139.7022  159.8866 N   0  0  0  0  0  0  0  0  0  0  0  0
  151.9870  140.8170  159.7279 C   0  0  2  0  0  0  0  0  0  0  0  0
  150.9948  140.5879  158.5779 C   0  0  0  0  0  0  0  0  0  0  0  0
  147.7550  141.5105  158.3153 N   0  0  0  0  0  0  0  0  0  0  0  0
  146.6481  141.2969  157.5977 C   0  0  0  0  0  0  0  0  0  0  0  0
  146.5351  141.0545  156.2908 N   0  0  0  0  0  0  0  0  0  0  0  0
  147.7567  141.0262  155.6857 C   0  0  0  0  0  0  0  0  0  0  0  0
  153.3212  142.0833  158.5643 H   0  0  0  0  0  0  0  0  0  0  0  0
  151.4249  140.8923  160.6606 H   0  0  0  0  0  0  0  0  0  0  0  0
  145.8524  139.5354  155.6197 H   0  0  0  0  0  0  0  0  0  0  0  0
  144.5568  138.3557  155.5014 H   0  0  0  0  0  0  0  0  0  0  0  0
  144.5584  139.7513  154.4345 H   0  0  0  0  0  0  0  0  0  0  0  0
  146.5694  137.4383  154.4233 H   0  0  0  0  0  0  0  0  0  0  0  0
  146.3680  136.5795  151.7471 H   0  0  0  0  0  0  0  0  0  0  0  0
  144.9073  137.2267  150.9816 H   0  0  0  0  0  0  0  0  0  0  0  0
  147.1208  138.7251  150.7699 H   0  0  0  0  0  0  0  0  0  0  0  0
  145.6346  139.5014  151.3117 H   0  0  0  0  0  0  0  0  0  0  0  0
  148.2491  137.6779  152.4174 H   0  0  0  0  0  0  0  0  0  0  0  0
  147.4743  141.0613  152.3901 H   0  0  0  0  0  0  0  0  0  0  0  0
  146.1527  140.9668  153.5284 H   0  0  0  0  0  0  0  0  0  0  0  0
  149.9492  140.7357  153.3302 H   0  0  0  0  0  0  0  0  0  0  0  0
  151.2391  143.0877  157.3317 H   0  0  0  0  0  0  0  0  0  0  0  0
  149.9915  143.8350  158.3152 H   0  0  0  0  0  0  0  0  0  0  0  0
  152.2966  144.2297  159.2474 H   0  0  0  0  0  0  0  0  0  0  0  0
  151.2485  143.4028  160.3788 H   0  0  0  0  0  0  0  0  0  0  0  0
  155.4149  141.5012  159.8010 H   0  0  0  0  0  0  0  0  0  0  0  0
  155.2322  141.3191  161.5374 H   0  0  0  0  0  0  0  0  0  0  0  0
  152.5619  138.7727  159.7037 H   0  0  0  0  0  0  0  0  0  0  0  0
  150.4452  139.6642  158.7544 H   0  0  0  0  0  0  0  0  0  0  0  0
  151.5319  140.4569  157.6375 H   0  0  0  0  0  0  0  0  0  0  0  0
  145.7198  141.3255  158.1488 H   0  0  0  0  0  0  0  0  0  0  0  0
  1  2  1  0  0  0  0
  1 31  1  0  0  0  0
  1 32  1  0  0  0  0
  1 33  1  0  0  0  0
  2  6  1  0  0  0  0
  2  3  1  0  0  0  0
  2 34  1  0  0  0  0
  3  4  1  0  0  0  0
  4  5  1  0  0  0  0
  4 35  1  0  0  0  0
  4 36  1  0  0  0  0
  5  6  1  0  0  0  0
  5 37  1  0  0  0  0
  5 38  1  0  0  0  0
  6  7  1  0  0  0  0
  6  8  1  0  0  0  0
  7 39  1  0  0  0  0
  8  9  1  0  0  0  0
  8 40  1  0  0  0  0
  8 41  1  0  0  0  0
  9 28  1  0  0  0  0
  9 10  1  0  0  0  0
 10 11  2  0  0  0  0
 10 42  1  0  0  0  0
 11 12  1  0  0  0  0
 12 28  2  0  0  0  0
 12 13  1  0  0  0  0
 13 14  1  0  0  0  0
 13 25  2  0  0  0  0
 14 24  1  0  0  0  0
 14 15  1  0  0  0  0
 15 16  1  0  0  0  0
 15 43  1  0  0  0  0
 15 44  1  0  0  0  0
 16 17  1  0  0  0  0
 16 45  1  0  0  0  0
 16 46  1  0  0  0  0
 17 29  1  0  0  0  0
 17 23  1  0  0  0  0
 17 18  1  0  0  0  0
 18 19  1  0  0  0  0
 19 20  1  0  0  0  0
 19 47  1  0  0  0  0
 19 48  1  0  0  0  0
 20 21  2  0  0  0  0
 20 22  1  0  0  0  0
 22 23  1  0  0  0  0
 22 49  1  0  0  0  0
 23 30  1  0  0  0  0
 23 24  1  0  0  0  0
 24 50  1  0  0  0  0
 24 51  1  0  0  0  0
 25 26  1  0  0  0  0
 26 27  2  0  0  0  0
 26 52  1  0  0  0  0
 27 28  1  0  0  0  0
M  END
> <s_m_source_file>
AV-unprocessed.smi

> <i_m_source_file_index>
265

> <i_lp_mmshare_version>
43012

> <i_f3d_flags>
0

> <s_epik_input>
W0NIMl0xW0NIMl1PW0NAQEhdKFtDSDNdKVtDQEBdMShbT0hdKVtDSDJdbihbY0hdbjIpYyhjMjMpbltjSF1uYzNOKFtDSDJdW0NIMl00KVtDSDJdW0NAQEhdKFtDQEhdNDUpW05IXUMoPU8pW0NIMl1PNQ==

> <s_epik_cmdline>
J2VwaWtfcHl0aG9uJywgJy1waCcsICc3LjAnLCAnLXRuJywgJzgnLCAnLW1hJywgJzIwMCcsICctbWV0YWxfYmluZGluZycsICctaW1hZScsICc8aW5maWxlLm1hZT4nLCAnLW9tYWUnLCAnPG91dGZpbGUubWFlPic=

> <r_lp_tautomer_probability>
1

> <r_epik_Ionization_Penalty>
0.00221504

> <r_epik_Ionization_Penalty_Charging>
0

> <r_epik_Ionization_Penalty_Neutral>
0.00221504

> <r_epik_State_Penalty>
-0

> <r_epik_Charging_Adjusted_Penalty>
0

> <i_epik_Tot_Q>
0

> <i_epik_Tot_abs_Q>
0

> <r_epik_Metal_State_Penalty>
-0

> <b_epik_Metal_Only>
0

> <s_lp_Force_Field>
OPLS_2005

> <r_lp_Energy>
44.2788

> <b_lp_Chiralities_Consistent>
1

> <s_lp_Variant>
AV-unprocessed.smi:265-16

> <Gold.Version>
5.8.1

> <Gold.Id.Protein>
6NUR|6NUR_protein|mol2

> <Gold.PLP.Fitness>
43.4829

> <Gold.PLP.PLP>
-38.6762

> <Gold.PLP.part.hbond>
-3.4262

> <Gold.PLP.part.metal>
0.0000

> <Gold.PLP.part.buried>
1.1094

> <Gold.PLP.part.nonpolar>
-37.1357

> <Gold.PLP.part.repulsive>
0.5190

> <Gold.PLP.ligand.clash>
0.0000

> <Gold.PLP.ligand.torsion>
0.8138

> <Gold.PLP.Chemscore.Hbond>
1.0000

> <Gold.PLP.Chemscore.CHOScore>
1.0000

> <Gold.PLP.Chemscore.Metal>
0.0000

> <Gold.Chemscore.Hbonds>
donor molecule, donor type, donor heavy atom, donor atom, acceptor molecule, acceptor atom, score
      L1  H     7    39       P1  7948  1.00
      L1  C    10    42       P1  7957  1.00

> <Gold.PLP.Chemscore.Internal.Correction>
0.4343

> <Gold.Rescore>
     Score         DG    S(hbond)    S(metal)    S(lipo)     H(rot)  DE(clash)    DE(int)     intcor
     10.22     -13.08       0.93        0.00      87.48       2.25       0.41       2.45       ----

> <Gold.Chemscore.Fitness>
10.2212

> <Gold.Chemscore.DG>
-13.0832

> <Gold.Chemscore.ZeroCoef>
-5.4800

> <Gold.Chemscore.Hbond>
0.9330

> <Gold.Chemscore.Metal>
0.0000

> <Gold.Chemscore.Lipo>
87.4764

> <Gold.Chemscore.Internal_Hbond>
0.0000

> <Gold.Chemscore.DEClash>
0.4080

> <Gold.Chemscore.DEInternal>
2.4540

> <Gold.Chemscore.Rot>
2.2453

> <Gold.Chemscore.Internal.Correction>
   9.000000E+99

> <Gold.Chemscore.Hbonds>
donor molecule, donor type, donor heavy atom, donor atom, acceptor molecule, acceptor atom, score
      L1  H     7    39       P1  7948  0.95

> <Gold.Chemscore.Hbond.Weighted>
-3.1163

> <Gold.Chemscore.Metal.Weighted>
-0.0000

> <Gold.Chemscore.Lipo.Weighted>
-10.2347

> <Gold.Chemscore.Internal_Hbond.Weighted>
0.0000

> <Gold.Chemscore.DEClash.Weighted>
0.4080

> <Gold.Chemscore.DEInternal.Weighted>
2.4540

> <Gold.Chemscore.Rot.Weighted>
5.7479

> <Gold.Chemscore.Internal.Correction.Weighted>
   9.000000E+99

> <Gold.Protein.RotatedTorsions>
[ 6907 6896 6895 6894 ] final  -45.50 input  -60.11 | X-H torsion
[ 7974 7965 7964 7962 ] final  162.78 input  175.53 | X-H torsion
[ 8008 7997 7996 7995 ] final  -89.80 input   59.86 | X-H torsion
[ 10167 10162 10161 10158 ] final  134.31 input  -65.29 | X-H torsion
[ 10718 10713 10712 10709 ] final  174.98 input   66.30 | X-H torsion
[ 10763 10752 10751 10750 ] final  108.61 input  -60.55 | X-H torsion
[ 11005 11000 10999 10996 ] final -104.06 input  -57.11 | X-H torsion

> <Gold.Protein.ActiveResidues>
 VAL166  LYS551  ARG553  GLY616  TRP617  ASP618  TYR619  PRO620  LYS621  CYS622 
 ASP623  PHE694  ASN695  SER759  ASP760  ASP761  ALA762  ILE779  LEU786  VAL792 
 PHE793  MET794  SER795  GLU796  ALA797  LYS798  CYS799  TRP800  GLU811  SER814 

> <Gold.Protein.RotatedAtoms>
  150.9213  134.8630  159.7490 H   0  0  0  0  0  0  0  0  0  0  0  0  # atno 6907 bound_to 6896
  152.4994  134.4214  159.9492 H   0  0  0  0  0  0  0  0  0  0  0  0  # atno 6908 bound_to 6896
  151.4248  133.3648  159.2796 H   0  0  0  0  0  0  0  0  0  0  0  0  # atno 6909 bound_to 6896
  144.7620  139.8088  143.6329 H   0  0  0  0  0  0  0  0  0  0  0  0  # atno 7974 bound_to 7965
  154.6910  140.0537  157.0363 H   0  0  0  0  0  0  0  0  0  0  0  0  # atno 8008 bound_to 7997
  155.0817  140.3210  155.4580 H   0  0  0  0  0  0  0  0  0  0  0  0  # atno 8009 bound_to 7997
  156.2728  140.2063  156.5945 H   0  0  0  0  0  0  0  0  0  0  0  0  # atno 8010 bound_to 7997
  139.5261  144.6574  151.5121 H   0  0  0  0  0  0  0  0  0  0  0  0  # atno 10167 bound_to 10162
  156.9415  131.0003  151.2967 H   0  0  0  0  0  0  0  0  0  0  0  0  # atno 10718 bound_to 10713
  153.4230  135.3806  155.2123 H   0  0  0  0  0  0  0  0  0  0  0  0  # atno 10763 bound_to 10752
  154.8746  135.3822  154.4360 H   0  0  0  0  0  0  0  0  0  0  0  0  # atno 10764 bound_to 10752
  153.4883  135.7088  153.5961 H   0  0  0  0  0  0  0  0  0  0  0  0  # atno 10765 bound_to 10752
  141.1117  133.8692  157.1564 H   0  0  0  0  0  0  0  0  0  0  0  0  # atno 11005 bound_to 11000
  146.1693  139.4837  142.9938 LP  0  0  0  0  0  0  0  0  0  0  0  0  # atno 17320 bound_to 7965
  145.6588  141.0245  143.1720 LP  0  0  0  0  0  0  0  0  0  0  0  0  # atno 17321 bound_to 7965
  140.6405  143.8898  150.6687 LP  0  0  0  0  0  0  0  0  0  0  0  0  # atno 17342 bound_to 10162
  140.2231  143.3793  152.1627 LP  0  0  0  0  0  0  0  0  0  0  0  0  # atno 17343 bound_to 10162
  157.5781  130.8357  149.8484 LP  0  0  0  0  0  0  0  0  0  0  0  0  # atno 17370 bound_to 10713
  156.0402  130.3741  150.1455 LP  0  0  0  0  0  0  0  0  0  0  0  0  # atno 17371 bound_to 10713
  140.0015  135.0026  157.0201 LP  0  0  0  0  0  0  0  0  0  0  0  0  # atno 17394 bound_to 11000
  140.4756  134.1342  155.7209 LP  0  0  0  0  0  0  0  0  0  0  0  0  # atno 17395 bound_to 11000

$$$$
