AV-unprocessed.smi:304|AV-procd|sdf|2276|dock1
  -GOLD-   2262022173D 1   1.00000     0.00000
 Structure written by MMmdl.
 36 38  0  0  0  0  0  0  0  0  1 V2000
  152.3404  136.2105  158.2719 O   0  0  0  0  0  0  0  0  0  0  0  0
  152.0227  137.4056  158.9584 C   0  0  2  0  0  0  0  0  0  0  0  0
  150.5193  137.6754  158.7910 C   0  0  0  0  0  0  0  0  0  0  0  0
  149.7986  136.5084  159.1493 O   0  0  0  0  0  0  0  0  0  0  0  0
  148.3953  136.7147  159.1678 C   0  0  0  0  0  0  0  0  0  0  0  0
  147.8150  135.8021  160.2002 C   0  0  0  0  0  0  0  0  0  0  0  0
  147.7291  134.4345  160.1379 C   0  0  0  0  0  0  0  0  0  0  0  0
  147.1340  133.8535  161.2961 C   0  0  0  0  0  0  0  0  0  0  0  0
  146.7804  134.7851  162.2353 C   0  0  0  0  0  0  0  0  0  0  0  0
  147.1742  136.3999  161.7134 S   0  0  0  0  0  0  0  0  0  0  0  0
  152.8786  138.5553  158.3921 C   0  0  0  0  0  0  0  0  0  0  0  0
  152.9999  139.6692  159.3162 N   0  0  0  0  0  0  0  0  0  0  0  0
  153.5497  139.6442  160.5453 C   0  0  0  0  0  0  0  0  0  0  0  0
  153.5575  140.7827  161.2329 N   0  0  0  0  0  0  0  0  0  0  0  0
  152.9417  141.6489  160.3457 C   0  0  0  0  0  0  0  0  0  0  0  0
  152.6390  143.0238  160.4678 C   0  0  0  0  0  0  0  0  0  0  0  0
  151.9978  143.7108  159.4160 C   0  0  0  0  0  0  0  0  0  0  0  0
  151.7147  145.0285  159.5497 F   0  0  0  0  0  0  0  0  0  0  0  0
  151.6508  143.0345  158.2275 C   0  0  0  0  0  0  0  0  0  0  0  0
  151.0369  143.7021  157.2221 F   0  0  0  0  0  0  0  0  0  0  0  0
  151.9419  141.6646  158.0832 C   0  0  0  0  0  0  0  0  0  0  0  0
  152.5804  140.9829  159.1357 C   0  0  0  0  0  0  0  0  0  0  0  0
  152.0235  136.2838  157.3844 H   0  0  0  0  0  0  0  0  0  0  0  0
  152.2562  137.2786  160.0166 H   0  0  0  0  0  0  0  0  0  0  0  0
  150.2148  138.4822  159.4597 H   0  0  0  0  0  0  0  0  0  0  0  0
  150.2851  137.9938  157.7735 H   0  0  0  0  0  0  0  0  0  0  0  0
  148.1656  137.7537  159.4094 H   0  0  0  0  0  0  0  0  0  0  0  0
  147.9654  136.4936  158.1900 H   0  0  0  0  0  0  0  0  0  0  0  0
  148.0682  133.8355  159.3057 H   0  0  0  0  0  0  0  0  0  0  0  0
  146.9902  132.7880  161.3990 H   0  0  0  0  0  0  0  0  0  0  0  0
  146.3176  134.6228  163.1974 H   0  0  0  0  0  0  0  0  0  0  0  0
  153.8779  138.1997  158.1381 H   0  0  0  0  0  0  0  0  0  0  0  0
  152.4389  138.9305  157.4669 H   0  0  0  0  0  0  0  0  0  0  0  0
  153.9685  138.7379  160.9582 H   0  0  0  0  0  0  0  0  0  0  0  0
  152.9007  143.5520  161.3725 H   0  0  0  0  0  0  0  0  0  0  0  0
  151.6802  141.1451  157.1735 H   0  0  0  0  0  0  0  0  0  0  0  0
  1  2  1  0  0  0  0
  1 23  1  0  0  0  0
  2  3  1  0  0  0  0
  2 11  1  0  0  0  0
  2 24  1  0  0  0  0
  3  4  1  0  0  0  0
  3 25  1  0  0  0  0
  3 26  1  0  0  0  0
  4  5  1  0  0  0  0
  5  6  1  0  0  0  0
  5 27  1  0  0  0  0
  5 28  1  0  0  0  0
  6 10  1  0  0  0  0
  6  7  2  0  0  0  0
  7  8  1  0  0  0  0
  7 29  1  0  0  0  0
  8  9  2  0  0  0  0
  8 30  1  0  0  0  0
  9 10  1  0  0  0  0
  9 31  1  0  0  0  0
 11 12  1  0  0  0  0
 11 32  1  0  0  0  0
 11 33  1  0  0  0  0
 12 22  1  0  0  0  0
 12 13  1  0  0  0  0
 13 14  2  0  0  0  0
 13 34  1  0  0  0  0
 14 15  1  0  0  0  0
 15 22  2  0  0  0  0
 15 16  1  0  0  0  0
 16 17  2  0  0  0  0
 16 35  1  0  0  0  0
 17 18  1  0  0  0  0
 17 19  1  0  0  0  0
 19 20  1  0  0  0  0
 19 21  2  0  0  0  0
 21 22  1  0  0  0  0
 21 36  1  0  0  0  0
M  END
> <s_m_source_file>
AV-unprocessed.smi

> <i_m_source_file_index>
304

> <i_lp_mmshare_version>
43012

> <i_f3d_flags>
0

> <s_epik_input>
W2NIXTFjKEYpYyhGKVtjSF1jKGMxMiluKFtjSF1uMilbQ0gyXVtDQEhdKFtPSF0pW0NIMl1PW0NIMl1jM1tjSF1bY0hdW2NIXXMz

> <s_epik_cmdline>
J2VwaWtfcHl0aG9uJywgJy1waCcsICc3LjAnLCAnLXRuJywgJzgnLCAnLW1hJywgJzIwMCcsICctbWV0YWxfYmluZGluZycsICctaW1hZScsICc8aW5maWxlLm1hZT4nLCAnLW9tYWUnLCAnPG91dGZpbGUubWFlPic=

> <r_epik_Ionization_Penalty>
0.0152118

> <r_epik_Ionization_Penalty_Charging>
0

> <r_epik_Ionization_Penalty_Neutral>
0.0152118

> <r_epik_State_Penalty>
0.0119413

> <r_epik_Charging_Adjusted_Penalty>
0.0119413

> <i_epik_Tot_Q>
0

> <i_epik_Tot_abs_Q>
0

> <r_epik_Metal_State_Penalty>
1.20623e-05

> <b_epik_Metal_Only>
0

> <s_lp_Force_Field>
OPLS_2005

> <r_lp_Energy>
8.33782

> <b_lp_Chiralities_Consistent>
1

> <s_lp_Variant>
AV-unprocessed.smi:304-1

> <Gold.Version>
5.8.1

> <Gold.Id.Protein>
6NUR|6NUR_protein|mol2

> <Gold.PLP.Fitness>
54.7940

> <Gold.PLP.PLP>
-52.7143

> <Gold.PLP.part.hbond>
-2.0000

> <Gold.PLP.part.metal>
0.0000

> <Gold.PLP.part.buried>
-4.9040

> <Gold.PLP.part.nonpolar>
-44.4953

> <Gold.PLP.part.repulsive>
0.0000

> <Gold.PLP.ligand.clash>
0.0000

> <Gold.PLP.ligand.torsion>
0.5525

> <Gold.PLP.Chemscore.Hbond>
1.0000

> <Gold.PLP.Chemscore.CHOScore>
0.0000

> <Gold.PLP.Chemscore.Metal>
0.0000

> <Gold.Chemscore.Hbonds>
donor molecule, donor type, donor heavy atom, donor atom, acceptor molecule, acceptor atom, score
      P1  H  6896  6908       L1     4  0.96

> <Gold.PLP.Chemscore.Internal.Correction>
0.1847

> <Gold.Rescore>
     Score         DG    S(hbond)    S(metal)    S(lipo)     H(rot)  DE(clash)    DE(int)     intcor
     15.60     -16.69       0.96        0.00     126.14       2.64       0.16       0.92       ----

> <Gold.Chemscore.Fitness>
15.5977

> <Gold.Chemscore.DG>
-16.6857

> <Gold.Chemscore.ZeroCoef>
-5.4800

> <Gold.Chemscore.Hbond>
0.9599

> <Gold.Chemscore.Metal>
0.0000

> <Gold.Chemscore.Lipo>
126.1425

> <Gold.Chemscore.Internal_Hbond>
0.0000

> <Gold.Chemscore.DEClash>
0.1646

> <Gold.Chemscore.DEInternal>
0.9234

> <Gold.Chemscore.Rot>
2.6403

> <Gold.Chemscore.Internal.Correction>
   9.000000E+99

> <Gold.Chemscore.Hbonds>
donor molecule, donor type, donor heavy atom, donor atom, acceptor molecule, acceptor atom, score
      P1  H  6896  6908       L1     4  0.70

> <Gold.Chemscore.Hbond.Weighted>
-3.2062

> <Gold.Chemscore.Metal.Weighted>
-0.0000

> <Gold.Chemscore.Lipo.Weighted>
-14.7587

> <Gold.Chemscore.Internal_Hbond.Weighted>
0.0000

> <Gold.Chemscore.DEClash.Weighted>
0.1646

> <Gold.Chemscore.DEInternal.Weighted>
0.9234

> <Gold.Chemscore.Rot.Weighted>
6.7592

> <Gold.Chemscore.Internal.Correction.Weighted>
   9.000000E+99

> <Gold.Protein.RotatedTorsions>
[ 6907 6896 6895 6894 ] final -149.84 input  -60.11 | X-H torsion
[ 7974 7965 7964 7962 ] final -124.38 input  175.53 | X-H torsion
[ 8008 7997 7996 7995 ] final  140.75 input   59.86 | X-H torsion
[ 10167 10162 10161 10158 ] final  -89.87 input  -65.29 | X-H torsion
[ 10718 10713 10712 10709 ] final  -61.38 input   66.30 | X-H torsion
[ 10763 10752 10751 10750 ] final    3.53 input  -60.55 | X-H torsion
[ 11005 11000 10999 10996 ] final  -92.23 input  -57.11 | X-H torsion

> <Gold.Protein.ActiveResidues>
 VAL166  LYS551  ARG553  GLY616  TRP617  ASP618  TYR619  PRO620  LYS621  CYS622 
 ASP623  PHE694  ASN695  SER759  ASP760  ASP761  ALA762  ILE779  LEU786  VAL792 
 PHE793  MET794  SER795  GLU796  ALA797  LYS798  CYS799  TRP800  GLU811  SER814 

> <Gold.Protein.RotatedAtoms>
  151.1899  133.4673  159.2594 H   0  0  0  0  0  0  0  0  0  0  0  0  # atno 6907 bound_to 6896
  151.1174  135.0060  159.8532 H   0  0  0  0  0  0  0  0  0  0  0  0  # atno 6908 bound_to 6896
  152.5454  134.1813  159.8690 H   0  0  0  0  0  0  0  0  0  0  0  0  # atno 6909 bound_to 6896
  145.0086  140.7886  143.4452 H   0  0  0  0  0  0  0  0  0  0  0  0  # atno 7974 bound_to 7965
  156.2975  140.2333  156.4452 H   0  0  0  0  0  0  0  0  0  0  0  0  # atno 8008 bound_to 7997
  154.8150  140.0441  157.1391 H   0  0  0  0  0  0  0  0  0  0  0  0  # atno 8009 bound_to 7997
  154.9379  140.3025  155.5138 H   0  0  0  0  0  0  0  0  0  0  0  0  # atno 8010 bound_to 7997
  140.3605  143.2844  151.9620 H   0  0  0  0  0  0  0  0  0  0  0  0  # atno 10167 bound_to 10162
  156.0925  130.4198  150.0987 H   0  0  0  0  0  0  0  0  0  0  0  0  # atno 10718 bound_to 10713
  153.2822  135.6941  153.7374 H   0  0  0  0  0  0  0  0  0  0  0  0  # atno 10763 bound_to 10752
  153.6357  135.3402  155.3056 H   0  0  0  0  0  0  0  0  0  0  0  0  # atno 10764 bound_to 10752
  154.8498  135.4419  154.1879 H   0  0  0  0  0  0  0  0  0  0  0  0  # atno 10765 bound_to 10752
  141.1526  133.7807  156.9991 H   0  0  0  0  0  0  0  0  0  0  0  0  # atno 11005 bound_to 11000
  145.2054  139.2231  143.5171 LP  0  0  0  0  0  0  0  0  0  0  0  0  # atno 17320 bound_to 7965
  146.3466  140.1880  142.8589 LP  0  0  0  0  0  0  0  0  0  0  0  0  # atno 17321 bound_to 7965
  139.4815  144.5997  151.7628 LP  0  0  0  0  0  0  0  0  0  0  0  0  # atno 17342 bound_to 10162
  140.5132  144.0994  150.6001 LP  0  0  0  0  0  0  0  0  0  0  0  0  # atno 17343 bound_to 10162
  156.8993  130.9615  151.3578 LP  0  0  0  0  0  0  0  0  0  0  0  0  # atno 17370 bound_to 10713
  157.6078  130.8560  149.8903 LP  0  0  0  0  0  0  0  0  0  0  0  0  # atno 17371 bound_to 10713
  140.0952  134.9569  157.1838 LP  0  0  0  0  0  0  0  0  0  0  0  0  # atno 17394 bound_to 11000
  140.3392  134.2723  155.7215 LP  0  0  0  0  0  0  0  0  0  0  0  0  # atno 17395 bound_to 11000

$$$$
