#       Name:                AV-unprocessed.smi:287
#       Creating user name   scv26
#       Creation time:       Thu Mar 26 22:03:01 2020


#       File generated by GOLD software.
#

@<TRIPOS>MOLECULE
AV-unprocessed.smi:287
    70    73     1
SMALL
NO_CHARGES


@<TRIPOS>ATOM
      1 ****        -1.5091   4.4466   3.1456 C.3            1 S1                 0.0000
      2 ****        -2.1642   3.9861   1.8890 C.2            1 S1                 0.0000
      3 ****        -2.7950   2.8341   1.5207 C.2            1 S1                 0.0000
      4 ****        -3.2076   2.9887   0.1636 C.2            1 S1                 0.0000
      5 ****        -3.9407   1.9439  -0.6676 C.3            1 S1                 0.0000
      6 ****        -5.3669   1.7498  -0.1259 C.3            1 S1                 0.0000
      7 ****        -4.1054   2.3295  -2.0185 O.3            1 S1                 0.0000
      8 ****        -3.1911   0.5921  -0.6954 C.3            1 S1                 0.0000
      9 ****        -1.7529   0.7492  -0.8870 N.pl3          1 S1                 0.0000
     10 ****        -0.9290  -0.3104  -0.7507 C.ar           1 S1                 0.0000
     11 ****        -1.4226  -1.5658  -0.5911 N.ar           1 S1                 0.0000
     12 ****        -0.5847  -2.5974  -0.4517 C.ar           1 S1                 0.0000
     13 ****         0.7500  -2.5925  -0.4423 N.ar           1 S1                 0.0000
     14 ****         1.2518  -1.3339  -0.6045 C.ar           1 S1                 0.0000
     15 ****         0.4802  -0.1489  -0.7644 C.ar           1 S1                 0.0000
     16 ****         1.3211   0.9478  -0.8974 N.2            1 S1                 0.0000
     17 ****         2.5198   0.4365  -0.8188 C.2            1 S1                 0.0000
     18 ****         2.5727  -0.9282  -0.6386 N.pl3          1 S1                 0.0000
     19 ****         3.8047  -1.7737  -0.5067 C.3            1 S1                 0.0000
     20 ****         3.5967  -3.0075  -1.1307 O.3            1 S1                 0.0000
     21 ****         3.7352  -4.0750  -0.1924 C.3            1 S1                 0.0000
     22 ****         4.2927  -5.3200  -0.8991 C.3            1 S1                 0.0000
     23 ****         3.2485  -6.0288  -1.5309 O.3            1 S1                 0.0000
     24 ****         4.6865  -3.4866   0.8510 C.3            1 S1                 0.0000
     25 ****         4.6596  -4.1705   2.0892 O.3            1 S1                 0.0000
     26 ****         4.2008  -2.0486   0.9566 C.3            1 S1                 0.0000
     27 ****         3.1274  -1.9015   1.8748 O.3            1 S1                 0.0000
     28 ****        -2.7944   4.2520  -0.1867 C.2            1 S1                 0.0000
     29 ****        -2.8898   5.0680  -1.4336 C.3            1 S1                 0.0000
     30 ****        -2.1598   4.8621   0.8533 O.3            1 S1                 0.0000
     31 ****         4.5731  -1.2287  -1.0565 H              1 S1                 0.0000
     32 ****         2.7710  -4.2856   0.2733 H              1 S1                 0.0000
     33 ****         5.7061  -3.4955   0.4624 H              1 S1                 0.0000
     34 ****         5.0014  -1.3698   1.2526 H              1 S1                 0.0000
     35 ****        -1.5507   3.6728   3.9124 H              1 S1                 0.0000
     36 ****        -2.0034   5.3363   3.5358 H              1 S1                 0.0000
     37 ****        -0.4616   4.6904   2.9684 H              1 S1                 0.0000
     38 ****        -2.9383   1.9695   2.1519 H              1 S1                 0.0000
     39 ****        -5.3545   1.4119   0.9110 H              1 S1                 0.0000
     40 ****        -5.9172   1.0066  -0.7044 H              1 S1                 0.0000
     41 ****        -5.9339   2.6811  -0.1595 H              1 S1                 0.0000
     42 ****        -4.5615   1.6383  -2.4736 H              1 S1                 0.0000
     43 ****        -3.3345   0.0984   0.2672 H              1 S1                 0.0000
     44 ****        -3.6078  -0.0740  -1.4525 H              1 S1                 0.0000
     45 ****        -1.4253   1.6968  -1.0111 H              1 S1                 0.0000
     46 ****        -1.0488  -3.5647  -0.3283 H              1 S1                 0.0000
     47 ****         3.4077   1.0483  -0.8860 H              1 S1                 0.0000
     48 ****         5.0645  -5.0542  -1.6220 H              1 S1                 0.0000
     49 ****         4.7483  -5.9921  -0.1712 H              1 S1                 0.0000
     50 ****         3.6115  -6.8001  -1.9386 H              1 S1                 0.0000
     51 ****         3.7875  -4.0972   2.4474 H              1 S1                 0.0000
     52 ****         2.7767  -1.0283   1.7876 H              1 S1                 0.0000
     53 ****        -3.9286   5.1784  -1.7445 H              1 S1                 0.0000
     54 ****        -2.3395   4.5954  -2.2474 H              1 S1                 0.0000
     55 ****        -2.4768   6.0662  -1.2852 H              1 S1                 0.0000
     56 ****        -3.2101   2.4769  -2.4389 LP             1 S1                 0.0000
     57 ****        -4.6389   3.1740  -2.0657 LP             1 S1                 0.0000
     58 ****        -2.4109  -1.7177  -0.5779 LP             1 S1                 0.0000
     59 ****         1.3134  -3.4110  -0.3301 LP             1 S1                 0.0000
     60 ****         1.0675   1.9068  -1.0240 LP             1 S1                 0.0000
     61 ****         4.2689  -3.1234  -1.8619 LP             1 S1                 0.0000
     62 ****         2.6752  -3.0283  -1.5186 LP             1 S1                 0.0000
     63 ****         2.8206  -5.4503  -2.2253 LP             1 S1                 0.0000
     64 ****         2.5644  -6.2965  -0.8525 LP             1 S1                 0.0000
     65 ****         5.3197  -3.7591   2.7178 LP             1 S1                 0.0000
     66 ****         4.8884  -5.1338   1.9491 LP             1 S1                 0.0000
     67 ****         3.4599  -2.0400   2.8077 LP             1 S1                 0.0000
     68 ****         2.4150  -2.5731   1.6716 LP             1 S1                 0.0000
     69 ****        -1.2196   5.0871   0.5977 LP             1 S1                 0.0000
     70 ****        -2.6449   5.6985   1.1087 LP             1 S1                 0.0000
@<TRIPOS>BOND
    1    1    2 1     
    2    1   35 1     
    3    1   36 1     
    4    1   37 1     
    5    2   30 1     
    6    2    3 2     
    7    3    4 1     
    8    3   38 1     
    9    4    5 1     
   10    4   28 2     
   11    5    6 1     
   12    5    7 1     
   13    5    8 1     
   14    6   39 1     
   15    6   40 1     
   16    6   41 1     
   17    7   42 1     
   18    8    9 1     
   19    8   43 1     
   20    8   44 1     
   21    9   10 1     
   22    9   45 1     
   23   10   15 ar    
   24   10   11 ar    
   25   11   12 ar    
   26   12   13 ar    
   27   12   46 1     
   28   13   14 ar    
   29   14   18 1     
   30   14   15 ar    
   31   15   16 1     
   32   16   17 2     
   33   17   18 1     
   34   17   47 1     
   35   18   19 1     
   36   19   31 1     
   37   19   26 1     
   38   19   20 1     
   39   20   21 1     
   40   21   32 1     
   41   21   22 1     
   42   21   24 1     
   43   22   23 1     
   44   22   48 1     
   45   22   49 1     
   46   23   50 1     
   47   24   33 1     
   48   24   25 1     
   49   24   26 1     
   50   25   51 1     
   51   26   34 1     
   52   26   27 1     
   53   27   52 1     
   54   28   29 1     
   55   28   30 1     
   56   29   53 1     
   57   29   54 1     
   58   29   55 1     
   59    7   56 1     
   60    7   57 1     
   61   11   58 1     
   62   13   59 1     
   63   16   60 1     
   64   20   61 1     
   65   20   62 1     
   66   23   63 1     
   67   23   64 1     
   68   25   65 1     
   69   25   66 1     
   70   27   67 1     
   71   27   68 1     
   72   30   69 1     
   73   30   70 1     
@<TRIPOS>SUBSTRUCTURE
      1 S1             1
@<TRIPOS>SET
LONE_PAIRS      STATIC     ATOMS    <user>   **** ""
15 56 57 58 59 60 61 62 63 64 65 66 67 68 69 70
DONOR_HYDROGENS      STATIC     ATOMS    <user>   **** ""
5 42 45 50 51 52
ATOM$BLUE        STATIC     ATOMS    COLORGROUP SYSTEM
15 56 57 58 59 60 61 62 63 64 65 66 67 68 69 70
ATOM$RED        STATIC     ATOMS    COLORGROUP SYSTEM
5 42 45 50 51 52
