AV-unprocessed.smi:159|AV-procd|sdf|1342|dock9
  -GOLD-   2262019 43D 1   1.00000     0.00000
 Structure written by MMmdl.
 28 29  0  0  0  0  0  0  0  0  1 V2000
  152.2690  140.7818  159.0691 N   0  0  0  0  0  0  0  0  0  0  0  0
  151.5254  140.8758  157.9577 C   0  0  0  0  0  0  0  0  0  0  0  0
  150.3806  141.7577  157.9171 C   0  0  0  0  0  0  0  0  0  0  0  0
  149.6789  141.7934  156.7629 C   0  0  0  0  0  0  0  0  0  0  0  0
  150.0224  141.0185  155.6638 N   0  0  0  0  0  0  0  0  0  0  0  0
  149.2209  141.0829  154.3827 C   0  0  2  0  0  0  0  0  0  0  0  0
  148.0551  142.0676  154.5289 C   0  0  0  0  0  0  0  0  0  0  0  0
  146.8742  141.1357  154.7007 C   0  0  0  0  0  0  0  0  0  0  0  0
  147.2902  139.9371  153.8505 C   0  0  2  0  0  0  0  0  0  0  0  0
  146.5586  138.6399  154.2247 C   0  0  0  0  0  0  0  0  0  0  0  0
  145.1644  138.8592  154.2458 O   0  0  0  0  0  0  0  0  0  0  0  0
  148.6829  139.8190  154.1232 O   0  0  0  0  0  0  0  0  0  0  0  0
  151.1624  140.1809  155.7267 C   0  0  0  0  0  0  0  0  0  0  0  0
  151.5290  139.5062  154.7651 O   0  0  0  0  0  0  0  0  0  0  0  0
  151.8591  140.1546  156.9052 N   0  0  0  0  0  0  0  0  0  0  0  0
  149.9119  141.3413  153.5785 H   0  0  0  0  0  0  0  0  0  0  0  0
  147.1458  140.1810  152.7962 H   0  0  0  0  0  0  0  0  0  0  0  0
  153.0697  140.1673  159.0935 H   0  0  0  0  0  0  0  0  0  0  0  0
  152.0275  141.3321  159.8809 H   0  0  0  0  0  0  0  0  0  0  0  0
  150.0730  142.3721  158.7511 H   0  0  0  0  0  0  0  0  0  0  0  0
  148.8255  142.4537  156.7137 H   0  0  0  0  0  0  0  0  0  0  0  0
  148.1964  142.7598  155.3601 H   0  0  0  0  0  0  0  0  0  0  0  0
  147.9632  142.6388  153.6043 H   0  0  0  0  0  0  0  0  0  0  0  0
  146.7741  140.8479  155.7482 H   0  0  0  0  0  0  0  0  0  0  0  0
  145.9320  141.5789  154.3777 H   0  0  0  0  0  0  0  0  0  0  0  0
  146.8070  137.8307  153.5375 H   0  0  0  0  0  0  0  0  0  0  0  0
  146.8534  138.3188  155.2242 H   0  0  0  0  0  0  0  0  0  0  0  0
  144.9159  139.2926  153.4436 H   0  0  0  0  0  0  0  0  0  0  0  0
  1  2  1  0  0  0  0
  1 18  1  0  0  0  0
  1 19  1  0  0  0  0
  2 15  2  0  0  0  0
  2  3  1  0  0  0  0
  3  4  2  0  0  0  0
  3 20  1  0  0  0  0
  4  5  1  0  0  0  0
  4 21  1  0  0  0  0
  5  6  1  0  0  0  0
  5 13  1  0  0  0  0
  6 16  1  0  0  0  0
  6 12  1  0  0  0  0
  6  7  1  0  0  0  0
  7  8  1  0  0  0  0
  7 22  1  0  0  0  0
  7 23  1  0  0  0  0
  8  9  1  0  0  0  0
  8 24  1  0  0  0  0
  8 25  1  0  0  0  0
  9 17  1  0  0  0  0
  9 10  1  0  0  0  0
  9 12  1  0  0  0  0
 10 11  1  0  0  0  0
 10 26  1  0  0  0  0
 10 27  1  0  0  0  0
 11 28  1  0  0  0  0
 13 14  2  0  0  0  0
 13 15  1  0  0  0  0
M  END
> <s_m_source_file>
AV-unprocessed.smi

> <i_m_source_file_index>
159

> <i_lp_mmshare_version>
43012

> <i_f3d_flags>
0

> <s_epik_input>
W05IMl1jMVtjSF1bY0hdbihjKD1PKW4xKVtDQEhdMltDSDJdW0NIMl1bQ0BIXShPMilbQ0gyXVtPSF0=

> <s_epik_cmdline>
J2VwaWtfcHl0aG9uJywgJy1waCcsICc3LjAnLCAnLXRuJywgJzgnLCAnLW1hJywgJzIwMCcsICctbWV0YWxfYmluZGluZycsICctaW1hZScsICc8aW5maWxlLm1hZT4nLCAnLW9tYWUnLCAnPG91dGZpbGUubWFlPic=

> <r_lp_tautomer_probability>
0.99996

> <r_epik_Ionization_Penalty>
0.00126102

> <r_epik_Ionization_Penalty_Charging>
4.46248e-08

> <r_epik_Ionization_Penalty_Neutral>
0.00126097

> <r_epik_State_Penalty>
1.15523e-05

> <r_epik_Charging_Adjusted_Penalty>
1.1597e-05

> <i_epik_Tot_Q>
0

> <i_epik_Tot_abs_Q>
0

> <r_epik_Metal_State_Penalty>
-0

> <b_epik_Metal_Only>
0

> <s_epik_Chemistry_Notes>
This compound contains an acetal/aminal-like group ( X-CH(R)-Y where X, Y are N, S, or O) that may be acid/base labile, releasing an aldehyde.

> <s_lp_Force_Field>
OPLS_2005

> <r_lp_Energy>
25.8801

> <b_lp_Chiralities_Consistent>
1

> <s_lp_Variant>
AV-unprocessed.smi:159-4

> <Gold.Version>
5.8.1

> <Gold.Id.Protein>
6NUR|6NUR_protein|mol2

> <Gold.PLP.Fitness>
31.2903

> <Gold.PLP.PLP>
-22.8415

> <Gold.PLP.part.hbond>
-2.0000

> <Gold.PLP.part.metal>
0.0000

> <Gold.PLP.part.buried>
-2.2459

> <Gold.PLP.part.nonpolar>
-19.2540

> <Gold.PLP.part.repulsive>
0.6437

> <Gold.PLP.ligand.clash>
0.0000

> <Gold.PLP.ligand.torsion>
0.0692

> <Gold.PLP.Chemscore.Hbond>
1.9920

> <Gold.PLP.Chemscore.CHOScore>
0.8660

> <Gold.PLP.Chemscore.Metal>
0.0000

> <Gold.Chemscore.Hbonds>
donor molecule, donor type, donor heavy atom, donor atom, acceptor molecule, acceptor atom, score
      L1  H    11    28       P1 10175  0.98
      P1  H  7989  7998       L1    14  0.95
      L1  C     4    21       P1  8028  0.89

> <Gold.PLP.Chemscore.Internal.Correction>
0.0130

> <Gold.Rescore>
     Score         DG    S(hbond)    S(metal)    S(lipo)     H(rot)  DE(clash)    DE(int)     intcor
      8.70      -9.53       1.92        0.00      25.68       2.09       0.52       0.31       ----

> <Gold.Chemscore.Fitness>
8.7005

> <Gold.Chemscore.DG>
-9.5287

> <Gold.Chemscore.ZeroCoef>
-5.4800

> <Gold.Chemscore.Hbond>
1.9173

> <Gold.Chemscore.Metal>
0.0000

> <Gold.Chemscore.Lipo>
25.6769

> <Gold.Chemscore.Internal_Hbond>
0.0000

> <Gold.Chemscore.DEClash>
0.5181

> <Gold.Chemscore.DEInternal>
0.3101

> <Gold.Chemscore.Rot>
2.0935

> <Gold.Chemscore.Internal.Correction>
   9.000000E+99

> <Gold.Chemscore.Hbonds>
donor molecule, donor type, donor heavy atom, donor atom, acceptor molecule, acceptor atom, score
      L1  H    11    28       P1 10175  0.92
      P1  H  7989  7998       L1    14  0.21

> <Gold.Chemscore.Hbond.Weighted>
-6.4039

> <Gold.Chemscore.Metal.Weighted>
-0.0000

> <Gold.Chemscore.Lipo.Weighted>
-3.0042

> <Gold.Chemscore.Internal_Hbond.Weighted>
0.0000

> <Gold.Chemscore.DEClash.Weighted>
0.5181

> <Gold.Chemscore.DEInternal.Weighted>
0.3101

> <Gold.Chemscore.Rot.Weighted>
5.3594

> <Gold.Chemscore.Internal.Correction.Weighted>
   9.000000E+99

> <Gold.Protein.RotatedTorsions>
[ 6907 6896 6895 6894 ] final  108.00 input  -60.11 | X-H torsion
[ 7974 7965 7964 7962 ] final   45.53 input  175.53 | X-H torsion
[ 8008 7997 7996 7995 ] final  -20.46 input   59.86 | X-H torsion
[ 10167 10162 10161 10158 ] final  -59.21 input  -65.29 | X-H torsion
[ 10718 10713 10712 10709 ] final  150.10 input   66.30 | X-H torsion
[ 10763 10752 10751 10750 ] final    2.05 input  -60.55 | X-H torsion
[ 11005 11000 10999 10996 ] final  -90.26 input  -57.11 | X-H torsion

> <Gold.Protein.ActiveResidues>
 VAL166  LYS551  ARG553  GLY616  TRP617  ASP618  TYR619  PRO620  LYS621  CYS622 
 ASP623  PHE694  ASN695  SER759  ASP760  ASP761  ALA762  ILE779  LEU786  VAL792 
 PHE793  MET794  SER795  GLU796  ALA797  LYS798  CYS799  TRP800  GLU811  SER814 

> <Gold.Protein.RotatedAtoms>
  152.5131  133.9152  159.7507 H   0  0  0  0  0  0  0  0  0  0  0  0  # atno 6907 bound_to 6896
  150.9536  133.6513  159.2774 H   0  0  0  0  0  0  0  0  0  0  0  0  # atno 6908 bound_to 6896
  151.3783  135.0940  159.9540 H   0  0  0  0  0  0  0  0  0  0  0  0  # atno 6909 bound_to 6896
  146.0471  139.4954  142.9741 H   0  0  0  0  0  0  0  0  0  0  0  0  # atno 7974 bound_to 7965
  154.4768  140.2061  155.9859 H   0  0  0  0  0  0  0  0  0  0  0  0  # atno 8008 bound_to 7997
  156.1102  140.3230  155.8032 H   0  0  0  0  0  0  0  0  0  0  0  0  # atno 8009 bound_to 7997
  155.4648  140.0527  157.2977 H   0  0  0  0  0  0  0  0  0  0  0  0  # atno 8010 bound_to 7997
  140.6149  143.2399  151.5621 H   0  0  0  0  0  0  0  0  0  0  0  0  # atno 10167 bound_to 10162
  157.2878  131.0847  151.1485 H   0  0  0  0  0  0  0  0  0  0  0  0  # atno 10718 bound_to 10713
  153.3004  135.6955  153.7209 H   0  0  0  0  0  0  0  0  0  0  0  0  # atno 10763 bound_to 10752
  153.6125  135.3442  155.2984 H   0  0  0  0  0  0  0  0  0  0  0  0  # atno 10764 bound_to 10752
  154.8549  135.4367  154.2113 H   0  0  0  0  0  0  0  0  0  0  0  0  # atno 10765 bound_to 10752
  141.1569  133.7681  156.9712 H   0  0  0  0  0  0  0  0  0  0  0  0  # atno 11005 bound_to 11000
  145.6786  141.0197  143.1618 LP  0  0  0  0  0  0  0  0  0  0  0  0  # atno 17320 bound_to 7965
  144.7103  139.8395  143.7416 LP  0  0  0  0  0  0  0  0  0  0  0  0  # atno 17321 bound_to 7965
  139.5391  144.2698  152.1313 LP  0  0  0  0  0  0  0  0  0  0  0  0  # atno 17342 bound_to 10162
  140.1906  144.4756  150.6481 LP  0  0  0  0  0  0  0  0  0  0  0  0  # atno 17343 bound_to 10162
  157.2893  130.6788  149.6106 LP  0  0  0  0  0  0  0  0  0  0  0  0  # atno 17370 bound_to 10713
  155.9666  130.4425  150.5386 LP  0  0  0  0  0  0  0  0  0  0  0  0  # atno 17371 bound_to 10713
  140.1128  134.9466  157.2090 LP  0  0  0  0  0  0  0  0  0  0  0  0  # atno 17394 bound_to 11000
  140.3172  134.2957  155.7254 LP  0  0  0  0  0  0  0  0  0  0  0  0  # atno 17395 bound_to 11000

$$$$
