AV-unprocessed.smi:984|AV-procd|sdf|4317|dock3
  -GOLD-   22720 2223D 1   1.00000     0.00000
 Structure written by MMmdl.
 34 34  0  0  0  0  0  0  0  0  1 V2000
  151.5009  145.0180  159.7222 C   0  0  0  0  0  0  0  0  0  0  0  0
  152.5776  143.9649  159.4415 C   0  0  0  0  0  0  0  0  0  0  0  0
  152.1955  142.5713  159.9728 C   0  0  0  0  0  0  0  0  0  0  0  0
  153.2185  141.4638  159.6546 C   0  0  0  0  0  0  0  0  0  0  0  0
  152.5790  140.2574  159.1379 N   0  0  0  0  0  0  0  0  0  0  0  0
  153.2242  139.1555  158.7260 C   0  0  0  0  0  0  0  0  0  0  0  0
  154.4450  139.0166  158.8076 O   0  0  0  0  0  0  0  0  0  0  0  0
  152.3621  138.0438  158.1216 C   0  0  0  0  0  0  0  0  0  0  0  0
  151.8263  138.4703  156.8341 N   0  0  0  0  0  0  0  0  0  0  0  0
  151.6642  137.6929  155.7516 C   0  0  0  0  0  0  0  0  0  0  0  0
  151.8297  136.4736  155.7557 O   0  0  0  0  0  0  0  0  0  0  0  0
  151.2858  138.4126  154.4568 C   0  0  0  0  0  0  0  0  0  0  0  0
  150.2296  139.3805  154.7016 N   0  0  0  0  0  0  0  0  0  0  0  0
  148.9100  139.2149  154.8154 C   0  0  0  0  0  0  0  0  0  0  0  0
  148.2436  140.3439  155.0130 N   0  0  0  0  0  0  0  0  0  0  0  0
  149.2859  141.2274  155.0116 C   0  0  0  0  0  0  0  0  0  0  0  0
  150.4975  140.7021  154.8288 N   0  0  0  0  0  0  0  0  0  0  0  0
  151.8028  145.9930  159.3393 H   0  0  0  0  0  0  0  0  0  0  0  0
  151.3208  145.1226  160.7924 H   0  0  0  0  0  0  0  0  0  0  0  0
  150.5569  144.7518  159.2462 H   0  0  0  0  0  0  0  0  0  0  0  0
  152.7499  143.9233  158.3657 H   0  0  0  0  0  0  0  0  0  0  0  0
  153.5180  144.2834  159.8925 H   0  0  0  0  0  0  0  0  0  0  0  0
  152.0772  142.6276  161.0555 H   0  0  0  0  0  0  0  0  0  0  0  0
  151.2190  142.2874  159.5784 H   0  0  0  0  0  0  0  0  0  0  0  0
  153.9787  141.8346  158.9650 H   0  0  0  0  0  0  0  0  0  0  0  0
  153.7484  141.1908  160.5673 H   0  0  0  0  0  0  0  0  0  0  0  0
  151.5739  140.2802  159.0439 H   0  0  0  0  0  0  0  0  0  0  0  0
  152.9572  137.1351  158.0184 H   0  0  0  0  0  0  0  0  0  0  0  0
  151.5294  137.8028  158.7834 H   0  0  0  0  0  0  0  0  0  0  0  0
  151.6564  139.4598  156.7248 H   0  0  0  0  0  0  0  0  0  0  0  0
  152.1517  138.9353  154.0479 H   0  0  0  0  0  0  0  0  0  0  0  0
  150.9574  137.6887  153.7093 H   0  0  0  0  0  0  0  0  0  0  0  0
  148.4276  138.2510  154.7422 H   0  0  0  0  0  0  0  0  0  0  0  0
  149.1468  142.2900  155.1462 H   0  0  0  0  0  0  0  0  0  0  0  0
  1  2  1  0  0  0  0
  1 18  1  0  0  0  0
  1 19  1  0  0  0  0
  1 20  1  0  0  0  0
  2  3  1  0  0  0  0
  2 21  1  0  0  0  0
  2 22  1  0  0  0  0
  3  4  1  0  0  0  0
  3 23  1  0  0  0  0
  3 24  1  0  0  0  0
  4  5  1  0  0  0  0
  4 25  1  0  0  0  0
  4 26  1  0  0  0  0
  5  6  1  0  0  0  0
  5 27  1  0  0  0  0
  6  7  2  0  0  0  0
  6  8  1  0  0  0  0
  8  9  1  0  0  0  0
  8 28  1  0  0  0  0
  8 29  1  0  0  0  0
  9 10  1  0  0  0  0
  9 30  1  0  0  0  0
 10 11  2  0  0  0  0
 10 12  1  0  0  0  0
 12 13  1  0  0  0  0
 12 31  1  0  0  0  0
 12 32  1  0  0  0  0
 13 17  1  0  0  0  0
 13 14  1  0  0  0  0
 14 15  2  0  0  0  0
 14 33  1  0  0  0  0
 15 16  1  0  0  0  0
 16 17  2  0  0  0  0
 16 34  1  0  0  0  0
M  END
> <s_m_source_file>
AV-unprocessed.smi

> <i_m_source_file_index>
984

> <i_lp_mmshare_version>
43012

> <i_f3d_flags>
0

> <s_epik_input>
W0NIM11bQ0gyXVtDSDJdW0NIMl1bTkhdQyg9TylbQ0gyXVtOSF1DKD1PKVtDSDJdbjFbY0hdbltjSF1uMQ==

> <s_epik_cmdline>
J2VwaWtfcHl0aG9uJywgJy1waCcsICc3LjAnLCAnLXRuJywgJzgnLCAnLW1hJywgJzIwMCcsICctbWV0YWxfYmluZGluZycsICctaW1hZScsICc8aW5maWxlLm1hZT4nLCAnLW9tYWUnLCAnPG91dGZpbGUubWFlPic=

> <r_lp_tautomer_probability>
1

> <r_epik_Ionization_Penalty>
7.27004e-06

> <r_epik_Ionization_Penalty_Charging>
0

> <r_epik_Ionization_Penalty_Neutral>
7.27004e-06

> <r_epik_State_Penalty>
-0

> <r_epik_Charging_Adjusted_Penalty>
0

> <i_epik_Tot_Q>
0

> <i_epik_Tot_abs_Q>
0

> <r_epik_Metal_State_Penalty>
-0

> <b_epik_Metal_Only>
0

> <s_lp_Force_Field>
OPLS_2005

> <r_lp_Energy>
2.39519

> <b_lp_Chiralities_Consistent>
1

> <s_lp_Variant>
AV-unprocessed.smi:984-1

> <Gold.Version>
5.8.1

> <Gold.Id.Protein>
6NUR|6NUR_protein|mol2

> <Gold.PLP.Fitness>
42.2114

> <Gold.PLP.PLP>
-32.4259

> <Gold.PLP.part.hbond>
-2.8097

> <Gold.PLP.part.metal>
0.0000

> <Gold.PLP.part.buried>
-3.5675

> <Gold.PLP.part.nonpolar>
-26.6922

> <Gold.PLP.part.repulsive>
0.4169

> <Gold.PLP.ligand.clash>
0.0000

> <Gold.PLP.ligand.torsion>
1.0547

> <Gold.PLP.Chemscore.Hbond>
2.9280

> <Gold.PLP.Chemscore.CHOScore>
0.9995

> <Gold.PLP.Chemscore.Metal>
0.0000

> <Gold.Chemscore.Hbonds>
donor molecule, donor type, donor heavy atom, donor atom, acceptor molecule, acceptor atom, score
      P1  H  7989  7998       L1    17  0.85
      P1  H  7997  8008       L1     7  1.00
      P1  H 10752 10765       L1    11  1.00
      L1  C    16    34       P1  8028  1.00

> <Gold.PLP.Chemscore.Internal.Correction>
0.1123

> <Gold.Rescore>
     Score         DG    S(hbond)    S(metal)    S(lipo)     H(rot)  DE(clash)    DE(int)     intcor
     11.31     -12.19       2.83        0.00      55.47       3.61       0.00       0.87       ----

> <Gold.Chemscore.Fitness>
11.3136

> <Gold.Chemscore.DG>
-12.1855

> <Gold.Chemscore.ZeroCoef>
-5.4800

> <Gold.Chemscore.Hbond>
2.8322

> <Gold.Chemscore.Metal>
0.0000

> <Gold.Chemscore.Lipo>
55.4719

> <Gold.Chemscore.Internal_Hbond>
0.0000

> <Gold.Chemscore.DEClash>
0.0000

> <Gold.Chemscore.DEInternal>
0.8719

> <Gold.Chemscore.Rot>
3.6111

> <Gold.Chemscore.Internal.Correction>
   9.000000E+99

> <Gold.Chemscore.Hbonds>
donor molecule, donor type, donor heavy atom, donor atom, acceptor molecule, acceptor atom, score
      P1  H  7989  7998       L1    17  0.19
      P1  H  7997  8008       L1     7  0.30
      P1  H 10752 10765       L1    11  1.00

> <Gold.Chemscore.Hbond.Weighted>
-9.4597

> <Gold.Chemscore.Metal.Weighted>
-0.0000

> <Gold.Chemscore.Lipo.Weighted>
-6.4902

> <Gold.Chemscore.Internal_Hbond.Weighted>
0.0000

> <Gold.Chemscore.DEClash.Weighted>
0.0000

> <Gold.Chemscore.DEInternal.Weighted>
0.8719

> <Gold.Chemscore.Rot.Weighted>
9.2444

> <Gold.Chemscore.Internal.Correction.Weighted>
   9.000000E+99

> <Gold.Protein.RotatedTorsions>
[ 6907 6896 6895 6894 ] final -127.90 input  -60.11 | X-H torsion
[ 7974 7965 7964 7962 ] final  166.64 input  175.53 | X-H torsion
[ 8008 7997 7996 7995 ] final -114.94 input   59.86 | X-H torsion
[ 10167 10162 10161 10158 ] final   94.81 input  -65.29 | X-H torsion
[ 10718 10713 10712 10709 ] final -133.32 input   66.30 | X-H torsion
[ 10763 10752 10751 10750 ] final -168.87 input  -60.55 | X-H torsion
[ 11005 11000 10999 10996 ] final   10.55 input  -57.11 | X-H torsion

> <Gold.Protein.ActiveResidues>
 VAL166  LYS551  ARG553  GLY616  TRP617  ASP618  TYR619  PRO620  LYS621  CYS622 
 ASP623  PHE694  ASN695  SER759  ASP760  ASP761  ALA762  ILE779  LEU786  VAL792 
 PHE793  MET794  SER795  GLU796  ALA797  LYS798  CYS799  TRP800  GLU811  SER814 

> <Gold.Protein.RotatedAtoms>
  150.9122  133.6984  159.2851 H   0  0  0  0  0  0  0  0  0  0  0  0  # atno 6907 bound_to 6896
  151.4466  135.1024  159.9695 H   0  0  0  0  0  0  0  0  0  0  0  0  # atno 6908 bound_to 6896
  152.4936  133.8517  159.7260 H   0  0  0  0  0  0  0  0  0  0  0  0  # atno 6909 bound_to 6896
  144.7455  139.8644  143.6383 H   0  0  0  0  0  0  0  0  0  0  0  0  # atno 7974 bound_to 7965
  155.0442  140.0392  157.2520 H   0  0  0  0  0  0  0  0  0  0  0  0  # atno 8008 bound_to 7997
  154.7191  140.2708  155.6534 H   0  0  0  0  0  0  0  0  0  0  0  0  # atno 8009 bound_to 7997
  156.2811  140.2706  156.1857 H   0  0  0  0  0  0  0  0  0  0  0  0  # atno 8010 bound_to 7997
  139.8048  144.6798  150.9717 H   0  0  0  0  0  0  0  0  0  0  0  0  # atno 10167 bound_to 10162
  156.2437  130.7111  151.0983 H   0  0  0  0  0  0  0  0  0  0  0  0  # atno 10718 bound_to 10713
  154.6583  135.2921  154.9900 H   0  0  0  0  0  0  0  0  0  0  0  0  # atno 10763 bound_to 10752
  154.0968  135.6582  153.4865 H   0  0  0  0  0  0  0  0  0  0  0  0  # atno 10764 bound_to 10752
  153.0415  135.5233  154.7522 H   0  0  0  0  0  0  0  0  0  0  0  0  # atno 10765 bound_to 10752
  140.5132  134.0631  155.7824 H   0  0  0  0  0  0  0  0  0  0  0  0  # atno 11005 bound_to 11000
  146.1325  139.4364  143.0159 LP  0  0  0  0  0  0  0  0  0  0  0  0  # atno 17320 bound_to 7965
  145.7141  141.0096  143.1437 LP  0  0  0  0  0  0  0  0  0  0  0  0  # atno 17321 bound_to 7965
  140.7819  143.4244  151.0791 LP  0  0  0  0  0  0  0  0  0  0  0  0  # atno 17342 bound_to 10162
  139.7914  143.8213  152.3152 LP  0  0  0  0  0  0  0  0  0  0  0  0  # atno 17343 bound_to 10162
  157.7186  131.0695  150.6228 LP  0  0  0  0  0  0  0  0  0  0  0  0  # atno 17370 bound_to 10713
  156.6303  130.4430  149.5789 LP  0  0  0  0  0  0  0  0  0  0  0  0  # atno 17371 bound_to 10713
  141.1374  133.9198  157.2403 LP  0  0  0  0  0  0  0  0  0  0  0  0  # atno 17394 bound_to 11000
  139.9647  135.0145  156.9355 LP  0  0  0  0  0  0  0  0  0  0  0  0  # atno 17395 bound_to 11000

$$$$
