AV-unprocessed.smi:1867|AV-procd|sdf|7583|dock10
  -GOLD-   22720 9293D 1   1.00000     0.00000
 Structure written by MMmdl.
 52 55  0  0  0  0  0  0  0  0  4 V2000
  151.3283  136.4832  158.5473 O   0  0  0  0  0  0  0  0  0  0  0  0
  150.8101  136.5169  157.4325 C   0  0  0  0  0  0  0  0  0  0  0  0
  150.5851  137.7211  156.8503 N   0  0  0  0  0  0  0  0  0  0  0  0
  150.9490  139.0153  157.3092 C   0  0  0  0  0  0  0  0  0  0  0  0
  150.5821  140.1256  156.5212 C   0  0  0  0  0  0  0  0  0  0  0  0
  150.9438  141.4250  156.9320 C   0  0  0  0  0  0  0  0  0  0  0  0
  151.6865  141.6018  158.1235 C   0  0  0  0  0  0  0  0  0  0  0  0
  152.0766  142.8682  158.5986 N   0  0  0  0  0  0  0  0  0  0  0  0
  151.4780  144.0916  158.0893 C   0  0  0  0  0  0  0  0  0  0  0  0
  152.0620  145.1984  158.9656 C   0  0  0  0  0  0  0  0  0  0  0  0
  152.2485  144.5084  160.3172 C   0  0  0  0  0  0  0  0  0  0  0  0
  152.5695  143.0530  159.9561 C   0  0  0  0  0  0  0  0  0  0  0  0
  152.0295  140.5054  158.8408 N   0  3  0  0  0  0  0  0  0  0  0  0
  151.7016  139.2446  158.4850 C   0  0  0  0  0  0  0  0  0  0  0  0
  150.4373  135.3686  156.7905 N   0  5  0  0  0  0  0  0  0  0  0  0
  150.1449  135.1546  155.3662 C   0  0  1  0  0  0  0  0  0  0  0  0
  150.9026  133.9358  154.8043 C   0  0  0  0  0  0  0  0  0  0  0  0
  149.9317  133.2648  153.8135 C   0  0  0  0  0  0  0  0  0  0  0  0
  148.7059  134.0856  153.8428 N   0  3  1  0  0  0  0  0  0  0  0  0
  147.4303  133.4102  153.5161 C   0  0  0  0  0  0  0  0  0  0  0  0
  146.2932  134.4520  153.4957 C   0  0  0  0  0  0  0  0  0  0  0  0
  146.2413  135.2718  154.8017 C   0  0  0  0  0  0  0  0  0  0  0  0
  147.6181  135.8810  155.1332 C   0  0  0  0  0  0  0  0  0  0  0  0
  148.6787  134.7605  155.1504 C   0  0  2  0  0  0  0  0  0  0  0  0
  150.0463  137.6970  155.9972 H   0  0  0  0  0  0  0  0  0  0  0  0
  150.0179  139.9865  155.6103 H   0  0  0  0  0  0  0  0  0  0  0  0
  150.6424  142.2695  156.3304 H   0  0  0  0  0  0  0  0  0  0  0  0
  151.7100  144.2470  157.0350 H   0  0  0  0  0  0  0  0  0  0  0  0
  150.3941  144.0417  158.2028 H   0  0  0  0  0  0  0  0  0  0  0  0
  153.0319  145.5076  158.5733 H   0  0  0  0  0  0  0  0  0  0  0  0
  151.4226  146.0799  159.0192 H   0  0  0  0  0  0  0  0  0  0  0  0
  153.0228  144.9730  160.9286 H   0  0  0  0  0  0  0  0  0  0  0  0
  151.3130  144.5483  160.8769 H   0  0  0  0  0  0  0  0  0  0  0  0
  152.1038  142.3648  160.6624 H   0  0  0  0  0  0  0  0  0  0  0  0
  153.6460  142.8801  159.9665 H   0  0  0  0  0  0  0  0  0  0  0  0
  152.0643  138.4729  159.1479 H   0  0  0  0  0  0  0  0  0  0  0  0
  150.3676  136.0272  154.7491 H   0  0  0  0  0  0  0  0  0  0  0  0
  151.8331  134.2375  154.3224 H   0  0  0  0  0  0  0  0  0  0  0  0
  151.1608  133.2259  155.5921 H   0  0  0  0  0  0  0  0  0  0  0  0
  150.3358  133.2191  152.8017 H   0  0  0  0  0  0  0  0  0  0  0  0
  149.7139  132.2446  154.1349 H   0  0  0  0  0  0  0  0  0  0  0  0
  147.5122  132.9230  152.5441 H   0  0  0  0  0  0  0  0  0  0  0  0
  147.2236  132.6320  154.2524 H   0  0  0  0  0  0  0  0  0  0  0  0
  146.4414  135.1297  152.6538 H   0  0  0  0  0  0  0  0  0  0  0  0
  145.3363  133.9572  153.3268 H   0  0  0  0  0  0  0  0  0  0  0  0
  145.4919  136.0595  154.7211 H   0  0  0  0  0  0  0  0  0  0  0  0
  145.9244  134.6263  155.6218 H   0  0  0  0  0  0  0  0  0  0  0  0
  147.8648  136.6427  154.3907 H   0  0  0  0  0  0  0  0  0  0  0  0
  147.5719  136.3874  156.0992 H   0  0  0  0  0  0  0  0  0  0  0  0
  148.3990  134.0201  155.9043 H   0  0  0  0  0  0  0  0  0  0  0  0
  148.8424  134.8169  153.1600 H   0  0  0  0  0  0  0  0  0  0  0  0
  152.5685  140.6362  159.6967 H   0  0  0  0  0  0  0  0  0  0  0  0
  1  2  2  0  0  0  0
  2  3  1  0  0  0  0
  2 15  1  0  0  0  0
  3  4  1  0  0  0  0
  3 25  1  0  0  0  0
  4 14  1  0  0  0  0
  4  5  2  0  0  0  0
  5  6  1  0  0  0  0
  5 26  1  0  0  0  0
  6  7  2  0  0  0  0
  6 27  1  0  0  0  0
  7  8  1  0  0  0  0
  7 13  1  0  0  0  0
  8 12  1  0  0  0  0
  8  9  1  0  0  0  0
  9 10  1  0  0  0  0
  9 28  1  0  0  0  0
  9 29  1  0  0  0  0
 10 11  1  0  0  0  0
 10 30  1  0  0  0  0
 10 31  1  0  0  0  0
 11 12  1  0  0  0  0
 11 32  1  0  0  0  0
 11 33  1  0  0  0  0
 12 34  1  0  0  0  0
 12 35  1  0  0  0  0
 13 14  2  0  0  0  0
 13 52  1  0  0  0  0
 14 36  1  0  0  0  0
 15 16  1  0  0  0  0
 16 24  1  0  0  0  0
 16 17  1  0  0  0  0
 16 37  1  0  0  0  0
 17 18  1  0  0  0  0
 17 38  1  0  0  0  0
 17 39  1  0  0  0  0
 18 19  1  0  0  0  0
 18 40  1  0  0  0  0
 18 41  1  0  0  0  0
 19 24  1  0  0  0  0
 19 20  1  0  0  0  0
 19 51  1  0  0  0  0
 20 21  1  0  0  0  0
 20 42  1  0  0  0  0
 20 43  1  0  0  0  0
 21 22  1  0  0  0  0
 21 44  1  0  0  0  0
 21 45  1  0  0  0  0
 22 23  1  0  0  0  0
 22 46  1  0  0  0  0
 22 47  1  0  0  0  0
 23 24  1  0  0  0  0
 23 48  1  0  0  0  0
 23 49  1  0  0  0  0
 24 50  1  0  0  0  0
M  CHG  1  13   1
M  CHG  1  15  -1
M  CHG  1  19   1
M  END
> <s_m_source_file>
AV-unprocessed.smi

> <i_m_source_file_index>
1867

> <i_lp_mmshare_version>
43012

> <i_f3d_flags>
0

> <s_epik_input>
W0NIMl0xW0NIMl1bQ0gyXVtDSDJdW0NASF0oTjEyKVtDQEBIXShbQ0gyXVtDSDJdMilbTkhdQyg9TylbTkhdYzNbY0hdW2NIXWMobltjSF0zKU40W0NIMl1bQ0gyXVtDSDJdW0NIMl00

> <s_epik_cmdline>
J2VwaWtfcHl0aG9uJywgJy1waCcsICc3LjAnLCAnLXRuJywgJzgnLCAnLW1hJywgJzIwMCcsICctbWV0YWxfYmluZGluZycsICctaW1hZScsICc8aW5maWxlLm1hZT4nLCAnLW9tYWUnLCAnPG91dGZpbGUubWFlPic=

> <r_lp_tautomer_probability>
0.999994

> <r_epik_Ionization_Penalty>
8.56137

> <r_epik_Ionization_Penalty_Charging>
8.56136

> <r_epik_Ionization_Penalty_Neutral>
3.91889e-06

> <r_epik_State_Penalty>
8.16255

> <r_epik_Charging_Adjusted_Penalty>
16.7239

> <i_epik_Tot_Q>
1

> <i_epik_Tot_abs_Q>
3

> <r_epik_Metal_State_Penalty>
4.14279

> <b_epik_Metal_Only>
1

> <s_lp_Force_Field>
OPLS_2005

> <r_lp_Energy>
66.3104

> <b_lp_Chiralities_Consistent>
1

> <s_lp_Variant>
AV-unprocessed.smi:1867-24

> <Gold.Version>
5.8.1

> <Gold.Id.Protein>
6NUR|6NUR_protein|mol2

> <Gold.PLP.Fitness>
49.4435

> <Gold.PLP.PLP>
-40.7662

> <Gold.PLP.part.hbond>
-2.0000

> <Gold.PLP.part.metal>
0.0000

> <Gold.PLP.part.buried>
-6.1017

> <Gold.PLP.part.nonpolar>
-33.4390

> <Gold.PLP.part.repulsive>
0.1658

> <Gold.PLP.ligand.clash>
0.0000

> <Gold.PLP.ligand.torsion>
0.2319

> <Gold.PLP.Chemscore.Hbond>
2.9750

> <Gold.PLP.Chemscore.CHOScore>
0.0000

> <Gold.PLP.Chemscore.Metal>
0.0000

> <Gold.Chemscore.Hbonds>
donor molecule, donor type, donor heavy atom, donor atom, acceptor molecule, acceptor atom, score
      L1  H    19    51       P1  7948  1.90
      P1  H  6896  6907       L1     1  0.50

> <Gold.PLP.Chemscore.Internal.Correction>
0.2161

> <Gold.Rescore>
     Score         DG    S(hbond)    S(metal)    S(lipo)     H(rot)  DE(clash)    DE(int)     intcor
     18.68     -20.34       1.90        0.00      94.55       1.00       0.01       1.64       ----

> <Gold.Chemscore.Fitness>
18.6845

> <Gold.Chemscore.DG>
-20.3385

> <Gold.Chemscore.ZeroCoef>
-5.4800

> <Gold.Chemscore.Hbond>
1.9029

> <Gold.Chemscore.Metal>
0.0000

> <Gold.Chemscore.Lipo>
94.5528

> <Gold.Chemscore.Internal_Hbond>
0.0000

> <Gold.Chemscore.DEClash>
0.0126

> <Gold.Chemscore.DEInternal>
1.6413

> <Gold.Chemscore.Rot>
1.0000

> <Gold.Chemscore.Internal.Correction>
   9.000000E+99

> <Gold.Chemscore.Hbonds>
donor molecule, donor type, donor heavy atom, donor atom, acceptor molecule, acceptor atom, score
      L1  H    19    51       P1  7948  0.22
      P1  H  6896  6907       L1     1  0.44

> <Gold.Chemscore.Hbond.Weighted>
-6.3558

> <Gold.Chemscore.Metal.Weighted>
-0.0000

> <Gold.Chemscore.Lipo.Weighted>
-11.0627

> <Gold.Chemscore.Internal_Hbond.Weighted>
0.0000

> <Gold.Chemscore.DEClash.Weighted>
0.0126

> <Gold.Chemscore.DEInternal.Weighted>
1.6413

> <Gold.Chemscore.Rot.Weighted>
2.5600

> <Gold.Chemscore.Internal.Correction.Weighted>
   9.000000E+99

> <Gold.Protein.RotatedTorsions>
[ 6907 6896 6895 6894 ] final  -49.18 input  -60.11 | X-H torsion
[ 7974 7965 7964 7962 ] final  -32.71 input  175.53 | X-H torsion
[ 8008 7997 7996 7995 ] final  -11.92 input   59.86 | X-H torsion
[ 10167 10162 10161 10158 ] final  -96.89 input  -65.29 | X-H torsion
[ 10718 10713 10712 10709 ] final  172.56 input   66.30 | X-H torsion
[ 10763 10752 10751 10750 ] final  -53.38 input  -60.55 | X-H torsion
[ 11005 11000 10999 10996 ] final  100.71 input  -57.11 | X-H torsion

> <Gold.Protein.ActiveResidues>
 VAL166  LYS551  ARG553  GLY616  TRP617  ASP618  TYR619  PRO620  LYS621  CYS622 
 ASP623  PHE694  ASN695  SER759  ASP760  ASP761  ALA762  ILE779  LEU786  VAL792 
 PHE793  MET794  SER795  GLU796  ALA797  LYS798  CYS799  TRP800  GLU811  SER814 

> <Gold.Protein.RotatedAtoms>
  150.8831  134.8225  159.7239 H   0  0  0  0  0  0  0  0  0  0  0  0  # atno 6907 bound_to 6896
  152.4790  134.4765  159.9662 H   0  0  0  0  0  0  0  0  0  0  0  0  # atno 6908 bound_to 6896
  151.4837  133.3502  159.2877 H   0  0  0  0  0  0  0  0  0  0  0  0  # atno 6909 bound_to 6896
  146.0969  140.5826  142.8839 H   0  0  0  0  0  0  0  0  0  0  0  0  # atno 7974 bound_to 7965
  154.5423  140.2290  155.8621 H   0  0  0  0  0  0  0  0  0  0  0  0  # atno 8008 bound_to 7997
  156.1870  140.3086  155.9219 H   0  0  0  0  0  0  0  0  0  0  0  0  # atno 8009 bound_to 7997
  155.3234  140.0441  157.3030 H   0  0  0  0  0  0  0  0  0  0  0  0  # atno 8010 bound_to 7997
  140.2891  143.3233  152.0364 H   0  0  0  0  0  0  0  0  0  0  0  0  # atno 10167 bound_to 10162
  156.9771  131.0107  151.2891 H   0  0  0  0  0  0  0  0  0  0  0  0  # atno 10718 bound_to 10713
  154.1578  135.6479  153.4978 H   0  0  0  0  0  0  0  0  0  0  0  0  # atno 10763 bound_to 10752
  153.0119  135.5353  154.6742 H   0  0  0  0  0  0  0  0  0  0  0  0  # atno 10764 bound_to 10752
  154.6047  135.2947  155.0469 H   0  0  0  0  0  0  0  0  0  0  0  0  # atno 10765 bound_to 10752
  139.8771  134.9152  156.4797 H   0  0  0  0  0  0  0  0  0  0  0  0  # atno 11005 bound_to 11000
  144.7402  140.4921  143.6875 LP  0  0  0  0  0  0  0  0  0  0  0  0  # atno 17320 bound_to 7965
  145.5931  139.1497  143.3171 LP  0  0  0  0  0  0  0  0  0  0  0  0  # atno 17321 bound_to 7965
  139.4942  144.6538  151.6618 LP  0  0  0  0  0  0  0  0  0  0  0  0  # atno 17342 bound_to 10162
  140.5747  144.0048  150.6235 LP  0  0  0  0  0  0  0  0  0  0  0  0  # atno 17343 bound_to 10162
  157.5552  130.8209  149.8195 LP  0  0  0  0  0  0  0  0  0  0  0  0  # atno 17370 bound_to 10713
  156.0259  130.3779  150.1824 LP  0  0  0  0  0  0  0  0  0  0  0  0  # atno 17371 bound_to 10713
  140.8736  133.7970  155.9391 LP  0  0  0  0  0  0  0  0  0  0  0  0  # atno 17394 bound_to 11000
  140.8927  134.2475  157.5085 LP  0  0  0  0  0  0  0  0  0  0  0  0  # atno 17395 bound_to 11000

$$$$
