#       Name:                AV-unprocessed.smi:3095
#       Creating user name   scv26
#       Creation time:       Fri Mar 27 17:17:06 2020


#       File generated by GOLD software.
#

@<TRIPOS>MOLECULE
AV-unprocessed.smi:3095
    28    29     1
SMALL
NO_CHARGES


@<TRIPOS>ATOM
      1 ****        -3.5127   2.0814   0.2880 C.3            1 S1                 0.0000
      2 ****        -2.0175   2.0778   0.3489 C.2            1 S1                 0.0000
      3 ****        -1.1929   3.1695   0.4583 C.2            1 S1                 0.0000
      4 ****         0.4878   2.7126   0.4902 S.3            1 S1                 0.0000
      5 ****         0.0023   1.0250   0.3687 C.2            1 S1                 0.0000
      6 ****         0.9884  -0.0970   0.2930 C.3            1 S1                 0.0000
      7 ****         1.3395  -0.4692  -1.1604 C.3            1 S1                 0.0000
      8 ****         2.2451  -1.6166  -1.1842 N.3            1 S1                 0.0000
      9 ****         1.6831  -2.7478  -0.4477 C.3            1 S1                 0.0000
     10 ****         1.3142  -2.3242   0.9857 C.3            1 S1                 0.0000
     11 ****         0.4087  -1.2261   0.9427 O.3            1 S1                 0.0000
     12 ****        -1.3232   0.8661   0.2894 N.2            1 S1                 0.0000
     13 ****        -3.9089   3.0972   0.2766 H              1 S1                 0.0000
     14 ****        -3.9427   1.5694   1.1492 H              1 S1                 0.0000
     15 ****        -3.8715   1.5782  -0.6100 H              1 S1                 0.0000
     16 ****        -1.4702   4.2115   0.5189 H              1 S1                 0.0000
     17 ****         1.8876   0.2085   0.8312 H              1 S1                 0.0000
     18 ****         0.4279  -0.7073  -1.7104 H              1 S1                 0.0000
     19 ****         1.7985   0.3806  -1.6661 H              1 S1                 0.0000
     20 ****         2.4215  -1.8906  -2.1456 H              1 S1                 0.0000
     21 ****         0.7942  -3.1188  -0.9593 H              1 S1                 0.0000
     22 ****         2.3973  -3.5710  -0.4237 H              1 S1                 0.0000
     23 ****         0.8381  -3.1527   1.5102 H              1 S1                 0.0000
     24 ****         2.2054  -2.0570   1.5561 H              1 S1                 0.0000
     25 ****         3.1020  -1.3495  -0.7433 LP             1 S1                 0.0000
     26 ****        -0.4131  -1.5017   0.4440 LP             1 S1                 0.0000
     27 ****         0.1615  -0.9717   1.8777 LP             1 S1                 0.0000
     28 ****        -1.7697  -0.0239   0.1974 LP             1 S1                 0.0000
@<TRIPOS>BOND
    1    1    2 1     
    2    1   13 1     
    3    1   14 1     
    4    1   15 1     
    5    2   12 1     
    6    2    3 2     
    7    3    4 1     
    8    3   16 1     
    9    4    5 1     
   10    5    6 1     
   11    5   12 2     
   12    6   11 1     
   13    6    7 1     
   14    6   17 1     
   15    7    8 1     
   16    7   18 1     
   17    7   19 1     
   18    8    9 1     
   19    8   20 1     
   20    9   10 1     
   21    9   21 1     
   22    9   22 1     
   23   10   11 1     
   24   10   23 1     
   25   10   24 1     
   26    8   25 1     
   27   11   26 1     
   28   11   27 1     
   29   12   28 1     
@<TRIPOS>SUBSTRUCTURE
      1 S1             1
@<TRIPOS>SET
LONE_PAIRS      STATIC     ATOMS    <user>   **** ""
4 25 26 27 28
DONOR_HYDROGENS      STATIC     ATOMS    <user>   **** ""
1 20
ATOM$BLUE        STATIC     ATOMS    COLORGROUP SYSTEM
4 25 26 27 28
ATOM$RED        STATIC     ATOMS    COLORGROUP SYSTEM
1 20
