AV-unprocessed.smi:190|AV-procd|sdf|1491|dock8
  -GOLD-   2262019313D 1   1.00000     0.00000
 Structure written by MMmdl.
 54 58  0  0  0  0  0  0  0  0  1 V2000
  147.1321  138.6176  152.6062 O   0  0  0  0  0  0  0  0  0  0  0  0
  147.6508  139.6617  153.4063 C   0  0  0  0  0  0  0  0  0  0  0  0
  148.0887  139.1685  154.8150 C   0  0  0  0  0  0  0  0  0  0  0  0
  146.8455  138.5074  155.4872 C   0  0  0  0  0  0  0  0  0  0  0  0
  147.0845  137.8787  156.7788 N   0  0  0  0  0  0  0  0  0  0  0  0
  148.2308  137.9540  157.5349 C   0  0  0  0  0  0  0  0  0  0  0  0
  148.1999  137.2884  158.6561 N   0  0  0  0  0  0  0  0  0  0  0  0
  146.9422  136.6927  158.6765 C   0  0  0  0  0  0  0  0  0  0  0  0
  146.2516  135.8351  159.5883 C   0  0  0  0  0  0  0  0  0  0  0  0
  146.7733  135.3968  160.7726 N   0  0  0  0  0  0  0  0  0  0  0  0
  147.8187  136.1722  161.4330 C   0  0  0  0  0  0  0  0  0  0  0  0
  147.9222  135.6347  162.8635 C   0  0  0  0  0  0  0  0  0  0  0  0
  147.1599  134.3117  162.8153 C   0  0  0  0  0  0  0  0  0  0  0  0
  146.0712  134.5622  161.7589 C   0  0  1  0  0  0  0  0  0  0  0  0
  144.8520  135.2531  162.3900 C   0  0  0  0  0  0  0  0  0  0  0  0
  143.8657  134.1059  162.5715 C   0  0  0  0  0  0  0  0  0  0  0  0
  144.0909  133.3115  161.4200 O   0  0  0  0  0  0  0  0  0  0  0  0
  145.4960  133.2332  161.2163 C   0  0  0  0  0  0  0  0  0  0  0  0
  145.0043  135.4379  159.2207 N   0  0  0  0  0  0  0  0  0  0  0  0
  144.4605  135.8434  158.0713 C   0  0  0  0  0  0  0  0  0  0  0  0
  144.9825  136.6411  157.1408 N   0  0  0  0  0  0  0  0  0  0  0  0
  146.2365  137.0458  157.4887 C   0  0  0  0  0  0  0  0  0  0  0  0
  149.2733  138.1718  154.7204 C   0  0  0  0  0  0  0  0  0  0  0  0
  150.5736  138.8411  154.2387 C   0  0  0  0  0  0  0  0  0  0  0  0
  150.9158  139.9144  155.1069 O   0  0  0  0  0  0  0  0  0  0  0  0
  149.9322  140.9413  155.1384 C   0  0  0  0  0  0  0  0  0  0  0  0
  148.5948  140.3740  155.6507 C   0  0  0  0  0  0  0  0  0  0  0  0
  147.8304  138.0098  152.4152 H   0  0  0  0  0  0  0  0  0  0  0  0
  148.4716  140.1164  152.8548 H   0  0  0  0  0  0  0  0  0  0  0  0
  146.8845  140.4323  153.4974 H   0  0  0  0  0  0  0  0  0  0  0  0
  146.0602  139.2518  155.6239 H   0  0  0  0  0  0  0  0  0  0  0  0
  146.4203  137.7477  154.8302 H   0  0  0  0  0  0  0  0  0  0  0  0
  149.0951  138.5255  157.2289 H   0  0  0  0  0  0  0  0  0  0  0  0
  148.7633  136.0128  160.9123 H   0  0  0  0  0  0  0  0  0  0  0  0
  147.5964  137.2400  161.4262 H   0  0  0  0  0  0  0  0  0  0  0  0
  148.9539  135.5138  163.1944 H   0  0  0  0  0  0  0  0  0  0  0  0
  147.4305  136.3230  163.5519 H   0  0  0  0  0  0  0  0  0  0  0  0
  147.8376  133.5253  162.4781 H   0  0  0  0  0  0  0  0  0  0  0  0
  146.7648  134.0120  163.7867 H   0  0  0  0  0  0  0  0  0  0  0  0
  145.0682  135.7628  163.3293 H   0  0  0  0  0  0  0  0  0  0  0  0
  144.4156  135.9950  161.7223 H   0  0  0  0  0  0  0  0  0  0  0  0
  144.0948  133.5286  163.4685 H   0  0  0  0  0  0  0  0  0  0  0  0
  142.8315  134.4450  162.6317 H   0  0  0  0  0  0  0  0  0  0  0  0
  145.7316  133.0444  160.1689 H   0  0  0  0  0  0  0  0  0  0  0  0
  145.8710  132.3810  161.7850 H   0  0  0  0  0  0  0  0  0  0  0  0
  143.4653  135.4753  157.8700 H   0  0  0  0  0  0  0  0  0  0  0  0
  149.4772  137.7416  155.7000 H   0  0  0  0  0  0  0  0  0  0  0  0
  149.0232  137.3319  154.0718 H   0  0  0  0  0  0  0  0  0  0  0  0
  151.3872  138.1157  154.2493 H   0  0  0  0  0  0  0  0  0  0  0  0
  150.4891  139.1962  153.2114 H   0  0  0  0  0  0  0  0  0  0  0  0
  150.2786  141.7286  155.8085 H   0  0  0  0  0  0  0  0  0  0  0  0
  149.8308  141.3996  154.1547 H   0  0  0  0  0  0  0  0  0  0  0  0
  147.8404  141.1610  155.6798 H   0  0  0  0  0  0  0  0  0  0  0  0
  148.7595  140.0735  156.6848 H   0  0  0  0  0  0  0  0  0  0  0  0
  1  2  1  0  0  0  0
  1 28  1  0  0  0  0
  2  3  1  0  0  0  0
  2 29  1  0  0  0  0
  2 30  1  0  0  0  0
  3 27  1  0  0  0  0
  3  4  1  0  0  0  0
  3 23  1  0  0  0  0
  4  5  1  0  0  0  0
  4 31  1  0  0  0  0
  4 32  1  0  0  0  0
  5 22  1  0  0  0  0
  5  6  1  0  0  0  0
  6  7  2  0  0  0  0
  6 33  1  0  0  0  0
  7  8  1  0  0  0  0
  8 22  2  0  0  0  0
  8  9  1  0  0  0  0
  9 10  1  0  0  0  0
  9 19  2  0  0  0  0
 10 14  1  0  0  0  0
 10 11  1  0  0  0  0
 11 12  1  0  0  0  0
 11 34  1  0  0  0  0
 11 35  1  0  0  0  0
 12 13  1  0  0  0  0
 12 36  1  0  0  0  0
 12 37  1  0  0  0  0
 13 14  1  0  0  0  0
 13 38  1  0  0  0  0
 13 39  1  0  0  0  0
 14 18  1  0  0  0  0
 14 15  1  0  0  0  0
 15 16  1  0  0  0  0
 15 40  1  0  0  0  0
 15 41  1  0  0  0  0
 16 17  1  0  0  0  0
 16 42  1  0  0  0  0
 16 43  1  0  0  0  0
 17 18  1  0  0  0  0
 18 44  1  0  0  0  0
 18 45  1  0  0  0  0
 19 20  1  0  0  0  0
 20 21  2  0  0  0  0
 20 46  1  0  0  0  0
 21 22  1  0  0  0  0
 23 24  1  0  0  0  0
 23 47  1  0  0  0  0
 23 48  1  0  0  0  0
 24 25  1  0  0  0  0
 24 49  1  0  0  0  0
 24 50  1  0  0  0  0
 25 26  1  0  0  0  0
 26 27  1  0  0  0  0
 26 51  1  0  0  0  0
 26 52  1  0  0  0  0
 27 53  1  0  0  0  0
 27 54  1  0  0  0  0
M  END
> <s_m_source_file>
AV-unprocessed.smi

> <i_m_source_file_index>
190

> <i_lp_mmshare_version>
43012

> <i_f3d_flags>
0

> <s_epik_input>
W0NIMl0xW0NIMl1PW0NIMl1bQ0gyXUMxKFtDSDJdW09IXSlbQ0gyXW4oW2NIXW4yKWMoYzIzKW5bY0hdbmMzTihbQ0gyXVtDSDJdW0NIMl00KVtDQF00NVtDSDJdW0NIMl1PW0NIMl01

> <s_epik_cmdline>
J2VwaWtfcHl0aG9uJywgJy1waCcsICc3LjAnLCAnLXRuJywgJzgnLCAnLW1hJywgJzIwMCcsICctbWV0YWxfYmluZGluZycsICctaW1hZScsICc8aW5maWxlLm1hZT4nLCAnLW9tYWUnLCAnPG91dGZpbGUubWFlPic=

> <r_lp_tautomer_probability>
1

> <r_epik_Ionization_Penalty>
0.00423054

> <r_epik_Ionization_Penalty_Charging>
0

> <r_epik_Ionization_Penalty_Neutral>
0.00423054

> <r_epik_State_Penalty>
0.00298851

> <r_epik_Charging_Adjusted_Penalty>
0.00298851

> <i_epik_Tot_Q>
0

> <i_epik_Tot_abs_Q>
0

> <r_epik_Metal_State_Penalty>
-0

> <b_epik_Metal_Only>
0

> <s_lp_Force_Field>
OPLS_2005

> <r_lp_Energy>
66.7697

> <b_lp_Chiralities_Consistent>
1

> <s_lp_Variant>
AV-unprocessed.smi:190-1

> <Gold.Version>
5.8.1

> <Gold.Id.Protein>
6NUR|6NUR_protein|mol2

> <Gold.PLP.Fitness>
39.5331

> <Gold.PLP.PLP>
-33.8728

> <Gold.PLP.part.hbond>
-2.0000

> <Gold.PLP.part.metal>
0.0000

> <Gold.PLP.part.buried>
-3.3517

> <Gold.PLP.part.nonpolar>
-29.3802

> <Gold.PLP.part.repulsive>
0.1531

> <Gold.PLP.ligand.clash>
0.0000

> <Gold.PLP.ligand.torsion>
0.2597

> <Gold.PLP.Chemscore.Hbond>
2.0000

> <Gold.PLP.Chemscore.CHOScore>
0.0000

> <Gold.PLP.Chemscore.Metal>
0.0000

> <Gold.Chemscore.Hbonds>
donor molecule, donor type, donor heavy atom, donor atom, acceptor molecule, acceptor atom, score
      L1  H     1    28       P1  7948  0.70
      P1  H  7989  7998       L1    25  0.12

> <Gold.PLP.Chemscore.Internal.Correction>
0.1796

> <Gold.Rescore>
     Score         DG    S(hbond)    S(metal)    S(lipo)     H(rot)  DE(clash)    DE(int)     intcor
     10.01     -14.07       1.00        0.00      90.71       2.10       0.15       3.91       ----

> <Gold.Chemscore.Fitness>
10.0051

> <Gold.Chemscore.DG>
-14.0675

> <Gold.Chemscore.ZeroCoef>
-5.4800

> <Gold.Chemscore.Hbond>
1.0013

> <Gold.Chemscore.Metal>
0.0000

> <Gold.Chemscore.Lipo>
90.7140

> <Gold.Chemscore.Internal_Hbond>
0.0000

> <Gold.Chemscore.DEClash>
0.1542

> <Gold.Chemscore.DEInternal>
3.9081

> <Gold.Chemscore.Rot>
2.0978

> <Gold.Chemscore.Internal.Correction>
   9.000000E+99

> <Gold.Chemscore.Hbonds>
donor molecule, donor type, donor heavy atom, donor atom, acceptor molecule, acceptor atom, score
      L1  H     1    28       P1  7948  0.69

> <Gold.Chemscore.Hbond.Weighted>
-3.3442

> <Gold.Chemscore.Metal.Weighted>
-0.0000

> <Gold.Chemscore.Lipo.Weighted>
-10.6135

> <Gold.Chemscore.Internal_Hbond.Weighted>
0.0000

> <Gold.Chemscore.DEClash.Weighted>
0.1542

> <Gold.Chemscore.DEInternal.Weighted>
3.9081

> <Gold.Chemscore.Rot.Weighted>
5.3703

> <Gold.Chemscore.Internal.Correction.Weighted>
   9.000000E+99

> <Gold.Protein.RotatedTorsions>
[ 6907 6896 6895 6894 ] final  106.49 input  -60.11 | X-H torsion
[ 7974 7965 7964 7962 ] final -143.45 input  175.53 | X-H torsion
[ 8008 7997 7996 7995 ] final  -55.03 input   59.86 | X-H torsion
[ 10167 10162 10161 10158 ] final -109.72 input  -65.29 | X-H torsion
[ 10718 10713 10712 10709 ] final  100.74 input   66.30 | X-H torsion
[ 10763 10752 10751 10750 ] final  119.17 input  -60.55 | X-H torsion
[ 11005 11000 10999 10996 ] final  140.21 input  -57.11 | X-H torsion

> <Gold.Protein.ActiveResidues>
 VAL166  LYS551  ARG553  GLY616  TRP617  ASP618  TYR619  PRO620  LYS621  CYS622 
 ASP623  PHE694  ASN695  SER759  ASP760  ASP761  ALA762  ILE779  LEU786  VAL792 
 PHE793  MET794  SER795  GLU796  ALA797  LYS798  CYS799  TRP800  GLU811  SER814 

> <Gold.Protein.RotatedAtoms>
  152.5191  133.9373  159.7609 H   0  0  0  0  0  0  0  0  0  0  0  0  # atno 6907 bound_to 6896
  150.9710  133.6335  159.2745 H   0  0  0  0  0  0  0  0  0  0  0  0  # atno 6908 bound_to 6896
  151.3547  135.0897  159.9467 H   0  0  0  0  0  0  0  0  0  0  0  0  # atno 6909 bound_to 6896
  144.8369  140.5833  143.5478 H   0  0  0  0  0  0  0  0  0  0  0  0  # atno 7974 bound_to 7965
  154.4181  140.1162  156.5411 H   0  0  0  0  0  0  0  0  0  0  0  0  # atno 8008 bound_to 7997
  155.6507  140.3496  155.4728 H   0  0  0  0  0  0  0  0  0  0  0  0  # atno 8009 bound_to 7997
  155.9795  140.1157  157.0729 H   0  0  0  0  0  0  0  0  0  0  0  0  # atno 8010 bound_to 7997
  140.1523  143.4189  152.1486 H   0  0  0  0  0  0  0  0  0  0  0  0  # atno 10167 bound_to 10162
  157.6846  131.0707  150.5147 H   0  0  0  0  0  0  0  0  0  0  0  0  # atno 10718 bound_to 10713
  153.5790  135.3487  155.2867 H   0  0  0  0  0  0  0  0  0  0  0  0  # atno 10763 bound_to 10752
  154.8671  135.4177  154.2642 H   0  0  0  0  0  0  0  0  0  0  0  0  # atno 10764 bound_to 10752
  153.3424  135.7050  153.6926 H   0  0  0  0  0  0  0  0  0  0  0  0  # atno 10765 bound_to 10752
  140.0311  134.9351  157.0664 H   0  0  0  0  0  0  0  0  0  0  0  0  # atno 11005 bound_to 11000
  145.4777  139.1498  143.3779 LP  0  0  0  0  0  0  0  0  0  0  0  0  # atno 17320 bound_to 7965
  146.2666  140.4912  142.8831 LP  0  0  0  0  0  0  0  0  0  0  0  0  # atno 17321 bound_to 7965
  139.5420  144.7265  151.4703 LP  0  0  0  0  0  0  0  0  0  0  0  0  # atno 17342 bound_to 10162
  140.6695  143.8325  150.6982 LP  0  0  0  0  0  0  0  0  0  0  0  0  # atno 17343 bound_to 10162
  156.5463  130.4220  149.6129 LP  0  0  0  0  0  0  0  0  0  0  0  0  # atno 17370 bound_to 10713
  156.2942  130.7141  151.1997 LP  0  0  0  0  0  0  0  0  0  0  0  0  # atno 17371 bound_to 10713
  140.4224  134.1866  155.7165 LP  0  0  0  0  0  0  0  0  0  0  0  0  # atno 17394 bound_to 11000
  141.1831  133.8371  157.1185 LP  0  0  0  0  0  0  0  0  0  0  0  0  # atno 17395 bound_to 11000

$$$$
