AV-unprocessed.smi:1420|AV-procd|sdf|5788|dock3
  -GOLD-   22720 5433D 1   1.00000     0.00000
 Structure written by MMmdl.
 39 40  0  0  0  0  0  0  0  0  2 V2000
  149.5308  135.5636  155.6081 C   0  0  0  0  0  0  0  0  0  0  0  0
  148.0342  135.7616  155.2738 C   0  0  2  0  0  0  0  0  0  0  0  0
  147.1543  135.3665  156.4940 C   0  0  0  0  0  0  0  0  0  0  0  0
  147.4791  136.1168  157.7037 N   0  0  0  0  0  0  0  0  0  0  0  0
  148.4880  135.8312  158.5419 C   0  0  0  0  0  0  0  0  0  0  0  0
  149.2550  134.8826  158.3792 O   0  0  0  0  0  0  0  0  0  0  0  0
  148.6524  136.7510  159.7528 C   0  0  0  0  0  0  0  0  0  0  0  0
  148.1138  136.1404  160.9553 N   0  0  0  0  0  0  0  0  0  0  0  0
  147.4852  134.9196  161.0884 C   0  0  0  0  0  0  0  0  0  0  0  0
  147.1597  134.7719  162.4062 C   0  0  0  0  0  0  0  0  0  0  0  0
  147.6357  135.9700  163.0088 C   0  0  0  0  0  0  0  0  0  0  0  0
  148.2073  136.7867  162.1385 N   0  0  0  0  0  0  0  0  0  0  0  0
  147.6832  135.0265  154.0138 N   0  3  0  0  0  0  0  0  0  0  0  0
  148.0343  133.5793  153.9939 C   0  0  0  0  0  0  0  0  0  0  0  0
  147.6539  132.9316  152.6507 C   0  0  0  0  0  0  0  0  0  0  0  0
  146.2711  133.1229  152.3940 O   0  0  0  0  0  0  0  0  0  0  0  0
  145.9480  134.5015  152.2958 C   0  0  0  0  0  0  0  0  0  0  0  0
  146.2535  135.1948  153.6332 C   0  0  0  0  0  0  0  0  0  0  0  0
  149.8222  136.1098  156.5051 H   0  0  0  0  0  0  0  0  0  0  0  0
  150.1893  135.9215  154.8189 H   0  0  0  0  0  0  0  0  0  0  0  0
  149.7587  134.5108  155.7774 H   0  0  0  0  0  0  0  0  0  0  0  0
  147.8643  136.8230  155.0860 H   0  0  0  0  0  0  0  0  0  0  0  0
  146.0946  135.5277  156.2919 H   0  0  0  0  0  0  0  0  0  0  0  0
  147.2749  134.3057  156.7159 H   0  0  0  0  0  0  0  0  0  0  0  0
  146.9032  136.9197  157.9147 H   0  0  0  0  0  0  0  0  0  0  0  0
  149.7074  136.9869  159.9019 H   0  0  0  0  0  0  0  0  0  0  0  0
  148.1343  137.6952  159.5784 H   0  0  0  0  0  0  0  0  0  0  0  0
  147.3255  134.2653  160.2436 H   0  0  0  0  0  0  0  0  0  0  0  0
  146.6577  133.9354  162.8694 H   0  0  0  0  0  0  0  0  0  0  0  0
  147.5839  136.2681  164.0456 H   0  0  0  0  0  0  0  0  0  0  0  0
  149.1061  133.4375  154.1270 H   0  0  0  0  0  0  0  0  0  0  0  0
  147.5286  133.0677  154.8145 H   0  0  0  0  0  0  0  0  0  0  0  0
  148.2487  133.3476  151.8359 H   0  0  0  0  0  0  0  0  0  0  0  0
  147.8616  131.8616  152.6792 H   0  0  0  0  0  0  0  0  0  0  0  0
  146.5022  134.9655  151.4781 H   0  0  0  0  0  0  0  0  0  0  0  0
  144.8887  134.5981  152.0571 H   0  0  0  0  0  0  0  0  0  0  0  0
  145.6166  134.7787  154.4158 H   0  0  0  0  0  0  0  0  0  0  0  0
  145.9909  136.2466  153.5399 H   0  0  0  0  0  0  0  0  0  0  0  0
  148.2333  135.4498  153.2799 H   0  0  0  0  0  0  0  0  0  0  0  0
  1  2  1  0  0  0  0
  1 19  1  0  0  0  0
  1 20  1  0  0  0  0
  1 21  1  0  0  0  0
  2  3  1  0  0  0  0
  2 13  1  0  0  0  0
  2 22  1  0  0  0  0
  3  4  1  0  0  0  0
  3 23  1  0  0  0  0
  3 24  1  0  0  0  0
  4  5  1  0  0  0  0
  4 25  1  0  0  0  0
  5  6  2  0  0  0  0
  5  7  1  0  0  0  0
  7  8  1  0  0  0  0
  7 26  1  0  0  0  0
  7 27  1  0  0  0  0
  8 12  1  0  0  0  0
  8  9  1  0  0  0  0
  9 10  2  0  0  0  0
  9 28  1  0  0  0  0
 10 11  1  0  0  0  0
 10 29  1  0  0  0  0
 11 12  2  0  0  0  0
 11 30  1  0  0  0  0
 13 18  1  0  0  0  0
 13 14  1  0  0  0  0
 13 39  1  0  0  0  0
 14 15  1  0  0  0  0
 14 31  1  0  0  0  0
 14 32  1  0  0  0  0
 15 16  1  0  0  0  0
 15 33  1  0  0  0  0
 15 34  1  0  0  0  0
 16 17  1  0  0  0  0
 17 18  1  0  0  0  0
 17 35  1  0  0  0  0
 17 36  1  0  0  0  0
 18 37  1  0  0  0  0
 18 38  1  0  0  0  0
M  CHG  1  13   1
M  END
> <s_m_source_file>
AV-unprocessed.smi

> <i_m_source_file_index>
1420

> <i_lp_mmshare_version>
43012

> <i_f3d_flags>
0

> <s_epik_input>
W0NIMl0xW0NIMl1PW0NIMl1bQ0gyXU4xW0NASF0oW0NIM10pW0NIMl1bTkhdQyg9TylbQ0gyXW4yW2NIXVtjSF1bY0hdbjI=

> <s_epik_cmdline>
J2VwaWtfcHl0aG9uJywgJy1waCcsICc3LjAnLCAnLXRuJywgJzgnLCAnLW1hJywgJzIwMCcsICctbWV0YWxfYmluZGluZycsICctaW1hZScsICc8aW5maWxlLm1hZT4nLCAnLW9tYWUnLCAnPG91dGZpbGUubWFlPic=

> <r_lp_tautomer_probability>
1

> <r_epik_Ionization_Penalty>
0.748405

> <r_epik_Ionization_Penalty_Charging>
0.748396

> <r_epik_Ionization_Penalty_Neutral>
8.56978e-06

> <r_epik_State_Penalty>
0.775162

> <r_epik_Charging_Adjusted_Penalty>
1.52356

> <i_epik_Tot_Q>
1

> <i_epik_Tot_abs_Q>
1

> <r_epik_Metal_State_Penalty>
0.775167

> <b_epik_Metal_Only>
0

> <s_lp_Force_Field>
OPLS_2005

> <r_lp_Energy>
20.6517

> <b_lp_Chiralities_Consistent>
1

> <s_lp_Variant>
AV-unprocessed.smi:1420-3

> <Gold.Version>
5.8.1

> <Gold.Id.Protein>
6NUR|6NUR_protein|mol2

> <Gold.PLP.Fitness>
41.4442

> <Gold.PLP.PLP>
-30.2688

> <Gold.PLP.part.hbond>
-3.2325

> <Gold.PLP.part.metal>
0.0000

> <Gold.PLP.part.buried>
-4.0272

> <Gold.PLP.part.nonpolar>
-23.9268

> <Gold.PLP.part.repulsive>
0.1286

> <Gold.PLP.ligand.clash>
0.0000

> <Gold.PLP.ligand.torsion>
0.4560

> <Gold.PLP.Chemscore.Hbond>
4.0000

> <Gold.PLP.Chemscore.CHOScore>
0.0000

> <Gold.PLP.Chemscore.Metal>
0.0000

> <Gold.Chemscore.Hbonds>
donor molecule, donor type, donor heavy atom, donor atom, acceptor molecule, acceptor atom, score
      L1  H    13    39       P1  7948  2.00
      P1  H  6896  6908       L1     6  1.00
      P1  H  6931  6943       L1    12  1.00

> <Gold.PLP.Chemscore.Internal.Correction>
0.0875

> <Gold.Rescore>
     Score         DG    S(hbond)    S(metal)    S(lipo)     H(rot)  DE(clash)    DE(int)     intcor
     14.83     -16.68       2.89        0.00      55.77       1.94       0.00       1.84       ----

> <Gold.Chemscore.Fitness>
14.8286

> <Gold.Chemscore.DG>
-16.6755

> <Gold.Chemscore.ZeroCoef>
-5.4800

> <Gold.Chemscore.Hbond>
2.8881

> <Gold.Chemscore.Metal>
0.0000

> <Gold.Chemscore.Lipo>
55.7666

> <Gold.Chemscore.Internal_Hbond>
0.0000

> <Gold.Chemscore.DEClash>
0.0044

> <Gold.Chemscore.DEInternal>
1.8425

> <Gold.Chemscore.Rot>
1.9435

> <Gold.Chemscore.Internal.Correction>
   9.000000E+99

> <Gold.Chemscore.Hbonds>
donor molecule, donor type, donor heavy atom, donor atom, acceptor molecule, acceptor atom, score
      L1  H    13    39       P1  7948  1.00
      P1  H  6896  6908       L1     6  1.00
      P1  H  6931  6943       L1    12  0.74

> <Gold.Chemscore.Hbond.Weighted>
-9.6463

> <Gold.Chemscore.Metal.Weighted>
-0.0000

> <Gold.Chemscore.Lipo.Weighted>
-6.5247

> <Gold.Chemscore.Internal_Hbond.Weighted>
0.0000

> <Gold.Chemscore.DEClash.Weighted>
0.0044

> <Gold.Chemscore.DEInternal.Weighted>
1.8425

> <Gold.Chemscore.Rot.Weighted>
4.9754

> <Gold.Chemscore.Internal.Correction.Weighted>
   9.000000E+99

> <Gold.Protein.RotatedTorsions>
[ 6907 6896 6895 6894 ] final  161.72 input  -60.11 | X-H torsion
[ 7974 7965 7964 7962 ] final -119.52 input  175.53 | X-H torsion
[ 8008 7997 7996 7995 ] final   50.11 input   59.86 | X-H torsion
[ 10167 10162 10161 10158 ] final -146.77 input  -65.29 | X-H torsion
[ 10718 10713 10712 10709 ] final   74.93 input   66.30 | X-H torsion
[ 10763 10752 10751 10750 ] final   97.96 input  -60.55 | X-H torsion
[ 11005 11000 10999 10996 ] final   80.64 input  -57.11 | X-H torsion

> <Gold.Protein.ActiveResidues>
 VAL166  LYS551  ARG553  GLY616  TRP617  ASP618  TYR619  PRO620  LYS621  CYS622 
 ASP623  PHE694  ASN695  SER759  ASP760  ASP761  ALA762  ILE779  LEU786  VAL792 
 PHE793  MET794  SER795  GLU796  ALA797  LYS798  CYS799  TRP800  GLU811  SER814 

> <Gold.Protein.RotatedAtoms>
  151.9513  133.3667  159.4000 H   0  0  0  0  0  0  0  0  0  0  0  0  # atno 6907 bound_to 6896
  150.6980  134.4337  159.5269 H   0  0  0  0  0  0  0  0  0  0  0  0  # atno 6908 bound_to 6896
  152.2011  134.8587  160.0558 H   0  0  0  0  0  0  0  0  0  0  0  0  # atno 6909 bound_to 6896
  145.0616  140.8294  143.4149 H   0  0  0  0  0  0  0  0  0  0  0  0  # atno 7974 bound_to 7965
  155.4133  140.3443  155.4265 H   0  0  0  0  0  0  0  0  0  0  0  0  # atno 8008 bound_to 7997
  156.1436  140.1549  156.8914 H   0  0  0  0  0  0  0  0  0  0  0  0  # atno 8009 bound_to 7997
  154.4991  140.0819  156.7741 H   0  0  0  0  0  0  0  0  0  0  0  0  # atno 8010 bound_to 7997
  139.7682  143.8276  152.2620 H   0  0  0  0  0  0  0  0  0  0  0  0  # atno 10167 bound_to 10162
  157.6613  130.9702  150.1281 H   0  0  0  0  0  0  0  0  0  0  0  0  # atno 10718 bound_to 10713
  153.2833  135.4165  155.1099 H   0  0  0  0  0  0  0  0  0  0  0  0  # atno 10763 bound_to 10752
  154.8496  135.3500  154.6082 H   0  0  0  0  0  0  0  0  0  0  0  0  # atno 10764 bound_to 10752
  153.6503  135.7053  153.5269 H   0  0  0  0  0  0  0  0  0  0  0  0  # atno 10765 bound_to 10752
  139.9127  134.7936  156.1936 H   0  0  0  0  0  0  0  0  0  0  0  0  # atno 11005 bound_to 11000
  145.1402  139.2577  143.5494 LP  0  0  0  0  0  0  0  0  0  0  0  0  # atno 17320 bound_to 7965
  146.3524  140.1077  142.8605 LP  0  0  0  0  0  0  0  0  0  0  0  0  # atno 17321 bound_to 7965
  139.8303  144.7257  150.9459 LP  0  0  0  0  0  0  0  0  0  0  0  0  # atno 17342 bound_to 10162
  140.7812  143.4076  151.1045 LP  0  0  0  0  0  0  0  0  0  0  0  0  # atno 17343 bound_to 10162
  156.2135  130.3668  149.8641 LP  0  0  0  0  0  0  0  0  0  0  0  0  # atno 17370 bound_to 10713
  156.6514  130.8745  151.3532 LP  0  0  0  0  0  0  0  0  0  0  0  0  # atno 17371 bound_to 10713
  141.0568  133.6861  156.1876 LP  0  0  0  0  0  0  0  0  0  0  0  0  # atno 17394 bound_to 11000
  140.6724  134.4854  157.5587 LP  0  0  0  0  0  0  0  0  0  0  0  0  # atno 17395 bound_to 11000

$$$$
