AV-unprocessed.smi:1718|AV-procd|sdf|6927|dock1
  -GOLD-   22720 8133D 1   1.00000     0.00000
 Structure written by MMmdl.
 39 40  0  0  0  0  0  0  0  0  2 V2000
  149.5486  141.2645  154.7210 C   0  0  0  0  0  0  0  0  0  0  0  0
  150.6639  140.4424  155.3840 C   0  0  1  0  0  0  0  0  0  0  0  0
  150.7757  140.8859  156.7337 O   0  0  0  0  0  0  0  0  0  0  0  0
  150.9975  142.2815  156.9033 C   0  0  0  0  0  0  0  0  0  0  0  0
  151.2751  142.5568  158.3857 C   0  0  2  0  0  0  0  0  0  0  0  0
  151.7137  143.9881  158.6867 C   0  0  0  0  0  0  0  0  0  0  0  0
  152.4250  143.8108  160.0088 C   0  0  0  0  0  0  0  0  0  0  0  0
  153.1146  142.4601  159.8244 C   0  0  0  0  0  0  0  0  0  0  0  0
  152.3498  141.7480  158.8536 O   0  0  0  0  0  0  0  0  0  0  0  0
  150.3543  138.9369  155.3398 C   0  0  0  0  0  0  0  0  0  0  0  0
  150.3506  138.3524  154.2564 O   0  0  0  0  0  0  0  0  0  0  0  0
  150.1064  138.3642  156.5342 N   0  0  0  0  0  0  0  0  0  0  0  0
  149.7476  137.0392  156.8342 C   0  0  0  0  0  0  0  0  0  0  0  0
  149.6516  136.0338  155.9206 C   0  0  0  0  0  0  0  0  0  0  0  0
  149.2564  134.6801  156.2886 C   0  0  0  0  0  0  0  0  0  0  0  0
  149.2351  133.5143  155.3157 C   0  0  0  0  0  0  0  0  0  0  0  0
  149.6318  133.8960  154.1015 F   0  0  0  0  0  0  0  0  0  0  0  0
  150.0574  132.5553  155.7384 F   0  0  0  0  0  0  0  0  0  0  0  0
  148.0105  132.9976  155.2151 F   0  0  0  0  0  0  0  0  0  0  0  0
  149.0090  134.5560  157.6418 C   0  0  0  0  0  0  0  0  0  0  0  0
  149.0532  135.5024  158.6050 N   0  5  0  0  0  0  0  0  0  0  0  0
  149.4220  136.7653  158.2493 C   0  0  0  0  0  0  0  0  0  0  0  0
  149.4873  137.6748  159.0771 O   0  0  0  0  0  0  0  0  0  0  0  0
  149.4004  140.9663  153.6825 H   0  0  0  0  0  0  0  0  0  0  0  0
  149.7974  142.3259  154.7259 H   0  0  0  0  0  0  0  0  0  0  0  0
  148.5983  141.1482  155.2434 H   0  0  0  0  0  0  0  0  0  0  0  0
  151.5980  140.6474  154.8570 H   0  0  0  0  0  0  0  0  0  0  0  0
  151.8522  142.6101  156.3113 H   0  0  0  0  0  0  0  0  0  0  0  0
  150.1294  142.8509  156.5677 H   0  0  0  0  0  0  0  0  0  0  0  0
  150.3942  142.3122  158.9816 H   0  0  0  0  0  0  0  0  0  0  0  0
  152.4140  144.3452  157.9300 H   0  0  0  0  0  0  0  0  0  0  0  0
  150.8786  144.6870  158.7391 H   0  0  0  0  0  0  0  0  0  0  0  0
  153.1214  144.6187  160.2349 H   0  0  0  0  0  0  0  0  0  0  0  0
  151.6956  143.7524  160.8179 H   0  0  0  0  0  0  0  0  0  0  0  0
  154.1254  142.5943  159.4379 H   0  0  0  0  0  0  0  0  0  0  0  0
  153.1817  141.9040  160.7597 H   0  0  0  0  0  0  0  0  0  0  0  0
  150.2182  138.9563  157.3447 H   0  0  0  0  0  0  0  0  0  0  0  0
  149.8460  136.2141  154.8764 H   0  0  0  0  0  0  0  0  0  0  0  0
  148.7383  133.5419  158.0062 H   0  0  0  0  0  0  0  0  0  0  0  0
  1  2  1  0  0  0  0
  1 24  1  0  0  0  0
  1 25  1  0  0  0  0
  1 26  1  0  0  0  0
  2  3  1  0  0  0  0
  2 10  1  0  0  0  0
  2 27  1  0  0  0  0
  3  4  1  0  0  0  0
  4  5  1  0  0  0  0
  4 28  1  0  0  0  0
  4 29  1  0  0  0  0
  5  9  1  0  0  0  0
  5  6  1  0  0  0  0
  5 30  1  0  0  0  0
  6  7  1  0  0  0  0
  6 31  1  0  0  0  0
  6 32  1  0  0  0  0
  7  8  1  0  0  0  0
  7 33  1  0  0  0  0
  7 34  1  0  0  0  0
  8  9  1  0  0  0  0
  8 35  1  0  0  0  0
  8 36  1  0  0  0  0
 10 11  2  0  0  0  0
 10 12  1  0  0  0  0
 12 13  1  0  0  0  0
 12 37  1  0  0  0  0
 13 22  1  0  0  0  0
 13 14  2  0  0  0  0
 14 15  1  0  0  0  0
 14 38  1  0  0  0  0
 15 16  1  0  0  0  0
 15 20  2  0  0  0  0
 16 17  1  0  0  0  0
 16 18  1  0  0  0  0
 16 19  1  0  0  0  0
 20 21  1  0  0  0  0
 20 39  1  0  0  0  0
 21 22  1  0  0  0  0
 22 23  2  0  0  0  0
M  CHG  1  21  -1
M  END
> <s_m_source_file>
AV-unprocessed.smi

> <i_m_source_file_index>
1718

> <i_lp_mmshare_version>
43012

> <i_f3d_flags>
0

> <s_epik_input>
TzFbQ0gyXVtDSDJdW0NIMl1bQ0BIXTFbQ0gyXU9bQ0BASF0oW0NIM10pQyg9TylbTkhdYzJbY0hdYyhDKEYpKEYpRilbY0hdW25IXWMyPU8=

> <s_epik_cmdline>
J2VwaWtfcHl0aG9uJywgJy1waCcsICc3LjAnLCAnLXRuJywgJzgnLCAnLW1hJywgJzIwMCcsICctbWV0YWxfYmluZGluZycsICctaW1hZScsICc8aW5maWxlLm1hZT4nLCAnLW9tYWUnLCAnPG91dGZpbGUubWFlPic=

> <r_epik_Ionization_Penalty>
2.5466

> <r_epik_Ionization_Penalty_Charging>
0.0575837

> <r_epik_Ionization_Penalty_Neutral>
2.48901

> <r_epik_State_Penalty>
2.6532

> <r_epik_Charging_Adjusted_Penalty>
2.71078

> <i_epik_Tot_Q>
-1

> <i_epik_Tot_abs_Q>
1

> <r_epik_Metal_State_Penalty>
0.516196

> <b_epik_Metal_Only>
0

> <s_lp_Force_Field>
OPLS_2005

> <r_lp_Energy>
37.0387

> <b_lp_Chiralities_Consistent>
1

> <s_lp_Variant>
AV-unprocessed.smi:1718-6

> <Gold.Version>
5.8.1

> <Gold.Id.Protein>
6NUR|6NUR_protein|mol2

> <Gold.PLP.Fitness>
41.4011

> <Gold.PLP.PLP>
-35.5683

> <Gold.PLP.part.hbond>
-1.2177

> <Gold.PLP.part.metal>
0.0000

> <Gold.PLP.part.buried>
-3.4972

> <Gold.PLP.part.nonpolar>
-30.5179

> <Gold.PLP.part.repulsive>
0.2519

> <Gold.PLP.ligand.clash>
0.0000

> <Gold.PLP.ligand.torsion>
0.1974

> <Gold.PLP.Chemscore.Hbond>
2.0000

> <Gold.PLP.Chemscore.CHOScore>
0.0000

> <Gold.PLP.Chemscore.Metal>
0.0000

> <Gold.Chemscore.Hbonds>
donor molecule, donor type, donor heavy atom, donor atom, acceptor molecule, acceptor atom, score
      P1  H  6896  6907       L1    21  1.29

> <Gold.PLP.Chemscore.Internal.Correction>
0.2275

> <Gold.Rescore>
     Score         DG    S(hbond)    S(metal)    S(lipo)     H(rot)  DE(clash)    DE(int)     intcor
     11.28     -12.70       0.65        0.00      83.47       1.85       0.07       1.35       ----

> <Gold.Chemscore.Fitness>
11.2776

> <Gold.Chemscore.DG>
-12.7011

> <Gold.Chemscore.ZeroCoef>
-5.4800

> <Gold.Chemscore.Hbond>
0.6527

> <Gold.Chemscore.Metal>
0.0000

> <Gold.Chemscore.Lipo>
83.4655

> <Gold.Chemscore.Internal_Hbond>
0.0000

> <Gold.Chemscore.DEClash>
0.0735

> <Gold.Chemscore.DEInternal>
1.3500

> <Gold.Chemscore.Rot>
1.8455

> <Gold.Chemscore.Internal.Correction>
   9.000000E+99

> <Gold.Chemscore.Hbonds>
donor molecule, donor type, donor heavy atom, donor atom, acceptor molecule, acceptor atom, score
      P1  H  6896  6907       L1    21  0.05

> <Gold.Chemscore.Hbond.Weighted>
-2.1801

> <Gold.Chemscore.Metal.Weighted>
-0.0000

> <Gold.Chemscore.Lipo.Weighted>
-9.7655

> <Gold.Chemscore.Internal_Hbond.Weighted>
0.0000

> <Gold.Chemscore.DEClash.Weighted>
0.0735

> <Gold.Chemscore.DEInternal.Weighted>
1.3500

> <Gold.Chemscore.Rot.Weighted>
4.7245

> <Gold.Chemscore.Internal.Correction.Weighted>
   9.000000E+99

> <Gold.Protein.RotatedTorsions>
[ 6907 6896 6895 6894 ] final  -54.44 input  -60.11 | X-H torsion
[ 7974 7965 7964 7962 ] final  -82.28 input  175.53 | X-H torsion
[ 8008 7997 7996 7995 ] final  -94.40 input   59.86 | X-H torsion
[ 10167 10162 10161 10158 ] final  148.74 input  -65.29 | X-H torsion
[ 10718 10713 10712 10709 ] final  170.40 input   66.30 | X-H torsion
[ 10763 10752 10751 10750 ] final  153.20 input  -60.55 | X-H torsion
[ 11005 11000 10999 10996 ] final  -46.37 input  -57.11 | X-H torsion

> <Gold.Protein.ActiveResidues>
 VAL166  LYS551  ARG553  GLY616  TRP617  ASP618  TYR619  PRO620  LYS621  CYS622 
 ASP623  PHE694  ASN695  SER759  ASP760  ASP761  ALA762  ILE779  LEU786  VAL792 
 PHE793  MET794  SER795  GLU796  ALA797  LYS798  CYS799  TRP800  GLU811  SER814 

> <Gold.Protein.RotatedAtoms>
  150.8338  134.7602  159.6875 H   0  0  0  0  0  0  0  0  0  0  0  0  # atno 6907 bound_to 6896
  152.4438  134.5534  159.9883 H   0  0  0  0  0  0  0  0  0  0  0  0  # atno 6908 bound_to 6896
  151.5689  133.3355  159.3021 H   0  0  0  0  0  0  0  0  0  0  0  0  # atno 6909 bound_to 6896
  145.5355  140.9516  143.1580 H   0  0  0  0  0  0  0  0  0  0  0  0  # atno 7974 bound_to 7965
  154.7480  140.0489  157.0868 H   0  0  0  0  0  0  0  0  0  0  0  0  # atno 8008 bound_to 7997
  155.0094  140.3134  155.4816 H   0  0  0  0  0  0  0  0  0  0  0  0  # atno 8009 bound_to 7997
  156.2879  140.2187  156.5207 H   0  0  0  0  0  0  0  0  0  0  0  0  # atno 8010 bound_to 7997
  139.4871  144.5656  151.7151 H   0  0  0  0  0  0  0  0  0  0  0  0  # atno 10167 bound_to 10162
  157.0087  131.0198  151.2809 H   0  0  0  0  0  0  0  0  0  0  0  0  # atno 10718 bound_to 10713
  154.1323  135.2826  155.3182 H   0  0  0  0  0  0  0  0  0  0  0  0  # atno 10763 bound_to 10752
  154.6347  135.5423  153.7723 H   0  0  0  0  0  0  0  0  0  0  0  0  # atno 10764 bound_to 10752
  153.0277  135.6471  154.1473 H   0  0  0  0  0  0  0  0  0  0  0  0  # atno 10765 bound_to 10752
  141.0575  133.6721  156.3146 H   0  0  0  0  0  0  0  0  0  0  0  0  # atno 11005 bound_to 11000
  144.7604  139.6971  143.7237 LP  0  0  0  0  0  0  0  0  0  0  0  0  # atno 17320 bound_to 7965
  146.2016  139.5314  142.9739 LP  0  0  0  0  0  0  0  0  0  0  0  0  # atno 17321 bound_to 7965
  140.5233  144.0844  150.6029 LP  0  0  0  0  0  0  0  0  0  0  0  0  # atno 17342 bound_to 10162
  140.3810  143.2803  152.0171 LP  0  0  0  0  0  0  0  0  0  0  0  0  # atno 17343 bound_to 10162
  157.5336  130.8074  149.7946 LP  0  0  0  0  0  0  0  0  0  0  0  0  # atno 17370 bound_to 10713
  156.0144  130.3820  150.2159 LP  0  0  0  0  0  0  0  0  0  0  0  0  # atno 17371 bound_to 10713
  140.5935  134.5626  157.5504 LP  0  0  0  0  0  0  0  0  0  0  0  0  # atno 17394 bound_to 11000
  139.9403  134.7800  156.0697 LP  0  0  0  0  0  0  0  0  0  0  0  0  # atno 17395 bound_to 11000

$$$$
