AV-unprocessed.smi:113|AV-procd|sdf|1097|dock9
  -GOLD-   2262018203D 1   1.00000     0.00000
 Structure written by MMmdl.
 52 55  0  0  0  0  0  0  0  0  1 V2000
  154.5285  140.2914  162.2509 C   0  0  0  0  0  0  0  0  0  0  0  0
  153.7807  140.7240  161.0071 C   0  0  0  0  0  0  0  0  0  0  0  0
  153.5217  139.8114  159.9691 C   0  0  0  0  0  0  0  0  0  0  0  0
  152.8224  140.2555  158.8235 C   0  0  0  0  0  0  0  0  0  0  0  0
  152.5113  139.3014  157.6649 C   0  0  0  0  0  0  0  0  0  0  0  0
  151.1188  139.1994  157.2514 N   0  0  0  0  0  0  0  0  0  0  0  0
  150.2180  138.5416  158.1241 C   0  0  0  0  0  0  0  0  0  0  0  0
  150.5926  138.0597  159.1953 O   0  0  0  0  0  0  0  0  0  0  0  0
  148.8267  138.5017  157.6675 C   0  0  0  0  0  0  0  0  0  0  0  0
  147.8009  137.8155  158.5559 C   0  0  0  0  0  0  0  0  0  0  0  0
  148.4892  139.0748  156.4871 C   0  0  0  0  0  0  0  0  0  0  0  0
  149.3910  139.7070  155.6495 N   0  0  0  0  0  0  0  0  0  0  0  0
  148.8966  140.3729  154.3844 C   0  0  2  0  0  0  0  0  0  0  0  0
  147.8192  141.4444  154.6287 C   0  0  0  0  0  0  0  0  0  0  0  0
  146.7284  141.0828  153.6254 C   0  0  2  0  0  0  0  0  0  0  0  0
  145.5826  140.5940  154.2969 O   0  0  0  0  0  0  0  0  0  0  0  0
  147.3889  140.0266  152.7202 C   0  0  2  0  0  0  0  0  0  0  0  0
  146.4663  138.9841  152.0637 C   0  0  0  0  0  0  0  0  0  0  0  0
  147.2133  138.1170  151.2362 O   0  0  0  0  0  0  0  0  0  0  0  0
  148.3432  139.3975  153.5605 O   0  0  0  0  0  0  0  0  0  0  0  0
  150.7462  139.8107  156.0333 C   0  0  0  0  0  0  0  0  0  0  0  0
  151.5604  140.4265  155.3424 O   0  0  0  0  0  0  0  0  0  0  0  0
  152.4124  141.6159  158.7804 C   0  0  0  0  0  0  0  0  0  0  0  0
  151.7043  142.1406  157.6720 C   0  0  0  0  0  0  0  0  0  0  0  0
  151.3090  143.4901  157.6483 C   0  0  0  0  0  0  0  0  0  0  0  0
  151.6165  144.3293  158.7318 C   0  0  0  0  0  0  0  0  0  0  0  0
  152.3191  143.8160  159.8367 C   0  0  0  0  0  0  0  0  0  0  0  0
  152.7255  142.4651  159.8827 C   0  0  0  0  0  0  0  0  0  0  0  0
  153.3968  142.0147  160.9655 N   0  0  0  0  0  0  0  0  0  0  0  0
  154.5158  139.2065  162.3593 H   0  0  0  0  0  0  0  0  0  0  0  0
  154.0766  140.7242  163.1442 H   0  0  0  0  0  0  0  0  0  0  0  0
  155.5672  140.6179  162.1979 H   0  0  0  0  0  0  0  0  0  0  0  0
  153.8588  138.7904  160.0654 H   0  0  0  0  0  0  0  0  0  0  0  0
  153.0936  139.5786  156.7848 H   0  0  0  0  0  0  0  0  0  0  0  0
  152.8503  138.2922  157.9045 H   0  0  0  0  0  0  0  0  0  0  0  0
  146.8053  137.8276  158.1115 H   0  0  0  0  0  0  0  0  0  0  0  0
  147.7407  138.3150  159.5236 H   0  0  0  0  0  0  0  0  0  0  0  0
  148.0775  136.7740  158.7244 H   0  0  0  0  0  0  0  0  0  0  0  0
  147.4527  139.0326  156.1843 H   0  0  0  0  0  0  0  0  0  0  0  0
  149.7748  140.7906  153.8906 H   0  0  0  0  0  0  0  0  0  0  0  0
  147.4680  141.4500  155.6614 H   0  0  0  0  0  0  0  0  0  0  0  0
  148.2493  142.4235  154.4161 H   0  0  0  0  0  0  0  0  0  0  0  0
  146.4236  141.9527  153.0426 H   0  0  0  0  0  0  0  0  0  0  0  0
  144.8835  140.4915  153.6698 H   0  0  0  0  0  0  0  0  0  0  0  0
  147.9542  140.5411  151.9406 H   0  0  0  0  0  0  0  0  0  0  0  0
  145.9839  138.3826  152.8345 H   0  0  0  0  0  0  0  0  0  0  0  0
  145.6688  139.4546  151.4882 H   0  0  0  0  0  0  0  0  0  0  0  0
  147.6472  137.4780  151.7803 H   0  0  0  0  0  0  0  0  0  0  0  0
  151.4509  141.5234  156.8238 H   0  0  0  0  0  0  0  0  0  0  0  0
  150.7693  143.8804  156.7979 H   0  0  0  0  0  0  0  0  0  0  0  0
  151.3136  145.3660  158.7167 H   0  0  0  0  0  0  0  0  0  0  0  0
  152.5496  144.4710  160.6643 H   0  0  0  0  0  0  0  0  0  0  0  0
  1  2  1  0  0  0  0
  1 30  1  0  0  0  0
  1 31  1  0  0  0  0
  1 32  1  0  0  0  0
  2 29  1  0  0  0  0
  2  3  2  0  0  0  0
  3  4  1  0  0  0  0
  3 33  1  0  0  0  0
  4  5  1  0  0  0  0
  4 23  2  0  0  0  0
  5  6  1  0  0  0  0
  5 34  1  0  0  0  0
  5 35  1  0  0  0  0
  6 21  1  0  0  0  0
  6  7  1  0  0  0  0
  7  8  2  0  0  0  0
  7  9  1  0  0  0  0
  9 10  1  0  0  0  0
  9 11  2  0  0  0  0
 10 36  1  0  0  0  0
 10 37  1  0  0  0  0
 10 38  1  0  0  0  0
 11 12  1  0  0  0  0
 11 39  1  0  0  0  0
 12 13  1  0  0  0  0
 12 21  1  0  0  0  0
 13 20  1  0  0  0  0
 13 14  1  0  0  0  0
 13 40  1  0  0  0  0
 14 15  1  0  0  0  0
 14 41  1  0  0  0  0
 14 42  1  0  0  0  0
 15 16  1  0  0  0  0
 15 17  1  0  0  0  0
 15 43  1  0  0  0  0
 16 44  1  0  0  0  0
 17 18  1  0  0  0  0
 17 20  1  0  0  0  0
 17 45  1  0  0  0  0
 18 19  1  0  0  0  0
 18 46  1  0  0  0  0
 18 47  1  0  0  0  0
 19 48  1  0  0  0  0
 21 22  2  0  0  0  0
 23 28  1  0  0  0  0
 23 24  1  0  0  0  0
 24 25  2  0  0  0  0
 24 49  1  0  0  0  0
 25 26  1  0  0  0  0
 25 50  1  0  0  0  0
 26 27  2  0  0  0  0
 26 51  1  0  0  0  0
 27 28  1  0  0  0  0
 27 52  1  0  0  0  0
 28 29  2  0  0  0  0
M  END
> <s_m_source_file>
AV-unprocessed.smi

> <i_m_source_file_index>
113

> <i_lp_mmshare_version>
43012

> <i_f3d_flags>
0

> <s_epik_input>
W2NIXTFbY0hdW2NIXVtjSF1jKGMxMiluYyhbQ0gzXSlbY0hdYzJbQ0gyXW4zYyg9TyljKFtDSDNdKVtjSF1uKGMzPU8pW0NAQEhdNFtDSDJdW0NAQEhdKFtPSF0pW0NASF0oTzQpW0NIMl1bT0hd

> <s_epik_cmdline>
J2VwaWtfcHl0aG9uJywgJy1waCcsICc3LjAnLCAnLXRuJywgJzgnLCAnLW1hJywgJzIwMCcsICctbWV0YWxfYmluZGluZycsICctaW1hZScsICc8aW5maWxlLm1hZT4nLCAnLW9tYWUnLCAnPG91dGZpbGUubWFlPic=

> <r_lp_tautomer_probability>
1

> <r_epik_Ionization_Penalty>
0.214728

> <r_epik_Ionization_Penalty_Charging>
3.04883e-08

> <r_epik_Ionization_Penalty_Neutral>
0.214728

> <r_epik_State_Penalty>
0.204913

> <r_epik_Charging_Adjusted_Penalty>
0.204913

> <i_epik_Tot_Q>
0

> <i_epik_Tot_abs_Q>
0

> <r_epik_Metal_State_Penalty>
0.000244761

> <b_epik_Metal_Only>
0

> <s_epik_Chemistry_Notes>
This compound contains an acetal/aminal-like group ( X-CH(R)-Y where X, Y are N, S, or O) that may be acid/base labile, releasing an aldehyde.

> <s_lp_Force_Field>
OPLS_2005

> <r_lp_Energy>
37.3201

> <b_lp_Chiralities_Consistent>
1

> <s_lp_Variant>
AV-unprocessed.smi:113-7

> <Gold.Version>
5.8.1

> <Gold.Id.Protein>
6NUR|6NUR_protein|mol2

> <Gold.PLP.Fitness>
61.4643

> <Gold.PLP.PLP>
-50.8559

> <Gold.PLP.part.hbond>
-5.3673

> <Gold.PLP.part.metal>
0.0000

> <Gold.PLP.part.buried>
-3.8374

> <Gold.PLP.part.nonpolar>
-45.1657

> <Gold.PLP.part.repulsive>
2.2040

> <Gold.PLP.ligand.clash>
0.0000

> <Gold.PLP.ligand.torsion>
0.1841

> <Gold.PLP.Chemscore.Hbond>
3.6480

> <Gold.PLP.Chemscore.CHOScore>
0.0000

> <Gold.PLP.Chemscore.Metal>
0.0000

> <Gold.Chemscore.Hbonds>
donor molecule, donor type, donor heavy atom, donor atom, acceptor molecule, acceptor atom, score
      L1  H    16    44       P1 10175  1.00
      L1  H    19    48       P1  7948  0.88
      P1  H  7954  7966       L1    19  0.80
      P1  H  7989  7998       L1    22  0.85

> <Gold.PLP.Chemscore.Internal.Correction>
0.0325

> <Gold.Rescore>
     Score         DG    S(hbond)    S(metal)    S(lipo)     H(rot)  DE(clash)    DE(int)     intcor
     21.51     -23.26       2.91        0.00     133.25       2.95       0.54       1.21       ----

> <Gold.Chemscore.Fitness>
21.5103

> <Gold.Chemscore.DG>
-23.2611

> <Gold.Chemscore.ZeroCoef>
-5.4800

> <Gold.Chemscore.Hbond>
2.9148

> <Gold.Chemscore.Metal>
0.0000

> <Gold.Chemscore.Lipo>
133.2460

> <Gold.Chemscore.Internal_Hbond>
0.0000

> <Gold.Chemscore.DEClash>
0.5385

> <Gold.Chemscore.DEInternal>
1.2123

> <Gold.Chemscore.Rot>
2.9469

> <Gold.Chemscore.Internal.Correction>
   9.000000E+99

> <Gold.Chemscore.Hbonds>
donor molecule, donor type, donor heavy atom, donor atom, acceptor molecule, acceptor atom, score
      L1  H    16    44       P1 10175  1.00
      L1  H    19    48       P1  7948  0.87
      P1  H  7954  7966       L1    19  0.12
      P1  H  7989  7998       L1    22  0.85

> <Gold.Chemscore.Hbond.Weighted>
-9.7353

> <Gold.Chemscore.Metal.Weighted>
-0.0000

> <Gold.Chemscore.Lipo.Weighted>
-15.5898

> <Gold.Chemscore.Internal_Hbond.Weighted>
0.0000

> <Gold.Chemscore.DEClash.Weighted>
0.5385

> <Gold.Chemscore.DEInternal.Weighted>
1.2123

> <Gold.Chemscore.Rot.Weighted>
7.5439

> <Gold.Chemscore.Internal.Correction.Weighted>
   9.000000E+99

> <Gold.Protein.RotatedTorsions>
[ 6907 6896 6895 6894 ] final   77.60 input  -60.11 | X-H torsion
[ 7974 7965 7964 7962 ] final  -60.63 input  175.53 | X-H torsion
[ 8008 7997 7996 7995 ] final -128.34 input   59.86 | X-H torsion
[ 10167 10162 10161 10158 ] final   -3.75 input  -65.29 | X-H torsion
[ 10718 10713 10712 10709 ] final  -30.92 input   66.30 | X-H torsion
[ 10763 10752 10751 10750 ] final   49.51 input  -60.55 | X-H torsion
[ 11005 11000 10999 10996 ] final  156.92 input  -57.11 | X-H torsion

> <Gold.Protein.ActiveResidues>
 VAL166  LYS551  ARG553  GLY616  TRP617  ASP618  TYR619  PRO620  LYS621  CYS622 
 ASP623  PHE694  ASN695  SER759  ASP760  ASP761  ALA762  ILE779  LEU786  VAL792 
 PHE793  MET794  SER795  GLU796  ALA797  LYS798  CYS799  TRP800  GLU811  SER814 

> <Gold.Protein.RotatedAtoms>
  152.5124  134.3792  159.9344 H   0  0  0  0  0  0  0  0  0  0  0  0  # atno 6907 bound_to 6896
  151.3748  133.3835  159.2711 H   0  0  0  0  0  0  0  0  0  0  0  0  # atno 6908 bound_to 6896
  150.9549  134.8965  159.7754 H   0  0  0  0  0  0  0  0  0  0  0  0  # atno 6909 bound_to 6896
  145.8132  140.8585  143.0171 H   0  0  0  0  0  0  0  0  0  0  0  0  # atno 7974 bound_to 7965
  155.2611  140.0436  157.2997 H   0  0  0  0  0  0  0  0  0  0  0  0  # atno 8008 bound_to 7997
  154.5710  140.2374  155.8161 H   0  0  0  0  0  0  0  0  0  0  0  0  # atno 8009 bound_to 7997
  156.2122  140.2995  155.9767 H   0  0  0  0  0  0  0  0  0  0  0  0  # atno 8010 bound_to 7997
  140.6902  143.6503  150.8356 H   0  0  0  0  0  0  0  0  0  0  0  0  # atno 10167 bound_to 10162
  156.3938  130.4377  149.7375 H   0  0  0  0  0  0  0  0  0  0  0  0  # atno 10718 bound_to 10713
  152.9786  135.5909  154.4100 H   0  0  0  0  0  0  0  0  0  0  0  0  # atno 10763 bound_to 10752
  154.3737  135.2767  155.2254 H   0  0  0  0  0  0  0  0  0  0  0  0  # atno 10764 bound_to 10752
  154.4198  135.6062  153.6057 H   0  0  0  0  0  0  0  0  0  0  0  0  # atno 10765 bound_to 10752
  140.1721  134.8536  157.2702 H   0  0  0  0  0  0  0  0  0  0  0  0  # atno 11005 bound_to 11000
  144.6755  140.0426  143.7480 LP  0  0  0  0  0  0  0  0  0  0  0  0  # atno 17320 bound_to 7965
  145.9754  139.2901  143.1073 LP  0  0  0  0  0  0  0  0  0  0  0  0  # atno 17321 bound_to 7965
  140.0215  143.5537  152.2798 LP  0  0  0  0  0  0  0  0  0  0  0  0  # atno 17342 bound_to 10162
  139.6297  144.7642  151.2562 LP  0  0  0  0  0  0  0  0  0  0  0  0  # atno 17343 bound_to 10162
  156.4418  130.7864  151.2886 LP  0  0  0  0  0  0  0  0  0  0  0  0  # atno 17370 bound_to 10713
  157.7500  131.0122  150.3377 LP  0  0  0  0  0  0  0  0  0  0  0  0  # atno 17371 bound_to 10713
  140.2366  134.3846  155.7498 LP  0  0  0  0  0  0  0  0  0  0  0  0  # atno 17394 bound_to 11000
  141.2218  133.7243  156.8723 LP  0  0  0  0  0  0  0  0  0  0  0  0  # atno 17395 bound_to 11000

$$$$
