#       Name:                AV-unprocessed.smi:2562
#       Creating user name   scv26
#       Creation time:       Fri Mar 27 14:09:23 2020


#       File generated by GOLD software.
#

@<TRIPOS>MOLECULE
AV-unprocessed.smi:2562
    35    36     1
SMALL
NO_CHARGES


@<TRIPOS>ATOM
      1 ****        -2.1901   4.6764   1.6301 C.3            1 S1                 0.0000
      2 ****        -1.7150   3.2206   1.6891 C.3            1 S1                 0.0000
      3 ****        -0.2835   3.0462   1.1631 C.3            1 S1                 0.0000
      4 ****         0.1736   1.6043   1.2175 C.2            1 S1                 0.0000
      5 ****         0.7902   1.0384   2.2662 N.2            1 S1                 0.0000
      6 ****         0.9872  -0.2177   1.9208 N.pl3          1 S1                -1.0000
      7 ****         0.4836  -0.4362   0.6935 C.2            1 S1                 0.0000
      8 ****         0.5475  -1.7438  -0.0669 C.3            1 S1                 0.0000
      9 ****         1.8358  -1.8308  -0.9084 C.3            1 S1                 0.0000
     10 ****         1.8727  -3.1011  -1.6582 N.4            1 S1                 1.0000
     11 ****         0.6575  -3.2849  -2.4749 C.3            1 S1                 0.0000
     12 ****        -0.5939  -3.1575  -1.5905 C.3            1 S1                 0.0000
     13 ****        -0.5807  -1.8998  -0.9256 O.3            1 S1                 0.0000
     14 ****        -0.0235   0.7067   0.2416 N.2            1 S1                 0.0000
     15 ****        -3.2129   4.7659   1.9965 H              1 S1                 0.0000
     16 ****        -2.1679   5.0558   0.6081 H              1 S1                 0.0000
     17 ****        -1.5589   5.3213   2.2421 H              1 S1                 0.0000
     18 ****        -1.7729   2.8637   2.7181 H              1 S1                 0.0000
     19 ****        -2.3948   2.5968   1.1072 H              1 S1                 0.0000
     20 ****        -0.2173   3.3945   0.1318 H              1 S1                 0.0000
     21 ****         0.4085   3.6560   1.7454 H              1 S1                 0.0000
     22 ****         0.5370  -2.5474   0.6719 H              1 S1                 0.0000
     23 ****         1.8868  -0.9979  -1.6113 H              1 S1                 0.0000
     24 ****         2.7171  -1.7667  -0.2694 H              1 S1                 0.0000
     25 ****         2.6869  -3.1137  -2.2559 H              1 S1                 0.0000
     26 ****         0.6385  -2.5332  -3.2650 H              1 S1                 0.0000
     27 ****         0.6898  -4.2613  -2.9586 H              1 S1                 0.0000
     28 ****        -1.4945  -3.2253  -2.2012 H              1 S1                 0.0000
     29 ****        -0.6419  -3.9676  -0.8611 H              1 S1                 0.0000
     30 ****         1.9361  -3.8616  -0.9966 H              1 S1                 0.0000
     31 ****         1.0460   1.4771   3.1276 LP             1 S1                 0.0000
     32 ****         1.4427  -0.9051   2.4864 LP             1 S1                 0.0000
     33 ****        -0.5621  -1.1743  -1.6135 LP             1 S1                 0.0000
     34 ****        -1.4135  -1.8185  -0.3779 LP             1 S1                 0.0000
     35 ****        -0.4615   0.8642  -0.6435 LP             1 S1                 0.0000
@<TRIPOS>BOND
    1    1    2 1     
    2    1   15 1     
    3    1   16 1     
    4    1   17 1     
    5    2    3 1     
    6    2   18 1     
    7    2   19 1     
    8    3    4 1     
    9    3   20 1     
   10    3   21 1     
   11    4   14 1     
   12    4    5 2     
   13    5    6 1     
   14    6    7 1     
   15    7    8 1     
   16    7   14 2     
   17    8   13 1     
   18    8    9 1     
   19    8   22 1     
   20    9   10 1     
   21    9   23 1     
   22    9   24 1     
   23   10   11 1     
   24   10   25 1     
   25   10   30 1     
   26   11   12 1     
   27   11   26 1     
   28   11   27 1     
   29   12   13 1     
   30   12   28 1     
   31   12   29 1     
   32    5   31 1     
   33    6   32 1     
   34   13   33 1     
   35   13   34 1     
   36   14   35 1     
@<TRIPOS>SUBSTRUCTURE
      1 S1             1
@<TRIPOS>SET
LONE_PAIRS      STATIC     ATOMS    <user>   **** ""
5 31 32 33 34 35
DONOR_HYDROGENS      STATIC     ATOMS    <user>   **** ""
2 25 30
ATOM$BLUE        STATIC     ATOMS    COLORGROUP SYSTEM
5 31 32 33 34 35
ATOM$RED        STATIC     ATOMS    COLORGROUP SYSTEM
2 25 30
