AV-unprocessed.smi:694|AV-procd|sdf|3379|dock3
  -GOLD-   22720 0363D 1   1.00000     0.00000
 Structure written by MMmdl.
 43 44  0  0  0  0  0  0  0  0  2 V2000
  151.2570  144.0546  156.8194 C   0  0  0  0  0  0  0  0  0  0  0  0
  151.2566  142.6281  157.1243 N   0  0  0  0  0  0  0  0  0  0  0  0
  151.8471  142.1399  158.3636 C   0  0  0  0  0  0  0  0  0  0  0  0
  150.6713  141.7174  156.2181 C   0  0  0  0  0  0  0  0  0  0  0  0
  151.1588  140.4034  156.0134 C   0  0  0  0  0  0  0  0  0  0  0  0
  150.5174  139.5529  155.0894 C   0  0  0  0  0  0  0  0  0  0  0  0
  149.3888  140.0105  154.3780 C   0  0  0  0  0  0  0  0  0  0  0  0
  148.7847  139.1185  153.4501 N   0  0  0  0  0  0  0  0  0  0  0  0
  147.4818  138.9694  153.1540 C   0  0  0  0  0  0  0  0  0  0  0  0
  146.5583  139.5931  153.6761 O   0  0  0  0  0  0  0  0  0  0  0  0
  147.3022  138.0255  152.2189 N   0  0  0  0  0  0  0  0  0  0  0  0
  146.0117  137.5942  151.6886 C   0  0  0  0  0  0  0  0  0  0  0  0
  146.0138  136.0968  151.3218 C   0  0  1  0  0  0  0  0  0  0  0  0
  145.9605  135.1443  152.5258 C   0  0  0  0  0  0  0  0  0  0  0  0
  145.3309  133.8399  152.0141 C   0  0  0  0  0  0  0  0  0  0  0  0
  144.7939  134.1400  150.6085 C   0  0  0  0  0  0  0  0  0  0  0  0
  144.8033  135.6657  150.4879 C   0  0  2  0  0  0  0  0  0  0  0  0
  144.9075  136.0766  149.1405 O   0  0  0  0  0  0  0  0  0  0  0  0
  148.9463  141.3347  154.6098 C   0  0  0  0  0  0  0  0  0  0  0  0
  149.5909  142.1156  155.5030 N   0  3  0  0  0  0  0  0  0  0  0  0
  151.8106  144.2491  155.9002 H   0  0  0  0  0  0  0  0  0  0  0  0
  151.7233  144.6319  157.6181 H   0  0  0  0  0  0  0  0  0  0  0  0
  150.2375  144.4212  156.6956 H   0  0  0  0  0  0  0  0  0  0  0  0
  151.0974  141.6332  158.9720 H   0  0  0  0  0  0  0  0  0  0  0  0
  152.2591  142.9573  158.9557 H   0  0  0  0  0  0  0  0  0  0  0  0
  152.6569  141.4410  158.1529 H   0  0  0  0  0  0  0  0  0  0  0  0
  152.0179  140.0307  156.5510 H   0  0  0  0  0  0  0  0  0  0  0  0
  150.8914  138.5515  154.9344 H   0  0  0  0  0  0  0  0  0  0  0  0
  149.4177  138.4851  152.9838 H   0  0  0  0  0  0  0  0  0  0  0  0
  148.1186  137.5610  151.8487 H   0  0  0  0  0  0  0  0  0  0  0  0
  145.2048  137.8165  152.3889 H   0  0  0  0  0  0  0  0  0  0  0  0
  145.8079  138.1871  150.7965 H   0  0  0  0  0  0  0  0  0  0  0  0
  146.9195  135.8707  150.7551 H   0  0  0  0  0  0  0  0  0  0  0  0
  146.9457  134.9822  152.9641 H   0  0  0  0  0  0  0  0  0  0  0  0
  145.3231  135.5636  153.3052 H   0  0  0  0  0  0  0  0  0  0  0  0
  146.0636  133.0330  151.9795 H   0  0  0  0  0  0  0  0  0  0  0  0
  144.5278  133.5220  152.6798 H   0  0  0  0  0  0  0  0  0  0  0  0
  145.4688  133.7025  149.8707 H   0  0  0  0  0  0  0  0  0  0  0  0
  143.8038  133.7155  150.4389 H   0  0  0  0  0  0  0  0  0  0  0  0
  143.8880  136.0726  150.9207 H   0  0  0  0  0  0  0  0  0  0  0  0
  145.3975  135.4233  148.6647 H   0  0  0  0  0  0  0  0  0  0  0  0
  148.1129  141.8108  154.1157 H   0  0  0  0  0  0  0  0  0  0  0  0
  149.2431  143.0640  155.6458 H   0  0  0  0  0  0  0  0  0  0  0  0
  1  2  1  0  0  0  0
  1 21  1  0  0  0  0
  1 22  1  0  0  0  0
  1 23  1  0  0  0  0
  2  3  1  0  0  0  0
  2  4  1  0  0  0  0
  3 24  1  0  0  0  0
  3 25  1  0  0  0  0
  3 26  1  0  0  0  0
  4 20  1  0  0  0  0
  4  5  2  0  0  0  0
  5  6  1  0  0  0  0
  5 27  1  0  0  0  0
  6  7  2  0  0  0  0
  6 28  1  0  0  0  0
  7  8  1  0  0  0  0
  7 19  1  0  0  0  0
  8  9  1  0  0  0  0
  8 29  1  0  0  0  0
  9 10  2  0  0  0  0
  9 11  1  0  0  0  0
 11 12  1  0  0  0  0
 11 30  1  0  0  0  0
 12 13  1  0  0  0  0
 12 31  1  0  0  0  0
 12 32  1  0  0  0  0
 13 17  1  0  0  0  0
 13 14  1  0  0  0  0
 13 33  1  0  0  0  0
 14 15  1  0  0  0  0
 14 34  1  0  0  0  0
 14 35  1  0  0  0  0
 15 16  1  0  0  0  0
 15 36  1  0  0  0  0
 15 37  1  0  0  0  0
 16 17  1  0  0  0  0
 16 38  1  0  0  0  0
 16 39  1  0  0  0  0
 17 18  1  0  0  0  0
 17 40  1  0  0  0  0
 18 41  1  0  0  0  0
 19 20  2  0  0  0  0
 19 42  1  0  0  0  0
 20 43  1  0  0  0  0
M  CHG  1  20   1
M  END
> <s_m_source_file>
AV-unprocessed.smi

> <i_m_source_file_index>
694

> <i_lp_mmshare_version>
43012

> <i_f3d_flags>
0

> <s_epik_input>
W0NIM11OKFtDSDNdKWMxW2NIXVtjSF1jKFtjSF1uMSlbTkhdQyg9TylbTkhdW0NIMl1bQ0BASF0yW0NIMl1bQ0gyXVtDSDJdW0NASF0yW09IXQ==

> <s_epik_cmdline>
J2VwaWtfcHl0aG9uJywgJy1waCcsICc3LjAnLCAnLXRuJywgJzgnLCAnLW1hJywgJzIwMCcsICctbWV0YWxfYmluZGluZycsICctaW1hZScsICc8aW5maWxlLm1hZT4nLCAnLW9tYWUnLCAnPG91dGZpbGUubWFlPic=

> <r_lp_tautomer_probability>
0.999994

> <r_epik_Ionization_Penalty>
0.266135

> <r_epik_Ionization_Penalty_Charging>
0.266113

> <r_epik_Ionization_Penalty_Neutral>
2.14137e-05

> <r_epik_State_Penalty>
0.258052

> <r_epik_Charging_Adjusted_Penalty>
0.524165

> <i_epik_Tot_Q>
1

> <i_epik_Tot_abs_Q>
1

> <r_epik_Metal_State_Penalty>
0.544313

> <b_epik_Metal_Only>
0

> <s_lp_Force_Field>
OPLS_2005

> <r_lp_Energy>
30.8894

> <b_lp_Chiralities_Consistent>
1

> <s_lp_Variant>
AV-unprocessed.smi:694-4

> <Gold.Version>
5.8.1

> <Gold.Id.Protein>
6NUR|6NUR_protein|mol2

> <Gold.PLP.Fitness>
48.7913

> <Gold.PLP.PLP>
-38.7775

> <Gold.PLP.part.hbond>
-5.0363

> <Gold.PLP.part.metal>
0.0000

> <Gold.PLP.part.buried>
0.7208

> <Gold.PLP.part.nonpolar>
-34.6517

> <Gold.PLP.part.repulsive>
0.4997

> <Gold.PLP.ligand.clash>
0.0000

> <Gold.PLP.ligand.torsion>
1.0016

> <Gold.PLP.Chemscore.Hbond>
4.0000

> <Gold.PLP.Chemscore.CHOScore>
0.0000

> <Gold.PLP.Chemscore.Metal>
0.0000

> <Gold.Chemscore.Hbonds>
donor molecule, donor type, donor heavy atom, donor atom, acceptor molecule, acceptor atom, score
      L1  H    11    30       P1  7948  0.93
      L1  H    18    41       P1  7921  0.67
      L1  H    20    43       P1  8028  2.00

> <Gold.PLP.Chemscore.Internal.Correction>
0.0170

> <Gold.Rescore>
     Score         DG    S(hbond)    S(metal)    S(lipo)     H(rot)  DE(clash)    DE(int)     intcor
     18.23     -21.21       3.27        0.00      79.42       1.75       2.12       0.87       ----

> <Gold.Chemscore.Fitness>
18.2261

> <Gold.Chemscore.DG>
-21.2104

> <Gold.Chemscore.ZeroCoef>
-5.4800

> <Gold.Chemscore.Hbond>
3.2679

> <Gold.Chemscore.Metal>
0.0000

> <Gold.Chemscore.Lipo>
79.4175

> <Gold.Chemscore.Internal_Hbond>
0.0000

> <Gold.Chemscore.DEClash>
2.1172

> <Gold.Chemscore.DEInternal>
0.8672

> <Gold.Chemscore.Rot>
1.7485

> <Gold.Chemscore.Internal.Correction>
   9.000000E+99

> <Gold.Chemscore.Hbonds>
donor molecule, donor type, donor heavy atom, donor atom, acceptor molecule, acceptor atom, score
      L1  H    11    30       P1  7948  0.85
      L1  H    18    41       P1  7921  0.66
      L1  H    20    43       P1  8028  1.00

> <Gold.Chemscore.Hbond.Weighted>
-10.9147

> <Gold.Chemscore.Metal.Weighted>
-0.0000

> <Gold.Chemscore.Lipo.Weighted>
-9.2918

> <Gold.Chemscore.Internal_Hbond.Weighted>
0.0000

> <Gold.Chemscore.DEClash.Weighted>
2.1172

> <Gold.Chemscore.DEInternal.Weighted>
0.8672

> <Gold.Chemscore.Rot.Weighted>
4.4762

> <Gold.Chemscore.Internal.Correction.Weighted>
   9.000000E+99

> <Gold.Protein.RotatedTorsions>
[ 6907 6896 6895 6894 ] final -118.73 input  -60.11 | X-H torsion
[ 7974 7965 7964 7962 ] final   15.11 input  175.53 | X-H torsion
[ 8008 7997 7996 7995 ] final -153.28 input   59.86 | X-H torsion
[ 10167 10162 10161 10158 ] final   59.41 input  -65.29 | X-H torsion
[ 10718 10713 10712 10709 ] final   93.00 input   66.30 | X-H torsion
[ 10763 10752 10751 10750 ] final   98.99 input  -60.55 | X-H torsion
[ 11005 11000 10999 10996 ] final  -97.54 input  -57.11 | X-H torsion

> <Gold.Protein.ActiveResidues>
 VAL166  LYS551  ARG553  GLY616  TRP617  ASP618  TYR619  PRO620  LYS621  CYS622 
 ASP623  PHE694  ASN695  SER759  ASP760  ASP761  ALA762  ILE779  LEU786  VAL792 
 PHE793  MET794  SER795  GLU796  ALA797  LYS798  CYS799  TRP800  GLU811  SER814 

> <Gold.Protein.RotatedAtoms>
  150.8244  133.8196  159.3124 H   0  0  0  0  0  0  0  0  0  0  0  0  # atno 6907 bound_to 6896
  151.5945  135.1049  160.0056 H   0  0  0  0  0  0  0  0  0  0  0  0  # atno 6908 bound_to 6896
  152.4331  133.7271  159.6623 H   0  0  0  0  0  0  0  0  0  0  0  0  # atno 6909 bound_to 6896
  146.2287  139.8942  142.8549 H   0  0  0  0  0  0  0  0  0  0  0  0  # atno 7974 bound_to 7965
  155.6684  140.0730  157.2529 H   0  0  0  0  0  0  0  0  0  0  0  0  # atno 8008 bound_to 7997
  154.4128  140.1703  156.1903 H   0  0  0  0  0  0  0  0  0  0  0  0  # atno 8009 bound_to 7997
  155.9638  140.3367  155.6517 H   0  0  0  0  0  0  0  0  0  0  0  0  # atno 8010 bound_to 7997
  140.1768  144.4222  150.6634 H   0  0  0  0  0  0  0  0  0  0  0  0  # atno 10167 bound_to 10162
  157.6956  131.0463  150.3967 H   0  0  0  0  0  0  0  0  0  0  0  0  # atno 10718 bound_to 10713
  153.2959  135.4129  155.1209 H   0  0  0  0  0  0  0  0  0  0  0  0  # atno 10763 bound_to 10752
  154.8535  135.3529  154.5918 H   0  0  0  0  0  0  0  0  0  0  0  0  # atno 10764 bound_to 10752
  153.6342  135.7059  153.5323 H   0  0  0  0  0  0  0  0  0  0  0  0  # atno 10765 bound_to 10752
  141.1375  133.8178  157.0719 H   0  0  0  0  0  0  0  0  0  0  0  0  # atno 11005 bound_to 11000
  145.2387  141.0001  143.3948 LP  0  0  0  0  0  0  0  0  0  0  0  0  # atno 17320 bound_to 7965
  144.9470  139.4125  143.6421 LP  0  0  0  0  0  0  0  0  0  0  0  0  # atno 17321 bound_to 7965
  140.6546  143.2234  151.5998 LP  0  0  0  0  0  0  0  0  0  0  0  0  # atno 17342 bound_to 10162
  139.5314  144.2906  152.1155 LP  0  0  0  0  0  0  0  0  0  0  0  0  # atno 17343 bound_to 10162
  156.4365  130.3983  149.6725 LP  0  0  0  0  0  0  0  0  0  0  0  0  # atno 17370 bound_to 10713
  156.3924  130.7634  151.2636 LP  0  0  0  0  0  0  0  0  0  0  0  0  # atno 17371 bound_to 10713
  140.0506  134.9807  157.1128 LP  0  0  0  0  0  0  0  0  0  0  0  0  # atno 17394 bound_to 11000
  140.3996  134.2096  155.7164 LP  0  0  0  0  0  0  0  0  0  0  0  0  # atno 17395 bound_to 11000

$$$$
