AV-unprocessed.smi:1420|AV-procd|sdf|5788|dock4
  -GOLD-   22720 5433D 1   1.00000     0.00000
 Structure written by MMmdl.
 39 40  0  0  0  0  0  0  0  0  2 V2000
  147.0177  140.5196  153.2529 C   0  0  0  0  0  0  0  0  0  0  0  0
  147.5554  139.2279  152.5946 C   0  0  2  0  0  0  0  0  0  0  0  0
  146.3813  138.3994  151.9994 C   0  0  0  0  0  0  0  0  0  0  0  0
  146.5709  136.9577  152.1305 N   0  0  0  0  0  0  0  0  0  0  0  0
  145.5891  136.0430  152.0927 C   0  0  0  0  0  0  0  0  0  0  0  0
  144.4013  136.3309  151.9488 O   0  0  0  0  0  0  0  0  0  0  0  0
  146.0101  134.5809  152.2485 C   0  0  0  0  0  0  0  0  0  0  0  0
  145.4668  133.7596  151.1812 N   0  0  0  0  0  0  0  0  0  0  0  0
  146.1055  132.7892  150.4372 C   0  0  0  0  0  0  0  0  0  0  0  0
  145.1915  132.2847  149.5572 C   0  0  0  0  0  0  0  0  0  0  0  0
  144.0063  133.0191  149.8421 C   0  0  0  0  0  0  0  0  0  0  0  0
  144.1734  133.9002  150.8152 N   0  0  0  0  0  0  0  0  0  0  0  0
  148.4003  138.4624  153.5698 N   0  3  0  0  0  0  0  0  0  0  0  0
  149.6402  139.1502  154.0257 C   0  0  0  0  0  0  0  0  0  0  0  0
  150.4405  138.2689  155.0010 C   0  0  0  0  0  0  0  0  0  0  0  0
  149.6264  137.9039  156.1049 O   0  0  0  0  0  0  0  0  0  0  0  0
  148.5000  137.1463  155.6902 C   0  0  0  0  0  0  0  0  0  0  0  0
  147.6272  137.9981  154.7547 C   0  0  0  0  0  0  0  0  0  0  0  0
  146.4219  141.1116  152.5584 H   0  0  0  0  0  0  0  0  0  0  0  0
  147.8124  141.1797  153.5954 H   0  0  0  0  0  0  0  0  0  0  0  0
  146.3863  140.2884  154.1114 H   0  0  0  0  0  0  0  0  0  0  0  0
  148.2012  139.5127  151.7624 H   0  0  0  0  0  0  0  0  0  0  0  0
  145.4343  138.6432  152.4826 H   0  0  0  0  0  0  0  0  0  0  0  0
  146.2616  138.6259  150.9394 H   0  0  0  0  0  0  0  0  0  0  0  0
  147.5189  136.6278  152.2468 H   0  0  0  0  0  0  0  0  0  0  0  0
  147.0987  134.5042  152.2528 H   0  0  0  0  0  0  0  0  0  0  0  0
  145.6574  134.1899  153.2041 H   0  0  0  0  0  0  0  0  0  0  0  0
  147.1450  132.5411  150.5958 H   0  0  0  0  0  0  0  0  0  0  0  0
  145.3459  131.5092  148.8216 H   0  0  0  0  0  0  0  0  0  0  0  0
  143.0360  132.9382  149.3745 H   0  0  0  0  0  0  0  0  0  0  0  0
  150.2938  139.3723  153.1829 H   0  0  0  0  0  0  0  0  0  0  0  0
  149.3806  140.0974  154.5014 H   0  0  0  0  0  0  0  0  0  0  0  0
  150.8164  137.3757  154.4993 H   0  0  0  0  0  0  0  0  0  0  0  0
  151.3099  138.8135  155.3701 H   0  0  0  0  0  0  0  0  0  0  0  0
  148.8198  136.2262  155.1981 H   0  0  0  0  0  0  0  0  0  0  0  0
  147.9294  136.8537  156.5718 H   0  0  0  0  0  0  0  0  0  0  0  0
  147.2408  138.8616  155.2990 H   0  0  0  0  0  0  0  0  0  0  0  0
  146.7663  137.4034  154.4560 H   0  0  0  0  0  0  0  0  0  0  0  0
  148.7124  137.6352  153.0814 H   0  0  0  0  0  0  0  0  0  0  0  0
  1  2  1  0  0  0  0
  1 19  1  0  0  0  0
  1 20  1  0  0  0  0
  1 21  1  0  0  0  0
  2  3  1  0  0  0  0
  2 13  1  0  0  0  0
  2 22  1  0  0  0  0
  3  4  1  0  0  0  0
  3 23  1  0  0  0  0
  3 24  1  0  0  0  0
  4  5  1  0  0  0  0
  4 25  1  0  0  0  0
  5  6  2  0  0  0  0
  5  7  1  0  0  0  0
  7  8  1  0  0  0  0
  7 26  1  0  0  0  0
  7 27  1  0  0  0  0
  8 12  1  0  0  0  0
  8  9  1  0  0  0  0
  9 10  2  0  0  0  0
  9 28  1  0  0  0  0
 10 11  1  0  0  0  0
 10 29  1  0  0  0  0
 11 12  2  0  0  0  0
 11 30  1  0  0  0  0
 13 18  1  0  0  0  0
 13 14  1  0  0  0  0
 13 39  1  0  0  0  0
 14 15  1  0  0  0  0
 14 31  1  0  0  0  0
 14 32  1  0  0  0  0
 15 16  1  0  0  0  0
 15 33  1  0  0  0  0
 15 34  1  0  0  0  0
 16 17  1  0  0  0  0
 17 18  1  0  0  0  0
 17 35  1  0  0  0  0
 17 36  1  0  0  0  0
 18 37  1  0  0  0  0
 18 38  1  0  0  0  0
M  CHG  1  13   1
M  END
> <s_m_source_file>
AV-unprocessed.smi

> <i_m_source_file_index>
1420

> <i_lp_mmshare_version>
43012

> <i_f3d_flags>
0

> <s_epik_input>
W0NIMl0xW0NIMl1PW0NIMl1bQ0gyXU4xW0NASF0oW0NIM10pW0NIMl1bTkhdQyg9TylbQ0gyXW4yW2NIXVtjSF1bY0hdbjI=

> <s_epik_cmdline>
J2VwaWtfcHl0aG9uJywgJy1waCcsICc3LjAnLCAnLXRuJywgJzgnLCAnLW1hJywgJzIwMCcsICctbWV0YWxfYmluZGluZycsICctaW1hZScsICc8aW5maWxlLm1hZT4nLCAnLW9tYWUnLCAnPG91dGZpbGUubWFlPic=

> <r_lp_tautomer_probability>
1

> <r_epik_Ionization_Penalty>
0.748405

> <r_epik_Ionization_Penalty_Charging>
0.748396

> <r_epik_Ionization_Penalty_Neutral>
8.56978e-06

> <r_epik_State_Penalty>
0.775162

> <r_epik_Charging_Adjusted_Penalty>
1.52356

> <i_epik_Tot_Q>
1

> <i_epik_Tot_abs_Q>
1

> <r_epik_Metal_State_Penalty>
0.775167

> <b_epik_Metal_Only>
0

> <s_lp_Force_Field>
OPLS_2005

> <r_lp_Energy>
20.6517

> <b_lp_Chiralities_Consistent>
1

> <s_lp_Variant>
AV-unprocessed.smi:1420-3

> <Gold.Version>
5.8.1

> <Gold.Id.Protein>
6NUR|6NUR_protein|mol2

> <Gold.PLP.Fitness>
41.2072

> <Gold.PLP.PLP>
-28.1226

> <Gold.PLP.part.hbond>
-2.5646

> <Gold.PLP.part.metal>
0.0000

> <Gold.PLP.part.buried>
-0.5867

> <Gold.PLP.part.nonpolar>
-27.8419

> <Gold.PLP.part.repulsive>
0.4577

> <Gold.PLP.ligand.clash>
0.0000

> <Gold.PLP.ligand.torsion>
0.9640

> <Gold.PLP.Chemscore.Hbond>
2.9750

> <Gold.PLP.Chemscore.CHOScore>
2.0000

> <Gold.PLP.Chemscore.Metal>
0.0000

> <Gold.Chemscore.Hbonds>
donor molecule, donor type, donor heavy atom, donor atom, acceptor molecule, acceptor atom, score
      L1  H     4    25       P1  7948  0.99
      L1  H    13    39       P1  7948  2.00
      L1  C     9    28       P1 10747  1.00
      L1  C    11    30       P1 10186  1.00

> <Gold.PLP.Chemscore.Internal.Correction>
0.0875

> <Gold.Rescore>
     Score         DG    S(hbond)    S(metal)    S(lipo)     H(rot)  DE(clash)    DE(int)     intcor
     11.25     -14.95       1.89        0.00      69.55       1.94       0.12       3.58       ----

> <Gold.Chemscore.Fitness>
11.2476

> <Gold.Chemscore.DG>
-14.9473

> <Gold.Chemscore.ZeroCoef>
-5.4800

> <Gold.Chemscore.Hbond>
1.8880

> <Gold.Chemscore.Metal>
0.0000

> <Gold.Chemscore.Lipo>
69.5455

> <Gold.Chemscore.Internal_Hbond>
0.0000

> <Gold.Chemscore.DEClash>
0.1247

> <Gold.Chemscore.DEInternal>
3.5750

> <Gold.Chemscore.Rot>
1.9435

> <Gold.Chemscore.Internal.Correction>
   9.000000E+99

> <Gold.Chemscore.Hbonds>
donor molecule, donor type, donor heavy atom, donor atom, acceptor molecule, acceptor atom, score
      L1  H     4    25       P1  7948  0.91
      L1  H    13    39       P1  7948  1.00

> <Gold.Chemscore.Hbond.Weighted>
-6.3059

> <Gold.Chemscore.Metal.Weighted>
-0.0000

> <Gold.Chemscore.Lipo.Weighted>
-8.1368

> <Gold.Chemscore.Internal_Hbond.Weighted>
0.0000

> <Gold.Chemscore.DEClash.Weighted>
0.1247

> <Gold.Chemscore.DEInternal.Weighted>
3.5750

> <Gold.Chemscore.Rot.Weighted>
4.9754

> <Gold.Chemscore.Internal.Correction.Weighted>
   9.000000E+99

> <Gold.Protein.RotatedTorsions>
[ 6907 6896 6895 6894 ] final   28.98 input  -60.11 | X-H torsion
[ 7974 7965 7964 7962 ] final   59.81 input  175.53 | X-H torsion
[ 8008 7997 7996 7995 ] final  112.21 input   59.86 | X-H torsion
[ 10167 10162 10161 10158 ] final -115.30 input  -65.29 | X-H torsion
[ 10718 10713 10712 10709 ] final  -98.38 input   66.30 | X-H torsion
[ 10763 10752 10751 10750 ] final   -7.86 input  -60.55 | X-H torsion
[ 11005 11000 10999 10996 ] final  -12.85 input  -57.11 | X-H torsion

> <Gold.Protein.ActiveResidues>
 VAL166  LYS551  ARG553  GLY616  TRP617  ASP618  TYR619  PRO620  LYS621  CYS622 
 ASP623  PHE694  ASN695  SER759  ASP760  ASP761  ALA762  ILE779  LEU786  VAL792 
 PHE793  MET794  SER795  GLU796  ALA797  LYS798  CYS799  TRP800  GLU811  SER814 

> <Gold.Protein.RotatedAtoms>
  152.0248  134.9802  160.0571 H   0  0  0  0  0  0  0  0  0  0  0  0  # atno 6907 bound_to 6896
  152.1302  133.4398  159.4725 H   0  0  0  0  0  0  0  0  0  0  0  0  # atno 6908 bound_to 6896
  150.6855  134.2348  159.4492 H   0  0  0  0  0  0  0  0  0  0  0  0  # atno 6909 bound_to 6896
  145.9030  139.3596  143.0581 H   0  0  0  0  0  0  0  0  0  0  0  0  # atno 7974 bound_to 7965
  156.2177  140.3004  155.9878 H   0  0  0  0  0  0  0  0  0  0  0  0  # atno 8008 bound_to 7997
  155.2563  140.0428  157.3009 H   0  0  0  0  0  0  0  0  0  0  0  0  # atno 8009 bound_to 7997
  154.5793  140.2370  155.8085 H   0  0  0  0  0  0  0  0  0  0  0  0  # atno 8010 bound_to 7997
  140.0916  143.4694  152.1866 H   0  0  0  0  0  0  0  0  0  0  0  0  # atno 10167 bound_to 10162
  156.0106  130.5235  150.6513 H   0  0  0  0  0  0  0  0  0  0  0  0  # atno 10718 bound_to 10713
  153.4322  135.7012  153.6223 H   0  0  0  0  0  0  0  0  0  0  0  0  # atno 10763 bound_to 10752
  153.4633  135.3731  155.2350 H   0  0  0  0  0  0  0  0  0  0  0  0  # atno 10764 bound_to 10752
  154.8726  135.4025  154.3708 H   0  0  0  0  0  0  0  0  0  0  0  0  # atno 10765 bound_to 10752
  140.7700  133.8446  155.9198 H   0  0  0  0  0  0  0  0  0  0  0  0  # atno 11005 bound_to 11000
  145.8767  140.9387  143.0622 LP  0  0  0  0  0  0  0  0  0  0  0  0  # atno 17320 bound_to 7965
  144.6737  140.0726  143.7472 LP  0  0  0  0  0  0  0  0  0  0  0  0  # atno 17321 bound_to 7965
  139.5721  144.7468  151.3862 LP  0  0  0  0  0  0  0  0  0  0  0  0  # atno 17342 bound_to 10162
  140.7025  143.7596  150.7427 LP  0  0  0  0  0  0  0  0  0  0  0  0  # atno 17343 bound_to 10162
  157.4274  131.0845  151.1072 LP  0  0  0  0  0  0  0  0  0  0  0  0  # atno 17370 bound_to 10713
  157.1655  130.6244  149.5624 LP  0  0  0  0  0  0  0  0  0  0  0  0  # atno 17371 bound_to 10713
  140.9583  134.1689  157.4674 LP  0  0  0  0  0  0  0  0  0  0  0  0  # atno 17394 bound_to 11000
  139.8757  134.9935  156.5648 LP  0  0  0  0  0  0  0  0  0  0  0  0  # atno 17395 bound_to 11000

$$$$
