#       Name:                AV-unprocessed.smi:643
#       Creating user name   scv26
#       Creation time:       Fri Mar 27 00:07:50 2020


#       File generated by GOLD software.
#

@<TRIPOS>MOLECULE
AV-unprocessed.smi:643
    43    44     1
SMALL
NO_CHARGES


@<TRIPOS>ATOM
      1 ****        -4.1461  -1.3604   0.5738 C.3            1 S1                 0.0000
      2 ****        -2.7469  -1.6868   0.0078 C.3            1 S1                 0.0000
      3 ****        -1.8700  -2.2181   1.1628 C.3            1 S1                 0.0000
      4 ****        -2.8695  -2.7170  -1.1266 C.3            1 S1                 0.0000
      5 ****        -3.2635  -1.9219  -2.3747 C.3            1 S1                 0.0000
      6 ****        -2.7670  -0.4882  -2.1425 C.3            1 S1                 0.0000
      7 ****        -2.1714  -0.4447  -0.7227 C.3            1 S1                 0.0000
      8 ****        -0.7097  -0.4679  -0.8157 N.am           1 S1                 0.0000
      9 ****         0.1344   0.3065  -0.1179 C.2            1 S1                 0.0000
     10 ****        -0.2302   1.1492   0.7026 O.2            1 S1                 0.0000
     11 ****         1.4128   0.0317  -0.4284 N.am           1 S1                 0.0000
     12 ****         2.5806   0.6489   0.0878 C.2            1 S1                 0.0000
     13 ****         3.8709   0.2330  -0.3419 C.2            1 S1                 0.0000
     14 ****         4.7135   1.0476   0.3601 C.2            1 S1                 0.0000
     15 ****         3.9336   1.8784   1.1392 N.pl3          1 S1                 0.0000
     16 ****         4.3596   2.9152   2.0591 C.3            1 S1                 0.0000
     17 ****         4.0031   4.3182   1.5477 C.3            1 S1                 0.0000
     18 ****         4.3468   5.2325   2.4538 F              1 S1                 0.0000
     19 ****         4.6379   4.5772   0.4043 F              1 S1                 0.0000
     20 ****         2.6160   1.6309   0.9778 N.2            1 S1                 0.0000
     21 ****        -4.6094  -2.2417   1.0186 H              1 S1                 0.0000
     22 ****        -4.8250  -0.9899  -0.1945 H              1 S1                 0.0000
     23 ****        -4.0868  -0.5966   1.3499 H              1 S1                 0.0000
     24 ****        -0.8895  -2.5496   0.8199 H              1 S1                 0.0000
     25 ****        -2.3401  -3.0730   1.6496 H              1 S1                 0.0000
     26 ****        -1.7135  -1.4514   1.9224 H              1 S1                 0.0000
     27 ****        -1.9017  -3.1886  -1.3027 H              1 S1                 0.0000
     28 ****        -3.5777  -3.5155  -0.9024 H              1 S1                 0.0000
     29 ****        -2.8389  -2.3602  -3.2783 H              1 S1                 0.0000
     30 ****        -4.3478  -1.9221  -2.4922 H              1 S1                 0.0000
     31 ****        -2.0477  -0.1834  -2.9041 H              1 S1                 0.0000
     32 ****        -3.6081   0.2025  -2.2145 H              1 S1                 0.0000
     33 ****        -2.4885   0.4740  -0.2256 H              1 S1                 0.0000
     34 ****        -0.3129  -1.1337  -1.4622 H              1 S1                 0.0000
     35 ****         1.5675  -0.6946  -1.1118 H              1 S1                 0.0000
     36 ****         4.1373  -0.5371  -1.0507 H              1 S1                 0.0000
     37 ****         5.7920   1.1068   0.3678 H              1 S1                 0.0000
     38 ****         3.8850   2.7331   3.0242 H              1 S1                 0.0000
     39 ****         5.4359   2.8293   2.2139 H              1 S1                 0.0000
     40 ****         2.9332   4.4271   1.3664 H              1 S1                 0.0000
     41 ****        -1.2049   1.2860   0.8794 LP             1 S1                 0.0000
     42 ****         0.4485   1.6968   1.1921 LP             1 S1                 0.0000
     43 ****         1.8452   2.0836   1.4260 LP             1 S1                 0.0000
@<TRIPOS>BOND
    1    1    2 1     
    2    1   21 1     
    3    1   22 1     
    4    1   23 1     
    5    2    7 1     
    6    2    3 1     
    7    2    4 1     
    8    3   24 1     
    9    3   25 1     
   10    3   26 1     
   11    4    5 1     
   12    4   27 1     
   13    4   28 1     
   14    5    6 1     
   15    5   29 1     
   16    5   30 1     
   17    6    7 1     
   18    6   31 1     
   19    6   32 1     
   20    7    8 1     
   21    7   33 1     
   22    8    9 am    
   23    8   34 1     
   24    9   10 2     
   25    9   11 am    
   26   11   12 1     
   27   11   35 1     
   28   12   20 2     
   29   12   13 1     
   30   13   14 2     
   31   13   36 1     
   32   14   15 1     
   33   14   37 1     
   34   15   16 1     
   35   15   20 1     
   36   16   17 1     
   37   16   38 1     
   38   16   39 1     
   39   17   18 1     
   40   17   19 1     
   41   17   40 1     
   42   10   41 1     
   43   10   42 1     
   44   20   43 1     
@<TRIPOS>SUBSTRUCTURE
      1 S1             1
@<TRIPOS>SET
LONE_PAIRS      STATIC     ATOMS    <user>   **** ""
3 41 42 43
DONOR_HYDROGENS      STATIC     ATOMS    <user>   **** ""
2 34 35
ATOM$BLUE        STATIC     ATOMS    COLORGROUP SYSTEM
3 41 42 43
ATOM$RED        STATIC     ATOMS    COLORGROUP SYSTEM
2 34 35
