AV-unprocessed.smi:1|AV-procd|sdf|14|dock4
  -GOLD-   2262015103D 1   1.00000     0.00000
 Structure written by MMmdl.
 57 62  0  0  0  0  0  0  0  0  1 V2000
  147.3522  131.0835  152.8020 O   0  0  0  0  0  0  0  0  0  0  0  0
  147.0608  132.2749  152.6652 C   0  0  0  0  0  0  0  0  0  0  0  0
  147.5936  133.3815  153.3135 N   0  0  0  0  0  0  0  0  0  0  0  0
  148.5561  133.2325  154.1727 C   0  0  0  0  0  0  0  0  0  0  0  0
  149.2370  132.1029  154.6444 N   0  0  0  0  0  0  0  0  0  0  0  0
  150.2563  132.0997  155.6081 C   0  0  0  0  0  0  0  0  0  0  0  0
  150.7239  133.1639  156.2029 N   0  0  0  0  0  0  0  0  0  0  0  0
  150.0912  134.3193  155.7625 C   0  0  0  0  0  0  0  0  0  0  0  0
  149.0829  134.4477  154.8307 C   0  0  0  0  0  0  0  0  0  0  0  0
  148.7223  135.7811  154.6695 N   0  0  0  0  0  0  0  0  0  0  0  0
  149.5362  136.4063  155.5151 C   0  0  0  0  0  0  0  0  0  0  0  0
  150.3806  135.6127  156.1994 N   0  0  0  0  0  0  0  0  0  0  0  0
  151.3980  136.0732  157.1975 C   0  0  1  0  0  0  0  0  0  0  0  0
  151.8535  137.3341  156.8164 O   0  0  0  0  0  0  0  0  0  0  0  0
  152.1344  138.1025  157.9752 C   0  0  1  0  0  0  0  0  0  0  0  0
  152.1462  139.6003  157.6443 C   0  0  0  0  0  0  0  0  0  0  0  0
  152.0929  140.3479  158.8489 O   0  0  0  0  0  0  0  0  0  0  0  0
  153.2277  140.8138  159.4070 C   0  0  0  0  0  0  0  0  0  0  0  0
  154.3434  140.3397  159.1835 O   0  0  0  0  0  0  0  0  0  0  0  0
  152.9924  141.9687  160.3208 C   0  0  0  0  0  0  0  0  0  0  0  0
  152.4138  143.1525  159.8063 C   0  0  0  0  0  0  0  0  0  0  0  0
  152.1775  144.2590  160.6450 C   0  0  0  0  0  0  0  0  0  0  0  0
  152.5195  144.1962  162.0084 C   0  0  0  0  0  0  0  0  0  0  0  0
  153.0977  143.0250  162.5320 C   0  0  0  0  0  0  0  0  0  0  0  0
  153.3326  141.9166  161.6951 C   0  0  0  0  0  0  0  0  0  0  0  0
  151.0651  137.6640  158.9771 C   0  0  1  0  0  0  0  0  0  0  0  0
  149.8529  138.3772  158.8033 O   0  0  0  0  0  0  0  0  0  0  0  0
  148.5923  137.3053  159.0127 S   0  0  0  0  0  0  0  0  0  0  0  0
  148.2288  137.3018  160.4381 O   0  0  0  0  0  0  0  0  0  0  0  0
  147.6024  137.5234  157.9474 O   0  0  0  0  0  0  0  0  0  0  0  0
  149.4279  135.8952  158.6898 O   0  0  0  0  0  0  0  0  0  0  0  0
  150.8179  136.1891  158.6227 C   0  0  1  0  0  0  0  0  0  0  0  0
  145.9996  132.6255  151.6740 C   0  0  0  0  0  0  0  0  0  0  0  0
  145.7337  133.9780  151.3716 C   0  0  0  0  0  0  0  0  0  0  0  0
  144.7369  134.3091  150.4331 C   0  0  0  0  0  0  0  0  0  0  0  0
  144.0053  133.2900  149.7928 C   0  0  0  0  0  0  0  0  0  0  0  0
  144.2710  131.9392  150.0900 C   0  0  0  0  0  0  0  0  0  0  0  0
  145.2672  131.6064  151.0287 C   0  0  0  0  0  0  0  0  0  0  0  0
  150.6478  131.1075  155.8370 H   0  0  0  0  0  0  0  0  0  0  0  0
  149.5222  137.4793  155.6378 H   0  0  0  0  0  0  0  0  0  0  0  0
  152.2073  135.3450  157.1294 H   0  0  0  0  0  0  0  0  0  0  0  0
  153.1162  137.7954  158.3399 H   0  0  0  0  0  0  0  0  0  0  0  0
  153.0586  139.8581  157.1055 H   0  0  0  0  0  0  0  0  0  0  0  0
  151.3053  139.8475  156.9945 H   0  0  0  0  0  0  0  0  0  0  0  0
  152.1427  143.2242  158.7627 H   0  0  0  0  0  0  0  0  0  0  0  0
  151.7332  145.1569  160.2411 H   0  0  0  0  0  0  0  0  0  0  0  0
  152.3386  145.0451  162.6512 H   0  0  0  0  0  0  0  0  0  0  0  0
  153.3619  142.9762  163.5780 H   0  0  0  0  0  0  0  0  0  0  0  0
  153.7783  141.0336  162.1293 H   0  0  0  0  0  0  0  0  0  0  0  0
  151.3971  137.7897  160.0084 H   0  0  0  0  0  0  0  0  0  0  0  0
  151.3786  135.5250  159.2812 H   0  0  0  0  0  0  0  0  0  0  0  0
  146.2929  134.7651  151.8569 H   0  0  0  0  0  0  0  0  0  0  0  0
  144.5347  135.3449  150.2031 H   0  0  0  0  0  0  0  0  0  0  0  0
  143.2417  133.5452  149.0728 H   0  0  0  0  0  0  0  0  0  0  0  0
  143.7111  131.1578  149.5975 H   0  0  0  0  0  0  0  0  0  0  0  0
  145.4664  130.5678  151.2501 H   0  0  0  0  0  0  0  0  0  0  0  0
  148.9646  131.2101  154.2593 H   0  0  0  0  0  0  0  0  0  0  0  0
  1  2  2  0  0  0  0
  2  3  1  0  0  0  0
  2 33  1  0  0  0  0
  3  4  2  0  0  0  0
  4  9  1  0  0  0  0
  4  5  1  0  0  0  0
  5  6  1  0  0  0  0
  5 57  1  0  0  0  0
  6  7  2  0  0  0  0
  6 39  1  0  0  0  0
  7  8  1  0  0  0  0
  8 12  1  0  0  0  0
  8  9  2  0  0  0  0
  9 10  1  0  0  0  0
 10 11  2  0  0  0  0
 11 12  1  0  0  0  0
 11 40  1  0  0  0  0
 12 13  1  0  0  0  0
 13 32  1  0  0  0  0
 13 14  1  0  0  0  0
 13 41  1  0  0  0  0
 14 15  1  0  0  0  0
 15 16  1  0  0  0  0
 15 26  1  0  0  0  0
 15 42  1  0  0  0  0
 16 17  1  0  0  0  0
 16 43  1  0  0  0  0
 16 44  1  0  0  0  0
 17 18  1  0  0  0  0
 18 19  2  0  0  0  0
 18 20  1  0  0  0  0
 20 25  1  0  0  0  0
 20 21  2  0  0  0  0
 21 22  1  0  0  0  0
 21 45  1  0  0  0  0
 22 23  2  0  0  0  0
 22 46  1  0  0  0  0
 23 24  1  0  0  0  0
 23 47  1  0  0  0  0
 24 25  2  0  0  0  0
 24 48  1  0  0  0  0
 25 49  1  0  0  0  0
 26 32  1  0  0  0  0
 26 27  1  0  0  0  0
 26 50  1  0  0  0  0
 27 28  1  0  0  0  0
 28 29  2  0  0  0  0
 28 30  2  0  0  0  0
 28 31  1  0  0  0  0
 31 32  1  0  0  0  0
 32 51  1  0  0  0  0
 33 38  1  0  0  0  0
 33 34  2  0  0  0  0
 34 35  1  0  0  0  0
 34 52  1  0  0  0  0
 35 36  2  0  0  0  0
 35 53  1  0  0  0  0
 36 37  1  0  0  0  0
 36 54  1  0  0  0  0
 37 38  2  0  0  0  0
 37 55  1  0  0  0  0
 38 56  1  0  0  0  0
M  END
> <s_m_source_file>
AV-unprocessed.smi

> <i_m_source_file_index>
1

> <i_lp_mmshare_version>
43012

> <i_f3d_flags>
0

> <s_epik_input>
W2NIXTFbY0hdW2NIXVtjSF1bY0hdYzFDKD1PKVtOSF1jKG5bY0hdbjIpYyhjMjMpbltjSF1uM1tDQEBIXShbQ0BIXShbQ0BIXTQ1KU9TKE81KSg9Tyk9TylPW0NASF00W0NIMl1PQyg9TyljNltjSF1bY0hdW2NIXVtjSF1bY0hdNg==

> <s_epik_cmdline>
J2VwaWtfcHl0aG9uJywgJy1waCcsICc3LjAnLCAnLXRuJywgJzgnLCAnLW1hJywgJzIwMCcsICctbWV0YWxfYmluZGluZycsICctaW1hZScsICc8aW5maWxlLm1hZT4nLCAnLW9tYWUnLCAnPG91dGZpbGUubWFlPic=

> <r_epik_Ionization_Penalty>
0.122545

> <r_epik_Ionization_Penalty_Charging>
0.122545

> <r_epik_Ionization_Penalty_Neutral>
7.8935e-16

> <r_epik_State_Penalty>
2.69178

> <r_epik_Charging_Adjusted_Penalty>
2.81433

> <i_epik_Tot_Q>
0

> <i_epik_Tot_abs_Q>
0

> <r_epik_Metal_State_Penalty>
3.02665

> <b_epik_Metal_Only>
0

> <s_epik_Chemistry_Notes>
This compound has an ester and may undergo hydrolysis at high or low pH. This compound contains an acetal/aminal-like group ( X-CH(R)-Y where X, Y are N, S, or O) that may be acid/base labile, releasing an aldehyde.

> <s_lp_Force_Field>
OPLS_2005

> <r_lp_Energy>
60.6373

> <b_lp_Chiralities_Consistent>
1

> <s_lp_Variant>
AV-unprocessed.smi:1-14

> <Gold.Version>
5.8.1

> <Gold.Id.Protein>
6NUR|6NUR_protein|mol2

> <Gold.PLP.Fitness>
59.5363

> <Gold.PLP.PLP>
-58.3876

> <Gold.PLP.part.hbond>
-4.1687

> <Gold.PLP.part.metal>
0.0000

> <Gold.PLP.part.buried>
-3.4557

> <Gold.PLP.part.nonpolar>
-53.5681

> <Gold.PLP.part.repulsive>
3.5660

> <Gold.PLP.ligand.clash>
0.0000

> <Gold.PLP.ligand.torsion>
2.5433

> <Gold.PLP.Chemscore.Hbond>
2.0424

> <Gold.PLP.Chemscore.CHOScore>
0.0000

> <Gold.PLP.Chemscore.Metal>
0.0000

> <Gold.Chemscore.Hbonds>
donor molecule, donor type, donor heavy atom, donor atom, acceptor molecule, acceptor atom, score
      P1  H  6931  6943       L1    29  0.69
      P1  H  6934  6947       L1    29  0.58
      P1  H  7997  8010       L1    19  0.85

> <Gold.PLP.Chemscore.Internal.Correction>
0.1081

> <Gold.Rescore>
     Score         DG    S(hbond)    S(metal)    S(lipo)     H(rot)  DE(clash)    DE(int)     intcor
     16.26     -23.29       2.05        0.00     140.44       2.13       3.22       3.81       ----

> <Gold.Chemscore.Fitness>
16.2649

> <Gold.Chemscore.DG>
-23.2926

> <Gold.Chemscore.ZeroCoef>
-5.4800

> <Gold.Chemscore.Hbond>
2.0486

> <Gold.Chemscore.Metal>
0.0000

> <Gold.Chemscore.Lipo>
140.4415

> <Gold.Chemscore.Internal_Hbond>
0.0000

> <Gold.Chemscore.DEClash>
3.2216

> <Gold.Chemscore.DEInternal>
3.8061

> <Gold.Chemscore.Rot>
2.1333

> <Gold.Chemscore.Internal.Correction>
   9.000000E+99

> <Gold.Chemscore.Hbonds>
donor molecule, donor type, donor heavy atom, donor atom, acceptor molecule, acceptor atom, score
      P1  H  6931  6943       L1    29  0.68
      P1  H  6934  6947       L1    29  0.41
      P1  H  7997  8010       L1    19  0.80

> <Gold.Chemscore.Hbond.Weighted>
-6.8423

> <Gold.Chemscore.Metal.Weighted>
-0.0000

> <Gold.Chemscore.Lipo.Weighted>
-16.4317

> <Gold.Chemscore.Internal_Hbond.Weighted>
0.0000

> <Gold.Chemscore.DEClash.Weighted>
3.2216

> <Gold.Chemscore.DEInternal.Weighted>
3.8061

> <Gold.Chemscore.Rot.Weighted>
5.4614

> <Gold.Chemscore.Internal.Correction.Weighted>
   9.000000E+99

> <Gold.Protein.RotatedTorsions>
[ 6907 6896 6895 6894 ] final  124.16 input  -60.11 | X-H torsion
[ 7974 7965 7964 7962 ] final   16.89 input  175.53 | X-H torsion
[ 8008 7997 7996 7995 ] final    5.88 input   59.86 | X-H torsion
[ 10167 10162 10161 10158 ] final  -89.72 input  -65.29 | X-H torsion
[ 10718 10713 10712 10709 ] final  -59.42 input   66.30 | X-H torsion
[ 10763 10752 10751 10750 ] final   39.02 input  -60.55 | X-H torsion
[ 11005 11000 10999 10996 ] final   59.22 input  -57.11 | X-H torsion

> <Gold.Protein.ActiveResidues>
 VAL166  LYS551  ARG553  GLY616  TRP617  ASP618  TYR619  PRO620  LYS621  CYS622 
 ASP623  PHE694  ASN695  SER759  ASP760  ASP761  ALA762  ILE779  LEU786  VAL792 
 PHE793  MET794  SER795  GLU796  ALA797  LYS798  CYS799  TRP800  GLU811  SER814 

> <Gold.Protein.RotatedAtoms>
  152.4101  133.6950  159.6389 H   0  0  0  0  0  0  0  0  0  0  0  0  # atno 6907 bound_to 6896
  150.7982  133.8639  159.3248 H   0  0  0  0  0  0  0  0  0  0  0  0  # atno 6908 bound_to 6896
  151.6384  135.1017  160.0188 H   0  0  0  0  0  0  0  0  0  0  0  0  # atno 6909 bound_to 6896
  146.2235  139.8682  142.8592 H   0  0  0  0  0  0  0  0  0  0  0  0  # atno 7974 bound_to 7965
  154.7340  140.2736  155.6431 H   0  0  0  0  0  0  0  0  0  0  0  0  # atno 8008 bound_to 7997
  156.2857  140.2710  156.1973 H   0  0  0  0  0  0  0  0  0  0  0  0  # atno 8009 bound_to 7997
  155.0345  140.0371  157.2476 H   0  0  0  0  0  0  0  0  0  0  0  0  # atno 8010 bound_to 7997
  140.3620  143.2837  151.9603 H   0  0  0  0  0  0  0  0  0  0  0  0  # atno 10167 bound_to 10162
  156.1063  130.4180  150.0712 H   0  0  0  0  0  0  0  0  0  0  0  0  # atno 10718 bound_to 10713
  152.9981  135.6233  154.2398 H   0  0  0  0  0  0  0  0  0  0  0  0  # atno 10763 bound_to 10752
  154.2138  135.2799  155.2950 H   0  0  0  0  0  0  0  0  0  0  0  0  # atno 10764 bound_to 10752
  154.5584  135.5712  153.7044 H   0  0  0  0  0  0  0  0  0  0  0  0  # atno 10765 bound_to 10752
  140.0320  134.5999  155.9495 H   0  0  0  0  0  0  0  0  0  0  0  0  # atno 11005 bound_to 11000
  145.2635  141.0085  143.3812 LP  0  0  0  0  0  0  0  0  0  0  0  0  # atno 17320 bound_to 7965
  144.9279  139.4333  143.6509 LP  0  0  0  0  0  0  0  0  0  0  0  0  # atno 17321 bound_to 7965
  139.4813  144.5984  151.7649 LP  0  0  0  0  0  0  0  0  0  0  0  0  # atno 17342 bound_to 10162
  140.5118  144.1014  150.5997 LP  0  0  0  0  0  0  0  0  0  0  0  0  # atno 17343 bound_to 10162
  156.8687  130.9517  151.3611 LP  0  0  0  0  0  0  0  0  0  0  0  0  # atno 17370 bound_to 10713
  157.6240  130.8677  149.9157 LP  0  0  0  0  0  0  0  0  0  0  0  0  # atno 17371 bound_to 10713
  141.1836  133.6551  156.5123 LP  0  0  0  0  0  0  0  0  0  0  0  0  # atno 17394 bound_to 11000
  140.4210  134.7187  157.4890 LP  0  0  0  0  0  0  0  0  0  0  0  0  # atno 17395 bound_to 11000

$$$$
