AV-unprocessed.smi:2063|AV-procd|sdf|8412|dock1
  -GOLD-   2272011103D 1   1.00000     0.00000
 Structure written by MMmdl.
 38 39  0  0  0  0  0  0  0  0  2 V2000
  145.9526  134.5691  162.7194 C   0  0  0  0  0  0  0  0  0  0  0  0
  146.2116  136.0333  162.3360 C   0  0  0  0  0  0  0  0  0  0  0  0
  144.9229  136.8555  162.1915 C   0  0  0  0  0  0  0  0  0  0  0  0
  147.0958  136.1537  161.1341 C   0  0  0  0  0  0  0  0  0  0  0  0
  147.4341  137.3269  160.5903 N   0  0  0  0  0  0  0  0  0  0  0  0
  148.2574  137.1748  159.4845 N   0  0  0  0  0  0  0  0  0  0  0  0
  148.5393  135.8930  159.2116 C   0  0  0  0  0  0  0  0  0  0  0  0
  149.3158  135.5286  158.1780 N   0  5  0  0  0  0  0  0  0  0  0  0
  149.9838  136.4674  157.4696 C   0  0  0  0  0  0  0  0  0  0  0  0
  150.9053  137.1748  157.8828 O   0  0  0  0  0  0  0  0  0  0  0  0
  149.5582  136.5877  156.2038 N   0  0  0  0  0  0  0  0  0  0  0  0
  150.0956  137.4900  155.1866 C   0  0  2  0  0  0  0  0  0  0  0  0
  151.5728  137.1554  154.9278 C   0  0  0  0  0  0  0  0  0  0  0  0
  149.9042  138.9501  155.6384 C   0  0  2  0  0  0  0  0  0  0  0  0
  148.4435  139.3780  155.8099 C   0  0  0  0  0  0  0  0  0  0  0  0
  148.4634  140.8756  155.5406 C   0  0  0  0  0  0  0  0  0  0  0  0
  149.8647  141.1381  154.9845 C   0  0  0  0  0  0  0  0  0  0  0  0
  150.3670  139.8540  154.6467 O   0  0  0  0  0  0  0  0  0  0  0  0
  147.7727  134.7540  160.3174 S   0  0  0  0  0  0  0  0  0  0  0  0
  146.8894  134.0371  162.8893 H   0  0  0  0  0  0  0  0  0  0  0  0
  145.4089  134.0438  161.9336 H   0  0  0  0  0  0  0  0  0  0  0  0
  145.3629  134.5006  163.6339 H   0  0  0  0  0  0  0  0  0  0  0  0
  146.7637  136.4736  163.1674 H   0  0  0  0  0  0  0  0  0  0  0  0
  145.1473  137.9067  162.0076 H   0  0  0  0  0  0  0  0  0  0  0  0
  144.3186  136.8006  163.0971 H   0  0  0  0  0  0  0  0  0  0  0  0
  144.3133  136.4949  161.3624 H   0  0  0  0  0  0  0  0  0  0  0  0
  148.7982  135.9877  155.9185 H   0  0  0  0  0  0  0  0  0  0  0  0
  149.5460  137.3573  154.2531 H   0  0  0  0  0  0  0  0  0  0  0  0
  151.9938  137.8021  154.1576 H   0  0  0  0  0  0  0  0  0  0  0  0
  151.6883  136.1253  154.5890 H   0  0  0  0  0  0  0  0  0  0  0  0
  152.1717  137.2787  155.8307 H   0  0  0  0  0  0  0  0  0  0  0  0
  150.4517  139.1359  156.5648 H   0  0  0  0  0  0  0  0  0  0  0  0
  147.8146  138.8840  155.0679 H   0  0  0  0  0  0  0  0  0  0  0  0
  148.0509  139.1302  156.7966 H   0  0  0  0  0  0  0  0  0  0  0  0
  147.6928  141.1425  154.8168 H   0  0  0  0  0  0  0  0  0  0  0  0
  148.2878  141.4551  156.4475 H   0  0  0  0  0  0  0  0  0  0  0  0
  149.8563  141.8013  154.1192 H   0  0  0  0  0  0  0  0  0  0  0  0
  150.5039  141.5827  155.7489 H   0  0  0  0  0  0  0  0  0  0  0  0
  1  2  1  0  0  0  0
  1 20  1  0  0  0  0
  1 21  1  0  0  0  0
  1 22  1  0  0  0  0
  2  3  1  0  0  0  0
  2  4  1  0  0  0  0
  2 23  1  0  0  0  0
  3 24  1  0  0  0  0
  3 25  1  0  0  0  0
  3 26  1  0  0  0  0
  4 19  1  0  0  0  0
  4  5  2  0  0  0  0
  5  6  1  0  0  0  0
  6  7  2  0  0  0  0
  7  8  1  0  0  0  0
  7 19  1  0  0  0  0
  8  9  1  0  0  0  0
  9 10  2  0  0  0  0
  9 11  1  0  0  0  0
 11 12  1  0  0  0  0
 11 27  1  0  0  0  0
 12 13  1  0  0  0  0
 12 14  1  0  0  0  0
 12 28  1  0  0  0  0
 13 29  1  0  0  0  0
 13 30  1  0  0  0  0
 13 31  1  0  0  0  0
 14 18  1  0  0  0  0
 14 15  1  0  0  0  0
 14 32  1  0  0  0  0
 15 16  1  0  0  0  0
 15 33  1  0  0  0  0
 15 34  1  0  0  0  0
 16 17  1  0  0  0  0
 16 35  1  0  0  0  0
 16 36  1  0  0  0  0
 17 18  1  0  0  0  0
 17 37  1  0  0  0  0
 17 38  1  0  0  0  0
M  CHG  1   8  -1
M  END
> <s_m_source_file>
AV-unprocessed.smi

> <i_m_source_file_index>
2063

> <i_lp_mmshare_version>
43012

> <i_f3d_flags>
0

> <s_epik_input>
W0NIM11bQ0hdKFtDSDNdKWMxbm5jKHMxKVtOSF1DKD1PKVtOSF1bQ0BIXShbQ0gzXSlbQ0BASF0yW0NIMl1bQ0gyXVtDSDJdTzI=

> <s_epik_cmdline>
J2VwaWtfcHl0aG9uJywgJy1waCcsICc3LjAnLCAnLXRuJywgJzgnLCAnLW1hJywgJzIwMCcsICctbWV0YWxfYmluZGluZycsICctaW1hZScsICc8aW5maWxlLm1hZT4nLCAnLW9tYWUnLCAnPG91dGZpbGUubWFlPic=

> <r_lp_tautomer_probability>
1

> <r_epik_Ionization_Penalty>
4.37022

> <r_epik_Ionization_Penalty_Charging>
4.21437

> <r_epik_Ionization_Penalty_Neutral>
0.15585

> <r_epik_State_Penalty>
4.21389

> <r_epik_Charging_Adjusted_Penalty>
8.42826

> <i_epik_Tot_Q>
-1

> <i_epik_Tot_abs_Q>
1

> <r_epik_Metal_State_Penalty>
0.693772

> <b_epik_Metal_Only>
1

> <s_lp_Force_Field>
OPLS_2005

> <r_lp_Energy>
9.58619

> <b_lp_Chiralities_Consistent>
1

> <s_lp_Variant>
AV-unprocessed.smi:2063-5

> <Gold.Version>
5.8.1

> <Gold.Id.Protein>
6NUR|6NUR_protein|mol2

> <Gold.PLP.Fitness>
36.9572

> <Gold.PLP.PLP>
-26.3812

> <Gold.PLP.part.hbond>
-5.8013

> <Gold.PLP.part.metal>
0.0000

> <Gold.PLP.part.buried>
-3.7560

> <Gold.PLP.part.nonpolar>
-17.7230

> <Gold.PLP.part.repulsive>
0.0678

> <Gold.PLP.ligand.clash>
0.0000

> <Gold.PLP.ligand.torsion>
0.7568

> <Gold.PLP.Chemscore.Hbond>
3.9344

> <Gold.PLP.Chemscore.CHOScore>
0.0000

> <Gold.PLP.Chemscore.Metal>
0.0000

> <Gold.Chemscore.Hbonds>
donor molecule, donor type, donor heavy atom, donor atom, acceptor molecule, acceptor atom, score
      P1  H  6896  6909       L1     8  0.77
      P1  H  6931  6943       L1     5  0.22
      P1  H  6934  6947       L1     5  1.00
      P1  H  7989  7998       L1    18  0.20

> <Gold.PLP.Chemscore.Internal.Correction>
0.2864

> <Gold.Rescore>
     Score         DG    S(hbond)    S(metal)    S(lipo)     H(rot)  DE(clash)    DE(int)     intcor
     12.83     -15.03       1.51        0.00      68.92       1.39       0.13       2.07       ----

> <Gold.Chemscore.Fitness>
12.8349

> <Gold.Chemscore.DG>
-15.0333

> <Gold.Chemscore.ZeroCoef>
-5.4800

> <Gold.Chemscore.Hbond>
1.5107

> <Gold.Chemscore.Metal>
0.0000

> <Gold.Chemscore.Lipo>
68.9237

> <Gold.Chemscore.Internal_Hbond>
0.0000

> <Gold.Chemscore.DEClash>
0.1252

> <Gold.Chemscore.DEInternal>
2.0731

> <Gold.Chemscore.Rot>
1.3893

> <Gold.Chemscore.Internal.Correction>
   9.000000E+99

> <Gold.Chemscore.Hbonds>
donor molecule, donor type, donor heavy atom, donor atom, acceptor molecule, acceptor atom, score
      P1  H  6896  6909       L1     8  0.02
      P1  H  6931  6943       L1     5  0.02
      P1  H  6934  6947       L1     5  0.72

> <Gold.Chemscore.Hbond.Weighted>
-5.0459

> <Gold.Chemscore.Metal.Weighted>
-0.0000

> <Gold.Chemscore.Lipo.Weighted>
-8.0641

> <Gold.Chemscore.Internal_Hbond.Weighted>
0.0000

> <Gold.Chemscore.DEClash.Weighted>
0.1252

> <Gold.Chemscore.DEInternal.Weighted>
2.0731

> <Gold.Chemscore.Rot.Weighted>
3.5567

> <Gold.Chemscore.Internal.Correction.Weighted>
   9.000000E+99

> <Gold.Protein.RotatedTorsions>
[ 6907 6896 6895 6894 ] final   42.07 input  -60.11 | X-H torsion
[ 7974 7965 7964 7962 ] final -153.61 input  175.53 | X-H torsion
[ 8008 7997 7996 7995 ] final -164.00 input   59.86 | X-H torsion
[ 10167 10162 10161 10158 ] final  -37.09 input  -65.29 | X-H torsion
[ 10718 10713 10712 10709 ] final -131.17 input   66.30 | X-H torsion
[ 10763 10752 10751 10750 ] final  102.03 input  -60.55 | X-H torsion
[ 11005 11000 10999 10996 ] final -131.70 input  -57.11 | X-H torsion

> <Gold.Protein.ActiveResidues>
 VAL166  LYS551  ARG553  GLY616  TRP617  ASP618  TYR619  PRO620  LYS621  CYS622 
 ASP623  PHE694  ASN695  SER759  ASP760  ASP761  ALA762  ILE779  LEU786  VAL792 
 PHE793  MET794  SER795  GLU796  ALA797  LYS798  CYS799  TRP800  GLU811  SER814 

> <Gold.Protein.RotatedAtoms>
  152.2032  134.8569  160.0505 H   0  0  0  0  0  0  0  0  0  0  0  0  # atno 6907 bound_to 6896
  151.9415  133.3634  159.3975 H   0  0  0  0  0  0  0  0  0  0  0  0  # atno 6908 bound_to 6896
  150.6959  134.4359  159.5314 H   0  0  0  0  0  0  0  0  0  0  0  0  # atno 6909 bound_to 6896
  144.7732  140.4502  143.5892 H   0  0  0  0  0  0  0  0  0  0  0  0  # atno 7974 bound_to 7965
  155.8294  140.0931  157.1802 H   0  0  0  0  0  0  0  0  0  0  0  0  # atno 8008 bound_to 7997
  154.3979  140.1422  156.3656 H   0  0  0  0  0  0  0  0  0  0  0  0  # atno 8009 bound_to 7997
  155.8182  140.3447  155.5501 H   0  0  0  0  0  0  0  0  0  0  0  0  # atno 8010 bound_to 7997
  140.7127  143.3365  151.2451 H   0  0  0  0  0  0  0  0  0  0  0  0  # atno 10167 bound_to 10162
  156.2217  130.6982  151.0763 H   0  0  0  0  0  0  0  0  0  0  0  0  # atno 10718 bound_to 10713
  153.3344  135.4024  155.1521 H   0  0  0  0  0  0  0  0  0  0  0  0  # atno 10763 bound_to 10752
  154.8630  135.3618  154.5428 H   0  0  0  0  0  0  0  0  0  0  0  0  # atno 10764 bound_to 10752
  153.5869  135.7075  153.5499 H   0  0  0  0  0  0  0  0  0  0  0  0  # atno 10765 bound_to 10752
  140.9235  134.1413  157.4294 H   0  0  0  0  0  0  0  0  0  0  0  0  # atno 11005 bound_to 11000
  145.6263  139.1530  143.2994 LP  0  0  0  0  0  0  0  0  0  0  0  0  # atno 17320 bound_to 7965
  146.1893  140.6369  142.9153 LP  0  0  0  0  0  0  0  0  0  0  0  0  # atno 17321 bound_to 7965
  139.6862  143.9770  152.2835 LP  0  0  0  0  0  0  0  0  0  0  0  0  # atno 17342 bound_to 10162
  139.9417  144.6677  150.8260 LP  0  0  0  0  0  0  0  0  0  0  0  0  # atno 17343 bound_to 10162
  157.7091  131.0743  150.6565 LP  0  0  0  0  0  0  0  0  0  0  0  0  # atno 17370 bound_to 10713
  156.6629  130.4517  149.5682 LP  0  0  0  0  0  0  0  0  0  0  0  0  # atno 17371 bound_to 10713
  139.8780  134.9980  156.5876 LP  0  0  0  0  0  0  0  0  0  0  0  0  # atno 17394 bound_to 11000
  140.7956  133.8547  155.8683 LP  0  0  0  0  0  0  0  0  0  0  0  0  # atno 17395 bound_to 11000

$$$$
