#       Name:                AV-unprocessed.smi:3009
#       Creating user name   scv26
#       Creation time:       Fri Mar 27 16:38:21 2020


#       File generated by GOLD software.
#

@<TRIPOS>MOLECULE
AV-unprocessed.smi:3009
    49    50     1
SMALL
NO_CHARGES


@<TRIPOS>ATOM
      1 ****        -0.5394   1.9971   4.5600 C.3            1 S1                 0.0000
      2 ****        -1.0681   1.6270   3.1641 C.3            1 S1                 0.0000
      3 ****        -2.6017   1.7076   3.1344 C.3            1 S1                 0.0000
      4 ****        -0.5915   0.2272   2.7199 C.3            1 S1                 0.0000
      5 ****         0.8876   0.1280   2.5827 N.4            1 S1                 1.0000
      6 ****         1.4014  -1.2581   2.7015 C.3            1 S1                 0.0000
      7 ****         1.1734  -2.0478   1.4003 C.3            1 S1                 0.0000
      8 ****         1.7885  -1.3608   0.3176 O.3            1 S1                 0.0000
      9 ****         1.2319  -0.0667   0.1055 C.3            1 S1                 0.0000
     10 ****         1.9123   0.5566  -1.1263 C.3            1 S1                 0.0000
     11 ****         1.6074  -0.1846  -2.3456 N.am           1 S1                 0.0000
     12 ****         0.4514  -0.1058  -3.0194 C.2            1 S1                 0.0000
     13 ****        -0.4835   0.6200  -2.6791 O.2            1 S1                 0.0000
     14 ****         0.4499  -0.9193  -4.0877 N.am           1 S1                 0.0000
     15 ****        -0.5985  -1.1069  -5.0236 C.2            1 S1                 0.0000
     16 ****        -0.5649  -2.0320  -6.1020 C.2            1 S1                 0.0000
     17 ****        -1.6829  -1.9876  -6.8123 N.2            1 S1                 0.0000
     18 ****        -2.4281  -1.0398  -6.2003 N.pl3          1 S1                 0.0000
     19 ****        -1.8078  -0.4754  -5.1077 C.2            1 S1                 0.0000
     20 ****         1.4516   0.7851   1.3750 C.3            1 S1                 0.0000
     21 ****        -3.3470  -0.7905  -6.5377 H              1 S1                 0.0000
     22 ****        -0.8796   1.2869   5.3142 H              1 S1                 0.0000
     23 ****        -0.8837   2.9878   4.8586 H              1 S1                 0.0000
     24 ****         0.5505   2.0132   4.5844 H              1 S1                 0.0000
     25 ****        -0.7031   2.3733   2.4592 H              1 S1                 0.0000
     26 ****        -3.0510   0.9925   3.8242 H              1 S1                 0.0000
     27 ****        -2.9883   1.4955   2.1371 H              1 S1                 0.0000
     28 ****        -2.9489   2.7026   3.4149 H              1 S1                 0.0000
     29 ****        -0.9326  -0.4955   3.4629 H              1 S1                 0.0000
     30 ****        -1.0744  -0.0586   1.7857 H              1 S1                 0.0000
     31 ****         2.4709  -1.2108   2.9109 H              1 S1                 0.0000
     32 ****         0.9469  -1.7681   3.5516 H              1 S1                 0.0000
     33 ****         1.6166  -3.0402   1.4832 H              1 S1                 0.0000
     34 ****         0.1100  -2.1913   1.2032 H              1 S1                 0.0000
     35 ****         0.1638  -0.1617  -0.0931 H              1 S1                 0.0000
     36 ****         1.6013   1.5959  -1.2462 H              1 S1                 0.0000
     37 ****         2.9942   0.5719  -0.9912 H              1 S1                 0.0000
     38 ****         2.3233  -0.8054  -2.6940 H              1 S1                 0.0000
     39 ****         1.2810  -1.4708  -4.2429 H              1 S1                 0.0000
     40 ****         0.2167  -2.7212  -6.3863 H              1 S1                 0.0000
     41 ****        -2.2723   0.2987  -4.5153 H              1 S1                 0.0000
     42 ****         1.0390   1.7842   1.2424 H              1 S1                 0.0000
     43 ****         2.5218   0.9210   1.5366 H              1 S1                 0.0000
     44 ****         1.2560   0.6261   3.3807 H              1 S1                 0.0000
     45 ****         1.6687  -1.9017  -0.5149 LP             1 S1                 0.0000
     46 ****         2.7642  -1.2620   0.5134 LP             1 S1                 0.0000
     47 ****        -0.4020   1.1901  -1.8616 LP             1 S1                 0.0000
     48 ****        -1.3242   0.6391  -3.2202 LP             1 S1                 0.0000
     49 ****        -1.9210  -2.5311  -7.6172 LP             1 S1                 0.0000
@<TRIPOS>BOND
    1    1    2 1     
    2    1   22 1     
    3    1   23 1     
    4    1   24 1     
    5    2    3 1     
    6    2    4 1     
    7    2   25 1     
    8    3   26 1     
    9    3   27 1     
   10    3   28 1     
   11    4    5 1     
   12    4   29 1     
   13    4   30 1     
   14    5   20 1     
   15    5    6 1     
   16    5   44 1     
   17    6    7 1     
   18    6   31 1     
   19    6   32 1     
   20    7    8 1     
   21    7   33 1     
   22    7   34 1     
   23    8    9 1     
   24    9   10 1     
   25    9   20 1     
   26    9   35 1     
   27   10   11 1     
   28   10   36 1     
   29   10   37 1     
   30   11   12 am    
   31   11   38 1     
   32   12   13 2     
   33   12   14 am    
   34   14   15 1     
   35   14   39 1     
   36   15   19 2     
   37   15   16 1     
   38   16   17 2     
   39   16   40 1     
   40   17   18 1     
   41   18   21 1     
   42   18   19 1     
   43   19   41 1     
   44   20   42 1     
   45   20   43 1     
   46    8   45 1     
   47    8   46 1     
   48   13   47 1     
   49   13   48 1     
   50   17   49 1     
@<TRIPOS>SUBSTRUCTURE
      1 S1             1
@<TRIPOS>SET
LONE_PAIRS      STATIC     ATOMS    <user>   **** ""
5 45 46 47 48 49
DONOR_HYDROGENS      STATIC     ATOMS    <user>   **** ""
4 44 38 39 21
ATOM$BLUE        STATIC     ATOMS    COLORGROUP SYSTEM
5 45 46 47 48 49
ATOM$RED        STATIC     ATOMS    COLORGROUP SYSTEM
4 44 38 39 21
