AV-unprocessed.smi:2767|AV-procd|sdf|10647|dock9
  -GOLD-   2272015 93D 1   1.00000     0.00000
 Structure written by MMmdl.
 34 36  0  0  0  0  0  0  0  0  1 V2000
  148.9037  144.2891  161.3929 O   0  0  0  0  0  0  0  0  0  0  0  0
  148.7208  144.6558  160.2318 C   0  0  0  0  0  0  0  0  0  0  0  0
  149.7002  145.1101  159.4371 N   0  0  0  0  0  0  0  0  0  0  0  0
  151.1069  145.1963  159.8125 C   0  0  0  0  0  0  0  0  0  0  0  0
  152.0609  144.3242  159.0052 C   0  0  0  0  0  0  0  0  0  0  0  0
  152.9146  143.3679  159.8344 C   0  0  0  0  0  0  0  0  0  0  0  0
  152.5413  141.9065  159.9264 C   0  0  0  0  0  0  0  0  0  0  0  0
  152.4878  142.7740  161.1613 C   0  0  0  0  0  0  0  0  0  0  0  0
  151.5560  143.8001  157.6752 C   0  0  0  0  0  0  0  0  0  0  0  0
  152.5834  144.8989  157.6975 C   0  0  0  0  0  0  0  0  0  0  0  0
  147.5385  144.6504  159.5912 N   0  0  0  0  0  0  0  0  0  0  0  0
  146.2791  144.2071  160.0759 C   0  0  0  0  0  0  0  0  0  0  0  0
  146.1470  144.2053  161.4832 C   0  0  0  0  0  0  0  0  0  0  0  0
  144.9349  143.7860  162.0653 C   0  0  0  0  0  0  0  0  0  0  0  0
  143.8858  143.3788  161.2221 C   0  0  0  0  0  0  0  0  0  0  0  0
  142.7023  142.9672  161.7358 F   0  0  0  0  0  0  0  0  0  0  0  0
  144.0981  143.4102  159.8315 C   0  0  0  0  0  0  0  0  0  0  0  0
  145.2593  143.8122  159.2725 N   0  0  0  0  0  0  0  0  0  0  0  0
  149.4618  145.3922  158.4977 H   0  0  0  0  0  0  0  0  0  0  0  0
  151.4123  146.2351  159.6853 H   0  0  0  0  0  0  0  0  0  0  0  0
  151.2141  144.9820  160.8774 H   0  0  0  0  0  0  0  0  0  0  0  0
  153.9822  143.5677  159.7636 H   0  0  0  0  0  0  0  0  0  0  0  0
  151.5935  141.5981  159.4891 H   0  0  0  0  0  0  0  0  0  0  0  0
  153.3470  141.1793  159.8518 H   0  0  0  0  0  0  0  0  0  0  0  0
  153.2616  142.6193  161.9099 H   0  0  0  0  0  0  0  0  0  0  0  0
  151.5074  143.0171  161.5625 H   0  0  0  0  0  0  0  0  0  0  0  0
  151.8880  142.8139  157.3574 H   0  0  0  0  0  0  0  0  0  0  0  0
  150.5447  144.0669  157.3743 H   0  0  0  0  0  0  0  0  0  0  0  0
  152.2503  145.8950  157.4124 H   0  0  0  0  0  0  0  0  0  0  0  0
  153.5926  144.6540  157.3783 H   0  0  0  0  0  0  0  0  0  0  0  0
  147.5435  144.9872  158.6397 H   0  0  0  0  0  0  0  0  0  0  0  0
  146.9642  144.5218  162.1151 H   0  0  0  0  0  0  0  0  0  0  0  0
  144.8134  143.7778  163.1383 H   0  0  0  0  0  0  0  0  0  0  0  0
  143.3176  143.1054  159.1502 H   0  0  0  0  0  0  0  0  0  0  0  0
  1  2  2  0  0  0  0
  2  3  1  0  0  0  0
  2 11  1  0  0  0  0
  3  4  1  0  0  0  0
  3 19  1  0  0  0  0
  4  5  1  0  0  0  0
  4 20  1  0  0  0  0
  4 21  1  0  0  0  0
  5 10  1  0  0  0  0
  5  6  1  0  0  0  0
  5  9  1  0  0  0  0
  6  8  1  0  0  0  0
  6  7  1  0  0  0  0
  6 22  1  0  0  0  0
  7  8  1  0  0  0  0
  7 23  1  0  0  0  0
  7 24  1  0  0  0  0
  8 25  1  0  0  0  0
  8 26  1  0  0  0  0
  9 10  1  0  0  0  0
  9 27  1  0  0  0  0
  9 28  1  0  0  0  0
 10 29  1  0  0  0  0
 10 30  1  0  0  0  0
 11 12  1  0  0  0  0
 11 31  1  0  0  0  0
 12 18  1  0  0  0  0
 12 13  2  0  0  0  0
 13 14  1  0  0  0  0
 13 32  1  0  0  0  0
 14 15  2  0  0  0  0
 14 33  1  0  0  0  0
 15 16  1  0  0  0  0
 15 17  1  0  0  0  0
 17 18  2  0  0  0  0
 17 34  1  0  0  0  0
M  END
> <s_m_source_file>
AV-unprocessed.smi

> <i_m_source_file_index>
2767

> <i_lp_mmshare_version>
43012

> <i_f3d_flags>
0

> <s_epik_input>
W0NIMl0xW0NIMl1bQ0hdMUMyKFtDSDJdW0NIMl0yKVtDSDJdW05IXUMoPU8pW05IXWMzW2NIXVtjSF1jKEYpW2NIXW4z

> <s_epik_cmdline>
J2VwaWtfcHl0aG9uJywgJy1waCcsICc3LjAnLCAnLXRuJywgJzgnLCAnLW1hJywgJzIwMCcsICctbWV0YWxfYmluZGluZycsICctaW1hZScsICc8aW5maWxlLm1hZT4nLCAnLW9tYWUnLCAnPG91dGZpbGUubWFlPic=

> <r_lp_tautomer_probability>
1

> <r_epik_Ionization_Penalty>
3.94364e-05

> <r_epik_Ionization_Penalty_Charging>
0

> <r_epik_Ionization_Penalty_Neutral>
3.94364e-05

> <r_epik_State_Penalty>
-0

> <r_epik_Charging_Adjusted_Penalty>
0

> <i_epik_Tot_Q>
0

> <i_epik_Tot_abs_Q>
0

> <r_epik_Metal_State_Penalty>
-0

> <b_epik_Metal_Only>
0

> <s_lp_Force_Field>
OPLS_2005

> <r_lp_Energy>
31.6765

> <b_lp_Chiralities_Consistent>
1

> <s_lp_Variant>
AV-unprocessed.smi:2767-1

> <Gold.Version>
5.8.1

> <Gold.Id.Protein>
6NUR|6NUR_protein|mol2

> <Gold.PLP.Fitness>
50.3850

> <Gold.PLP.PLP>
-44.8027

> <Gold.PLP.part.hbond>
-3.0000

> <Gold.PLP.part.metal>
0.0000

> <Gold.PLP.part.buried>
-7.9001

> <Gold.PLP.part.nonpolar>
-35.9690

> <Gold.PLP.part.repulsive>
0.6374

> <Gold.PLP.ligand.clash>
0.0000

> <Gold.PLP.ligand.torsion>
2.2190

> <Gold.PLP.Chemscore.Hbond>
2.4990

> <Gold.PLP.Chemscore.CHOScore>
0.0000

> <Gold.PLP.Chemscore.Metal>
0.0000

> <Gold.Chemscore.Hbonds>
donor molecule, donor type, donor heavy atom, donor atom, acceptor molecule, acceptor atom, score
      L1  H     3    19       P1  8029  0.84
      L1  H    11    31       P1  8029  1.00
      P1  H  6933  6944       L1     1  0.62

> <Gold.PLP.Chemscore.Internal.Correction>
2.5232

> <Gold.Rescore>
     Score         DG    S(hbond)    S(metal)    S(lipo)     H(rot)  DE(clash)    DE(int)     intcor
     17.72     -23.00       2.48        0.00     111.00       1.46       1.72       3.56       ----

> <Gold.Chemscore.Fitness>
17.7174

> <Gold.Chemscore.DG>
-22.9995

> <Gold.Chemscore.ZeroCoef>
-5.4800

> <Gold.Chemscore.Hbond>
2.4766

> <Gold.Chemscore.Metal>
0.0000

> <Gold.Chemscore.Lipo>
111.0027

> <Gold.Chemscore.Internal_Hbond>
0.0000

> <Gold.Chemscore.DEClash>
1.7174

> <Gold.Chemscore.DEInternal>
3.5648

> <Gold.Chemscore.Rot>
1.4608

> <Gold.Chemscore.Internal.Correction>
   9.000000E+99

> <Gold.Chemscore.Hbonds>
donor molecule, donor type, donor heavy atom, donor atom, acceptor molecule, acceptor atom, score
      L1  H     3    19       P1  8029  0.68
      L1  H    11    31       P1  8029  1.00
      P1  H  6933  6944       L1     1  0.40

> <Gold.Chemscore.Hbond.Weighted>
-8.2718

> <Gold.Chemscore.Metal.Weighted>
-0.0000

> <Gold.Chemscore.Lipo.Weighted>
-12.9873

> <Gold.Chemscore.Internal_Hbond.Weighted>
0.0000

> <Gold.Chemscore.DEClash.Weighted>
1.7174

> <Gold.Chemscore.DEInternal.Weighted>
3.5648

> <Gold.Chemscore.Rot.Weighted>
3.7396

> <Gold.Chemscore.Internal.Correction.Weighted>
   9.000000E+99

> <Gold.Protein.RotatedTorsions>
[ 6907 6896 6895 6894 ] final  111.34 input  -60.11 | X-H torsion
[ 7974 7965 7964 7962 ] final  -83.71 input  175.53 | X-H torsion
[ 8008 7997 7996 7995 ] final  169.95 input   59.86 | X-H torsion
[ 10167 10162 10161 10158 ] final  133.46 input  -65.29 | X-H torsion
[ 10718 10713 10712 10709 ] final  -75.18 input   66.30 | X-H torsion
[ 10763 10752 10751 10750 ] final -117.55 input  -60.55 | X-H torsion
[ 11005 11000 10999 10996 ] final  127.07 input  -57.11 | X-H torsion

> <Gold.Protein.ActiveResidues>
 VAL166  LYS551  ARG553  GLY616  TRP617  ASP618  TYR619  PRO620  LYS621  CYS622 
 ASP623  PHE694  ASN695  SER759  ASP760  ASP761  ALA762  ILE779  LEU786  VAL792 
 PHE793  MET794  SER795  GLU796  ALA797  LYS798  CYS799  TRP800  GLU811  SER814 

> <Gold.Protein.RotatedAtoms>
  152.4974  133.8672  159.7279 H   0  0  0  0  0  0  0  0  0  0  0  0  # atno 6907 bound_to 6896
  150.9168  133.6920  159.2848 H   0  0  0  0  0  0  0  0  0  0  0  0  # atno 6908 bound_to 6896
  151.4311  135.1014  159.9695 H   0  0  0  0  0  0  0  0  0  0  0  0  # atno 6909 bound_to 6896
  145.5163  140.9535  143.1680 H   0  0  0  0  0  0  0  0  0  0  0  0  # atno 7974 bound_to 7965
  156.1411  140.1551  156.8919 H   0  0  0  0  0  0  0  0  0  0  0  0  # atno 8008 bound_to 7997
  154.4988  140.0831  156.7792 H   0  0  0  0  0  0  0  0  0  0  0  0  # atno 8009 bound_to 7997
  155.4077  140.3417  155.4263 H   0  0  0  0  0  0  0  0  0  0  0  0  # atno 8010 bound_to 7997
  139.5296  144.6615  151.4998 H   0  0  0  0  0  0  0  0  0  0  0  0  # atno 10167 bound_to 10162
  156.0216  130.4435  150.3005 H   0  0  0  0  0  0  0  0  0  0  0  0  # atno 10718 bound_to 10713
  154.8558  135.4306  154.1997 H   0  0  0  0  0  0  0  0  0  0  0  0  # atno 10763 bound_to 10752
  153.3046  135.6971  153.7177 H   0  0  0  0  0  0  0  0  0  0  0  0  # atno 10764 bound_to 10752
  153.6293  135.3488  155.3011 H   0  0  0  0  0  0  0  0  0  0  0  0  # atno 10765 bound_to 10752
  139.9488  134.9625  156.8800 H   0  0  0  0  0  0  0  0  0  0  0  0  # atno 11005 bound_to 11000
  144.7700  139.6757  143.7199 LP  0  0  0  0  0  0  0  0  0  0  0  0  # atno 17320 bound_to 7965
  146.2135  139.5507  142.9666 LP  0  0  0  0  0  0  0  0  0  0  0  0  # atno 17321 bound_to 7965
  140.6465  143.8784  150.6742 LP  0  0  0  0  0  0  0  0  0  0  0  0  # atno 17342 bound_to 10162
  140.2135  143.3865  152.1699 LP  0  0  0  0  0  0  0  0  0  0  0  0  # atno 17343 bound_to 10162
  157.1107  131.0220  151.3049 LP  0  0  0  0  0  0  0  0  0  0  0  0  # atno 17370 bound_to 10713
  157.4706  130.7707  149.7320 LP  0  0  0  0  0  0  0  0  0  0  0  0  # atno 17371 bound_to 10713
  140.5768  134.0390  155.7450 LP  0  0  0  0  0  0  0  0  0  0  0  0  # atno 17394 bound_to 11000
  141.1146  133.9561  157.2846 LP  0  0  0  0  0  0  0  0  0  0  0  0  # atno 17395 bound_to 11000

$$$$
