AV-unprocessed.smi:66|AV-procd|sdf|619|dock10
  -GOLD-   2262016513D 1   1.00000     0.00000
 Structure written by MMmdl.
 28 30  0  0  0  0  0  0  0  0  2 V2000
  152.7949  136.9312  159.0988 O   0  0  0  0  0  0  0  0  0  0  0  0
  153.0503  137.8849  158.3316 C   0  0  0  0  0  0  0  0  0  0  0  0
  154.0252  138.6622  158.4392 O   0  5  0  0  0  0  0  0  0  0  0  0
  152.0780  138.1145  157.1678 C   0  0  2  0  0  0  0  0  0  0  0  0
  152.0742  136.9523  156.1566 C   0  0  0  0  0  0  0  0  0  0  0  0
  151.7544  137.6420  154.8365 C   0  0  2  0  0  0  0  0  0  0  0  0
  152.1644  136.8905  153.7135 O   0  0  0  0  0  0  0  0  0  0  0  0
  152.5223  138.9524  154.9758 C   0  0  0  0  0  0  0  0  0  0  0  0
  152.4246  139.3102  156.3894 N   0  0  0  0  0  0  0  0  0  0  0  0
  151.6903  140.4003  156.7194 C   0  0  0  0  0  0  0  0  0  0  0  0
  151.9704  141.0977  157.8539 N   0  0  0  0  0  0  0  0  0  0  0  0
  151.2637  142.1901  158.1620 C   0  0  0  0  0  0  0  0  0  0  0  0
  150.2578  142.7538  157.4881 N   0  0  0  0  0  0  0  0  0  0  0  0
  149.9823  142.0582  156.3493 C   0  0  0  0  0  0  0  0  0  0  0  0
  149.0232  142.3269  155.3961 N   0  0  0  0  0  0  0  0  0  0  0  0
  149.1438  141.3393  154.4485 C   0  0  0  0  0  0  0  0  0  0  0  0
  150.0772  140.4593  154.6923 N   0  0  0  0  0  0  0  0  0  0  0  0
  150.6408  140.8828  155.8916 C   0  0  0  0  0  0  0  0  0  0  0  0
  148.3887  143.1110  155.4397 H   0  0  0  0  0  0  0  0  0  0  0  0
  151.0688  138.2257  157.5706 H   0  0  0  0  0  0  0  0  0  0  0  0
  153.0558  136.4778  156.0985 H   0  0  0  0  0  0  0  0  0  0  0  0
  151.3471  136.1806  156.4109 H   0  0  0  0  0  0  0  0  0  0  0  0
  150.6839  137.8424  154.7722 H   0  0  0  0  0  0  0  0  0  0  0  0
  151.4002  136.6833  153.1982 H   0  0  0  0  0  0  0  0  0  0  0  0
  153.5797  138.8025  154.7518 H   0  0  0  0  0  0  0  0  0  0  0  0
  152.1592  139.7178  154.2885 H   0  0  0  0  0  0  0  0  0  0  0  0
  151.5471  142.6853  159.0788 H   0  0  0  0  0  0  0  0  0  0  0  0
  148.5163  141.2913  153.5708 H   0  0  0  0  0  0  0  0  0  0  0  0
  1  2  2  0  0  0  0
  2  3  1  0  0  0  0
  2  4  1  0  0  0  0
  4  5  1  0  0  0  0
  4 20  1  0  0  0  0
  4  9  1  0  0  0  0
  5  6  1  0  0  0  0
  5 21  1  0  0  0  0
  5 22  1  0  0  0  0
  6  7  1  0  0  0  0
  6  8  1  0  0  0  0
  6 23  1  0  0  0  0
  7 24  1  0  0  0  0
  8 25  1  0  0  0  0
  8 26  1  0  0  0  0
  8  9  1  0  0  0  0
  9 10  1  0  0  0  0
 10 11  1  0  0  0  0
 10 18  2  0  0  0  0
 11 12  2  0  0  0  0
 12 27  1  0  0  0  0
 12 13  1  0  0  0  0
 13 14  2  0  0  0  0
 14 15  1  0  0  0  0
 14 18  1  0  0  0  0
 15 16  1  0  0  0  0
 15 19  1  0  0  0  0
 16 17  2  0  0  0  0
 16 28  1  0  0  0  0
 17 18  1  0  0  0  0
M  CHG  1   3  -1
M  END
> <s_m_source_file>
AV-unprocessed.smi

> <i_m_source_file_index>
66

> <i_lp_mmshare_version>
43012

> <i_f3d_flags>
0

> <s_epik_input>
Tz1DKFtPSF0pW0NAQEhdMVtDSDJdW0NAQEhdKFtPSF0pW0NIMl1OMWMobltjSF1uMiljKGMyMylbbkhdW2NIXW4z

> <s_epik_cmdline>
J2VwaWtfcHl0aG9uJywgJy1waCcsICc3LjAnLCAnLXRuJywgJzgnLCAnLW1hJywgJzIwMCcsICctbWV0YWxfYmluZGluZycsICctaW1hZScsICc8aW5maWxlLm1hZT4nLCAnLW9tYWUnLCAnPG91dGZpbGUubWFlPic=

> <r_lp_tautomer_probability>
0.955585

> <r_epik_Ionization_Penalty>
0.00455415

> <r_epik_Ionization_Penalty_Charging>
0.000248217

> <r_epik_Ionization_Penalty_Neutral>
0.00430593

> <r_epik_State_Penalty>
0.0207074

> <r_epik_Charging_Adjusted_Penalty>
0.0209557

> <i_epik_Tot_Q>
-1

> <i_epik_Tot_abs_Q>
1

> <r_epik_Metal_State_Penalty>
0.337372

> <b_epik_Metal_Only>
0

> <s_lp_Force_Field>
OPLS_2005

> <r_lp_Energy>
28.2566

> <b_lp_Chiralities_Consistent>
1

> <s_lp_Variant>
AV-unprocessed.smi:66-3

> <Gold.Version>
5.8.1

> <Gold.Id.Protein>
6NUR|6NUR_protein|mol2

> <Gold.PLP.Fitness>
43.8192

> <Gold.PLP.PLP>
-25.4893

> <Gold.PLP.part.hbond>
-5.8552

> <Gold.PLP.part.metal>
0.0000

> <Gold.PLP.part.buried>
-1.1041

> <Gold.PLP.part.nonpolar>
-19.3024

> <Gold.PLP.part.repulsive>
1.2332

> <Gold.PLP.ligand.clash>
0.0000

> <Gold.PLP.ligand.torsion>
0.6012

> <Gold.PLP.Chemscore.Hbond>
6.3514

> <Gold.PLP.Chemscore.CHOScore>
0.1272

> <Gold.PLP.Chemscore.Metal>
0.0000

> <Gold.Chemscore.Hbonds>
donor molecule, donor type, donor heavy atom, donor atom, acceptor molecule, acceptor atom, score
      L1  H     7    24       P1  7949  0.66
      L1  H    15    19       P1  8028  0.51
      P1  H  6896  6908       L1     1  1.01
      P1  H  7989  7998       L1    17  0.84
      P1  H  7997  8009       L1     3  2.00
      P1  H 10752 10764       L1     7  0.98
      L1  C    16    28       P1  7957  0.02

> <Gold.PLP.Chemscore.Internal.Correction>
0.0966

> <Gold.Rescore>
     Score         DG    S(hbond)    S(metal)    S(lipo)     H(rot)  DE(clash)    DE(int)     intcor
     12.88     -15.54       3.73        0.00      33.62       2.48       0.67       1.98       ----

> <Gold.Chemscore.Fitness>
12.8841

> <Gold.Chemscore.DG>
-15.5354

> <Gold.Chemscore.ZeroCoef>
-5.4800

> <Gold.Chemscore.Hbond>
3.7307

> <Gold.Chemscore.Metal>
0.0000

> <Gold.Chemscore.Lipo>
33.6223

> <Gold.Chemscore.Internal_Hbond>
0.0000

> <Gold.Chemscore.DEClash>
0.6732

> <Gold.Chemscore.DEInternal>
1.9781

> <Gold.Chemscore.Rot>
2.4762

> <Gold.Chemscore.Internal.Correction>
   9.000000E+99

> <Gold.Chemscore.Hbonds>
donor molecule, donor type, donor heavy atom, donor atom, acceptor molecule, acceptor atom, score
      L1  H     7    24       P1  7949  0.54
      L1  H    15    19       P1  8028  0.49
      P1  H  6896  6908       L1     1  0.47
      P1  H  7989  7998       L1    17  0.09
      P1  H  7997  8009       L1     3  0.97
      P1  H 10752 10764       L1     7  0.74

> <Gold.Chemscore.Hbond.Weighted>
-12.4606

> <Gold.Chemscore.Metal.Weighted>
-0.0000

> <Gold.Chemscore.Lipo.Weighted>
-3.9338

> <Gold.Chemscore.Internal_Hbond.Weighted>
0.0000

> <Gold.Chemscore.DEClash.Weighted>
0.6732

> <Gold.Chemscore.DEInternal.Weighted>
1.9781

> <Gold.Chemscore.Rot.Weighted>
6.3391

> <Gold.Chemscore.Internal.Correction.Weighted>
   9.000000E+99

> <Gold.Protein.RotatedTorsions>
[ 6907 6896 6895 6894 ] final  -98.73 input  -60.11 | X-H torsion
[ 7974 7965 7964 7962 ] final   92.98 input  175.53 | X-H torsion
[ 8008 7997 7996 7995 ] final  141.47 input   59.86 | X-H torsion
[ 10167 10162 10161 10158 ] final   52.06 input  -65.29 | X-H torsion
[ 10718 10713 10712 10709 ] final  -36.98 input   66.30 | X-H torsion
[ 10763 10752 10751 10750 ] final -109.73 input  -60.55 | X-H torsion
[ 11005 11000 10999 10996 ] final   14.57 input  -57.11 | X-H torsion

> <Gold.Protein.ActiveResidues>
 VAL166  LYS551  ARG553  GLY616  TRP617  ASP618  TYR619  PRO620  LYS621  CYS622 
 ASP623  PHE694  ASN695  SER759  ASP760  ASP761  ALA762  ILE779  LEU786  VAL792 
 PHE793  MET794  SER795  GLU796  ALA797  LYS798  CYS799  TRP800  GLU811  SER814 

> <Gold.Protein.RotatedAtoms>
  150.7056  134.1149  159.4013 H   0  0  0  0  0  0  0  0  0  0  0  0  # atno 6907 bound_to 6896
  151.9136  135.0326  160.0526 H   0  0  0  0  0  0  0  0  0  0  0  0  # atno 6908 bound_to 6896
  152.2315  133.5027  159.5255 H   0  0  0  0  0  0  0  0  0  0  0  0  # atno 6909 bound_to 6896
  145.4850  139.2277  143.2861 H   0  0  0  0  0  0  0  0  0  0  0  0  # atno 7974 bound_to 7965
  156.2965  140.2314  156.4570 H   0  0  0  0  0  0  0  0  0  0  0  0  # atno 8008 bound_to 7997
  154.8052  140.0446  157.1323 H   0  0  0  0  0  0  0  0  0  0  0  0  # atno 8009 bound_to 7997
  154.9487  140.3039  155.5089 H   0  0  0  0  0  0  0  0  0  0  0  0  # atno 8010 bound_to 7997
  140.2553  144.3433  150.6335 H   0  0  0  0  0  0  0  0  0  0  0  0  # atno 10167 bound_to 10162
  156.3206  130.4265  149.7964 H   0  0  0  0  0  0  0  0  0  0  0  0  # atno 10718 bound_to 10713
  154.8209  135.4590  154.0778 H   0  0  0  0  0  0  0  0  0  0  0  0  # atno 10763 bound_to 10752
  153.2132  135.6884  153.8096 H   0  0  0  0  0  0  0  0  0  0  0  0  # atno 10764 bound_to 10752
  153.7539  135.3294  155.3302 H   0  0  0  0  0  0  0  0  0  0  0  0  # atno 10765 bound_to 10752
  140.4680  134.1059  155.7727 H   0  0  0  0  0  0  0  0  0  0  0  0  # atno 11005 bound_to 11000
  146.2318  140.5640  142.8972 LP  0  0  0  0  0  0  0  0  0  0  0  0  # atno 17320 bound_to 7965
  144.7866  140.5949  143.6569 LP  0  0  0  0  0  0  0  0  0  0  0  0  # atno 17321 bound_to 7965
  140.6008  143.2167  151.7075 LP  0  0  0  0  0  0  0  0  0  0  0  0  # atno 17342 bound_to 10162
  139.5033  144.3795  152.0390 LP  0  0  0  0  0  0  0  0  0  0  0  0  # atno 17343 bound_to 10162
  156.5273  130.8242  151.3225 LP  0  0  0  0  0  0  0  0  0  0  0  0  # atno 17370 bound_to 10713
  157.7411  130.9863  150.2421 LP  0  0  0  0  0  0  0  0  0  0  0  0  # atno 17371 bound_to 10713
  141.1590  133.8828  157.1899 LP  0  0  0  0  0  0  0  0  0  0  0  0  # atno 17394 bound_to 11000
  139.9903  135.0067  156.9959 LP  0  0  0  0  0  0  0  0  0  0  0  0  # atno 17395 bound_to 11000

$$$$
