#       Name:                AV-unprocessed.smi:1184
#       Creating user name   scv26
#       Creation time:       Fri Mar 27 03:56:27 2020


#       File generated by GOLD software.
#

@<TRIPOS>MOLECULE
AV-unprocessed.smi:1184
    48    49     1
SMALL
NO_CHARGES


@<TRIPOS>ATOM
      1 ****        -5.6881   1.7763   0.5509 C.3            1 S1                 0.0000
      2 ****        -4.3493   2.4781   0.8156 C.3            1 S1                 0.0000
      3 ****        -3.2962   1.5265   1.2408 N.4            1 S1                 1.0000
      4 ****        -2.0996   2.1726   1.8203 C.3            1 S1                 0.0000
      5 ****        -0.9529   1.2011   1.5596 C.3            1 S1                 0.0000
      6 ****        -1.2998   0.6465   0.1790 C.3            1 S1                 0.0000
      7 ****        -0.6208  -0.6917  -0.1699 C.3            1 S1                 0.0000
      8 ****         0.8336  -0.5828  -0.1627 N.am           1 S1                 0.0000
      9 ****         1.5736  -0.0736  -1.1603 C.2            1 S1                 0.0000
     10 ****         1.0914   0.3651  -2.2041 O.2            1 S1                 0.0000
     11 ****         3.0873  -0.0422  -0.9444 C.3            1 S1                 0.0000
     12 ****         3.6390  -1.4455  -0.9218 C.2            1 S1                 0.0000
     13 ****         4.0375  -2.2464  -2.0308 C.2            1 S1                 0.0000
     14 ****         4.0135  -1.9007  -3.4921 C.3            1 S1                 0.0000
     15 ****         4.4778  -3.4337  -1.6502 N.2            1 S1                 0.0000
     16 ****         4.3781  -3.4505  -0.2558 O.3            1 S1                 0.0000
     17 ****         3.8789  -2.2568   0.1538 C.2            1 S1                 0.0000
     18 ****         3.6935  -2.0837   1.6237 C.3            1 S1                 0.0000
     19 ****        -2.8344   0.5830   0.1920 C.3            1 S1                 0.0000
     20 ****        -6.4581   2.5031   0.2913 H              1 S1                 0.0000
     21 ****        -6.0300   1.2340   1.4329 H              1 S1                 0.0000
     22 ****        -5.6170   1.0664  -0.2733 H              1 S1                 0.0000
     23 ****        -4.0217   3.0273  -0.0683 H              1 S1                 0.0000
     24 ****        -4.4942   3.2147   1.6073 H              1 S1                 0.0000
     25 ****        -1.9009   3.1140   1.3047 H              1 S1                 0.0000
     26 ****        -2.2341   2.3911   2.8801 H              1 S1                 0.0000
     27 ****         0.0242   1.6845   1.5906 H              1 S1                 0.0000
     28 ****        -0.9613   0.4040   2.3047 H              1 S1                 0.0000
     29 ****        -1.0097   1.3951  -0.5606 H              1 S1                 0.0000
     30 ****        -0.9049  -1.4567   0.5533 H              1 S1                 0.0000
     31 ****        -0.9618  -1.0477  -1.1435 H              1 S1                 0.0000
     32 ****         1.3153  -0.9264   0.6556 H              1 S1                 0.0000
     33 ****         3.5488   0.5481  -1.7369 H              1 S1                 0.0000
     34 ****         3.2981   0.4880  -0.0152 H              1 S1                 0.0000
     35 ****         3.1868  -1.2295  -3.7248 H              1 S1                 0.0000
     36 ****         3.8979  -2.7899  -4.1123 H              1 S1                 0.0000
     37 ****         4.9372  -1.4045  -3.7894 H              1 S1                 0.0000
     38 ****         3.5990  -1.0304   1.8871 H              1 S1                 0.0000
     39 ****         4.5424  -2.4916   2.1723 H              1 S1                 0.0000
     40 ****         2.7935  -2.5981   1.9603 H              1 S1                 0.0000
     41 ****        -3.1870  -0.4146   0.4568 H              1 S1                 0.0000
     42 ****        -3.2363   0.8208  -0.7940 H              1 S1                 0.0000
     43 ****        -3.6896   0.9585   1.9777 H              1 S1                 0.0000
     44 ****         0.1009   0.3532  -2.3410 LP             1 S1                 0.0000
     45 ****         1.6901   0.7334  -2.9154 LP             1 S1                 0.0000
     46 ****         4.8134  -4.1690  -2.2391 LP             1 S1                 0.0000
     47 ****         5.2828  -3.5936   0.1455 LP             1 S1                 0.0000
     48 ****         3.7663  -4.1881   0.0299 LP             1 S1                 0.0000
@<TRIPOS>BOND
    1    1    2 1     
    2    1   20 1     
    3    1   21 1     
    4    1   22 1     
    5    2    3 1     
    6    2   23 1     
    7    2   24 1     
    8    3   19 1     
    9    3    4 1     
   10    3   43 1     
   11    4    5 1     
   12    4   25 1     
   13    4   26 1     
   14    5    6 1     
   15    5   27 1     
   16    5   28 1     
   17    6    7 1     
   18    6   19 1     
   19    6   29 1     
   20    7    8 1     
   21    7   30 1     
   22    7   31 1     
   23    8    9 am    
   24    8   32 1     
   25    9   10 2     
   26    9   11 1     
   27   11   12 1     
   28   11   33 1     
   29   11   34 1     
   30   12   17 2     
   31   12   13 1     
   32   13   14 1     
   33   13   15 2     
   34   14   35 1     
   35   14   36 1     
   36   14   37 1     
   37   15   16 1     
   38   16   17 1     
   39   17   18 1     
   40   18   38 1     
   41   18   39 1     
   42   18   40 1     
   43   19   41 1     
   44   19   42 1     
   45   10   44 1     
   46   10   45 1     
   47   15   46 1     
   48   16   47 1     
   49   16   48 1     
@<TRIPOS>SUBSTRUCTURE
      1 S1             1
@<TRIPOS>SET
LONE_PAIRS      STATIC     ATOMS    <user>   **** ""
5 44 45 46 47 48
DONOR_HYDROGENS      STATIC     ATOMS    <user>   **** ""
2 43 32
ATOM$BLUE        STATIC     ATOMS    COLORGROUP SYSTEM
5 44 45 46 47 48
ATOM$RED        STATIC     ATOMS    COLORGROUP SYSTEM
2 43 32
