AV-unprocessed.smi:322|AV-procd|sdf|2338|dock4
  -GOLD-   2262022253D 1   1.00000     0.00000
 Structure written by MMmdl.
 44 46  0  0  0  0  0  0  0  0  2 V2000
  149.2711  141.4982  153.6654 O   0  0  0  0  0  0  0  0  0  0  0  0
  149.5568  140.6383  154.7485 C   0  0  0  0  0  0  0  0  0  0  0  0
  150.2723  141.3205  155.8708 C   0  0  0  0  0  0  0  0  0  0  0  0
  150.2232  142.6497  156.1726 N   0  3  0  0  0  0  0  0  0  0  0  0
  151.0132  142.9117  157.2921 C   0  0  0  0  0  0  0  0  0  0  0  0
  151.2734  144.1015  157.9651 C   0  0  0  0  0  0  0  0  0  0  0  0
  152.1334  144.0226  159.0800 C   0  0  0  0  0  0  0  0  0  0  0  0
  152.6980  142.7960  159.4863 C   0  0  0  0  0  0  0  0  0  0  0  0
  152.4259  141.5962  158.7963 C   0  0  0  0  0  0  0  0  0  0  0  0
  151.5734  141.6823  157.6954 C   0  0  0  0  0  0  0  0  0  0  0  0
  151.0886  140.7299  156.7902 N   0  0  0  0  0  0  0  0  0  0  0  0
  151.4835  139.3198  156.9365 C   0  0  0  0  0  0  0  0  0  0  0  0
  150.4831  138.5001  157.7776 C   0  0  1  0  0  0  0  0  0  0  0  0
  149.2699  138.2770  157.0880 O   0  0  0  0  0  0  0  0  0  0  0  0
  151.0487  137.1541  158.2567 C   0  0  0  0  0  0  0  0  0  0  0  0
  149.9955  136.3266  158.7333 O   0  0  0  0  0  0  0  0  0  0  0  0
  149.2408  136.9069  159.7873 C   0  0  0  0  0  0  0  0  0  0  0  0
  148.2840  135.9259  160.4426 C   0  0  0  0  0  0  0  0  0  0  0  0
  147.8076  134.8120  159.7191 C   0  0  0  0  0  0  0  0  0  0  0  0
  146.9162  133.9042  160.3230 C   0  0  0  0  0  0  0  0  0  0  0  0
  146.4924  134.1105  161.6504 C   0  0  0  0  0  0  0  0  0  0  0  0
  145.4021  132.9979  162.3919 Cl  0  0  0  0  0  0  0  0  0  0  0  0
  146.9583  135.2269  162.3719 C   0  0  0  0  0  0  0  0  0  0  0  0
  147.8503  136.1347  161.7685 C   0  0  0  0  0  0  0  0  0  0  0  0
  149.3025  140.9954  152.8654 H   0  0  0  0  0  0  0  0  0  0  0  0
  148.6237  140.2191  155.1247 H   0  0  0  0  0  0  0  0  0  0  0  0
  150.1629  139.8079  154.3860 H   0  0  0  0  0  0  0  0  0  0  0  0
  150.8425  145.0422  157.6548 H   0  0  0  0  0  0  0  0  0  0  0  0
  152.3654  144.9208  159.6340 H   0  0  0  0  0  0  0  0  0  0  0  0
  153.3540  142.7742  160.3445 H   0  0  0  0  0  0  0  0  0  0  0  0
  152.8683  140.6636  159.1144 H   0  0  0  0  0  0  0  0  0  0  0  0
  151.6242  138.8867  155.9462 H   0  0  0  0  0  0  0  0  0  0  0  0
  152.4650  139.3041  157.4120 H   0  0  0  0  0  0  0  0  0  0  0  0
  150.2195  139.0802  158.6626 H   0  0  0  0  0  0  0  0  0  0  0  0
  148.5827  138.1526  157.7243 H   0  0  0  0  0  0  0  0  0  0  0  0
  151.5452  136.6669  157.4166 H   0  0  0  0  0  0  0  0  0  0  0  0
  151.8037  137.3018  159.0306 H   0  0  0  0  0  0  0  0  0  0  0  0
  149.9049  137.3573  160.5269 H   0  0  0  0  0  0  0  0  0  0  0  0
  148.6481  137.7196  159.3674 H   0  0  0  0  0  0  0  0  0  0  0  0
  148.1281  134.6494  158.7003 H   0  0  0  0  0  0  0  0  0  0  0  0
  146.5583  133.0504  159.7664 H   0  0  0  0  0  0  0  0  0  0  0  0
  146.6321  135.3888  163.3886 H   0  0  0  0  0  0  0  0  0  0  0  0
  148.2019  136.9887  162.3285 H   0  0  0  0  0  0  0  0  0  0  0  0
  149.6850  143.3243  155.6441 H   0  0  0  0  0  0  0  0  0  0  0  0
  1  2  1  0  0  0  0
  1 25  1  0  0  0  0
  2  3  1  0  0  0  0
  2 26  1  0  0  0  0
  2 27  1  0  0  0  0
  3 11  1  0  0  0  0
  3  4  2  0  0  0  0
  4  5  1  0  0  0  0
  4 44  1  0  0  0  0
  5 10  2  0  0  0  0
  5  6  1  0  0  0  0
  6  7  2  0  0  0  0
  6 28  1  0  0  0  0
  7  8  1  0  0  0  0
  7 29  1  0  0  0  0
  8  9  2  0  0  0  0
  8 30  1  0  0  0  0
  9 10  1  0  0  0  0
  9 31  1  0  0  0  0
 10 11  1  0  0  0  0
 11 12  1  0  0  0  0
 12 13  1  0  0  0  0
 12 32  1  0  0  0  0
 12 33  1  0  0  0  0
 13 14  1  0  0  0  0
 13 15  1  0  0  0  0
 13 34  1  0  0  0  0
 14 35  1  0  0  0  0
 15 16  1  0  0  0  0
 15 36  1  0  0  0  0
 15 37  1  0  0  0  0
 16 17  1  0  0  0  0
 17 18  1  0  0  0  0
 17 38  1  0  0  0  0
 17 39  1  0  0  0  0
 18 24  1  0  0  0  0
 18 19  2  0  0  0  0
 19 20  1  0  0  0  0
 19 40  1  0  0  0  0
 20 21  2  0  0  0  0
 20 41  1  0  0  0  0
 21 22  1  0  0  0  0
 21 23  1  0  0  0  0
 23 24  2  0  0  0  0
 23 42  1  0  0  0  0
 24 43  1  0  0  0  0
M  CHG  1   4   1
M  END
> <s_m_source_file>
AV-unprocessed.smi

> <i_m_source_file_index>
322

> <i_lp_mmshare_version>
43012

> <i_f3d_flags>
0

> <s_epik_input>
W2NIXTFbY0hdW2NIXVtjSF1jKGMxMiluKGMobjIpW0NIMl1bT0hdKVtDSDJdW0NASF0oW09IXSlbQ0gyXU9bQ0gyXWMzW2NIXVtjSF1jKENsKVtjSF1bY0hdMw==

> <s_epik_cmdline>
J2VwaWtfcHl0aG9uJywgJy1waCcsICc3LjAnLCAnLXRuJywgJzgnLCAnLW1hJywgJzIwMCcsICctbWV0YWxfYmluZGluZycsICctaW1hZScsICc8aW5maWxlLm1hZT4nLCAnLW9tYWUnLCAnPG91dGZpbGUubWFlPic=

> <r_epik_Ionization_Penalty>
1.34314

> <r_epik_Ionization_Penalty_Charging>
1.34228

> <r_epik_Ionization_Penalty_Neutral>
0.000856898

> <r_epik_State_Penalty>
1.41963

> <r_epik_Charging_Adjusted_Penalty>
2.76191

> <i_epik_Tot_Q>
1

> <i_epik_Tot_abs_Q>
1

> <r_epik_Metal_State_Penalty>
5.45585

> <b_epik_Metal_Only>
0

> <s_lp_Force_Field>
OPLS_2005

> <r_lp_Energy>
18.1593

> <b_lp_Chiralities_Consistent>
1

> <s_lp_Variant>
AV-unprocessed.smi:322-4

> <Gold.Version>
5.8.1

> <Gold.Id.Protein>
6NUR|6NUR_protein|mol2

> <Gold.PLP.Fitness>
62.1293

> <Gold.PLP.PLP>
-52.6789

> <Gold.PLP.part.hbond>
-4.9419

> <Gold.PLP.part.metal>
0.0000

> <Gold.PLP.part.buried>
-4.1453

> <Gold.PLP.part.nonpolar>
-44.6472

> <Gold.PLP.part.repulsive>
0.1130

> <Gold.PLP.ligand.clash>
0.0000

> <Gold.PLP.ligand.torsion>
1.3260

> <Gold.PLP.Chemscore.Hbond>
3.9753

> <Gold.PLP.Chemscore.CHOScore>
0.0000

> <Gold.PLP.Chemscore.Metal>
0.0000

> <Gold.Chemscore.Hbonds>
donor molecule, donor type, donor heavy atom, donor atom, acceptor molecule, acceptor atom, score
      L1  H     1    25       P1  7957  1.00
      L1  H     4    44       P1  8028  1.89
      P1  H  6896  6907       L1    16  1.00

> <Gold.PLP.Chemscore.Internal.Correction>
0.1767

> <Gold.Rescore>
     Score         DG    S(hbond)    S(metal)    S(lipo)     H(rot)  DE(clash)    DE(int)     intcor
     18.43     -21.34       2.35        0.00     139.35       3.24       0.34       2.58       ----

> <Gold.Chemscore.Fitness>
18.4257

> <Gold.Chemscore.DG>
-21.3442

> <Gold.Chemscore.ZeroCoef>
-5.4800

> <Gold.Chemscore.Hbond>
2.3505

> <Gold.Chemscore.Metal>
0.0000

> <Gold.Chemscore.Lipo>
139.3472

> <Gold.Chemscore.Internal_Hbond>
0.0000

> <Gold.Chemscore.DEClash>
0.3396

> <Gold.Chemscore.DEInternal>
2.5788

> <Gold.Chemscore.Rot>
3.2383

> <Gold.Chemscore.Internal.Correction>
   9.000000E+99

> <Gold.Chemscore.Hbonds>
donor molecule, donor type, donor heavy atom, donor atom, acceptor molecule, acceptor atom, score
      L1  H     1    25       P1  7957  0.98
      L1  H     4    44       P1  8028  0.90
      P1  H  6896  6907       L1    16  0.19

> <Gold.Chemscore.Hbond.Weighted>
-7.8506

> <Gold.Chemscore.Metal.Weighted>
-0.0000

> <Gold.Chemscore.Lipo.Weighted>
-16.3036

> <Gold.Chemscore.Internal_Hbond.Weighted>
0.0000

> <Gold.Chemscore.DEClash.Weighted>
0.3396

> <Gold.Chemscore.DEInternal.Weighted>
2.5788

> <Gold.Chemscore.Rot.Weighted>
8.2901

> <Gold.Chemscore.Internal.Correction.Weighted>
   9.000000E+99

> <Gold.Protein.RotatedTorsions>
[ 6907 6896 6895 6894 ] final  -56.45 input  -60.11 | X-H torsion
[ 7974 7965 7964 7962 ] final  -47.35 input  175.53 | X-H torsion
[ 8008 7997 7996 7995 ] final  -89.16 input   59.86 | X-H torsion
[ 10167 10162 10161 10158 ] final   80.63 input  -65.29 | X-H torsion
[ 10718 10713 10712 10709 ] final   87.54 input   66.30 | X-H torsion
[ 10763 10752 10751 10750 ] final   83.83 input  -60.55 | X-H torsion
[ 11005 11000 10999 10996 ] final   52.76 input  -57.11 | X-H torsion

> <Gold.Protein.ActiveResidues>
 VAL166  LYS551  ARG553  GLY616  TRP617  ASP618  TYR619  PRO620  LYS621  CYS622 
 ASP623  PHE694  ASN695  SER759  ASP760  ASP761  ALA762  ILE779  LEU786  VAL792 
 PHE793  MET794  SER795  GLU796  ALA797  LYS798  CYS799  TRP800  GLU811  SER814 

> <Gold.Protein.RotatedAtoms>
  150.8167  134.7352  159.6735 H   0  0  0  0  0  0  0  0  0  0  0  0  # atno 6907 bound_to 6896
  152.4285  134.5819  159.9960 H   0  0  0  0  0  0  0  0  0  0  0  0  # atno 6908 bound_to 6896
  151.6014  133.3318  159.3084 H   0  0  0  0  0  0  0  0  0  0  0  0  # atno 6909 bound_to 6896
  145.9625  140.7464  142.9450 H   0  0  0  0  0  0  0  0  0  0  0  0  # atno 7974 bound_to 7965
  154.6833  140.0545  157.0288 H   0  0  0  0  0  0  0  0  0  0  0  0  # atno 8008 bound_to 7997
  155.0920  140.3220  155.4552 H   0  0  0  0  0  0  0  0  0  0  0  0  # atno 8009 bound_to 7997
  156.2702  140.2046  156.6047 H   0  0  0  0  0  0  0  0  0  0  0  0  # atno 8010 bound_to 7997
  139.9477  144.6047  150.8190 H   0  0  0  0  0  0  0  0  0  0  0  0  # atno 10167 bound_to 10162
  157.6941  131.0259  150.3138 H   0  0  0  0  0  0  0  0  0  0  0  0  # atno 10718 bound_to 10713
  153.1326  135.4676  154.9373 H   0  0  0  0  0  0  0  0  0  0  0  0  # atno 10763 bound_to 10752
  154.7678  135.3150  154.8253 H   0  0  0  0  0  0  0  0  0  0  0  0  # atno 10764 bound_to 10752
  153.8792  135.6896  153.4822 H   0  0  0  0  0  0  0  0  0  0  0  0  # atno 10765 bound_to 10752
  140.0823  134.5322  155.8934 H   0  0  0  0  0  0  0  0  0  0  0  0  # atno 11005 bound_to 11000
  144.6818  140.2615  143.7318 LP  0  0  0  0  0  0  0  0  0  0  0  0  # atno 17320 bound_to 7965
  145.8019  139.1968  143.2043 LP  0  0  0  0  0  0  0  0  0  0  0  0  # atno 17321 bound_to 7965
  140.7592  143.3124  151.2814 LP  0  0  0  0  0  0  0  0  0  0  0  0  # atno 17342 bound_to 10162
  139.6653  144.0116  152.2719 LP  0  0  0  0  0  0  0  0  0  0  0  0  # atno 17343 bound_to 10162
  156.3636  130.3851  149.7232 LP  0  0  0  0  0  0  0  0  0  0  0  0  # atno 17370 bound_to 10713
  156.4670  130.7978  151.2997 LP  0  0  0  0  0  0  0  0  0  0  0  0  # atno 17371 bound_to 10713
  141.2051  133.6644  156.6158 LP  0  0  0  0  0  0  0  0  0  0  0  0  # atno 17394 bound_to 11000
  140.3471  134.7800  157.4440 LP  0  0  0  0  0  0  0  0  0  0  0  0  # atno 17395 bound_to 11000

$$$$
