AV-unprocessed.smi:2276|AV-procd|sdf|9173|dock5
  -GOLD-   2272012383D 1   1.00000     0.00000
 Structure written by MMmdl.
 53 54  0  0  0  0  0  0  0  0  2 V2000
  151.9900  145.3923  159.0270 C   0  0  0  0  0  0  0  0  0  0  0  0
  152.3093  143.9126  158.9838 C   0  0  0  0  0  0  0  0  0  0  0  0
  153.2095  143.3516  159.9091 C   0  0  0  0  0  0  0  0  0  0  0  0
  153.4716  141.9703  159.8292 C   0  0  0  0  0  0  0  0  0  0  0  0
  154.4340  141.3022  160.7882 C   0  0  0  0  0  0  0  0  0  0  0  0
  152.9049  141.1665  158.9049 N   0  0  0  0  0  0  0  0  0  0  0  0
  152.0344  141.6949  158.0086 C   0  0  0  0  0  0  0  0  0  0  0  0
  151.4217  140.9396  156.9739 N   0  0  0  0  0  0  0  0  0  0  0  0
  151.6898  139.6697  156.6254 C   0  0  0  0  0  0  0  0  0  0  0  0
  152.5504  138.9606  157.1474 O   0  0  0  0  0  0  0  0  0  0  0  0
  150.9184  139.2750  155.6013 N   0  0  0  0  0  0  0  0  0  0  0  0
  151.0848  138.0485  154.8204 C   0  0  0  0  0  0  0  0  0  0  0  0
  150.9039  136.7449  155.6413 C   0  0  1  0  0  0  0  0  0  0  0  0
  149.9437  136.9837  156.8170 C   0  0  0  0  0  0  0  0  0  0  0  0
  150.4391  135.5499  154.7680 C   0  0  0  0  0  0  0  0  0  0  0  0
  149.8360  134.4427  155.5214 N   0  0  0  0  0  0  0  0  0  0  0  0
  148.3992  134.6528  155.7274 C   0  0  0  0  0  0  0  0  0  0  0  0
  147.5874  134.5072  154.4174 C   0  0  0  0  0  0  0  0  0  0  0  0
  147.8219  133.1835  153.7924 N   0  3  0  0  0  0  0  0  0  0  0  0
  147.0588  132.9999  152.5392 C   0  0  0  0  0  0  0  0  0  0  0  0
  149.2696  132.9337  153.6116 C   0  0  0  0  0  0  0  0  0  0  0  0
  150.0167  133.1015  154.9495 C   0  0  0  0  0  0  0  0  0  0  0  0
  151.7158  143.0712  158.0205 C   0  0  0  0  0  0  0  0  0  0  0  0
  151.3894  145.6219  159.9074 H   0  0  0  0  0  0  0  0  0  0  0  0
  151.4343  145.7041  158.1422 H   0  0  0  0  0  0  0  0  0  0  0  0
  152.9082  145.9784  159.0752 H   0  0  0  0  0  0  0  0  0  0  0  0
  153.6841  143.9653  160.6610 H   0  0  0  0  0  0  0  0  0  0  0  0
  154.6637  141.9527  161.6325 H   0  0  0  0  0  0  0  0  0  0  0  0
  155.3667  141.0601  160.2783 H   0  0  0  0  0  0  0  0  0  0  0  0
  154.0061  140.3786  161.1793 H   0  0  0  0  0  0  0  0  0  0  0  0
  150.8463  141.4695  156.3362 H   0  0  0  0  0  0  0  0  0  0  0  0
  150.2185  139.9217  155.2679 H   0  0  0  0  0  0  0  0  0  0  0  0
  150.3884  138.0657  153.9808 H   0  0  0  0  0  0  0  0  0  0  0  0
  152.0864  138.0738  154.3901 H   0  0  0  0  0  0  0  0  0  0  0  0
  151.8778  136.5264  156.0720 H   0  0  0  0  0  0  0  0  0  0  0  0
  148.9397  137.2255  156.4668 H   0  0  0  0  0  0  0  0  0  0  0  0
  150.2857  137.8093  157.4417 H   0  0  0  0  0  0  0  0  0  0  0  0
  149.8707  136.1018  157.4538 H   0  0  0  0  0  0  0  0  0  0  0  0
  149.7140  135.9148  154.0393 H   0  0  0  0  0  0  0  0  0  0  0  0
  151.2713  135.1663  154.1840 H   0  0  0  0  0  0  0  0  0  0  0  0
  148.0424  133.9264  156.4589 H   0  0  0  0  0  0  0  0  0  0  0  0
  148.2310  135.6360  156.1686 H   0  0  0  0  0  0  0  0  0  0  0  0
  146.5251  134.6104  154.6407 H   0  0  0  0  0  0  0  0  0  0  0  0
  147.8286  135.3026  153.7115 H   0  0  0  0  0  0  0  0  0  0  0  0
  147.3816  133.7096  151.7759 H   0  0  0  0  0  0  0  0  0  0  0  0
  145.9922  133.1441  152.7134 H   0  0  0  0  0  0  0  0  0  0  0  0
  147.2001  131.9919  152.1479 H   0  0  0  0  0  0  0  0  0  0  0  0
  149.4149  131.9188  153.2397 H   0  0  0  0  0  0  0  0  0  0  0  0
  149.6713  133.6013  152.8514 H   0  0  0  0  0  0  0  0  0  0  0  0
  151.0711  132.8612  154.8278 H   0  0  0  0  0  0  0  0  0  0  0  0
  149.6382  132.3703  155.6654 H   0  0  0  0  0  0  0  0  0  0  0  0
  151.0254  143.4791  157.2960 H   0  0  0  0  0  0  0  0  0  0  0  0
  147.4885  132.4907  154.4472 H   0  0  0  0  0  0  0  0  0  0  0  0
  1  2  1  0  0  0  0
  1 24  1  0  0  0  0
  1 25  1  0  0  0  0
  1 26  1  0  0  0  0
  2 23  1  0  0  0  0
  2  3  2  0  0  0  0
  3  4  1  0  0  0  0
  3 27  1  0  0  0  0
  4  5  1  0  0  0  0
  4  6  2  0  0  0  0
  5 28  1  0  0  0  0
  5 29  1  0  0  0  0
  5 30  1  0  0  0  0
  6  7  1  0  0  0  0
  7  8  1  0  0  0  0
  7 23  2  0  0  0  0
  8  9  1  0  0  0  0
  8 31  1  0  0  0  0
  9 10  2  0  0  0  0
  9 11  1  0  0  0  0
 11 12  1  0  0  0  0
 11 32  1  0  0  0  0
 12 13  1  0  0  0  0
 12 33  1  0  0  0  0
 12 34  1  0  0  0  0
 13 14  1  0  0  0  0
 13 15  1  0  0  0  0
 13 35  1  0  0  0  0
 14 36  1  0  0  0  0
 14 37  1  0  0  0  0
 14 38  1  0  0  0  0
 15 16  1  0  0  0  0
 15 39  1  0  0  0  0
 15 40  1  0  0  0  0
 16 22  1  0  0  0  0
 16 17  1  0  0  0  0
 17 18  1  0  0  0  0
 17 41  1  0  0  0  0
 17 42  1  0  0  0  0
 18 19  1  0  0  0  0
 18 43  1  0  0  0  0
 18 44  1  0  0  0  0
 19 20  1  0  0  0  0
 19 21  1  0  0  0  0
 19 53  1  0  0  0  0
 20 45  1  0  0  0  0
 20 46  1  0  0  0  0
 20 47  1  0  0  0  0
 21 22  1  0  0  0  0
 21 48  1  0  0  0  0
 21 49  1  0  0  0  0
 22 50  1  0  0  0  0
 22 51  1  0  0  0  0
 23 52  1  0  0  0  0
M  CHG  1  19   1
M  END
> <s_m_source_file>
AV-unprocessed.smi

> <i_m_source_file_index>
2276

> <i_lp_mmshare_version>
43012

> <i_f3d_flags>
0

> <s_epik_input>
W0NIM11jMVtjSF1jKFtDSDNdKW5jKFtjSF0xKVtOSF1DKD1PKVtOSF1bQ0gyXVtDQEhdKFtDSDNdKVtDSDJdTjJbQ0gyXVtDSDJdTihbQ0gzXSlbQ0gyXVtDSDJdMg==

> <s_epik_cmdline>
J2VwaWtfcHl0aG9uJywgJy1waCcsICc3LjAnLCAnLXRuJywgJzgnLCAnLW1hJywgJzIwMCcsICctbWV0YWxfYmluZGluZycsICctaW1hZScsICc8aW5maWxlLm1hZT4nLCAnLW9tYWUnLCAnPG91dGZpbGUubWFlPic=

> <r_epik_Ionization_Penalty>
0.0247364

> <r_epik_Ionization_Penalty_Charging>
0.0230248

> <r_epik_Ionization_Penalty_Neutral>
0.00171164

> <r_epik_State_Penalty>
0.239056

> <r_epik_Charging_Adjusted_Penalty>
0.262081

> <i_epik_Tot_Q>
1

> <i_epik_Tot_abs_Q>
1

> <r_epik_Metal_State_Penalty>
0.239048

> <b_epik_Metal_Only>
0

> <s_lp_Force_Field>
OPLS_2005

> <r_lp_Energy>
20.5392

> <b_lp_Chiralities_Consistent>
1

> <s_lp_Variant>
AV-unprocessed.smi:2276-2

> <Gold.Version>
5.8.1

> <Gold.Id.Protein>
6NUR|6NUR_protein|mol2

> <Gold.PLP.Fitness>
40.9615

> <Gold.PLP.PLP>
-41.5035

> <Gold.PLP.part.hbond>
-0.3056

> <Gold.PLP.part.metal>
0.0000

> <Gold.PLP.part.buried>
-4.9525

> <Gold.PLP.part.nonpolar>
-35.8821

> <Gold.PLP.part.repulsive>
0.2594

> <Gold.PLP.ligand.clash>
0.0000

> <Gold.PLP.ligand.torsion>
0.9382

> <Gold.PLP.Chemscore.Hbond>
0.4225

> <Gold.PLP.Chemscore.CHOScore>
0.0000

> <Gold.PLP.Chemscore.Metal>
0.0000

> <Gold.Chemscore.Hbonds>
donor molecule, donor type, donor heavy atom, donor atom, acceptor molecule, acceptor atom, score
      P1  H  7997  8008       L1    10  0.50

> <Gold.PLP.Chemscore.Internal.Correction>
0.0669

> <Gold.Rescore>
     Score         DG    S(hbond)    S(metal)    S(lipo)     H(rot)  DE(clash)    DE(int)     intcor
     14.01     -16.96       0.57        0.00     117.53       1.63       0.14       2.81       ----

> <Gold.Chemscore.Fitness>
14.0124

> <Gold.Chemscore.DG>
-16.9635

> <Gold.Chemscore.ZeroCoef>
-5.4800

> <Gold.Chemscore.Hbond>
0.5690

> <Gold.Chemscore.Metal>
0.0000

> <Gold.Chemscore.Lipo>
117.5306

> <Gold.Chemscore.Internal_Hbond>
0.0000

> <Gold.Chemscore.DEClash>
0.1425

> <Gold.Chemscore.DEInternal>
2.8086

> <Gold.Chemscore.Rot>
1.6282

> <Gold.Chemscore.Internal.Correction>
   9.000000E+99

> <Gold.Chemscore.Hbonds>
donor molecule, donor type, donor heavy atom, donor atom, acceptor molecule, acceptor atom, score
      P1  H  7997  8008       L1    10  0.27

> <Gold.Chemscore.Hbond.Weighted>
-1.9006

> <Gold.Chemscore.Metal.Weighted>
-0.0000

> <Gold.Chemscore.Lipo.Weighted>
-13.7511

> <Gold.Chemscore.Internal_Hbond.Weighted>
0.0000

> <Gold.Chemscore.DEClash.Weighted>
0.1425

> <Gold.Chemscore.DEInternal.Weighted>
2.8086

> <Gold.Chemscore.Rot.Weighted>
4.1682

> <Gold.Chemscore.Internal.Correction.Weighted>
   9.000000E+99

> <Gold.Protein.RotatedTorsions>
[ 6907 6896 6895 6894 ] final -139.37 input  -60.11 | X-H torsion
[ 7974 7965 7964 7962 ] final   29.52 input  175.53 | X-H torsion
[ 8008 7997 7996 7995 ] final  -74.91 input   59.86 | X-H torsion
[ 10167 10162 10161 10158 ] final  156.82 input  -65.29 | X-H torsion
[ 10718 10713 10712 10709 ] final  177.18 input   66.30 | X-H torsion
[ 10763 10752 10751 10750 ] final   92.21 input  -60.55 | X-H torsion
[ 11005 11000 10999 10996 ] final   24.03 input  -57.11 | X-H torsion

> <Gold.Protein.ActiveResidues>
 VAL166  LYS551  ARG553  GLY616  TRP617  ASP618  TYR619  PRO620  LYS621  CYS622 
 ASP623  PHE694  ASN695  SER759  ASP760  ASP761  ALA762  ILE779  LEU786  VAL792 
 PHE793  MET794  SER795  GLU796  ALA797  LYS798  CYS799  TRP800  GLU811  SER814 

> <Gold.Protein.RotatedAtoms>
  151.0469  133.5657  159.2645 H   0  0  0  0  0  0  0  0  0  0  0  0  # atno 6907 bound_to 6896
  151.2683  135.0675  159.9134 H   0  0  0  0  0  0  0  0  0  0  0  0  # atno 6908 bound_to 6896
  152.5375  134.0204  159.8033 H   0  0  0  0  0  0  0  0  0  0  0  0  # atno 6909 bound_to 6896
  146.1667  139.6911  142.8996 H   0  0  0  0  0  0  0  0  0  0  0  0  # atno 7974 bound_to 7965
  154.5371  140.0753  156.8446 H   0  0  0  0  0  0  0  0  0  0  0  0  # atno 8008 bound_to 7997
  155.3256  140.3398  155.4222 H   0  0  0  0  0  0  0  0  0  0  0  0  # atno 8009 bound_to 7997
  156.1838  140.1662  156.8210 H   0  0  0  0  0  0  0  0  0  0  0  0  # atno 8010 bound_to 7997
  139.4822  144.4974  151.8219 H   0  0  0  0  0  0  0  0  0  0  0  0  # atno 10167 bound_to 10162
  156.9091  130.9904  151.3023 H   0  0  0  0  0  0  0  0  0  0  0  0  # atno 10718 bound_to 10713
  153.2167  135.4369  155.0442 H   0  0  0  0  0  0  0  0  0  0  0  0  # atno 10763 bound_to 10752
  154.8229  135.3346  154.6988 H   0  0  0  0  0  0  0  0  0  0  0  0  # atno 10764 bound_to 10752
  153.7422  135.7004  153.5020 H   0  0  0  0  0  0  0  0  0  0  0  0  # atno 10765 bound_to 10752
  140.3631  134.2103  155.7671 H   0  0  0  0  0  0  0  0  0  0  0  0  # atno 11005 bound_to 11000
  145.4449  141.0425  143.2836 LP  0  0  0  0  0  0  0  0  0  0  0  0  # atno 17320 bound_to 7965
  144.8102  139.5976  143.7033 LP  0  0  0  0  0  0  0  0  0  0  0  0  # atno 17321 bound_to 7965
  140.4464  144.1916  150.5894 LP  0  0  0  0  0  0  0  0  0  0  0  0  # atno 17342 bound_to 10162
  140.4631  143.2441  151.9193 LP  0  0  0  0  0  0  0  0  0  0  0  0  # atno 17343 bound_to 10162
  157.5978  130.8491  149.8756 LP  0  0  0  0  0  0  0  0  0  0  0  0  # atno 17370 bound_to 10713
  156.0544  130.3711  150.1124 LP  0  0  0  0  0  0  0  0  0  0  0  0  # atno 17371 bound_to 10713
  141.1978  133.8051  157.0612 LP  0  0  0  0  0  0  0  0  0  0  0  0  # atno 17394 bound_to 11000
  140.0611  134.9754  157.1305 LP  0  0  0  0  0  0  0  0  0  0  0  0  # atno 17395 bound_to 11000

$$$$
