AV-unprocessed.smi:2825|AV-procd|sdf|10891|dock5
  -GOLD-   2272015333D 1   1.00000     0.00000
 Structure written by MMmdl.
 49 50  0  0  0  0  0  0  0  0  2 V2000
  147.7154  136.1352  162.9201 C   0  0  0  0  0  0  0  0  0  0  0  0
  147.8418  135.5214  161.5220 C   0  0  0  0  0  0  0  0  0  0  0  0
  147.7177  136.5709  160.4082 C   0  0  0  0  0  0  0  0  0  0  0  0
  149.2138  136.6002  159.3269 S   0  0  0  0  0  0  0  0  0  0  0  0
  150.3604  137.0888  160.1077 O   0  0  0  0  0  0  0  0  0  0  0  0
  149.3002  135.3115  158.6223 O   0  0  0  0  0  0  0  0  0  0  0  0
  148.8210  137.8253  158.1610 N   0  0  0  0  0  0  0  0  0  0  0  0
  147.4168  138.2242  158.0170 C   0  0  0  0  0  0  0  0  0  0  0  0
  149.7942  138.8985  157.9080 C   0  0  0  0  0  0  0  0  0  0  0  0
  151.0724  138.3445  157.2387 C   0  0  1  0  0  0  0  0  0  0  0  0
  150.6957  137.6362  156.0761 O   0  0  0  0  0  0  0  0  0  0  0  0
  152.0723  139.4347  156.8036 C   0  0  0  0  0  0  0  0  0  0  0  0
  151.4798  140.7799  156.8153 N   0  0  0  0  0  0  0  0  0  0  0  0
  150.6692  141.3709  155.8960 C   0  0  0  0  0  0  0  0  0  0  0  0
  150.3930  142.6284  156.3379 N   0  3  0  0  0  0  0  0  0  0  0  0
  151.0317  142.8429  157.5606 C   0  0  0  0  0  0  0  0  0  0  0  0
  151.0530  143.9570  158.3910 C   0  0  0  0  0  0  0  0  0  0  0  0
  151.8099  143.8607  159.5802 C   0  0  0  0  0  0  0  0  0  0  0  0
  151.8562  145.0617  160.5097 C   0  0  0  0  0  0  0  0  0  0  0  0
  152.5141  142.6720  159.9029 C   0  0  0  0  0  0  0  0  0  0  0  0
  153.3286  142.5804  161.1820 C   0  0  0  0  0  0  0  0  0  0  0  0
  152.4774  141.5487  159.0463 C   0  0  0  0  0  0  0  0  0  0  0  0
  151.7278  141.6594  157.8768 C   0  0  0  0  0  0  0  0  0  0  0  0
  147.8066  135.3694  163.6908 H   0  0  0  0  0  0  0  0  0  0  0  0
  146.7489  136.6231  163.0492 H   0  0  0  0  0  0  0  0  0  0  0  0
  148.4937  136.8782  163.0961 H   0  0  0  0  0  0  0  0  0  0  0  0
  148.7996  135.0068  161.4421 H   0  0  0  0  0  0  0  0  0  0  0  0
  147.0698  134.7621  161.3954 H   0  0  0  0  0  0  0  0  0  0  0  0
  146.8378  136.3956  159.7904 H   0  0  0  0  0  0  0  0  0  0  0  0
  147.6125  137.5639  160.8454 H   0  0  0  0  0  0  0  0  0  0  0  0
  147.2569  138.7225  157.0603 H   0  0  0  0  0  0  0  0  0  0  0  0
  147.1353  138.9056  158.8205 H   0  0  0  0  0  0  0  0  0  0  0  0
  146.7616  137.3552  158.0582 H   0  0  0  0  0  0  0  0  0  0  0  0
  149.3565  139.6938  157.3019 H   0  0  0  0  0  0  0  0  0  0  0  0
  150.0194  139.3575  158.8688 H   0  0  0  0  0  0  0  0  0  0  0  0
  151.5882  137.6487  157.9005 H   0  0  0  0  0  0  0  0  0  0  0  0
  151.2838  137.8717  155.3750 H   0  0  0  0  0  0  0  0  0  0  0  0
  152.9146  139.4612  157.4965 H   0  0  0  0  0  0  0  0  0  0  0  0
  152.4935  139.2219  155.8215 H   0  0  0  0  0  0  0  0  0  0  0  0
  150.3196  140.9263  154.9752 H   0  0  0  0  0  0  0  0  0  0  0  0
  150.5159  144.8595  158.1375 H   0  0  0  0  0  0  0  0  0  0  0  0
  152.8793  145.4228  160.6176 H   0  0  0  0  0  0  0  0  0  0  0  0
  151.4750  144.7979  161.4965 H   0  0  0  0  0  0  0  0  0  0  0  0
  151.2507  145.8846  160.1286 H   0  0  0  0  0  0  0  0  0  0  0  0
  153.8233  141.6129  161.2724 H   0  0  0  0  0  0  0  0  0  0  0  0
  152.6872  142.7089  162.0540 H   0  0  0  0  0  0  0  0  0  0  0  0
  154.0999  143.3508  161.2018 H   0  0  0  0  0  0  0  0  0  0  0  0
  153.0192  140.6483  159.2938 H   0  0  0  0  0  0  0  0  0  0  0  0
  149.8148  143.2908  155.8371 H   0  0  0  0  0  0  0  0  0  0  0  0
  1  2  1  0  0  0  0
  1 24  1  0  0  0  0
  1 25  1  0  0  0  0
  1 26  1  0  0  0  0
  2  3  1  0  0  0  0
  2 27  1  0  0  0  0
  2 28  1  0  0  0  0
  3  4  1  0  0  0  0
  3 29  1  0  0  0  0
  3 30  1  0  0  0  0
  4  5  2  0  0  0  0
  4  6  2  0  0  0  0
  4  7  1  0  0  0  0
  7  8  1  0  0  0  0
  7  9  1  0  0  0  0
  8 31  1  0  0  0  0
  8 32  1  0  0  0  0
  8 33  1  0  0  0  0
  9 10  1  0  0  0  0
  9 34  1  0  0  0  0
  9 35  1  0  0  0  0
 10 11  1  0  0  0  0
 10 12  1  0  0  0  0
 10 36  1  0  0  0  0
 11 37  1  0  0  0  0
 12 13  1  0  0  0  0
 12 38  1  0  0  0  0
 12 39  1  0  0  0  0
 13 23  1  0  0  0  0
 13 14  1  0  0  0  0
 14 15  2  0  0  0  0
 14 40  1  0  0  0  0
 15 16  1  0  0  0  0
 15 49  1  0  0  0  0
 16 23  2  0  0  0  0
 16 17  1  0  0  0  0
 17 18  2  0  0  0  0
 17 41  1  0  0  0  0
 18 19  1  0  0  0  0
 18 20  1  0  0  0  0
 19 42  1  0  0  0  0
 19 43  1  0  0  0  0
 19 44  1  0  0  0  0
 20 21  1  0  0  0  0
 20 22  2  0  0  0  0
 21 45  1  0  0  0  0
 21 46  1  0  0  0  0
 21 47  1  0  0  0  0
 22 23  1  0  0  0  0
 22 48  1  0  0  0  0
M  CHG  1  15   1
M  END
> <s_m_source_file>
AV-unprocessed.smi

> <i_m_source_file_index>
2825

> <i_lp_mmshare_version>
43012

> <i_f3d_flags>
0

> <s_epik_input>
W0NIM11bQ0gyXVtDSDJdUyg9TykoPU8pTihbQ0gzXSlbQ0gyXVtDQEhdKFtPSF0pW0NIMl1uKFtjSF1uMSljKGMxMilbY0hdYyhbQ0gzXSljKFtjSF0yKVtDSDNd

> <s_epik_cmdline>
J2VwaWtfcHl0aG9uJywgJy1waCcsICc3LjAnLCAnLXRuJywgJzgnLCAnLW1hJywgJzIwMCcsICctbWV0YWxfYmluZGluZycsICctaW1hZScsICc8aW5maWxlLm1hZT4nLCAnLW9tYWUnLCAnPG91dGZpbGUubWFlPic=

> <r_epik_Ionization_Penalty>
1.0773

> <r_epik_Ionization_Penalty_Charging>
1.0773

> <r_epik_Ionization_Penalty_Neutral>
1.44651e-06

> <r_epik_State_Penalty>
1.13242

> <r_epik_Charging_Adjusted_Penalty>
2.20972

> <i_epik_Tot_Q>
1

> <i_epik_Tot_abs_Q>
1

> <r_epik_Metal_State_Penalty>
5.13045

> <b_epik_Metal_Only>
0

> <s_lp_Force_Field>
OPLS_2005

> <r_lp_Energy>
14.1853

> <b_lp_Chiralities_Consistent>
1

> <s_lp_Variant>
AV-unprocessed.smi:2825-4

> <Gold.Version>
5.8.1

> <Gold.Id.Protein>
6NUR|6NUR_protein|mol2

> <Gold.PLP.Fitness>
54.8184

> <Gold.PLP.PLP>
-48.6585

> <Gold.PLP.part.hbond>
-3.4519

> <Gold.PLP.part.metal>
0.0000

> <Gold.PLP.part.buried>
-7.0491

> <Gold.PLP.part.nonpolar>
-38.7689

> <Gold.PLP.part.repulsive>
0.1060

> <Gold.PLP.ligand.clash>
0.0000

> <Gold.PLP.ligand.torsion>
2.7114

> <Gold.PLP.Chemscore.Hbond>
3.0000

> <Gold.PLP.Chemscore.CHOScore>
0.0000

> <Gold.PLP.Chemscore.Metal>
0.0000

> <Gold.Chemscore.Hbonds>
donor molecule, donor type, donor heavy atom, donor atom, acceptor molecule, acceptor atom, score
      L1  H    15    49       P1  8028  2.00
      P1  H  6896  6909       L1     6  0.99

> <Gold.PLP.Chemscore.Internal.Correction>
2.5827

> <Gold.Rescore>
     Score         DG    S(hbond)    S(metal)    S(lipo)     H(rot)  DE(clash)    DE(int)     intcor
     16.45     -19.59       1.90        0.00     121.21       2.51       0.06       3.08       ----

> <Gold.Chemscore.Fitness>
16.4507

> <Gold.Chemscore.DG>
-19.5918

> <Gold.Chemscore.ZeroCoef>
-5.4800

> <Gold.Chemscore.Hbond>
1.9035

> <Gold.Chemscore.Metal>
0.0000

> <Gold.Chemscore.Lipo>
121.2062

> <Gold.Chemscore.Internal_Hbond>
0.0000

> <Gold.Chemscore.DEClash>
0.0575

> <Gold.Chemscore.DEInternal>
3.0837

> <Gold.Chemscore.Rot>
2.5106

> <Gold.Chemscore.Internal.Correction>
   9.000000E+99

> <Gold.Chemscore.Hbonds>
donor molecule, donor type, donor heavy atom, donor atom, acceptor molecule, acceptor atom, score
      L1  H    15    49       P1  8028  0.98
      P1  H  6896  6909       L1     6  0.70

> <Gold.Chemscore.Hbond.Weighted>
-6.3578

> <Gold.Chemscore.Metal.Weighted>
-0.0000

> <Gold.Chemscore.Lipo.Weighted>
-14.1811

> <Gold.Chemscore.Internal_Hbond.Weighted>
0.0000

> <Gold.Chemscore.DEClash.Weighted>
0.0575

> <Gold.Chemscore.DEInternal.Weighted>
3.0837

> <Gold.Chemscore.Rot.Weighted>
6.4271

> <Gold.Chemscore.Internal.Correction.Weighted>
   9.000000E+99

> <Gold.Protein.RotatedTorsions>
[ 6907 6896 6895 6894 ] final   25.50 input  -60.11 | X-H torsion
[ 7974 7965 7964 7962 ] final   24.21 input  175.53 | X-H torsion
[ 8008 7997 7996 7995 ] final   69.44 input   59.86 | X-H torsion
[ 10167 10162 10161 10158 ] final  159.73 input  -65.29 | X-H torsion
[ 10718 10713 10712 10709 ] final -151.41 input   66.30 | X-H torsion
[ 10763 10752 10751 10750 ] final  114.26 input  -60.55 | X-H torsion
[ 11005 11000 10999 10996 ] final  -66.67 input  -57.11 | X-H torsion

> <Gold.Protein.ActiveResidues>
 VAL166  LYS551  ARG553  GLY616  TRP617  ASP618  TYR619  PRO620  LYS621  CYS622 
 ASP623  PHE694  ASN695  SER759  ASP760  ASP761  ALA762  ILE779  LEU786  VAL792 
 PHE793  MET794  SER795  GLU796  ALA797  LYS798  CYS799  TRP800  GLU811  SER814 

> <Gold.Protein.RotatedAtoms>
  151.9734  135.0065  160.0553 H   0  0  0  0  0  0  0  0  0  0  0  0  # atno 6907 bound_to 6896
  152.1762  133.4672  159.4943 H   0  0  0  0  0  0  0  0  0  0  0  0  # atno 6908 bound_to 6896
  150.6909  134.1809  159.4291 H   0  0  0  0  0  0  0  0  0  0  0  0  # atno 6909 bound_to 6896
  146.1948  139.7637  142.8805 H   0  0  0  0  0  0  0  0  0  0  0  0  # atno 7974 bound_to 7965
  155.7237  140.3493  155.5027 H   0  0  0  0  0  0  0  0  0  0  0  0  # atno 8008 bound_to 7997
  155.9246  140.1073  157.1202 H   0  0  0  0  0  0  0  0  0  0  0  0  # atno 8009 bound_to 7997
  154.4075  140.1243  156.4711 H   0  0  0  0  0  0  0  0  0  0  0  0  # atno 8010 bound_to 7997
  139.4834  144.4702  151.8586 H   0  0  0  0  0  0  0  0  0  0  0  0  # atno 10167 bound_to 10162
  156.4589  130.8203  151.2434 H   0  0  0  0  0  0  0  0  0  0  0  0  # atno 10718 bound_to 10713
  153.5046  135.3631  155.2557 H   0  0  0  0  0  0  0  0  0  0  0  0  # atno 10763 bound_to 10752
  154.8746  135.4008  154.3438 H   0  0  0  0  0  0  0  0  0  0  0  0  # atno 10764 bound_to 10752
  153.4081  135.7077  153.6445 H   0  0  0  0  0  0  0  0  0  0  0  0  # atno 10765 bound_to 10752
  141.1488  133.6704  156.6175 H   0  0  0  0  0  0  0  0  0  0  0  0  # atno 11005 bound_to 11000
  145.3677  141.0337  143.3248 LP  0  0  0  0  0  0  0  0  0  0  0  0  # atno 17320 bound_to 7965
  144.8559  139.5251  143.6835 LP  0  0  0  0  0  0  0  0  0  0  0  0  # atno 17321 bound_to 7965
  140.4170  144.2293  150.5887 LP  0  0  0  0  0  0  0  0  0  0  0  0  # atno 17342 bound_to 10162
  140.4911  143.2347  151.8818 LP  0  0  0  0  0  0  0  0  0  0  0  0  # atno 17343 bound_to 10162
  157.7499  131.0114  150.3342 LP  0  0  0  0  0  0  0  0  0  0  0  0  # atno 17370 bound_to 10713
  156.3737  130.3868  149.7155 LP  0  0  0  0  0  0  0  0  0  0  0  0  # atno 17371 bound_to 10713
  140.3566  134.7723  157.4505 LP  0  0  0  0  0  0  0  0  0  0  0  0  # atno 17394 bound_to 11000
  140.0818  134.5721  155.8533 LP  0  0  0  0  0  0  0  0  0  0  0  0  # atno 17395 bound_to 11000

$$$$
