AV-unprocessed.smi:102|AV-procd|sdf|955|dock5
  -GOLD-   2262017493D 1   1.00000     0.00000
 Structure written by MMmdl.
 44 45  0  0  0  0  0  0  0  0  1 V2000
  154.0770  137.6775  160.0960 C   0  0  0  0  0  0  0  0  0  0  0  0
  153.9866  138.1202  158.6417 C   0  0  0  0  0  0  0  0  0  0  0  0
  154.6530  139.0616  158.2121 O   0  0  0  0  0  0  0  0  0  0  0  0
  153.1254  137.3758  157.9355 O   0  0  0  0  0  0  0  0  0  0  0  0
  152.9613  137.6077  156.5446 C   0  0  0  0  0  0  0  0  0  0  0  0
  152.1061  138.8632  156.3083 C   0  0  2  0  0  0  0  0  0  0  0  0
  152.7396  140.0212  156.8230 O   0  0  0  0  0  0  0  0  0  0  0  0
  151.7828  141.0224  156.9581 C   0  0  2  0  0  0  0  0  0  0  0  0
  152.1854  141.9021  158.1186 N   0  0  0  0  0  0  0  0  0  0  0  0
  153.2942  141.5803  158.8889 C   0  0  0  0  0  0  0  0  0  0  0  0
  153.6805  142.3059  159.9649 C   0  0  0  0  0  0  0  0  0  0  0  0
  154.7696  141.9347  160.6591 F   0  0  0  0  0  0  0  0  0  0  0  0
  152.9220  143.4820  160.3813 C   0  0  0  0  0  0  0  0  0  0  0  0
  153.1953  144.2049  161.3372 O   0  0  0  0  0  0  0  0  0  0  0  0
  151.7999  143.7534  159.5932 N   0  0  0  0  0  0  0  0  0  0  0  0
  151.3868  143.0103  158.4863 C   0  0  0  0  0  0  0  0  0  0  0  0
  150.3634  143.3298  157.8833 O   0  0  0  0  0  0  0  0  0  0  0  0
  150.4098  140.3529  157.1672 C   0  0  1  0  0  0  0  0  0  0  0  0
  149.4581  140.8887  156.2568 O   0  0  0  0  0  0  0  0  0  0  0  0
  149.5786  140.6498  154.9389 C   0  0  0  0  0  0  0  0  0  0  0  0
  148.4133  141.2136  154.1373 C   0  0  0  0  0  0  0  0  0  0  0  0
  150.5083  140.0561  154.3923 O   0  0  0  0  0  0  0  0  0  0  0  0
  150.6776  138.8770  156.8793 C   0  0  2  0  0  0  0  0  0  0  0  0
  150.5183  138.1530  158.0949 O   0  0  0  0  0  0  0  0  0  0  0  0
  149.3198  138.0687  158.6986 C   0  0  0  0  0  0  0  0  0  0  0  0
  149.3622  137.1974  159.9467 C   0  0  0  0  0  0  0  0  0  0  0  0
  148.2767  138.6038  158.3238 O   0  0  0  0  0  0  0  0  0  0  0  0
  151.2354  144.5492  159.8526 H   0  0  0  0  0  0  0  0  0  0  0  0
  153.9852  136.5937  160.1724 H   0  0  0  0  0  0  0  0  0  0  0  0
  153.2785  138.1353  160.6795 H   0  0  0  0  0  0  0  0  0  0  0  0
  155.0345  137.9733  160.5255 H   0  0  0  0  0  0  0  0  0  0  0  0
  153.9444  137.7356  156.0904 H   0  0  0  0  0  0  0  0  0  0  0  0
  152.4908  136.7477  156.0655 H   0  0  0  0  0  0  0  0  0  0  0  0
  152.0224  139.0137  155.2310 H   0  0  0  0  0  0  0  0  0  0  0  0
  151.8105  141.6492  156.0651 H   0  0  0  0  0  0  0  0  0  0  0  0
  153.8877  140.7161  158.6272 H   0  0  0  0  0  0  0  0  0  0  0  0
  150.0761  140.5054  158.1946 H   0  0  0  0  0  0  0  0  0  0  0  0
  147.4645  140.9014  154.5738 H   0  0  0  0  0  0  0  0  0  0  0  0
  148.4515  140.8609  153.1064 H   0  0  0  0  0  0  0  0  0  0  0  0
  148.4514  142.3030  154.1312 H   0  0  0  0  0  0  0  0  0  0  0  0
  149.9795  138.5077  156.1264 H   0  0  0  0  0  0  0  0  0  0  0  0
  150.0377  136.3541  159.8018 H   0  0  0  0  0  0  0  0  0  0  0  0
  148.3698  136.8080  160.1742 H   0  0  0  0  0  0  0  0  0  0  0  0
  149.7111  137.7791  160.7998 H   0  0  0  0  0  0  0  0  0  0  0  0
  1  2  1  0  0  0  0
  1 29  1  0  0  0  0
  1 30  1  0  0  0  0
  1 31  1  0  0  0  0
  2  3  2  0  0  0  0
  2  4  1  0  0  0  0
  4  5  1  0  0  0  0
  5  6  1  0  0  0  0
  5 32  1  0  0  0  0
  5 33  1  0  0  0  0
  6 23  1  0  0  0  0
  6  7  1  0  0  0  0
  6 34  1  0  0  0  0
  7  8  1  0  0  0  0
  8  9  1  0  0  0  0
  8 18  1  0  0  0  0
  8 35  1  0  0  0  0
  9 16  1  0  0  0  0
  9 10  1  0  0  0  0
 10 11  2  0  0  0  0
 10 36  1  0  0  0  0
 11 12  1  0  0  0  0
 11 13  1  0  0  0  0
 13 14  2  0  0  0  0
 13 15  1  0  0  0  0
 15 28  1  0  0  0  0
 15 16  1  0  0  0  0
 16 17  2  0  0  0  0
 18 19  1  0  0  0  0
 18 23  1  0  0  0  0
 18 37  1  0  0  0  0
 19 20  1  0  0  0  0
 20 21  1  0  0  0  0
 20 22  2  0  0  0  0
 21 38  1  0  0  0  0
 21 39  1  0  0  0  0
 21 40  1  0  0  0  0
 23 24  1  0  0  0  0
 23 41  1  0  0  0  0
 24 25  1  0  0  0  0
 25 26  1  0  0  0  0
 25 27  2  0  0  0  0
 26 42  1  0  0  0  0
 26 43  1  0  0  0  0
 26 44  1  0  0  0  0
M  END
> <s_m_source_file>
AV-unprocessed.smi

> <i_m_source_file_index>
102

> <i_lp_mmshare_version>
43012

> <i_f3d_flags>
0

> <s_epik_input>
W0NIM11DKD1PKU9bQ0gyXVtDQEBIXTFPW0NASF0oW0NAQEhdKE9DKD1PKVtDSDNdKVtDQEhdMU9DKD1PKVtDSDNdKW4yW2NIXWMoRiljKD1PKVtuSF1jMj1P

> <s_epik_cmdline>
J2VwaWtfcHl0aG9uJywgJy1waCcsICc3LjAnLCAnLXRuJywgJzgnLCAnLW1hJywgJzIwMCcsICctbWV0YWxfYmluZGluZycsICctaW1hZScsICc8aW5maWxlLm1hZT4nLCAnLW9tYWUnLCAnPG91dGZpbGUubWFlPic=

> <r_lp_tautomer_probability>
0.999537

> <r_epik_Ionization_Penalty>
0.058267

> <r_epik_Ionization_Penalty_Charging>
0.058267

> <r_epik_Ionization_Penalty_Neutral>
6.57791e-16

> <r_epik_State_Penalty>
0.0503774

> <r_epik_Charging_Adjusted_Penalty>
0.108644

> <i_epik_Tot_Q>
0

> <i_epik_Tot_abs_Q>
0

> <r_epik_Metal_State_Penalty>
2.6644

> <b_epik_Metal_Only>
0

> <s_epik_Chemistry_Notes>
This compound has an ester and may undergo hydrolysis at high or low pH. This compound contains an acetal/aminal-like group ( X-CH(R)-Y where X, Y are N, S, or O) that may be acid/base labile, releasing an aldehyde.

> <s_lp_Force_Field>
OPLS_2005

> <r_lp_Energy>
7.073

> <b_lp_Chiralities_Consistent>
1

> <s_lp_Variant>
AV-unprocessed.smi:102-11

> <Gold.Version>
5.8.1

> <Gold.Id.Protein>
6NUR|6NUR_protein|mol2

> <Gold.PLP.Fitness>
44.7863

> <Gold.PLP.PLP>
-38.4049

> <Gold.PLP.part.hbond>
-2.9647

> <Gold.PLP.part.metal>
0.0000

> <Gold.PLP.part.buried>
-5.1703

> <Gold.PLP.part.nonpolar>
-29.9511

> <Gold.PLP.part.repulsive>
0.7754

> <Gold.PLP.ligand.clash>
0.0000

> <Gold.PLP.ligand.torsion>
0.1885

> <Gold.PLP.Chemscore.Hbond>
2.2277

> <Gold.PLP.Chemscore.CHOScore>
0.0000

> <Gold.PLP.Chemscore.Metal>
0.0000

> <Gold.Chemscore.Hbonds>
donor molecule, donor type, donor heavy atom, donor atom, acceptor molecule, acceptor atom, score
      P1  H  7989  7998       L1    22  1.00
      P1  H  7997  8008       L1     3  0.53
      P1  H  7997  8009       L1     7  0.77

> <Gold.PLP.Chemscore.Internal.Correction>
0.0755

> <Gold.Rescore>
     Score         DG    S(hbond)    S(metal)    S(lipo)     H(rot)  DE(clash)    DE(int)     intcor
      1.62      -8.25       2.02        0.00      54.68       4.05       0.07       6.56       ----

> <Gold.Chemscore.Fitness>
1.6161

> <Gold.Chemscore.DG>
-8.2495

> <Gold.Chemscore.ZeroCoef>
-5.4800

> <Gold.Chemscore.Hbond>
2.0194

> <Gold.Chemscore.Metal>
0.0000

> <Gold.Chemscore.Lipo>
54.6836

> <Gold.Chemscore.Internal_Hbond>
0.0000

> <Gold.Chemscore.DEClash>
0.0729

> <Gold.Chemscore.DEInternal>
6.5605

> <Gold.Chemscore.Rot>
4.0520

> <Gold.Chemscore.Internal.Correction>
   9.000000E+99

> <Gold.Chemscore.Hbonds>
donor molecule, donor type, donor heavy atom, donor atom, acceptor molecule, acceptor atom, score
      P1  H  7989  7998       L1    22  0.98
      P1  H  7997  8008       L1     3  0.51
      P1  H  7997  8009       L1     7  0.56

> <Gold.Chemscore.Hbond.Weighted>
-6.7448

> <Gold.Chemscore.Metal.Weighted>
-0.0000

> <Gold.Chemscore.Lipo.Weighted>
-6.3980

> <Gold.Chemscore.Internal_Hbond.Weighted>
0.0000

> <Gold.Chemscore.DEClash.Weighted>
0.0729

> <Gold.Chemscore.DEInternal.Weighted>
6.5605

> <Gold.Chemscore.Rot.Weighted>
10.3732

> <Gold.Chemscore.Internal.Correction.Weighted>
   9.000000E+99

> <Gold.Protein.RotatedTorsions>
[ 6907 6896 6895 6894 ] final  -71.75 input  -60.11 | X-H torsion
[ 7974 7965 7964 7962 ] final   60.05 input  175.53 | X-H torsion
[ 8008 7997 7996 7995 ] final -149.49 input   59.86 | X-H torsion
[ 10167 10162 10161 10158 ] final -131.25 input  -65.29 | X-H torsion
[ 10718 10713 10712 10709 ] final  -78.93 input   66.30 | X-H torsion
[ 10763 10752 10751 10750 ] final   25.18 input  -60.55 | X-H torsion
[ 11005 11000 10999 10996 ] final  139.03 input  -57.11 | X-H torsion

> <Gold.Protein.ActiveResidues>
 VAL166  LYS551  ARG553  GLY616  TRP617  ASP618  TYR619  PRO620  LYS621  CYS622 
 ASP623  PHE694  ASN695  SER759  ASP760  ASP761  ALA762  ILE779  LEU786  VAL792 
 PHE793  MET794  SER795  GLU796  ALA797  LYS798  CYS799  TRP800  GLU811  SER814 

> <Gold.Protein.RotatedAtoms>
  150.7199  134.5263  159.5678 H   0  0  0  0  0  0  0  0  0  0  0  0  # atno 6907 bound_to 6896
  152.2807  134.7829  160.0406 H   0  0  0  0  0  0  0  0  0  0  0  0  # atno 6908 bound_to 6896
  151.8476  133.3399  159.3700 H   0  0  0  0  0  0  0  0  0  0  0  0  # atno 6909 bound_to 6896
  145.9003  139.3576  143.0596 H   0  0  0  0  0  0  0  0  0  0  0  0  # atno 7974 bound_to 7965
  155.6084  140.0669  157.2713 H   0  0  0  0  0  0  0  0  0  0  0  0  # atno 8008 bound_to 7997
  154.4260  140.1806  156.1294 H   0  0  0  0  0  0  0  0  0  0  0  0  # atno 8009 bound_to 7997
  156.0104  140.3327  155.6938 H   0  0  0  0  0  0  0  0  0  0  0  0  # atno 8010 bound_to 7997
  139.9208  143.6384  152.2554 H   0  0  0  0  0  0  0  0  0  0  0  0  # atno 10167 bound_to 10162
  156.0105  130.4531  150.3572 H   0  0  0  0  0  0  0  0  0  0  0  0  # atno 10718 bound_to 10713
  153.0710  135.6589  154.0247 H   0  0  0  0  0  0  0  0  0  0  0  0  # atno 10763 bound_to 10752
  153.9893  135.2947  155.3415 H   0  0  0  0  0  0  0  0  0  0  0  0  # atno 10764 bound_to 10752
  154.7084  135.5215  153.8700 H   0  0  0  0  0  0  0  0  0  0  0  0  # atno 10765 bound_to 10752
  140.0226  134.9390  157.0504 H   0  0  0  0  0  0  0  0  0  0  0  0  # atno 11005 bound_to 11000
  145.8799  140.9369  143.0607 LP  0  0  0  0  0  0  0  0  0  0  0  0  # atno 17320 bound_to 7965
  144.6735  140.0766  143.7471 LP  0  0  0  0  0  0  0  0  0  0  0  0  # atno 17321 bound_to 7965
  139.6863  144.7651  151.1518 LP  0  0  0  0  0  0  0  0  0  0  0  0  # atno 17342 bound_to 10162
  140.7662  143.5652  150.9055 LP  0  0  0  0  0  0  0  0  0  0  0  0  # atno 17343 bound_to 10162
  157.1662  131.0357  151.2817 LP  0  0  0  0  0  0  0  0  0  0  0  0  # atno 17370 bound_to 10713
  157.4269  130.7468  149.6958 LP  0  0  0  0  0  0  0  0  0  0  0  0  # atno 17371 bound_to 10713
  140.4362  134.1729  155.7171 LP  0  0  0  0  0  0  0  0  0  0  0  0  # atno 17394 bound_to 11000
  141.1783  133.8468  157.1347 LP  0  0  0  0  0  0  0  0  0  0  0  0  # atno 17395 bound_to 11000

$$$$
