AV-unprocessed.smi:1774|AV-procd|sdf|7165|dock9
  -GOLD-   22720 8403D 1   1.00000     0.00000
 Structure written by MMmdl.
 45 46  0  0  0  0  0  0  0  0  1 V2000
  147.6203  132.7767  152.6755 C   0  0  0  0  0  0  0  0  0  0  0  0
  146.2796  132.8103  151.9599 C   0  0  0  0  0  0  0  0  0  0  0  0
  145.6722  131.5964  151.5746 C   0  0  0  0  0  0  0  0  0  0  0  0
  144.4323  131.6286  150.9140 C   0  0  0  0  0  0  0  0  0  0  0  0
  143.8484  132.8823  150.6649 C   0  0  0  0  0  0  0  0  0  0  0  0
  144.4217  134.0474  151.0288 N   0  0  0  0  0  0  0  0  0  0  0  0
  145.6191  134.0339  151.6673 C   0  0  0  0  0  0  0  0  0  0  0  0
  146.2806  135.2234  152.0846 N   0  0  0  0  0  0  0  0  0  0  0  0
  145.8042  136.2221  152.8487 C   0  0  0  0  0  0  0  0  0  0  0  0
  144.6592  136.2929  153.2962 O   0  0  0  0  0  0  0  0  0  0  0  0
  146.7468  137.1497  153.0731 N   0  0  0  0  0  0  0  0  0  0  0  0
  146.5844  138.3341  153.9110 C   0  0  0  0  0  0  0  0  0  0  0  0
  147.6683  139.3890  153.6125 C   0  0  0  0  0  0  0  0  0  0  0  0
  148.8304  139.3617  154.4997 N   0  0  0  0  0  0  0  0  0  0  0  0
  149.2599  140.6945  154.9102 C   0  0  0  0  0  0  0  0  0  0  0  0
  150.4483  140.6334  155.8860 C   0  0  2  0  0  0  0  0  0  0  0  0
  150.9613  142.0281  156.2579 C   0  0  0  0  0  0  0  0  0  0  0  0
  151.5208  139.9101  155.2835 O   0  0  0  0  0  0  0  0  0  0  0  0
  151.1855  138.6033  154.8130 C   0  0  1  0  0  0  0  0  0  0  0  0
  151.0165  137.6055  155.9719 C   0  0  0  0  0  0  0  0  0  0  0  0
  149.9568  138.6706  153.8841 C   0  0  0  0  0  0  0  0  0  0  0  0
  147.9685  131.7534  152.8189 H   0  0  0  0  0  0  0  0  0  0  0  0
  147.5411  133.2438  153.6575 H   0  0  0  0  0  0  0  0  0  0  0  0
  148.3752  133.3101  152.0973 H   0  0  0  0  0  0  0  0  0  0  0  0
  146.1479  130.6490  151.7821 H   0  0  0  0  0  0  0  0  0  0  0  0
  143.9421  130.7168  150.6067 H   0  0  0  0  0  0  0  0  0  0  0  0
  142.8958  132.9528  150.1609 H   0  0  0  0  0  0  0  0  0  0  0  0
  147.2388  135.3126  151.7812 H   0  0  0  0  0  0  0  0  0  0  0  0
  147.6577  137.0091  152.6614 H   0  0  0  0  0  0  0  0  0  0  0  0
  145.6072  138.7596  153.6826 H   0  0  0  0  0  0  0  0  0  0  0  0
  146.5507  138.0721  154.9688 H   0  0  0  0  0  0  0  0  0  0  0  0
  148.0008  139.2370  152.5847 H   0  0  0  0  0  0  0  0  0  0  0  0
  147.2189  140.3827  153.6336 H   0  0  0  0  0  0  0  0  0  0  0  0
  149.5355  141.2805  154.0317 H   0  0  0  0  0  0  0  0  0  0  0  0
  148.4415  141.2266  155.3933 H   0  0  0  0  0  0  0  0  0  0  0  0
  150.1392  140.1278  156.8014 H   0  0  0  0  0  0  0  0  0  0  0  0
  150.1788  142.6186  156.7349 H   0  0  0  0  0  0  0  0  0  0  0  0
  151.3020  142.5719  155.3762 H   0  0  0  0  0  0  0  0  0  0  0  0
  151.7984  141.9620  156.9535 H   0  0  0  0  0  0  0  0  0  0  0  0
  152.0357  138.2634  154.2211 H   0  0  0  0  0  0  0  0  0  0  0  0
  150.8707  136.5938  155.5930 H   0  0  0  0  0  0  0  0  0  0  0  0
  150.1567  137.8444  156.5977 H   0  0  0  0  0  0  0  0  0  0  0  0
  151.9014  137.5960  156.6085 H   0  0  0  0  0  0  0  0  0  0  0  0
  149.6640  137.6602  153.5959 H   0  0  0  0  0  0  0  0  0  0  0  0
  150.2367  139.1834  152.9623 H   0  0  0  0  0  0  0  0  0  0  0  0
  1  2  1  0  0  0  0
  1 22  1  0  0  0  0
  1 23  1  0  0  0  0
  1 24  1  0  0  0  0
  2  7  1  0  0  0  0
  2  3  2  0  0  0  0
  3  4  1  0  0  0  0
  3 25  1  0  0  0  0
  4  5  2  0  0  0  0
  4 26  1  0  0  0  0
  5  6  1  0  0  0  0
  5 27  1  0  0  0  0
  6  7  2  0  0  0  0
  7  8  1  0  0  0  0
  8  9  1  0  0  0  0
  8 28  1  0  0  0  0
  9 10  2  0  0  0  0
  9 11  1  0  0  0  0
 11 12  1  0  0  0  0
 11 29  1  0  0  0  0
 12 13  1  0  0  0  0
 12 30  1  0  0  0  0
 12 31  1  0  0  0  0
 13 14  1  0  0  0  0
 13 32  1  0  0  0  0
 13 33  1  0  0  0  0
 14 21  1  0  0  0  0
 14 15  1  0  0  0  0
 15 16  1  0  0  0  0
 15 34  1  0  0  0  0
 15 35  1  0  0  0  0
 16 17  1  0  0  0  0
 16 18  1  0  0  0  0
 16 36  1  0  0  0  0
 17 37  1  0  0  0  0
 17 38  1  0  0  0  0
 17 39  1  0  0  0  0
 18 19  1  0  0  0  0
 19 20  1  0  0  0  0
 19 21  1  0  0  0  0
 19 40  1  0  0  0  0
 20 41  1  0  0  0  0
 20 42  1  0  0  0  0
 20 43  1  0  0  0  0
 21 44  1  0  0  0  0
 21 45  1  0  0  0  0
M  END
> <s_m_source_file>
AV-unprocessed.smi

> <i_m_source_file_index>
1774

> <i_lp_mmshare_version>
43012

> <i_f3d_flags>
0

> <s_epik_input>
W0NIM11jMVtjSF1bY0hdW2NIXW5jMVtOSF1DKD1PKVtOSF1bQ0gyXVtDSDJdTjJbQ0gyXVtDQEBIXShbQ0gzXSlPW0NAQEhdKFtDSDNdKVtDSDJdMg==

> <s_epik_cmdline>
J2VwaWtfcHl0aG9uJywgJy1waCcsICc3LjAnLCAnLXRuJywgJzgnLCAnLW1hJywgJzIwMCcsICctbWV0YWxfYmluZGluZycsICctaW1hZScsICc8aW5maWxlLm1hZT4nLCAnLW9tYWUnLCAnPG91dGZpbGUubWFlPic=

> <r_epik_Ionization_Penalty>
0.266047

> <r_epik_Ionization_Penalty_Charging>
0

> <r_epik_Ionization_Penalty_Neutral>
0.266047

> <r_epik_State_Penalty>
0.257924

> <r_epik_Charging_Adjusted_Penalty>
0.257924

> <i_epik_Tot_Q>
0

> <i_epik_Tot_abs_Q>
0

> <r_epik_Metal_State_Penalty>
0.257922

> <b_epik_Metal_Only>
0

> <s_lp_Force_Field>
OPLS_2005

> <r_lp_Energy>
29.5878

> <b_lp_Chiralities_Consistent>
1

> <s_lp_Variant>
AV-unprocessed.smi:1774-2

> <Gold.Version>
5.8.1

> <Gold.Id.Protein>
6NUR|6NUR_protein|mol2

> <Gold.PLP.Fitness>
44.1255

> <Gold.PLP.PLP>
-34.9852

> <Gold.PLP.part.hbond>
-3.0000

> <Gold.PLP.part.metal>
0.0000

> <Gold.PLP.part.buried>
-4.8443

> <Gold.PLP.part.nonpolar>
-27.6191

> <Gold.PLP.part.repulsive>
0.4363

> <Gold.PLP.ligand.clash>
0.0000

> <Gold.PLP.ligand.torsion>
1.4387

> <Gold.PLP.Chemscore.Hbond>
3.0000

> <Gold.PLP.Chemscore.CHOScore>
1.0000

> <Gold.PLP.Chemscore.Metal>
0.0000

> <Gold.Chemscore.Hbonds>
donor molecule, donor type, donor heavy atom, donor atom, acceptor molecule, acceptor atom, score
      L1  H     8    28       P1  7948  1.00
      L1  H    11    29       P1  7948  1.00
      P1  H  7989  7998       L1    18  0.95
      L1  C     5    27       P1 10186  1.00

> <Gold.PLP.Chemscore.Internal.Correction>
0.0177

> <Gold.Rescore>
     Score         DG    S(hbond)    S(metal)    S(lipo)     H(rot)  DE(clash)    DE(int)     intcor
     17.44     -18.86       2.00        0.00      89.02       1.46       0.03       1.40       ----

> <Gold.Chemscore.Fitness>
17.4412

> <Gold.Chemscore.DG>
-18.8632

> <Gold.Chemscore.ZeroCoef>
-5.4800

> <Gold.Chemscore.Hbond>
2.0046

> <Gold.Chemscore.Metal>
0.0000

> <Gold.Chemscore.Lipo>
89.0236

> <Gold.Chemscore.Internal_Hbond>
0.0000

> <Gold.Chemscore.DEClash>
0.0254

> <Gold.Chemscore.DEInternal>
1.3967

> <Gold.Chemscore.Rot>
1.4562

> <Gold.Chemscore.Internal.Correction>
   9.000000E+99

> <Gold.Chemscore.Hbonds>
donor molecule, donor type, donor heavy atom, donor atom, acceptor molecule, acceptor atom, score
      L1  H     8    28       P1  7948  0.94
      L1  H    11    29       P1  7948  1.00
      P1  H  7989  7998       L1    18  0.05

> <Gold.Chemscore.Hbond.Weighted>
-6.6953

> <Gold.Chemscore.Metal.Weighted>
-0.0000

> <Gold.Chemscore.Lipo.Weighted>
-10.4158

> <Gold.Chemscore.Internal_Hbond.Weighted>
0.0000

> <Gold.Chemscore.DEClash.Weighted>
0.0254

> <Gold.Chemscore.DEInternal.Weighted>
1.3967

> <Gold.Chemscore.Rot.Weighted>
3.7278

> <Gold.Chemscore.Internal.Correction.Weighted>
   9.000000E+99

> <Gold.Protein.RotatedTorsions>
[ 6907 6896 6895 6894 ] final -102.03 input  -60.11 | X-H torsion
[ 7974 7965 7964 7962 ] final -141.88 input  175.53 | X-H torsion
[ 8008 7997 7996 7995 ] final  -75.77 input   59.86 | X-H torsion
[ 10167 10162 10161 10158 ] final   75.23 input  -65.29 | X-H torsion
[ 10718 10713 10712 10709 ] final  -90.06 input   66.30 | X-H torsion
[ 10763 10752 10751 10750 ] final   99.82 input  -60.55 | X-H torsion
[ 11005 11000 10999 10996 ] final   60.05 input  -57.11 | X-H torsion

> <Gold.Protein.ActiveResidues>
 VAL166  LYS551  ARG553  GLY616  TRP617  ASP618  TYR619  PRO620  LYS621  CYS622 
 ASP623  PHE694  ASN695  SER759  ASP760  ASP761  ALA762  ILE779  LEU786  VAL792 
 PHE793  MET794  SER795  GLU796  ALA797  LYS798  CYS799  TRP800  GLU811  SER814 

> <Gold.Protein.RotatedAtoms>
  150.7179  134.0643  159.3841 H   0  0  0  0  0  0  0  0  0  0  0  0  # atno 6907 bound_to 6896
  151.8623  135.0517  160.0480 H   0  0  0  0  0  0  0  0  0  0  0  0  # atno 6908 bound_to 6896
  152.2707  133.5344  159.5474 H   0  0  0  0  0  0  0  0  0  0  0  0  # atno 6909 bound_to 6896
  144.8486  140.6026  143.5405 H   0  0  0  0  0  0  0  0  0  0  0  0  # atno 7974 bound_to 7965
  154.5446  140.0738  156.8567 H   0  0  0  0  0  0  0  0  0  0  0  0  # atno 8008 bound_to 7997
  155.3113  140.3390  155.4225 H   0  0  0  0  0  0  0  0  0  0  0  0  # atno 8009 bound_to 7997
  156.1906  140.1685  156.8086 H   0  0  0  0  0  0  0  0  0  0  0  0  # atno 8010 bound_to 7997
  140.0052  144.5656  150.7704 H   0  0  0  0  0  0  0  0  0  0  0  0  # atno 10167 bound_to 10162
  155.9986  130.4895  150.5265 H   0  0  0  0  0  0  0  0  0  0  0  0  # atno 10718 bound_to 10713
  153.3061  135.4100  155.1295 H   0  0  0  0  0  0  0  0  0  0  0  0  # atno 10763 bound_to 10752
  154.8563  135.3553  154.5786 H   0  0  0  0  0  0  0  0  0  0  0  0  # atno 10764 bound_to 10752
  153.6213  135.7064  153.5368 H   0  0  0  0  0  0  0  0  0  0  0  0  # atno 10765 bound_to 10752
  140.0260  134.6083  155.9573 H   0  0  0  0  0  0  0  0  0  0  0  0  # atno 11005 bound_to 11000
  145.4546  139.1519  143.3899 LP  0  0  0  0  0  0  0  0  0  0  0  0  # atno 17320 bound_to 7965
  146.2765  140.4674  142.8793 LP  0  0  0  0  0  0  0  0  0  0  0  0  # atno 17321 bound_to 7965
  140.7403  143.2803  151.3619 LP  0  0  0  0  0  0  0  0  0  0  0  0  # atno 17342 bound_to 10162
  139.6243  144.0844  152.2420 LP  0  0  0  0  0  0  0  0  0  0  0  0  # atno 17343 bound_to 10162
  157.3220  131.0683  151.1925 LP  0  0  0  0  0  0  0  0  0  0  0  0  # atno 17370 bound_to 10713
  157.2835  130.6761  149.6078 LP  0  0  0  0  0  0  0  0  0  0  0  0  # atno 17371 bound_to 10713
  141.1803  133.6545  156.4991 LP  0  0  0  0  0  0  0  0  0  0  0  0  # atno 17394 bound_to 11000
  140.4306  134.7105  157.4940 LP  0  0  0  0  0  0  0  0  0  0  0  0  # atno 17395 bound_to 11000

$$$$
