AV-unprocessed.smi:2994|AV-procd|sdf|11404|dock5
  -GOLD-   2272016323D 1   1.00000     0.00000
 Structure written by MMmdl.
 47 49  0  0  0  0  0  0  0  0  1 V2000
  147.5862  132.9408  152.7564 C   0  0  0  0  0  0  0  0  0  0  0  0
  148.5490  133.1267  153.9410 C   0  0  2  0  0  0  0  0  0  0  0  0
  149.0983  134.4797  153.9291 N   0  0  0  0  0  0  0  0  0  0  0  0
  149.7406  135.0700  154.9477 C   0  0  0  0  0  0  0  0  0  0  0  0
  149.9362  134.5234  156.0328 O   0  0  0  0  0  0  0  0  0  0  0  0
  150.1158  136.3194  154.6228 N   0  0  0  0  0  0  0  0  0  0  0  0
  150.7837  137.2906  155.4186 C   0  0  0  0  0  0  0  0  0  0  0  0
  151.2818  138.5244  154.9353 C   0  0  0  0  0  0  0  0  0  0  0  0
  151.9198  139.3999  155.8344 C   0  0  0  0  0  0  0  0  0  0  0  0
  152.0411  139.0178  157.1892 C   0  0  0  0  0  0  0  0  0  0  0  0
  152.6966  139.9338  158.1810 C   0  0  0  0  0  0  0  0  0  0  0  0
  153.8329  139.6631  158.5722 O   0  0  0  0  0  0  0  0  0  0  0  0
  152.0003  141.0142  158.6168 N   0  0  0  0  0  0  0  0  0  0  0  0
  150.7944  141.5723  157.9836 C   0  0  0  0  0  0  0  0  0  0  0  0
  151.1617  142.8953  157.2856 C   0  0  0  0  0  0  0  0  0  0  0  0
  151.8072  143.8845  158.2733 C   0  0  0  0  0  0  0  0  0  0  0  0
  152.9603  143.2294  159.0550 C   0  0  0  0  0  0  0  0  0  0  0  0
  152.5115  141.8944  159.6763 C   0  0  0  0  0  0  0  0  0  0  0  0
  151.5446  137.8531  157.6620 N   0  0  0  0  0  0  0  0  0  0  0  0
  150.9360  137.0177  156.7941 C   0  0  0  0  0  0  0  0  0  0  0  0
  149.6302  132.0626  153.9262 C   0  0  0  0  0  0  0  0  0  0  0  0
  149.3256  130.6388  154.3261 C   0  0  0  0  0  0  0  0  0  0  0  0
  150.1964  131.5038  155.2095 C   0  0  0  0  0  0  0  0  0  0  0  0
  147.1422  131.9450  152.7660 H   0  0  0  0  0  0  0  0  0  0  0  0
  148.1007  133.0658  151.8031 H   0  0  0  0  0  0  0  0  0  0  0  0
  146.7676  133.6602  152.7901 H   0  0  0  0  0  0  0  0  0  0  0  0
  147.9784  132.9956  154.8627 H   0  0  0  0  0  0  0  0  0  0  0  0
  148.9811  135.0060  153.0757 H   0  0  0  0  0  0  0  0  0  0  0  0
  149.8373  136.6364  153.7057 H   0  0  0  0  0  0  0  0  0  0  0  0
  151.1816  138.8263  153.9050 H   0  0  0  0  0  0  0  0  0  0  0  0
  152.3063  140.3474  155.4880 H   0  0  0  0  0  0  0  0  0  0  0  0
  150.3300  140.9102  157.2551 H   0  0  0  0  0  0  0  0  0  0  0  0
  150.0367  141.7487  158.7482 H   0  0  0  0  0  0  0  0  0  0  0  0
  151.8534  142.6929  156.4666 H   0  0  0  0  0  0  0  0  0  0  0  0
  150.2742  143.3424  156.8369 H   0  0  0  0  0  0  0  0  0  0  0  0
  152.1634  144.7692  157.7447 H   0  0  0  0  0  0  0  0  0  0  0  0
  151.0497  144.2307  158.9776 H   0  0  0  0  0  0  0  0  0  0  0  0
  153.8043  143.0546  158.3863 H   0  0  0  0  0  0  0  0  0  0  0  0
  153.3155  143.9055  159.8334 H   0  0  0  0  0  0  0  0  0  0  0  0
  151.7218  142.0692  160.4084 H   0  0  0  0  0  0  0  0  0  0  0  0
  153.3353  141.4462  160.2338 H   0  0  0  0  0  0  0  0  0  0  0  0
  150.5604  136.0960  157.2144 H   0  0  0  0  0  0  0  0  0  0  0  0
  150.3376  132.1747  153.1063 H   0  0  0  0  0  0  0  0  0  0  0  0
  148.3209  130.4138  154.6788 H   0  0  0  0  0  0  0  0  0  0  0  0
  149.8106  129.8449  153.7618 H   0  0  0  0  0  0  0  0  0  0  0  0
  151.2618  131.2841  155.2349 H   0  0  0  0  0  0  0  0  0  0  0  0
  149.7694  131.8532  156.1474 H   0  0  0  0  0  0  0  0  0  0  0  0
  1  2  1  0  0  0  0
  1 24  1  0  0  0  0
  1 25  1  0  0  0  0
  1 26  1  0  0  0  0
  2  3  1  0  0  0  0
  2 21  1  0  0  0  0
  2 27  1  0  0  0  0
  3  4  1  0  0  0  0
  3 28  1  0  0  0  0
  4  5  2  0  0  0  0
  4  6  1  0  0  0  0
  6  7  1  0  0  0  0
  6 29  1  0  0  0  0
  7 20  1  0  0  0  0
  7  8  2  0  0  0  0
  8  9  1  0  0  0  0
  8 30  1  0  0  0  0
  9 10  2  0  0  0  0
  9 31  1  0  0  0  0
 10 11  1  0  0  0  0
 10 19  1  0  0  0  0
 11 12  2  0  0  0  0
 11 13  1  0  0  0  0
 13 18  1  0  0  0  0
 13 14  1  0  0  0  0
 14 15  1  0  0  0  0
 14 32  1  0  0  0  0
 14 33  1  0  0  0  0
 15 16  1  0  0  0  0
 15 34  1  0  0  0  0
 15 35  1  0  0  0  0
 16 17  1  0  0  0  0
 16 36  1  0  0  0  0
 16 37  1  0  0  0  0
 17 18  1  0  0  0  0
 17 38  1  0  0  0  0
 17 39  1  0  0  0  0
 18 40  1  0  0  0  0
 18 41  1  0  0  0  0
 19 20  2  0  0  0  0
 20 42  1  0  0  0  0
 21 23  1  0  0  0  0
 21 22  1  0  0  0  0
 21 43  1  0  0  0  0
 22 23  1  0  0  0  0
 22 44  1  0  0  0  0
 22 45  1  0  0  0  0
 23 46  1  0  0  0  0
 23 47  1  0  0  0  0
M  END
> <s_m_source_file>
AV-unprocessed.smi

> <i_m_source_file_index>
2994

> <i_lp_mmshare_version>
43012

> <i_f3d_flags>
0

> <s_epik_input>
W0NIMl0xW0NIMl1bQ0hdMVtDQEhdKFtDSDNdKVtOSF1DKD1PKVtOSF1jMltjSF1bY0hdYyhuW2NIXTIpQyg9TylOM1tDSDJdW0NIMl1bQ0gyXVtDSDJdW0NIMl0z

> <s_epik_cmdline>
J2VwaWtfcHl0aG9uJywgJy1waCcsICc3LjAnLCAnLXRuJywgJzgnLCAnLW1hJywgJzIwMCcsICctbWV0YWxfYmluZGluZycsICctaW1hZScsICc8aW5maWxlLm1hZT4nLCAnLW9tYWUnLCAnPG91dGZpbGUubWFlPic=

> <r_lp_tautomer_probability>
1

> <r_epik_Ionization_Penalty>
4.52104e-05

> <r_epik_Ionization_Penalty_Charging>
0

> <r_epik_Ionization_Penalty_Neutral>
4.52104e-05

> <r_epik_State_Penalty>
-0

> <r_epik_Charging_Adjusted_Penalty>
0

> <i_epik_Tot_Q>
0

> <i_epik_Tot_abs_Q>
0

> <r_epik_Metal_State_Penalty>
-0

> <b_epik_Metal_Only>
0

> <s_lp_Force_Field>
OPLS_2005

> <r_lp_Energy>
45.7479

> <b_lp_Chiralities_Consistent>
1

> <s_lp_Variant>
AV-unprocessed.smi:2994-1

> <Gold.Version>
5.8.1

> <Gold.Id.Protein>
6NUR|6NUR_protein|mol2

> <Gold.PLP.Fitness>
49.5362

> <Gold.PLP.PLP>
-43.0643

> <Gold.PLP.part.hbond>
-3.0000

> <Gold.PLP.part.metal>
0.0000

> <Gold.PLP.part.buried>
-3.8796

> <Gold.PLP.part.nonpolar>
-36.9786

> <Gold.PLP.part.repulsive>
0.0784

> <Gold.PLP.ligand.clash>
0.0000

> <Gold.PLP.ligand.torsion>
2.1799

> <Gold.PLP.Chemscore.Hbond>
2.9511

> <Gold.PLP.Chemscore.CHOScore>
0.0000

> <Gold.PLP.Chemscore.Metal>
0.0000

> <Gold.Chemscore.Hbonds>
donor molecule, donor type, donor heavy atom, donor atom, acceptor molecule, acceptor atom, score
      L1  H     3    28       P1  7948  0.85
      L1  H     6    29       P1  7948  0.95
      P1  H  7997  8010       L1    12  1.00

> <Gold.PLP.Chemscore.Internal.Correction>
1.9785

> <Gold.Rescore>
     Score         DG    S(hbond)    S(metal)    S(lipo)     H(rot)  DE(clash)    DE(int)     intcor
     19.44     -23.07       2.66        0.00      99.30       1.14       0.02       3.61       ----

> <Gold.Chemscore.Fitness>
19.4361

> <Gold.Chemscore.DG>
-23.0710

> <Gold.Chemscore.ZeroCoef>
-5.4800

> <Gold.Chemscore.Hbond>
2.6621

> <Gold.Chemscore.Metal>
0.0000

> <Gold.Chemscore.Lipo>
99.2955

> <Gold.Chemscore.Internal_Hbond>
0.0000

> <Gold.Chemscore.DEClash>
0.0216

> <Gold.Chemscore.DEInternal>
3.6133

> <Gold.Chemscore.Rot>
1.1399

> <Gold.Chemscore.Internal.Correction>
   9.000000E+99

> <Gold.Chemscore.Hbonds>
donor molecule, donor type, donor heavy atom, donor atom, acceptor molecule, acceptor atom, score
      L1  H     3    28       P1  7948  0.15
      L1  H     6    29       P1  7948  0.34
      P1  H  7997  8010       L1    12  0.64

> <Gold.Chemscore.Hbond.Weighted>
-8.8915

> <Gold.Chemscore.Metal.Weighted>
-0.0000

> <Gold.Chemscore.Lipo.Weighted>
-11.6176

> <Gold.Chemscore.Internal_Hbond.Weighted>
0.0000

> <Gold.Chemscore.DEClash.Weighted>
0.0216

> <Gold.Chemscore.DEInternal.Weighted>
3.6133

> <Gold.Chemscore.Rot.Weighted>
2.9180

> <Gold.Chemscore.Internal.Correction.Weighted>
   9.000000E+99

> <Gold.Protein.RotatedTorsions>
[ 6907 6896 6895 6894 ] final  119.91 input  -60.11 | X-H torsion
[ 7974 7965 7964 7962 ] final   13.13 input  175.53 | X-H torsion
[ 8008 7997 7996 7995 ] final    8.11 input   59.86 | X-H torsion
[ 10167 10162 10161 10158 ] final  167.73 input  -65.29 | X-H torsion
[ 10718 10713 10712 10709 ] final -172.82 input   66.30 | X-H torsion
[ 10763 10752 10751 10750 ] final -104.28 input  -60.55 | X-H torsion
[ 11005 11000 10999 10996 ] final -141.86 input  -57.11 | X-H torsion

> <Gold.Protein.ActiveResidues>
 VAL166  LYS551  ARG553  GLY616  TRP617  ASP618  TYR619  PRO620  LYS621  CYS622 
 ASP623  PHE694  ASN695  SER759  ASP760  ASP761  ALA762  ILE779  LEU786  VAL792 
 PHE793  MET794  SER795  GLU796  ALA797  LYS798  CYS799  TRP800  GLU811  SER814 

> <Gold.Protein.RotatedAtoms>
  152.4437  133.7496  159.6686 H   0  0  0  0  0  0  0  0  0  0  0  0  # atno 6907 bound_to 6896
  150.8333  133.8045  159.3096 H   0  0  0  0  0  0  0  0  0  0  0  0  # atno 6908 bound_to 6896
  151.5692  135.1065  160.0043 H   0  0  0  0  0  0  0  0  0  0  0  0  # atno 6909 bound_to 6896
  146.2336  139.9234  142.8507 H   0  0  0  0  0  0  0  0  0  0  0  0  # atno 7974 bound_to 7965
  154.7625  140.2787  155.6202 H   0  0  0  0  0  0  0  0  0  0  0  0  # atno 8008 bound_to 7997
  156.2918  140.2657  156.2334 H   0  0  0  0  0  0  0  0  0  0  0  0  # atno 8009 bound_to 7997
  155.0000  140.0373  157.2345 H   0  0  0  0  0  0  0  0  0  0  0  0  # atno 8010 bound_to 7997
  139.4952  144.3890  151.9538 H   0  0  0  0  0  0  0  0  0  0  0  0  # atno 10167 bound_to 10162
  156.7612  130.9414  151.3118 H   0  0  0  0  0  0  0  0  0  0  0  0  # atno 10718 bound_to 10713
  154.7867  135.4792  153.9962 H   0  0  0  0  0  0  0  0  0  0  0  0  # atno 10763 bound_to 10752
  153.1571  135.6802  153.8804 H   0  0  0  0  0  0  0  0  0  0  0  0  # atno 10764 bound_to 10752
  153.8429  135.3177  155.3405 H   0  0  0  0  0  0  0  0  0  0  0  0  # atno 10765 bound_to 10752
  140.8282  134.2548  157.4869 H   0  0  0  0  0  0  0  0  0  0  0  0  # atno 11005 bound_to 11000
  145.2114  140.9897  143.4098 LP  0  0  0  0  0  0  0  0  0  0  0  0  # atno 17320 bound_to 7965
  144.9688  139.3902  143.6319 LP  0  0  0  0  0  0  0  0  0  0  0  0  # atno 17321 bound_to 7965
  140.3328  144.3296  150.5983 LP  0  0  0  0  0  0  0  0  0  0  0  0  # atno 17342 bound_to 10162
  140.5631  143.2189  151.7731 LP  0  0  0  0  0  0  0  0  0  0  0  0  # atno 17343 bound_to 10162
  157.6734  130.9071  150.0092 LP  0  0  0  0  0  0  0  0  0  0  0  0  # atno 17370 bound_to 10713
  156.1338  130.3643  149.9690 LP  0  0  0  0  0  0  0  0  0  0  0  0  # atno 17371 bound_to 10713
  139.8706  134.9572  156.4261 LP  0  0  0  0  0  0  0  0  0  0  0  0  # atno 17394 bound_to 11000
  140.9026  133.7768  155.9698 LP  0  0  0  0  0  0  0  0  0  0  0  0  # atno 17395 bound_to 11000

$$$$
