AV-unprocessed.smi:1703|AV-procd|sdf|6859|dock2
  -GOLD-   22720 8 43D 1   1.00000     0.00000
 Structure written by MMmdl.
 49 51  0  0  0  0  0  0  0  0  2 V2000
  148.8389  135.0398  156.9979 C   0  0  0  0  0  0  0  0  0  0  0  0
  148.3445  135.7546  155.7355 C   0  0  2  0  0  0  0  0  0  0  0  0
  149.0129  137.1293  155.5520 C   0  0  0  0  0  0  0  0  0  0  0  0
  148.4456  137.8248  154.3747 N   0  3  2  0  0  0  0  0  0  0  0  0
  149.1327  139.1071  154.0793 C   0  0  0  0  0  0  0  0  0  0  0  0
  148.9581  140.1378  155.2158 C   0  0  2  0  0  0  0  0  0  0  0  0
  147.7511  140.8440  155.0110 O   0  0  0  0  0  0  0  0  0  0  0  0
  150.1013  141.1685  155.3003 C   0  0  0  0  0  0  0  0  0  0  0  0
  151.1209  140.7941  156.2716 N   0  0  0  0  0  0  0  0  0  0  0  0
  151.9397  139.7108  156.2687 C   0  0  0  0  0  0  0  0  0  0  0  0
  151.9040  138.6772  155.1850 C   0  0  0  0  0  0  0  0  0  0  0  0
  152.7160  137.5590  155.4718 O   0  0  0  0  0  0  0  0  0  0  0  0
  152.7817  139.6181  157.2983 N   0  0  0  0  0  0  0  0  0  0  0  0
  152.4926  140.7515  158.0320 C   0  0  0  0  0  0  0  0  0  0  0  0
  153.0483  141.2305  159.2398 C   0  0  0  0  0  0  0  0  0  0  0  0
  152.5844  142.4334  159.8112 C   0  0  0  0  0  0  0  0  0  0  0  0
  151.5609  143.1733  159.1845 C   0  0  0  0  0  0  0  0  0  0  0  0
  150.9936  142.7139  157.9804 C   0  0  0  0  0  0  0  0  0  0  0  0
  151.4590  141.5117  157.4150 C   0  0  0  0  0  0  0  0  0  0  0  0
  146.9753  137.9601  154.5187 C   0  0  0  0  0  0  0  0  0  0  0  0
  146.3146  136.5873  154.7494 C   0  0  1  0  0  0  0  0  0  0  0  0
  146.2677  135.7092  153.4862 C   0  0  0  0  0  0  0  0  0  0  0  0
  146.9336  135.9218  155.8506 O   0  0  0  0  0  0  0  0  0  0  0  0
  149.9160  134.8748  156.9603 H   0  0  0  0  0  0  0  0  0  0  0  0
  148.3584  134.0673  157.1085 H   0  0  0  0  0  0  0  0  0  0  0  0
  148.6204  135.6221  157.8935 H   0  0  0  0  0  0  0  0  0  0  0  0
  148.5713  135.1201  154.8784 H   0  0  0  0  0  0  0  0  0  0  0  0
  148.8723  137.7451  156.4420 H   0  0  0  0  0  0  0  0  0  0  0  0
  150.0873  136.9962  155.4194 H   0  0  0  0  0  0  0  0  0  0  0  0
  150.1867  138.9009  153.8892 H   0  0  0  0  0  0  0  0  0  0  0  0
  148.7385  139.5383  153.1578 H   0  0  0  0  0  0  0  0  0  0  0  0
  148.8826  139.6294  156.1761 H   0  0  0  0  0  0  0  0  0  0  0  0
  147.0263  140.2531  155.1501 H   0  0  0  0  0  0  0  0  0  0  0  0
  150.5582  141.3111  154.3216 H   0  0  0  0  0  0  0  0  0  0  0  0
  149.7045  142.1422  155.5918 H   0  0  0  0  0  0  0  0  0  0  0  0
  150.8777  138.3348  155.0468 H   0  0  0  0  0  0  0  0  0  0  0  0
  152.2148  139.1218  154.2398 H   0  0  0  0  0  0  0  0  0  0  0  0
  153.2808  137.7750  156.1980 H   0  0  0  0  0  0  0  0  0  0  0  0
  153.8342  140.6722  159.7267 H   0  0  0  0  0  0  0  0  0  0  0  0
  153.0174  142.7910  160.7340 H   0  0  0  0  0  0  0  0  0  0  0  0
  151.2132  144.0949  159.6282 H   0  0  0  0  0  0  0  0  0  0  0  0
  150.2117  143.2808  157.4972 H   0  0  0  0  0  0  0  0  0  0  0  0
  146.7595  138.6141  155.3652 H   0  0  0  0  0  0  0  0  0  0  0  0
  146.5384  138.4344  153.6404 H   0  0  0  0  0  0  0  0  0  0  0  0
  145.2806  136.7638  155.0474 H   0  0  0  0  0  0  0  0  0  0  0  0
  145.6821  136.1917  152.7033 H   0  0  0  0  0  0  0  0  0  0  0  0
  145.8019  134.7469  153.6989 H   0  0  0  0  0  0  0  0  0  0  0  0
  147.2587  135.5183  153.0758 H   0  0  0  0  0  0  0  0  0  0  0  0
  148.6143  137.2230  153.5808 H   0  0  0  0  0  0  0  0  0  0  0  0
  1  2  1  0  0  0  0
  1 24  1  0  0  0  0
  1 25  1  0  0  0  0
  1 26  1  0  0  0  0
  2 23  1  0  0  0  0
  2  3  1  0  0  0  0
  2 27  1  0  0  0  0
  3  4  1  0  0  0  0
  3 28  1  0  0  0  0
  3 29  1  0  0  0  0
  4  5  1  0  0  0  0
  4 20  1  0  0  0  0
  4 49  1  0  0  0  0
  5  6  1  0  0  0  0
  5 30  1  0  0  0  0
  5 31  1  0  0  0  0
  6  7  1  0  0  0  0
  6  8  1  0  0  0  0
  6 32  1  0  0  0  0
  7 33  1  0  0  0  0
  8  9  1  0  0  0  0
  8 34  1  0  0  0  0
  8 35  1  0  0  0  0
  9 19  1  0  0  0  0
  9 10  1  0  0  0  0
 10 11  1  0  0  0  0
 10 13  2  0  0  0  0
 11 12  1  0  0  0  0
 11 36  1  0  0  0  0
 11 37  1  0  0  0  0
 12 38  1  0  0  0  0
 13 14  1  0  0  0  0
 14 19  2  0  0  0  0
 14 15  1  0  0  0  0
 15 16  2  0  0  0  0
 15 39  1  0  0  0  0
 16 17  1  0  0  0  0
 16 40  1  0  0  0  0
 17 18  2  0  0  0  0
 17 41  1  0  0  0  0
 18 19  1  0  0  0  0
 18 42  1  0  0  0  0
 20 21  1  0  0  0  0
 20 43  1  0  0  0  0
 20 44  1  0  0  0  0
 21 22  1  0  0  0  0
 21 23  1  0  0  0  0
 21 45  1  0  0  0  0
 22 46  1  0  0  0  0
 22 47  1  0  0  0  0
 22 48  1  0  0  0  0
M  CHG  1   4   1
M  END
> <s_m_source_file>
AV-unprocessed.smi

> <i_m_source_file_index>
1703

> <i_lp_mmshare_version>
43012

> <i_f3d_flags>
0

> <s_epik_input>
W0NIM11bQ0BASF0xW0NIMl1OKFtDSDJdW0NASF0oTzEpW0NIM10pW0NIMl1bQ0BIXShbT0hdKVtDSDJdbihjKG4yKVtDSDJdW09IXSljKGMyMylbY0hdW2NIXVtjSF1bY0hdMw==

> <s_epik_cmdline>
J2VwaWtfcHl0aG9uJywgJy1waCcsICc3LjAnLCAnLXRuJywgJzgnLCAnLW1hJywgJzIwMCcsICctbWV0YWxfYmluZGluZycsICctaW1hZScsICc8aW5maWxlLm1hZT4nLCAnLW9tYWUnLCAnPG91dGZpbGUubWFlPic=

> <r_epik_Ionization_Penalty>
0.655661

> <r_epik_Ionization_Penalty_Charging>
0.608065

> <r_epik_Ionization_Penalty_Neutral>
0.0475963

> <r_epik_State_Penalty>
0.695267

> <r_epik_Charging_Adjusted_Penalty>
1.30333

> <i_epik_Tot_Q>
1

> <i_epik_Tot_abs_Q>
1

> <r_epik_Metal_State_Penalty>
0.653591

> <b_epik_Metal_Only>
0

> <s_lp_Force_Field>
OPLS_2005

> <r_lp_Energy>
25.4362

> <b_lp_Chiralities_Consistent>
1

> <s_lp_Variant>
AV-unprocessed.smi:1703-7

> <Gold.Version>
5.8.1

> <Gold.Id.Protein>
6NUR|6NUR_protein|mol2

> <Gold.PLP.Fitness>
41.3552

> <Gold.PLP.PLP>
-32.7783

> <Gold.PLP.part.hbond>
-3.0000

> <Gold.PLP.part.metal>
0.0000

> <Gold.PLP.part.buried>
-1.7890

> <Gold.PLP.part.nonpolar>
-26.8742

> <Gold.PLP.part.repulsive>
0.0260

> <Gold.PLP.ligand.clash>
0.0000

> <Gold.PLP.ligand.torsion>
0.8675

> <Gold.PLP.Chemscore.Hbond>
3.3910

> <Gold.PLP.Chemscore.CHOScore>
0.0000

> <Gold.PLP.Chemscore.Metal>
0.0000

> <Gold.Chemscore.Hbonds>
donor molecule, donor type, donor heavy atom, donor atom, acceptor molecule, acceptor atom, score
      L1  H     4    49       P1  7948  2.00
      P1  H  7997  8008       L1    13  1.00
      P1  H 10752 10765       L1    12  0.38

> <Gold.PLP.Chemscore.Internal.Correction>
0.1388

> <Gold.Rescore>
     Score         DG    S(hbond)    S(metal)    S(lipo)     H(rot)  DE(clash)    DE(int)     intcor
     13.17     -14.42       1.80        0.00      89.67       2.96       0.26       0.98       ----

> <Gold.Chemscore.Fitness>
13.1735

> <Gold.Chemscore.DG>
-14.4172

> <Gold.Chemscore.ZeroCoef>
-5.4800

> <Gold.Chemscore.Hbond>
1.8042

> <Gold.Chemscore.Metal>
0.0000

> <Gold.Chemscore.Lipo>
89.6724

> <Gold.Chemscore.Internal_Hbond>
0.0000

> <Gold.Chemscore.DEClash>
0.2622

> <Gold.Chemscore.DEInternal>
0.9815

> <Gold.Chemscore.Rot>
2.9611

> <Gold.Chemscore.Internal.Correction>
   9.000000E+99

> <Gold.Chemscore.Hbonds>
donor molecule, donor type, donor heavy atom, donor atom, acceptor molecule, acceptor atom, score
      L1  H     4    49       P1  7948  0.96
      P1  H  7997  8008       L1    13  0.10
      P1  H 10752 10765       L1    12  0.34

> <Gold.Chemscore.Hbond.Weighted>
-6.0259

> <Gold.Chemscore.Metal.Weighted>
-0.0000

> <Gold.Chemscore.Lipo.Weighted>
-10.4917

> <Gold.Chemscore.Internal_Hbond.Weighted>
0.0000

> <Gold.Chemscore.DEClash.Weighted>
0.2622

> <Gold.Chemscore.DEInternal.Weighted>
0.9815

> <Gold.Chemscore.Rot.Weighted>
7.5803

> <Gold.Chemscore.Internal.Correction.Weighted>
   9.000000E+99

> <Gold.Protein.RotatedTorsions>
[ 6907 6896 6895 6894 ] final  114.35 input  -60.11 | X-H torsion
[ 7974 7965 7964 7962 ] final   92.46 input  175.53 | X-H torsion
[ 8008 7997 7996 7995 ] final  -55.45 input   59.86 | X-H torsion
[ 10167 10162 10161 10158 ] final   20.59 input  -65.29 | X-H torsion
[ 10718 10713 10712 10709 ] final  -40.73 input   66.30 | X-H torsion
[ 10763 10752 10751 10750 ] final -177.35 input  -60.55 | X-H torsion
[ 11005 11000 10999 10996 ] final  -10.15 input  -57.11 | X-H torsion

> <Gold.Protein.ActiveResidues>
 VAL166  LYS551  ARG553  GLY616  TRP617  ASP618  TYR619  PRO620  LYS621  CYS622 
 ASP623  PHE694  ASN695  SER759  ASP760  ASP761  ALA762  ILE779  LEU786  VAL792 
 PHE793  MET794  SER795  GLU796  ALA797  LYS798  CYS799  TRP800  GLU811  SER814 

> <Gold.Protein.RotatedAtoms>
  152.4807  133.8248  159.7072 H   0  0  0  0  0  0  0  0  0  0  0  0  # atno 6907 bound_to 6896
  150.8855  133.7304  159.2926 H   0  0  0  0  0  0  0  0  0  0  0  0  # atno 6908 bound_to 6896
  151.4794  135.1055  159.9825 H   0  0  0  0  0  0  0  0  0  0  0  0  # atno 6909 bound_to 6896
  145.4920  139.2276  143.2824 H   0  0  0  0  0  0  0  0  0  0  0  0  # atno 7974 bound_to 7965
  154.4195  140.1153  156.5478 H   0  0  0  0  0  0  0  0  0  0  0  0  # atno 8008 bound_to 7997
  155.6441  140.3496  155.4706 H   0  0  0  0  0  0  0  0  0  0  0  0  # atno 8009 bound_to 7997
  155.9846  140.1167  157.0684 H   0  0  0  0  0  0  0  0  0  0  0  0  # atno 8010 bound_to 7997
  140.5492  143.9540  150.6567 H   0  0  0  0  0  0  0  0  0  0  0  0  # atno 10167 bound_to 10162
  156.2781  130.4214  149.8366 H   0  0  0  0  0  0  0  0  0  0  0  0  # atno 10718 bound_to 10713
  154.5612  135.2820  155.0917 H   0  0  0  0  0  0  0  0  0  0  0  0  # atno 10763 bound_to 10752
  154.2325  135.6371  153.5184 H   0  0  0  0  0  0  0  0  0  0  0  0  # atno 10764 bound_to 10752
  153.0030  135.5540  154.6207 H   0  0  0  0  0  0  0  0  0  0  0  0  # atno 10765 bound_to 10752
  140.7417  133.8664  155.8973 H   0  0  0  0  0  0  0  0  0  0  0  0  # atno 11005 bound_to 11000
  146.2278  140.5715  142.8988 LP  0  0  0  0  0  0  0  0  0  0  0  0  # atno 17320 bound_to 7965
  144.7828  140.5876  143.6594 LP  0  0  0  0  0  0  0  0  0  0  0  0  # atno 17321 bound_to 7965
  140.2961  143.3292  152.1016 LP  0  0  0  0  0  0  0  0  0  0  0  0  # atno 17342 bound_to 10162
  139.5020  144.6726  151.6207 LP  0  0  0  0  0  0  0  0  0  0  0  0  # atno 17343 bound_to 10162
  156.5823  130.8471  151.3386 LP  0  0  0  0  0  0  0  0  0  0  0  0  # atno 17370 bound_to 10713
  157.7306  130.9687  150.1839 LP  0  0  0  0  0  0  0  0  0  0  0  0  # atno 17371 bound_to 10713
  140.9830  134.1380  157.4477 LP  0  0  0  0  0  0  0  0  0  0  0  0  # atno 17394 bound_to 11000
  139.8805  135.0016  156.6081 LP  0  0  0  0  0  0  0  0  0  0  0  0  # atno 17395 bound_to 11000

$$$$
