AV-unprocessed.smi:1037|AV-procd|sdf|4520|dock1
  -GOLD-   22720 2533D 1   1.00000     0.00000
 Structure written by MMmdl.
 29 29  0  0  0  0  0  0  0  0  1 V2000
  148.3045  140.7768  153.3506 N   0  0  0  0  0  0  0  0  0  0  0  0
  149.1307  140.7101  154.3970 C   0  0  0  0  0  0  0  0  0  0  0  0
  150.2490  140.2043  154.3146 O   0  0  0  0  0  0  0  0  0  0  0  0
  148.6258  141.3203  155.7110 C   0  0  0  0  0  0  0  0  0  0  0  0
  149.5556  142.2904  156.2841 N   0  0  0  0  0  0  0  0  0  0  0  0
  150.4050  142.0446  157.2938 C   0  0  0  0  0  0  0  0  0  0  0  0
  150.4632  140.9611  157.8773 O   0  0  0  0  0  0  0  0  0  0  0  0
  151.3096  143.2110  157.7149 C   0  0  0  0  0  0  0  0  0  0  0  0
  151.9656  142.9897  159.0150 N   0  0  0  0  0  0  0  0  0  0  0  0
  151.6889  143.9175  160.0351 C   0  0  0  0  0  0  0  0  0  0  0  0
  152.2291  143.8054  161.2560 C   0  0  0  0  0  0  0  0  0  0  0  0
  153.1160  142.6965  161.5104 C   0  0  0  0  0  0  0  0  0  0  0  0
  153.3990  141.7863  160.5500 C   0  0  0  0  0  0  0  0  0  0  0  0
  154.3331  140.6051  160.8031 C   0  0  0  0  0  0  0  0  0  0  0  0
  153.7586  139.4625  160.4250 F   0  0  0  0  0  0  0  0  0  0  0  0
  155.4667  140.7492  160.1158 F   0  0  0  0  0  0  0  0  0  0  0  0
  154.6509  140.4932  162.0938 F   0  0  0  0  0  0  0  0  0  0  0  0
  152.7963  141.9183  159.2077 C   0  0  0  0  0  0  0  0  0  0  0  0
  153.0223  141.1147  158.3013 O   0  0  0  0  0  0  0  0  0  0  0  0
  148.5873  140.3842  152.4644 H   0  0  0  0  0  0  0  0  0  0  0  0
  147.3991  141.2128  153.4486 H   0  0  0  0  0  0  0  0  0  0  0  0
  147.6804  141.8269  155.5164 H   0  0  0  0  0  0  0  0  0  0  0  0
  148.4153  140.5306  156.4344 H   0  0  0  0  0  0  0  0  0  0  0  0
  149.5735  143.2070  155.8614 H   0  0  0  0  0  0  0  0  0  0  0  0
  152.0604  143.3919  156.9431 H   0  0  0  0  0  0  0  0  0  0  0  0
  150.7031  144.1173  157.7386 H   0  0  0  0  0  0  0  0  0  0  0  0
  151.0097  144.7130  159.7653 H   0  0  0  0  0  0  0  0  0  0  0  0
  152.0031  144.5235  162.0305 H   0  0  0  0  0  0  0  0  0  0  0  0
  153.5532  142.6048  162.4934 H   0  0  0  0  0  0  0  0  0  0  0  0
  1  2  1  0  0  0  0
  1 20  1  0  0  0  0
  1 21  1  0  0  0  0
  2  3  2  0  0  0  0
  2  4  1  0  0  0  0
  4  5  1  0  0  0  0
  4 22  1  0  0  0  0
  4 23  1  0  0  0  0
  5  6  1  0  0  0  0
  5 24  1  0  0  0  0
  6  7  2  0  0  0  0
  6  8  1  0  0  0  0
  8  9  1  0  0  0  0
  8 25  1  0  0  0  0
  8 26  1  0  0  0  0
  9 18  1  0  0  0  0
  9 10  1  0  0  0  0
 10 11  2  0  0  0  0
 10 27  1  0  0  0  0
 11 12  1  0  0  0  0
 11 28  1  0  0  0  0
 12 13  2  0  0  0  0
 12 29  1  0  0  0  0
 13 14  1  0  0  0  0
 13 18  1  0  0  0  0
 14 15  1  0  0  0  0
 14 16  1  0  0  0  0
 14 17  1  0  0  0  0
 18 19  2  0  0  0  0
M  END
> <s_m_source_file>
AV-unprocessed.smi

> <i_m_source_file_index>
1037

> <i_lp_mmshare_version>
43012

> <i_f3d_flags>
0

> <s_epik_input>
W05IMl1DKD1PKVtDSDJdW05IXUMoPU8pW0NIMl1uMVtjSF1bY0hdW2NIXWMoQyhGKShGKUYpYzE9Tw==

> <s_epik_cmdline>
J2VwaWtfcHl0aG9uJywgJy1waCcsICc3LjAnLCAnLXRuJywgJzgnLCAnLW1hJywgJzIwMCcsICctbWV0YWxfYmluZGluZycsICctaW1hZScsICc8aW5maWxlLm1hZT4nLCAnLW9tYWUnLCAnPG91dGZpbGUubWFlPic=

> <r_lp_tautomer_probability>
1

> <r_epik_Ionization_Penalty>
9.73018e-08

> <r_epik_Ionization_Penalty_Charging>
1.58095e-09

> <r_epik_Ionization_Penalty_Neutral>
9.57208e-08

> <r_epik_State_Penalty>
-0

> <r_epik_Charging_Adjusted_Penalty>
1.58095e-09

> <i_epik_Tot_Q>
0

> <i_epik_Tot_abs_Q>
0

> <r_epik_Metal_State_Penalty>
-0

> <b_epik_Metal_Only>
0

> <s_lp_Force_Field>
OPLS_2005

> <r_lp_Energy>
7.91729

> <b_lp_Chiralities_Consistent>
1

> <s_lp_Variant>
AV-unprocessed.smi:1037-1

> <Gold.Version>
5.8.1

> <Gold.Id.Protein>
6NUR|6NUR_protein|mol2

> <Gold.PLP.Fitness>
51.4656

> <Gold.PLP.PLP>
-42.7168

> <Gold.PLP.part.hbond>
-4.0000

> <Gold.PLP.part.metal>
0.0000

> <Gold.PLP.part.buried>
-2.7480

> <Gold.PLP.part.nonpolar>
-36.4070

> <Gold.PLP.part.repulsive>
0.3726

> <Gold.PLP.ligand.clash>
0.0807

> <Gold.PLP.ligand.torsion>
0.5799

> <Gold.PLP.Chemscore.Hbond>
3.2000

> <Gold.PLP.Chemscore.CHOScore>
0.0000

> <Gold.PLP.Chemscore.Metal>
0.0000

> <Gold.Chemscore.Hbonds>
donor molecule, donor type, donor heavy atom, donor atom, acceptor molecule, acceptor atom, score
      L1  H     1    20       P1  7957  1.00
      L1  H     5    24       P1  8028  1.00
      P1  H  7989  7998       L1     3  1.00
      P1  H  7997  8009       L1    19  0.20

> <Gold.PLP.Chemscore.Internal.Correction>
0.3892

> <Gold.Rescore>
     Score         DG    S(hbond)    S(metal)    S(lipo)     H(rot)  DE(clash)    DE(int)     intcor
     10.47     -16.80       3.18        0.00      66.11       2.74       0.02       6.31       ----

> <Gold.Chemscore.Fitness>
10.4736

> <Gold.Chemscore.DG>
-16.8040

> <Gold.Chemscore.ZeroCoef>
-5.4800

> <Gold.Chemscore.Hbond>
3.1776

> <Gold.Chemscore.Metal>
0.0000

> <Gold.Chemscore.Lipo>
66.1058

> <Gold.Chemscore.Internal_Hbond>
0.0000

> <Gold.Chemscore.DEClash>
0.0202

> <Gold.Chemscore.DEInternal>
6.3101

> <Gold.Chemscore.Rot>
2.7435

> <Gold.Chemscore.Internal.Correction>
   9.000000E+99

> <Gold.Chemscore.Hbonds>
donor molecule, donor type, donor heavy atom, donor atom, acceptor molecule, acceptor atom, score
      L1  H     1    20       P1  7957  0.99
      L1  H     5    24       P1  8028  0.94
      P1  H  7989  7998       L1     3  0.96
      P1  H  7997  8009       L1    19  0.20

> <Gold.Chemscore.Hbond.Weighted>
-10.6130

> <Gold.Chemscore.Metal.Weighted>
-0.0000

> <Gold.Chemscore.Lipo.Weighted>
-7.7344

> <Gold.Chemscore.Internal_Hbond.Weighted>
0.0000

> <Gold.Chemscore.DEClash.Weighted>
0.0202

> <Gold.Chemscore.DEInternal.Weighted>
6.3101

> <Gold.Chemscore.Rot.Weighted>
7.0234

> <Gold.Chemscore.Internal.Correction.Weighted>
   9.000000E+99

> <Gold.Protein.RotatedTorsions>
[ 6907 6896 6895 6894 ] final  101.34 input  -60.11 | X-H torsion
[ 7974 7965 7964 7962 ] final  -66.78 input  175.53 | X-H torsion
[ 8008 7997 7996 7995 ] final  152.40 input   59.86 | X-H torsion
[ 10167 10162 10161 10158 ] final    4.31 input  -65.29 | X-H torsion
[ 10718 10713 10712 10709 ] final  -60.94 input   66.30 | X-H torsion
[ 10763 10752 10751 10750 ] final  100.37 input  -60.55 | X-H torsion
[ 11005 11000 10999 10996 ] final  -38.36 input  -57.11 | X-H torsion

> <Gold.Protein.ActiveResidues>
 VAL166  LYS551  ARG553  GLY616  TRP617  ASP618  TYR619  PRO620  LYS621  CYS622 
 ASP623  PHE694  ASN695  SER759  ASP760  ASP761  ALA762  ILE779  LEU786  VAL792 
 PHE793  MET794  SER795  GLU796  ALA797  LYS798  CYS799  TRP800  GLU811  SER814 

> <Gold.Protein.RotatedAtoms>
  152.5351  134.0141  159.7951 H   0  0  0  0  0  0  0  0  0  0  0  0  # atno 6907 bound_to 6896
  151.0338  133.5759  159.2665 H   0  0  0  0  0  0  0  0  0  0  0  0  # atno 6908 bound_to 6896
  151.2754  135.0704  159.9203 H   0  0  0  0  0  0  0  0  0  0  0  0  # atno 6909 bound_to 6896
  145.7374  140.8969  143.0548 H   0  0  0  0  0  0  0  0  0  0  0  0  # atno 7974 bound_to 7965
  156.2631  140.2022  156.6327 H   0  0  0  0  0  0  0  0  0  0  0  0  # atno 8008 bound_to 7997
  154.6670  140.0554  157.0149 H   0  0  0  0  0  0  0  0  0  0  0  0  # atno 8009 bound_to 7997
  155.1192  140.3223  155.4504 H   0  0  0  0  0  0  0  0  0  0  0  0  # atno 8010 bound_to 7997
  140.6541  143.7471  150.7624 H   0  0  0  0  0  0  0  0  0  0  0  0  # atno 10167 bound_to 10162
  156.0956  130.4193  150.0924 H   0  0  0  0  0  0  0  0  0  0  0  0  # atno 10718 bound_to 10713
  153.3130  135.4081  155.1352 H   0  0  0  0  0  0  0  0  0  0  0  0  # atno 10763 bound_to 10752
  154.8581  135.3569  154.5697 H   0  0  0  0  0  0  0  0  0  0  0  0  # atno 10764 bound_to 10752
  153.6127  135.7067  153.5399 H   0  0  0  0  0  0  0  0  0  0  0  0  # atno 10765 bound_to 10752
  141.0021  133.6950  156.2042 H   0  0  0  0  0  0  0  0  0  0  0  0  # atno 11005 bound_to 11000
  144.6878  139.9414  143.7475 LP  0  0  0  0  0  0  0  0  0  0  0  0  # atno 17320 bound_to 7965
  146.0480  139.3484  143.0657 LP  0  0  0  0  0  0  0  0  0  0  0  0  # atno 17321 bound_to 7965
  140.1127  143.4684  152.2360 LP  0  0  0  0  0  0  0  0  0  0  0  0  # atno 17342 bound_to 10162
  139.5761  144.7488  151.3762 LP  0  0  0  0  0  0  0  0  0  0  0  0  # atno 17343 bound_to 10162
  156.8924  130.9593  151.3587 LP  0  0  0  0  0  0  0  0  0  0  0  0  # atno 17370 bound_to 10713
  157.6116  130.8587  149.8960 LP  0  0  0  0  0  0  0  0  0  0  0  0  # atno 17371 bound_to 10713
  140.6872  134.4705  157.5589 LP  0  0  0  0  0  0  0  0  0  0  0  0  # atno 17394 bound_to 11000
  139.9044  134.8482  156.1764 LP  0  0  0  0  0  0  0  0  0  0  0  0  # atno 17395 bound_to 11000

$$$$
