#       Name:                AV-unprocessed.smi:2881
#       Creating user name   scv26
#       Creation time:       Fri Mar 27 15:52:30 2020


#       File generated by GOLD software.
#

@<TRIPOS>MOLECULE
AV-unprocessed.smi:2881
    45    47     1
SMALL
NO_CHARGES


@<TRIPOS>ATOM
      1 ****        -3.8693   4.3645   0.2377 C.3            1 S1                 0.0000
      2 ****        -3.5114   3.0758   0.8963 C.2            1 S1                 0.0000
      3 ****        -2.9323   1.9395   0.4061 C.2            1 S1                 0.0000
      4 ****        -2.8569   1.0663   1.5326 C.2            1 S1                 0.0000
      5 ****        -2.3132  -0.3365   1.5864 C.3            1 S1                 0.0000
      6 ****        -0.7918  -0.3222   1.4348 C.2            1 S1                 0.0000
      7 ****        -0.0782  -0.1061   2.4140 O.2            1 S1                 0.0000
      8 ****        -0.3124  -0.5553   0.2030 N.am           1 S1                 0.0000
      9 ****         1.1019  -0.6180  -0.1576 C.3            1 S1                 0.0000
     10 ****         1.3054  -0.1752  -1.6235 C.3            1 S1                 0.0000
     11 ****         2.7995   0.1187  -1.8491 C.3            1 S1                 0.0000
     12 ****         3.4207  -1.2907  -1.8406 C.3            1 S1                 0.0000
     13 ****         2.1996  -2.2060  -1.6042 C.3            1 S1                 0.0000
     14 ****         1.1273  -1.4756  -2.4024 C.3            1 S1                 0.0000
     15 ****         1.6462  -2.0707  -0.1652 C.3            1 S1                 0.0000
     16 ****         2.6579  -2.3920   0.9520 C.3            1 S1                 0.0000
     17 ****         1.9918  -2.5316   2.1882 O.3            1 S1                 0.0000
     18 ****        -3.3563   1.6174   2.6302 N.2            1 S1                 0.0000
     19 ****        -3.7488   2.8409   2.2307 N.pl3          1 S1                 0.0000
     20 ****        -4.1737   3.4960   2.8715 H              1 S1                 0.0000
     21 ****        -3.4289   4.4284  -0.7574 H              1 S1                 0.0000
     22 ****        -3.5088   5.2126   0.8205 H              1 S1                 0.0000
     23 ****        -4.9506   4.4589   0.1347 H              1 S1                 0.0000
     24 ****        -2.6073   1.7565  -0.6075 H              1 S1                 0.0000
     25 ****        -2.5691  -0.8205   2.5302 H              1 S1                 0.0000
     26 ****        -2.7590  -0.9448   0.7983 H              1 S1                 0.0000
     27 ****        -0.9770  -0.7177  -0.5395 H              1 S1                 0.0000
     28 ****         1.6800   0.0279   0.5063 H              1 S1                 0.0000
     29 ****         0.6559   0.6440  -1.9353 H              1 S1                 0.0000
     30 ****         2.9596   0.6013  -2.8140 H              1 S1                 0.0000
     31 ****         3.2203   0.7659  -1.0787 H              1 S1                 0.0000
     32 ****         3.8754  -1.5065  -2.8084 H              1 S1                 0.0000
     33 ****         4.1987  -1.4044  -1.0867 H              1 S1                 0.0000
     34 ****         2.3658  -3.2396  -1.9089 H              1 S1                 0.0000
     35 ****         0.1329  -1.9129  -2.2976 H              1 S1                 0.0000
     36 ****         1.3642  -1.3809  -3.4637 H              1 S1                 0.0000
     37 ****         0.8167  -2.7760  -0.0787 H              1 S1                 0.0000
     38 ****         3.1769  -3.3260   0.7361 H              1 S1                 0.0000
     39 ****         3.4135  -1.6122   1.0463 H              1 S1                 0.0000
     40 ****         2.6350  -2.6933   2.8614 H              1 S1                 0.0000
     41 ****        -0.4935   0.0601   3.3084 LP             1 S1                 0.0000
     42 ****         0.9169  -0.0967   2.3153 LP             1 S1                 0.0000
     43 ****         1.3528  -3.2994   2.1416 LP             1 S1                 0.0000
     44 ****         1.4897  -1.6923   2.3969 LP             1 S1                 0.0000
     45 ****        -3.4253   1.2165   3.5438 LP             1 S1                 0.0000
@<TRIPOS>BOND
    1    1    2 1     
    2    1   21 1     
    3    1   22 1     
    4    1   23 1     
    5    2   19 1     
    6    2    3 2     
    7    3    4 1     
    8    3   24 1     
    9    4    5 1     
   10    4   18 2     
   11    5    6 1     
   12    5   25 1     
   13    5   26 1     
   14    6    7 2     
   15    6    8 am    
   16    8    9 1     
   17    8   27 1     
   18    9   15 1     
   19    9   10 1     
   20    9   28 1     
   21   10   14 1     
   22   10   11 1     
   23   10   29 1     
   24   11   12 1     
   25   11   30 1     
   26   11   31 1     
   27   12   13 1     
   28   12   32 1     
   29   12   33 1     
   30   13   14 1     
   31   13   15 1     
   32   13   34 1     
   33   14   35 1     
   34   14   36 1     
   35   15   16 1     
   36   15   37 1     
   37   16   17 1     
   38   16   38 1     
   39   16   39 1     
   40   17   40 1     
   41   18   19 1     
   42   19   20 1     
   43    7   41 1     
   44    7   42 1     
   45   17   43 1     
   46   17   44 1     
   47   18   45 1     
@<TRIPOS>SUBSTRUCTURE
      1 S1             1
@<TRIPOS>SET
LONE_PAIRS      STATIC     ATOMS    <user>   **** ""
5 41 42 43 44 45
DONOR_HYDROGENS      STATIC     ATOMS    <user>   **** ""
3 27 40 20
ATOM$BLUE        STATIC     ATOMS    COLORGROUP SYSTEM
5 41 42 43 44 45
ATOM$RED        STATIC     ATOMS    COLORGROUP SYSTEM
3 27 40 20
