AV-unprocessed.smi:235|AV-procd|sdf|1807|dock5
  -GOLD-   2262020383D 1   1.00000     0.00000
 Structure written by MMmdl.
 54 58  0  0  0  0  0  0  0  0  1 V2000
  145.2292  134.5707  152.6446 O   0  0  0  0  0  0  0  0  0  0  0  0
  144.0696  134.2041  152.8405 C   0  0  0  0  0  0  0  0  0  0  0  0
  143.5668  133.0558  152.3640 N   0  0  0  0  0  0  0  0  0  0  0  0
  144.2798  132.0979  151.5833 C   0  0  0  0  0  0  0  0  0  0  0  0
  145.3184  132.6175  150.6122 C   0  0  0  0  0  0  0  0  0  0  0  0
  144.0165  132.0718  150.0932 C   0  0  0  0  0  0  0  0  0  0  0  0
  143.1023  135.0759  153.6537 C   0  0  2  0  0  0  0  0  0  0  0  0
  141.6347  134.7399  153.3603 C   0  0  0  0  0  0  0  0  0  0  0  0
  140.9093  136.0239  153.7436 C   0  0  0  0  0  0  0  0  0  0  0  0
  141.8933  137.1159  153.3231 C   0  0  0  0  0  0  0  0  0  0  0  0
  143.2151  136.4950  153.3101 N   0  0  0  0  0  0  0  0  0  0  0  0
  144.1894  137.1729  153.9560 C   0  0  0  0  0  0  0  0  0  0  0  0
  144.0866  137.2745  155.3034 N   0  0  0  0  0  0  0  0  0  0  0  0
  145.0147  137.9438  155.9945 C   0  0  0  0  0  0  0  0  0  0  0  0
  146.1014  138.5740  155.5416 N   0  0  0  0  0  0  0  0  0  0  0  0
  146.2043  138.4713  154.1854 C   0  0  0  0  0  0  0  0  0  0  0  0
  145.3011  137.7935  153.3204 C   0  0  0  0  0  0  0  0  0  0  0  0
  145.7301  137.9034  152.0029 N   0  0  0  0  0  0  0  0  0  0  0  0
  146.8274  138.6061  152.0850 C   0  0  0  0  0  0  0  0  0  0  0  0
  147.1844  138.9884  153.3583 N   0  0  0  0  0  0  0  0  0  0  0  0
  148.3472  139.7682  153.7415 C   0  0  0  0  0  0  0  0  0  0  0  0
  149.3795  138.9324  154.5222 C   0  0  1  0  0  0  0  0  0  0  0  0
  150.0287  138.0129  153.6638 O   0  0  0  0  0  0  0  0  0  0  0  0
  150.4173  139.8011  155.2605 C   0  0  1  0  0  0  0  0  0  0  0  0
  149.8816  140.6557  156.4226 C   0  0  0  0  0  0  0  0  0  0  0  0
  150.7881  140.2945  157.5879 C   0  0  0  0  0  0  0  0  0  0  0  0
  152.0157  139.7069  156.9028 C   0  0  0  0  0  0  0  0  0  0  0  0
  151.4591  138.9995  155.8077 O   0  0  0  0  0  0  0  0  0  0  0  0
  142.6024  132.8423  152.5733 H   0  0  0  0  0  0  0  0  0  0  0  0
  144.4983  131.1368  152.0468 H   0  0  0  0  0  0  0  0  0  0  0  0
  145.4696  133.6938  150.5545 H   0  0  0  0  0  0  0  0  0  0  0  0
  146.2113  132.0138  150.4617 H   0  0  0  0  0  0  0  0  0  0  0  0
  144.0396  131.1035  149.5974 H   0  0  0  0  0  0  0  0  0  0  0  0
  143.2974  132.7832  149.6909 H   0  0  0  0  0  0  0  0  0  0  0  0
  143.2912  134.9323  154.7195 H   0  0  0  0  0  0  0  0  0  0  0  0
  141.4815  134.5343  152.2991 H   0  0  0  0  0  0  0  0  0  0  0  0
  141.2799  133.8773  153.9252 H   0  0  0  0  0  0  0  0  0  0  0  0
  139.9337  136.1233  153.2670 H   0  0  0  0  0  0  0  0  0  0  0  0
  140.7636  136.0541  154.8243 H   0  0  0  0  0  0  0  0  0  0  0  0
  141.6728  137.4498  152.3087 H   0  0  0  0  0  0  0  0  0  0  0  0
  141.8217  137.9891  153.9739 H   0  0  0  0  0  0  0  0  0  0  0  0
  144.8640  137.9801  157.0634 H   0  0  0  0  0  0  0  0  0  0  0  0
  147.4116  138.8640  151.2136 H   0  0  0  0  0  0  0  0  0  0  0  0
  148.7945  140.1910  152.8409 H   0  0  0  0  0  0  0  0  0  0  0  0
  148.0083  140.6099  154.3466 H   0  0  0  0  0  0  0  0  0  0  0  0
  148.8499  138.3392  155.2689 H   0  0  0  0  0  0  0  0  0  0  0  0
  149.3683  137.4963  153.2277 H   0  0  0  0  0  0  0  0  0  0  0  0
  150.8864  140.4703  154.5371 H   0  0  0  0  0  0  0  0  0  0  0  0
  149.9710  141.7151  156.1786 H   0  0  0  0  0  0  0  0  0  0  0  0
  148.8350  140.4633  156.6601 H   0  0  0  0  0  0  0  0  0  0  0  0
  151.0242  141.1460  158.2265 H   0  0  0  0  0  0  0  0  0  0  0  0
  150.3106  139.5308  158.2031 H   0  0  0  0  0  0  0  0  0  0  0  0
  152.6738  140.4955  156.5347 H   0  0  0  0  0  0  0  0  0  0  0  0
  152.5915  139.0511  157.5563 H   0  0  0  0  0  0  0  0  0  0  0  0
  1  2  2  0  0  0  0
  2  3  1  0  0  0  0
  2  7  1  0  0  0  0
  3  4  1  0  0  0  0
  3 29  1  0  0  0  0
  4  6  1  0  0  0  0
  4  5  1  0  0  0  0
  4 30  1  0  0  0  0
  5  6  1  0  0  0  0
  5 31  1  0  0  0  0
  5 32  1  0  0  0  0
  6 33  1  0  0  0  0
  6 34  1  0  0  0  0
  7 11  1  0  0  0  0
  7  8  1  0  0  0  0
  7 35  1  0  0  0  0
  8  9  1  0  0  0  0
  8 36  1  0  0  0  0
  8 37  1  0  0  0  0
  9 10  1  0  0  0  0
  9 38  1  0  0  0  0
  9 39  1  0  0  0  0
 10 11  1  0  0  0  0
 10 40  1  0  0  0  0
 10 41  1  0  0  0  0
 11 12  1  0  0  0  0
 12 17  1  0  0  0  0
 12 13  2  0  0  0  0
 13 14  1  0  0  0  0
 14 15  2  0  0  0  0
 14 42  1  0  0  0  0
 15 16  1  0  0  0  0
 16 20  1  0  0  0  0
 16 17  2  0  0  0  0
 17 18  1  0  0  0  0
 18 19  2  0  0  0  0
 19 20  1  0  0  0  0
 19 43  1  0  0  0  0
 20 21  1  0  0  0  0
 21 22  1  0  0  0  0
 21 44  1  0  0  0  0
 21 45  1  0  0  0  0
 22 23  1  0  0  0  0
 22 24  1  0  0  0  0
 22 46  1  0  0  0  0
 23 47  1  0  0  0  0
 24 28  1  0  0  0  0
 24 25  1  0  0  0  0
 24 48  1  0  0  0  0
 25 26  1  0  0  0  0
 25 49  1  0  0  0  0
 25 50  1  0  0  0  0
 26 27  1  0  0  0  0
 26 51  1  0  0  0  0
 26 52  1  0  0  0  0
 27 28  1  0  0  0  0
 27 53  1  0  0  0  0
 27 54  1  0  0  0  0
M  END
> <s_m_source_file>
AV-unprocessed.smi

> <i_m_source_file_index>
235

> <i_lp_mmshare_version>
43012

> <i_f3d_flags>
0

> <s_epik_input>
W0NIMl0xW0NIMl1bQ0hdMVtOSF1DKD1PKVtDQEBIXTJbQ0gyXVtDSDJdW0NIMl1OMmMobltjSF1uMyljKGMzNCluW2NIXW40W0NIMl1bQ0BIXShbT0hdKVtDQEBIXTVbQ0gyXVtDSDJdW0NIMl1PNQ==

> <s_epik_cmdline>
J2VwaWtfcHl0aG9uJywgJy1waCcsICc3LjAnLCAnLXRuJywgJzgnLCAnLW1hJywgJzIwMCcsICctbWV0YWxfYmluZGluZycsICctaW1hZScsICc8aW5maWxlLm1hZT4nLCAnLW9tYWUnLCAnPG91dGZpbGUubWFlPic=

> <r_lp_tautomer_probability>
1

> <r_epik_Ionization_Penalty>
0.000526714

> <r_epik_Ionization_Penalty_Charging>
0

> <r_epik_Ionization_Penalty_Neutral>
0.000526714

> <r_epik_State_Penalty>
0.000272704

> <r_epik_Charging_Adjusted_Penalty>
0.000272704

> <i_epik_Tot_Q>
0

> <i_epik_Tot_abs_Q>
0

> <r_epik_Metal_State_Penalty>
-0

> <b_epik_Metal_Only>
0

> <s_lp_Force_Field>
OPLS_2005

> <r_lp_Energy>
60.9584

> <b_lp_Chiralities_Consistent>
1

> <s_lp_Variant>
AV-unprocessed.smi:235-7

> <Gold.Version>
5.8.1

> <Gold.Id.Protein>
6NUR|6NUR_protein|mol2

> <Gold.PLP.Fitness>
44.5184

> <Gold.PLP.PLP>
-40.8230

> <Gold.PLP.part.hbond>
-3.1127

> <Gold.PLP.part.metal>
0.0000

> <Gold.PLP.part.buried>
-3.6997

> <Gold.PLP.part.nonpolar>
-35.9596

> <Gold.PLP.part.repulsive>
2.0391

> <Gold.PLP.ligand.clash>
0.0032

> <Gold.PLP.ligand.torsion>
1.1525

> <Gold.PLP.Chemscore.Hbond>
0.9600

> <Gold.PLP.Chemscore.CHOScore>
0.9588

> <Gold.PLP.Chemscore.Metal>
0.0000

> <Gold.Chemscore.Hbonds>
donor molecule, donor type, donor heavy atom, donor atom, acceptor molecule, acceptor atom, score
      L1  H    23    47       P1  7948  0.93
      L1  C    19    43       P1  7957  0.98

> <Gold.PLP.Chemscore.Internal.Correction>
0.2474

> <Gold.Rescore>
     Score         DG    S(hbond)    S(metal)    S(lipo)     H(rot)  DE(clash)    DE(int)     intcor
      8.45     -11.38       1.32        0.00      78.33       3.00       0.55       2.37       ----

> <Gold.Chemscore.Fitness>
8.4515

> <Gold.Chemscore.DG>
-11.3758

> <Gold.Chemscore.ZeroCoef>
-5.4800

> <Gold.Chemscore.Hbond>
1.3199

> <Gold.Chemscore.Metal>
0.0000

> <Gold.Chemscore.Lipo>
78.3308

> <Gold.Chemscore.Internal_Hbond>
0.0000

> <Gold.Chemscore.DEClash>
0.5534

> <Gold.Chemscore.DEInternal>
2.3709

> <Gold.Chemscore.Rot>
2.9989

> <Gold.Chemscore.Internal.Correction>
   9.000000E+99

> <Gold.Chemscore.Hbonds>
donor molecule, donor type, donor heavy atom, donor atom, acceptor molecule, acceptor atom, score
      L1  H    23    47       P1  7948  0.86

> <Gold.Chemscore.Hbond.Weighted>
-4.4083

> <Gold.Chemscore.Metal.Weighted>
-0.0000

> <Gold.Chemscore.Lipo.Weighted>
-9.1647

> <Gold.Chemscore.Internal_Hbond.Weighted>
0.0000

> <Gold.Chemscore.DEClash.Weighted>
0.5534

> <Gold.Chemscore.DEInternal.Weighted>
2.3709

> <Gold.Chemscore.Rot.Weighted>
7.6772

> <Gold.Chemscore.Internal.Correction.Weighted>
   9.000000E+99

> <Gold.Protein.RotatedTorsions>
[ 6907 6896 6895 6894 ] final   80.41 input  -60.11 | X-H torsion
[ 7974 7965 7964 7962 ] final  152.02 input  175.53 | X-H torsion
[ 8008 7997 7996 7995 ] final  119.50 input   59.86 | X-H torsion
[ 10167 10162 10161 10158 ] final   74.52 input  -65.29 | X-H torsion
[ 10718 10713 10712 10709 ] final  114.15 input   66.30 | X-H torsion
[ 10763 10752 10751 10750 ] final   24.61 input  -60.55 | X-H torsion
[ 11005 11000 10999 10996 ] final   59.43 input  -57.11 | X-H torsion

> <Gold.Protein.ActiveResidues>
 VAL166  LYS551  ARG553  GLY616  TRP617  ASP618  TYR619  PRO620  LYS621  CYS622 
 ASP623  PHE694  ASN695  SER759  ASP760  ASP761  ALA762  ILE779  LEU786  VAL792 
 PHE793  MET794  SER795  GLU796  ALA797  LYS798  CYS799  TRP800  GLU811  SER814 

> <Gold.Protein.RotatedAtoms>
  152.5233  134.3362  159.9200 H   0  0  0  0  0  0  0  0  0  0  0  0  # atno 6907 bound_to 6896
  151.3312  133.3993  159.2670 H   0  0  0  0  0  0  0  0  0  0  0  0  # atno 6908 bound_to 6896
  150.9879  134.9238  159.7940 H   0  0  0  0  0  0  0  0  0  0  0  0  # atno 6909 bound_to 6896
  144.8251  139.6614  143.6083 H   0  0  0  0  0  0  0  0  0  0  0  0  # atno 7974 bound_to 7965
  156.2599  140.2851  156.1001 H   0  0  0  0  0  0  0  0  0  0  0  0  # atno 8008 bound_to 7997
  155.1369  140.0395  157.2806 H   0  0  0  0  0  0  0  0  0  0  0  0  # atno 8009 bound_to 7997
  154.6558  140.2555  155.7169 H   0  0  0  0  0  0  0  0  0  0  0  0  # atno 8010 bound_to 7997
  140.0128  144.5601  150.7644 H   0  0  0  0  0  0  0  0  0  0  0  0  # atno 10167 bound_to 10162
  157.6298  131.0994  150.7144 H   0  0  0  0  0  0  0  0  0  0  0  0  # atno 10718 bound_to 10713
  153.0751  135.6601  154.0163 H   0  0  0  0  0  0  0  0  0  0  0  0  # atno 10763 bound_to 10752
  153.9799  135.2956  155.3422 H   0  0  0  0  0  0  0  0  0  0  0  0  # atno 10764 bound_to 10752
  154.7137  135.5194  153.8775 H   0  0  0  0  0  0  0  0  0  0  0  0  # atno 10765 bound_to 10752
  140.0304  134.6020  155.9514 H   0  0  0  0  0  0  0  0  0  0  0  0  # atno 11005 bound_to 11000
  146.2556  139.6296  142.9397 LP  0  0  0  0  0  0  0  0  0  0  0  0  # atno 17320 bound_to 7965
  145.5018  141.0437  143.2536 LP  0  0  0  0  0  0  0  0  0  0  0  0  # atno 17321 bound_to 7965
  140.7374  143.2765  151.3725 LP  0  0  0  0  0  0  0  0  0  0  0  0  # atno 17342 bound_to 10162
  139.6193  144.0939  152.2376 LP  0  0  0  0  0  0  0  0  0  0  0  0  # atno 17343 bound_to 10162
  156.7485  130.4761  149.5462 LP  0  0  0  0  0  0  0  0  0  0  0  0  # atno 17370 bound_to 10713
  156.1493  130.6299  151.0574 LP  0  0  0  0  0  0  0  0  0  0  0  0  # atno 17371 bound_to 10713
  141.1828  133.6549  156.5090 LP  0  0  0  0  0  0  0  0  0  0  0  0  # atno 17394 bound_to 11000
  140.4235  134.7166  157.4903 LP  0  0  0  0  0  0  0  0  0  0  0  0  # atno 17395 bound_to 11000

$$$$
