AV-unprocessed.smi:49|AV-procd|sdf|469|dock2
  -GOLD-   2262016333D 1   1.00000     0.00000
 Structure written by MMmdl.
 28 29  0  0  0  0  0  0  0  0  2 V2000
  152.9971  142.2307  160.8618 C   0  0  0  0  0  0  0  0  0  0  0  0
  152.5633  143.5417  160.1966 C   0  0  0  0  0  0  0  0  0  0  0  0
  151.5431  143.3233  159.1287 C   0  0  0  0  0  0  0  0  0  0  0  0
  151.1894  142.0787  158.6865 N   0  0  0  0  0  0  0  0  0  0  0  0
  150.3154  142.4032  157.7354 C   0  0  0  0  0  0  0  0  0  0  0  0
  149.5459  141.4428  156.8781 C   0  0  2  0  0  0  0  0  0  0  0  0
  150.3149  140.8904  155.6762 C   0  0  0  0  0  0  0  0  0  0  0  0
  149.2035  140.6788  154.6529 C   0  0  2  0  0  0  0  0  0  0  0  0
  149.6968  140.6510  153.3306 O   0  0  0  0  0  0  0  0  0  0  0  0
  148.2686  141.8690  154.8979 C   0  0  0  0  0  0  0  0  0  0  0  0
  148.4201  142.2239  156.3236 N   0  3  0  0  0  0  0  0  0  0  0  0
  150.1644  143.7245  157.6176 N   0  0  0  0  0  0  0  0  0  0  0  0
  150.9644  144.3490  158.5068 N   0  0  0  0  0  0  0  0  0  0  0  0
  149.1425  140.6289  157.4824 H   0  0  0  0  0  0  0  0  0  0  0  0
  148.6789  139.7464  154.8664 H   0  0  0  0  0  0  0  0  0  0  0  0
  149.5629  144.2216  156.9761 H   0  0  0  0  0  0  0  0  0  0  0  0
  153.7444  142.4159  161.6339 H   0  0  0  0  0  0  0  0  0  0  0  0
  153.4329  141.5452  160.1343 H   0  0  0  0  0  0  0  0  0  0  0  0
  152.1505  141.7288  161.3311 H   0  0  0  0  0  0  0  0  0  0  0  0
  152.1543  144.2197  160.9466 H   0  0  0  0  0  0  0  0  0  0  0  0
  153.4315  144.0436  159.7674 H   0  0  0  0  0  0  0  0  0  0  0  0
  151.0151  141.6402  155.3026 H   0  0  0  0  0  0  0  0  0  0  0  0
  150.8811  139.9871  155.9059 H   0  0  0  0  0  0  0  0  0  0  0  0
  149.1907  140.0287  152.8299 H   0  0  0  0  0  0  0  0  0  0  0  0
  148.5780  142.7319  154.3061 H   0  0  0  0  0  0  0  0  0  0  0  0
  147.2321  141.6432  154.6465 H   0  0  0  0  0  0  0  0  0  0  0  0
  147.5746  142.0203  156.8369 H   0  0  0  0  0  0  0  0  0  0  0  0
  148.6339  143.2091  156.3940 H   0  0  0  0  0  0  0  0  0  0  0  0
  1  2  1  0  0  0  0
  1 17  1  0  0  0  0
  1 18  1  0  0  0  0
  1 19  1  0  0  0  0
  2 20  1  0  0  0  0
  2 21  1  0  0  0  0
  2  3  1  0  0  0  0
  3  4  1  0  0  0  0
  3 13  2  0  0  0  0
  4  5  2  0  0  0  0
  5  6  1  0  0  0  0
  5 12  1  0  0  0  0
  6 14  1  0  0  0  0
  6 11  1  0  0  0  0
  6  7  1  0  0  0  0
  7  8  1  0  0  0  0
  7 22  1  0  0  0  0
  7 23  1  0  0  0  0
  8 15  1  0  0  0  0
  8  9  1  0  0  0  0
  8 10  1  0  0  0  0
  9 24  1  0  0  0  0
 10 11  1  0  0  0  0
 10 25  1  0  0  0  0
 10 26  1  0  0  0  0
 11 27  1  0  0  0  0
 11 28  1  0  0  0  0
 12 13  1  0  0  0  0
 12 16  1  0  0  0  0
M  CHG  1  11   1
M  END
> <s_m_source_file>
AV-unprocessed.smi

> <i_m_source_file_index>
49

> <i_lp_mmshare_version>
43012

> <i_f3d_flags>
0

> <s_epik_input>
W0NIM11bQ0gyXWMxbmMobltuSF0xKVtDQEBIXTJbQ0gyXVtDQEBIXShbT0hdKVtDSDJdW05IXTI=

> <s_epik_cmdline>
J2VwaWtfcHl0aG9uJywgJy1waCcsICc3LjAnLCAnLXRuJywgJzgnLCAnLW1hJywgJzIwMCcsICctbWV0YWxfYmluZGluZycsICctaW1hZScsICc8aW5maWxlLm1hZT4nLCAnLW9tYWUnLCAnPG91dGZpbGUubWFlPic=

> <r_epik_Ionization_Penalty>
0.372103

> <r_epik_Ionization_Penalty_Charging>
0.0688988

> <r_epik_Ionization_Penalty_Neutral>
0.303204

> <r_epik_State_Penalty>
0.737493

> <r_epik_Charging_Adjusted_Penalty>
0.806392

> <i_epik_Tot_Q>
1

> <i_epik_Tot_abs_Q>
1

> <r_epik_Metal_State_Penalty>
1.01235

> <b_epik_Metal_Only>
0

> <s_lp_Force_Field>
OPLS_2005

> <r_lp_Energy>
17.8034

> <b_lp_Chiralities_Consistent>
1

> <s_lp_Variant>
AV-unprocessed.smi:49-7

> <Gold.Version>
5.8.1

> <Gold.Id.Protein>
6NUR|6NUR_protein|mol2

> <Gold.PLP.Fitness>
39.4116

> <Gold.PLP.PLP>
-27.4726

> <Gold.PLP.part.hbond>
-4.4069

> <Gold.PLP.part.metal>
0.0000

> <Gold.PLP.part.buried>
-2.7372

> <Gold.PLP.part.nonpolar>
-20.5653

> <Gold.PLP.part.repulsive>
0.1839

> <Gold.PLP.ligand.clash>
0.0000

> <Gold.PLP.ligand.torsion>
0.5911

> <Gold.PLP.Chemscore.Hbond>
4.3680

> <Gold.PLP.Chemscore.CHOScore>
0.0000

> <Gold.PLP.Chemscore.Metal>
0.0000

> <Gold.Chemscore.Hbonds>
donor molecule, donor type, donor heavy atom, donor atom, acceptor molecule, acceptor atom, score
      L1  H     9    24       P1  7957  0.24
      L1  H    11    28       P1  8028  2.00
      L1  H    12    16       P1  8028  1.00
      P1  H  7989  7998       L1     9  0.34
      P1  H  8011  8017       L1     9  1.00

> <Gold.PLP.Chemscore.Internal.Correction>
0.0174

> <Gold.Rescore>
     Score         DG    S(hbond)    S(metal)    S(lipo)     H(rot)  DE(clash)    DE(int)     intcor
     15.97     -16.73       3.10        0.00      48.89       1.89       0.16       0.60       ----

> <Gold.Chemscore.Fitness>
15.9705

> <Gold.Chemscore.DG>
-16.7336

> <Gold.Chemscore.ZeroCoef>
-5.4800

> <Gold.Chemscore.Hbond>
3.1042

> <Gold.Chemscore.Metal>
0.0000

> <Gold.Chemscore.Lipo>
48.8858

> <Gold.Chemscore.Internal_Hbond>
0.0000

> <Gold.Chemscore.DEClash>
0.1584

> <Gold.Chemscore.DEInternal>
0.6047

> <Gold.Chemscore.Rot>
1.8883

> <Gold.Chemscore.Internal.Correction>
   9.000000E+99

> <Gold.Chemscore.Hbonds>
donor molecule, donor type, donor heavy atom, donor atom, acceptor molecule, acceptor atom, score
      L1  H     9    24       P1  7957  0.24
      L1  H    11    28       P1  8028  0.83
      L1  H    12    16       P1  8028  0.52
      P1  H  7989  7998       L1     9  0.20
      P1  H  8011  8017       L1     9  0.66

> <Gold.Chemscore.Hbond.Weighted>
-10.3680

> <Gold.Chemscore.Metal.Weighted>
-0.0000

> <Gold.Chemscore.Lipo.Weighted>
-5.7196

> <Gold.Chemscore.Internal_Hbond.Weighted>
0.0000

> <Gold.Chemscore.DEClash.Weighted>
0.1584

> <Gold.Chemscore.DEInternal.Weighted>
0.6047

> <Gold.Chemscore.Rot.Weighted>
4.8340

> <Gold.Chemscore.Internal.Correction.Weighted>
   9.000000E+99

> <Gold.Protein.RotatedTorsions>
[ 6907 6896 6895 6894 ] final  142.09 input  -60.11 | X-H torsion
[ 7974 7965 7964 7962 ] final -159.96 input  175.53 | X-H torsion
[ 8008 7997 7996 7995 ] final   64.89 input   59.86 | X-H torsion
[ 10167 10162 10161 10158 ] final  162.31 input  -65.29 | X-H torsion
[ 10718 10713 10712 10709 ] final   -9.04 input   66.30 | X-H torsion
[ 10763 10752 10751 10750 ] final   27.41 input  -60.55 | X-H torsion
[ 11005 11000 10999 10996 ] final  -92.88 input  -57.11 | X-H torsion

> <Gold.Protein.ActiveResidues>
 VAL166  LYS551  ARG553  GLY616  TRP617  ASP618  TYR619  PRO620  LYS621  CYS622 
 ASP623  PHE694  ASN695  SER759  ASP760  ASP761  ALA762  ILE779  LEU786  VAL792 
 PHE793  MET794  SER795  GLU796  ALA797  LYS798  CYS799  TRP800  GLU811  SER814 

> <Gold.Protein.RotatedAtoms>
  152.2230  133.4998  159.5172 H   0  0  0  0  0  0  0  0  0  0  0  0  # atno 6907 bound_to 6896
  150.7017  134.1318  159.4081 H   0  0  0  0  0  0  0  0  0  0  0  0  # atno 6908 bound_to 6896
  151.9238  135.0286  160.0575 H   0  0  0  0  0  0  0  0  0  0  0  0  # atno 6909 bound_to 6896
  144.7445  140.3610  143.6096 H   0  0  0  0  0  0  0  0  0  0  0  0  # atno 7974 bound_to 7965
  155.6531  140.3497  155.4755 H   0  0  0  0  0  0  0  0  0  0  0  0  # atno 8008 bound_to 7997
  155.9831  140.1178  157.0731 H   0  0  0  0  0  0  0  0  0  0  0  0  # atno 8009 bound_to 7997
  154.4197  140.1134  156.5449 H   0  0  0  0  0  0  0  0  0  0  0  0  # atno 8010 bound_to 7997
  139.4859  144.4451  151.8903 H   0  0  0  0  0  0  0  0  0  0  0  0  # atno 10167 bound_to 10162
  156.6938  130.5073  149.5936 H   0  0  0  0  0  0  0  0  0  0  0  0  # atno 10718 bound_to 10713
  153.0557  135.6537  154.0583 H   0  0  0  0  0  0  0  0  0  0  0  0  # atno 10763 bound_to 10752
  154.0261  135.2915  155.3376 H   0  0  0  0  0  0  0  0  0  0  0  0  # atno 10764 bound_to 10752
  154.6871  135.5297  153.8408 H   0  0  0  0  0  0  0  0  0  0  0  0  # atno 10765 bound_to 10752
  141.1511  133.7850  157.0082 H   0  0  0  0  0  0  0  0  0  0  0  0  # atno 11005 bound_to 11000
  145.7177  139.1701  143.2502 LP  0  0  0  0  0  0  0  0  0  0  0  0  # atno 17320 bound_to 7965
  146.1300  140.7198  142.9416 LP  0  0  0  0  0  0  0  0  0  0  0  0  # atno 17321 bound_to 7965
  140.3904  144.2622  150.5900 LP  0  0  0  0  0  0  0  0  0  0  0  0  # atno 17342 bound_to 10162
  140.5151  143.2280  151.8476 LP  0  0  0  0  0  0  0  0  0  0  0  0  # atno 17343 bound_to 10162
  156.1778  130.6479  151.0916 LP  0  0  0  0  0  0  0  0  0  0  0  0  # atno 17370 bound_to 10713
  157.6999  131.0780  150.6853 LP  0  0  0  0  0  0  0  0  0  0  0  0  # atno 17371 bound_to 10713
  140.0895  134.9601  157.1753 LP  0  0  0  0  0  0  0  0  0  0  0  0  # atno 17394 bound_to 11000
  140.3466  134.2645  155.7204 LP  0  0  0  0  0  0  0  0  0  0  0  0  # atno 17395 bound_to 11000

$$$$
