AV-unprocessed.smi:1492|AV-procd|sdf|6037|dock3
  -GOLD-   22720 6143D 1   1.00000     0.00000
 Structure written by MMmdl.
 52 53  0  0  0  0  0  0  0  0  1 V2000
  147.7970  140.9879  153.9112 C   0  0  0  0  0  0  0  0  0  0  0  0
  148.4134  140.9747  155.3228 C   0  0  0  0  0  0  0  0  0  0  0  0
  148.6809  139.5838  155.9928 C   0  0  2  0  0  0  0  0  0  0  0  0
  147.3811  138.7449  155.9036 C   0  0  0  0  0  0  0  0  0  0  0  0
  148.9838  139.8131  157.5070 C   0  0  0  0  0  0  0  0  0  0  0  0
  149.3414  138.5617  158.1682 N   0  0  0  0  0  0  0  0  0  0  0  0
  148.5046  137.7619  158.8439 C   0  0  0  0  0  0  0  0  0  0  0  0
  147.3641  138.0828  159.1755 O   0  0  0  0  0  0  0  0  0  0  0  0
  149.0274  136.3570  159.1375 C   0  0  0  0  0  0  0  0  0  0  0  0
  148.0804  135.5053  159.9821 C   0  0  0  0  0  0  0  0  0  0  0  0
  147.6514  134.2672  159.5985 C   0  0  0  0  0  0  0  0  0  0  0  0
  148.0574  133.6241  158.2838 C   0  0  0  0  0  0  0  0  0  0  0  0
  146.8120  133.4950  160.4133 N   0  0  0  0  0  0  0  0  0  0  0  0
  146.4497  133.9696  161.5592 C   0  0  0  0  0  0  0  0  0  0  0  0
  145.5599  133.2305  162.5356 C   0  0  0  0  0  0  0  0  0  0  0  0
  146.8548  135.2234  162.0124 N   0  0  0  0  0  0  0  0  0  0  0  0
  147.6542  136.0397  161.2904 C   0  0  0  0  0  0  0  0  0  0  0  0
  147.9880  137.1362  161.7369 O   0  0  0  0  0  0  0  0  0  0  0  0
  149.8348  138.9097  155.3200 N   0  0  0  0  0  0  0  0  0  0  0  0
  151.1625  139.4247  155.6820 C   0  0  0  0  0  0  0  0  0  0  0  0
  152.2813  138.7858  154.8435 C   0  0  0  0  0  0  0  0  0  0  0  0
  152.2454  137.3731  154.9970 O   0  0  0  0  0  0  0  0  0  0  0  0
  150.9967  136.8196  154.6036 C   0  0  0  0  0  0  0  0  0  0  0  0
  149.8617  137.4457  155.4321 C   0  0  0  0  0  0  0  0  0  0  0  0
  146.5407  135.5422  162.9173 H   0  0  0  0  0  0  0  0  0  0  0  0
  147.7669  142.0066  153.5247 H   0  0  0  0  0  0  0  0  0  0  0  0
  146.7703  140.6229  153.9091 H   0  0  0  0  0  0  0  0  0  0  0  0
  148.3744  140.3934  153.2043 H   0  0  0  0  0  0  0  0  0  0  0  0
  149.3503  141.5257  155.2444 H   0  0  0  0  0  0  0  0  0  0  0  0
  147.7735  141.5743  155.9718 H   0  0  0  0  0  0  0  0  0  0  0  0
  146.5550  139.2284  156.4235 H   0  0  0  0  0  0  0  0  0  0  0  0
  147.4939  137.7634  156.3629 H   0  0  0  0  0  0  0  0  0  0  0  0
  147.0607  138.5922  154.8733 H   0  0  0  0  0  0  0  0  0  0  0  0
  149.8056  140.5145  157.6446 H   0  0  0  0  0  0  0  0  0  0  0  0
  148.1474  140.3027  158.0057 H   0  0  0  0  0  0  0  0  0  0  0  0
  150.2637  138.2022  157.9681 H   0  0  0  0  0  0  0  0  0  0  0  0
  149.2543  135.8569  158.1951 H   0  0  0  0  0  0  0  0  0  0  0  0
  149.9886  136.4427  159.6443 H   0  0  0  0  0  0  0  0  0  0  0  0
  149.1415  133.5324  158.2197 H   0  0  0  0  0  0  0  0  0  0  0  0
  147.7062  134.2190  157.4405 H   0  0  0  0  0  0  0  0  0  0  0  0
  147.6342  132.6235  158.1853 H   0  0  0  0  0  0  0  0  0  0  0  0
  144.6014  133.0004  162.0702 H   0  0  0  0  0  0  0  0  0  0  0  0
  145.3709  133.8191  163.4341 H   0  0  0  0  0  0  0  0  0  0  0  0
  146.0301  132.2933  162.8344 H   0  0  0  0  0  0  0  0  0  0  0  0
  151.2236  140.5003  155.5372 H   0  0  0  0  0  0  0  0  0  0  0  0
  151.3664  139.2357  156.7359 H   0  0  0  0  0  0  0  0  0  0  0  0
  152.1736  139.0485  153.7909 H   0  0  0  0  0  0  0  0  0  0  0  0
  153.2545  139.1548  155.1670 H   0  0  0  0  0  0  0  0  0  0  0  0
  150.8347  136.9907  153.5390 H   0  0  0  0  0  0  0  0  0  0  0  0
  151.0237  135.7402  154.7525 H   0  0  0  0  0  0  0  0  0  0  0  0
  149.9784  137.1497  156.4746 H   0  0  0  0  0  0  0  0  0  0  0  0
  148.9310  137.0070  155.0785 H   0  0  0  0  0  0  0  0  0  0  0  0
  1  2  1  0  0  0  0
  1 26  1  0  0  0  0
  1 27  1  0  0  0  0
  1 28  1  0  0  0  0
  2  3  1  0  0  0  0
  2 29  1  0  0  0  0
  2 30  1  0  0  0  0
  3  4  1  0  0  0  0
  3  5  1  0  0  0  0
  3 19  1  0  0  0  0
  4 31  1  0  0  0  0
  4 32  1  0  0  0  0
  4 33  1  0  0  0  0
  5  6  1  0  0  0  0
  5 34  1  0  0  0  0
  5 35  1  0  0  0  0
  6  7  1  0  0  0  0
  6 36  1  0  0  0  0
  7  8  2  0  0  0  0
  7  9  1  0  0  0  0
  9 10  1  0  0  0  0
  9 37  1  0  0  0  0
  9 38  1  0  0  0  0
 10 17  1  0  0  0  0
 10 11  2  0  0  0  0
 11 12  1  0  0  0  0
 11 13  1  0  0  0  0
 12 39  1  0  0  0  0
 12 40  1  0  0  0  0
 12 41  1  0  0  0  0
 13 14  2  0  0  0  0
 14 15  1  0  0  0  0
 14 16  1  0  0  0  0
 15 42  1  0  0  0  0
 15 43  1  0  0  0  0
 15 44  1  0  0  0  0
 16 25  1  0  0  0  0
 16 17  1  0  0  0  0
 17 18  2  0  0  0  0
 19 24  1  0  0  0  0
 19 20  1  0  0  0  0
 20 21  1  0  0  0  0
 20 45  1  0  0  0  0
 20 46  1  0  0  0  0
 21 22  1  0  0  0  0
 21 47  1  0  0  0  0
 21 48  1  0  0  0  0
 22 23  1  0  0  0  0
 23 24  1  0  0  0  0
 23 49  1  0  0  0  0
 23 50  1  0  0  0  0
 24 51  1  0  0  0  0
 24 52  1  0  0  0  0
M  END
> <s_m_source_file>
AV-unprocessed.smi

> <i_m_source_file_index>
1492

> <i_lp_mmshare_version>
43012

> <i_f3d_flags>
0

> <s_epik_input>
W0NIMl0xW0NIMl1PW0NIMl1bQ0gyXU4xW0NAQF0oW0NIM10pKFtDSDJdW0NIM10pW0NIMl1bTkhdQyg9TylbQ0gyXWMyYyhbQ0gzXSluYyhbQ0gzXSlbbkhdYzI9Tw==

> <s_epik_cmdline>
J2VwaWtfcHl0aG9uJywgJy1waCcsICc3LjAnLCAnLXRuJywgJzgnLCAnLW1hJywgJzIwMCcsICctbWV0YWxfYmluZGluZycsICctaW1hZScsICc8aW5maWxlLm1hZT4nLCAnLW9tYWUnLCAnPG91dGZpbGUubWFlPic=

> <r_lp_tautomer_probability>
0.839158

> <r_epik_Ionization_Penalty>
0.328652

> <r_epik_Ionization_Penalty_Charging>
0.000364731

> <r_epik_Ionization_Penalty_Neutral>
0.328288

> <r_epik_State_Penalty>
0.414451

> <r_epik_Charging_Adjusted_Penalty>
0.414816

> <i_epik_Tot_Q>
0

> <i_epik_Tot_abs_Q>
0

> <r_epik_Metal_State_Penalty>
0.592978

> <b_epik_Metal_Only>
0

> <s_lp_Force_Field>
OPLS_2005

> <r_lp_Energy>
44.0338

> <b_lp_Chiralities_Consistent>
1

> <s_lp_Variant>
AV-unprocessed.smi:1492-2

> <Gold.Version>
5.8.1

> <Gold.Id.Protein>
6NUR|6NUR_protein|mol2

> <Gold.PLP.Fitness>
35.0861

> <Gold.PLP.PLP>
-30.8612

> <Gold.PLP.part.hbond>
-3.8797

> <Gold.PLP.part.metal>
0.0000

> <Gold.PLP.part.buried>
-3.5583

> <Gold.PLP.part.nonpolar>
-24.6897

> <Gold.PLP.part.repulsive>
0.3411

> <Gold.PLP.ligand.clash>
0.0000

> <Gold.PLP.ligand.torsion>
0.9505

> <Gold.PLP.Chemscore.Hbond>
1.9848

> <Gold.PLP.Chemscore.CHOScore>
0.0000

> <Gold.PLP.Chemscore.Metal>
0.0000

> <Gold.Chemscore.Hbonds>
donor molecule, donor type, donor heavy atom, donor atom, acceptor molecule, acceptor atom, score
      P1  H  6931  6943       L1    18  1.00
      P1  H  6934  6947       L1     8  0.46
      P1  H 10752 10763       L1    22  0.23

> <Gold.PLP.Chemscore.Internal.Correction>
0.1714

> <Gold.Rescore>
     Score         DG    S(hbond)    S(metal)    S(lipo)     H(rot)  DE(clash)    DE(int)     intcor
     11.43     -12.48       1.43        0.00      65.39       2.12       0.01       1.05       ----

> <Gold.Chemscore.Fitness>
11.4259

> <Gold.Chemscore.DG>
-12.4793

> <Gold.Chemscore.ZeroCoef>
-5.4800

> <Gold.Chemscore.Hbond>
1.4265

> <Gold.Chemscore.Metal>
0.0000

> <Gold.Chemscore.Lipo>
65.3880

> <Gold.Chemscore.Internal_Hbond>
0.0000

> <Gold.Chemscore.DEClash>
0.0060

> <Gold.Chemscore.DEInternal>
1.0475

> <Gold.Chemscore.Rot>
2.1155

> <Gold.Chemscore.Internal.Correction>
   9.000000E+99

> <Gold.Chemscore.Hbonds>
donor molecule, donor type, donor heavy atom, donor atom, acceptor molecule, acceptor atom, score
      P1  H  6931  6943       L1    18  0.93
      P1  H  6934  6947       L1     8  0.42
      P1  H 10752 10763       L1    22  0.02

> <Gold.Chemscore.Hbond.Weighted>
-4.7647

> <Gold.Chemscore.Metal.Weighted>
-0.0000

> <Gold.Chemscore.Lipo.Weighted>
-7.6504

> <Gold.Chemscore.Internal_Hbond.Weighted>
0.0000

> <Gold.Chemscore.DEClash.Weighted>
0.0060

> <Gold.Chemscore.DEInternal.Weighted>
1.0475

> <Gold.Chemscore.Rot.Weighted>
5.4157

> <Gold.Chemscore.Internal.Correction.Weighted>
   9.000000E+99

> <Gold.Protein.RotatedTorsions>
[ 6907 6896 6895 6894 ] final  -11.82 input  -60.11 | X-H torsion
[ 7974 7965 7964 7962 ] final  -84.48 input  175.53 | X-H torsion
[ 8008 7997 7996 7995 ] final -173.83 input   59.86 | X-H torsion
[ 10167 10162 10161 10158 ] final -156.32 input  -65.29 | X-H torsion
[ 10718 10713 10712 10709 ] final -146.46 input   66.30 | X-H torsion
[ 10763 10752 10751 10750 ] final   92.10 input  -60.55 | X-H torsion
[ 11005 11000 10999 10996 ] final   49.39 input  -57.11 | X-H torsion

> <Gold.Protein.ActiveResidues>
 VAL166  LYS551  ARG553  GLY616  TRP617  ASP618  TYR619  PRO620  LYS621  CYS622 
 ASP623  PHE694  ASN695  SER759  ASP760  ASP761  ALA762  ILE779  LEU786  VAL792 
 PHE793  MET794  SER795  GLU796  ALA797  LYS798  CYS799  TRP800  GLU811  SER814 

> <Gold.Protein.RotatedAtoms>
  151.3802  135.0938  159.9493 H   0  0  0  0  0  0  0  0  0  0  0  0  # atno 6907 bound_to 6896
  152.5110  133.9079  159.7484 H   0  0  0  0  0  0  0  0  0  0  0  0  # atno 6908 bound_to 6896
  150.9511  133.6493  159.2801 H   0  0  0  0  0  0  0  0  0  0  0  0  # atno 6909 bound_to 6896
  145.5061  140.9543  143.1733 H   0  0  0  0  0  0  0  0  0  0  0  0  # atno 7974 bound_to 7965
  155.9624  140.1147  157.0884 H   0  0  0  0  0  0  0  0  0  0  0  0  # atno 8008 bound_to 7997
  154.4135  140.1179  156.5264 H   0  0  0  0  0  0  0  0  0  0  0  0  # atno 8009 bound_to 7997
  155.6703  140.3473  155.4818 H   0  0  0  0  0  0  0  0  0  0  0  0  # atno 8010 bound_to 7997
  139.6860  143.9501  152.2361 H   0  0  0  0  0  0  0  0  0  0  0  0  # atno 10167 bound_to 10162
  156.3951  130.7905  151.2111 H   0  0  0  0  0  0  0  0  0  0  0  0  # atno 10718 bound_to 10713
  153.2154  135.4374  155.0428 H   0  0  0  0  0  0  0  0  0  0  0  0  # atno 10763 bound_to 10752
  154.8222  135.3343  154.7006 H   0  0  0  0  0  0  0  0  0  0  0  0  # atno 10764 bound_to 10752
  153.7441  135.7003  153.5016 H   0  0  0  0  0  0  0  0  0  0  0  0  # atno 10765 bound_to 10752
  140.1108  134.4958  155.8680 H   0  0  0  0  0  0  0  0  0  0  0  0  # atno 11005 bound_to 11000
  144.7753  139.6643  143.7177 LP  0  0  0  0  0  0  0  0  0  0  0  0  # atno 17320 bound_to 7965
  146.2196  139.5611  142.9627 LP  0  0  0  0  0  0  0  0  0  0  0  0  # atno 17321 bound_to 7965
  139.9304  144.6745  150.8369 LP  0  0  0  0  0  0  0  0  0  0  0  0  # atno 17342 bound_to 10162
  140.7668  143.3313  151.2405 LP  0  0  0  0  0  0  0  0  0  0  0  0  # atno 17343 bound_to 10162
  157.7501  131.0303  150.4134 LP  0  0  0  0  0  0  0  0  0  0  0  0  # atno 17370 bound_to 10713
  156.4402  130.3990  149.6702 LP  0  0  0  0  0  0  0  0  0  0  0  0  # atno 17371 bound_to 10713
  141.2129  133.6726  156.6700 LP  0  0  0  0  0  0  0  0  0  0  0  0  # atno 17394 bound_to 11000
  140.3094  134.8098  157.4164 LP  0  0  0  0  0  0  0  0  0  0  0  0  # atno 17395 bound_to 11000

$$$$
