#       Name:                AV-unprocessed.smi:460
#       Creating user name   scv26
#       Creation time:       Thu Mar 26 23:02:55 2020


#       File generated by GOLD software.
#

@<TRIPOS>MOLECULE
AV-unprocessed.smi:460
    53    55     1
SMALL
NO_CHARGES


@<TRIPOS>ATOM
      1 ****        -1.2685   4.0118  -0.2847 C.3            1 S1                 0.0000
      2 ****        -2.0495   2.7009  -0.4487 C.3            1 S1                 0.0000
      3 ****        -1.6578   1.9076  -1.7101 C.3            1 S1                 0.0000
      4 ****        -2.0705   2.6280  -2.8548 O.3            1 S1                 0.0000
      5 ****        -2.2296   0.5147  -1.6901 C.2            1 S1                 0.0000
      6 ****        -3.5343   0.2937  -1.8680 N.2            1 S1                 0.0000
      7 ****        -3.6329  -1.0782  -1.7576 C.ar           1 S1                 0.0000
      8 ****        -4.7594  -1.9268  -1.8492 C.ar           1 S1                 0.0000
      9 ****        -4.6167  -3.3214  -1.6974 C.ar           1 S1                 0.0000
     10 ****        -3.3485  -3.8857  -1.4510 C.ar           1 S1                 0.0000
     11 ****        -2.2133  -3.0577  -1.3562 C.ar           1 S1                 0.0000
     12 ****        -2.3604  -1.6655  -1.5107 C.ar           1 S1                 0.0000
     13 ****        -1.4714  -0.5942  -1.4789 N.pl3          1 S1                 0.0000
     14 ****        -0.0344  -0.6886  -1.2625 C.3            1 S1                 0.0000
     15 ****         0.3557  -0.3270   0.1759 C.3            1 S1                 0.0000
     16 ****         1.7605  -0.4812   0.3151 O.3            1 S1                 0.0000
     17 ****         2.3371  -0.1874   1.5339 C.ar           1 S1                 0.0000
     18 ****         1.6031   0.2557   2.6638 C.ar           1 S1                 0.0000
     19 ****         2.2583   0.5367   3.8763 C.ar           1 S1                 0.0000
     20 ****         3.6508   0.3790   3.9746 C.ar           1 S1                 0.0000
     21 ****         4.3890  -0.0594   2.8605 C.ar           1 S1                 0.0000
     22 ****         3.7393  -0.3462   1.6329 C.ar           1 S1                 0.0000
     23 ****         4.4009  -0.7811   0.5025 O.3            1 S1                 0.0000
     24 ****         5.8098  -0.9470   0.5683 C.3            1 S1                 0.0000
     25 ****        -1.5534   4.5181   0.6378 H              1 S1                 0.0000
     26 ****        -1.4614   4.6969  -1.1105 H              1 S1                 0.0000
     27 ****        -0.1945   3.8275  -0.2438 H              1 S1                 0.0000
     28 ****        -1.8600   2.0874   0.4328 H              1 S1                 0.0000
     29 ****        -3.1217   2.9021  -0.4486 H              1 S1                 0.0000
     30 ****        -0.5722   1.8557  -1.7607 H              1 S1                 0.0000
     31 ****        -1.6719   3.4841  -2.8292 H              1 S1                 0.0000
     32 ****        -5.7350  -1.5032  -2.0369 H              1 S1                 0.0000
     33 ****        -5.4841  -3.9610  -1.7702 H              1 S1                 0.0000
     34 ****        -3.2475  -4.9551  -1.3358 H              1 S1                 0.0000
     35 ****        -1.2421  -3.4902  -1.1672 H              1 S1                 0.0000
     36 ****         0.2864  -1.7069  -1.4835 H              1 S1                 0.0000
     37 ****         0.4830  -0.0539  -1.9817 H              1 S1                 0.0000
     38 ****         0.0716   0.7029   0.3921 H              1 S1                 0.0000
     39 ****        -0.1667  -0.9817   0.8756 H              1 S1                 0.0000
     40 ****         0.5327   0.3885   2.6279 H              1 S1                 0.0000
     41 ****         1.6912   0.8731   4.7318 H              1 S1                 0.0000
     42 ****         4.1543   0.5943   4.9057 H              1 S1                 0.0000
     43 ****         5.4566  -0.1684   2.9747 H              1 S1                 0.0000
     44 ****         6.1759  -1.2988  -0.3961 H              1 S1                 0.0000
     45 ****         6.0905  -1.6889   1.3169 H              1 S1                 0.0000
     46 ****         6.3120  -0.0037   0.7868 H              1 S1                 0.0000
     47 ****        -3.0663   2.7193  -2.8553 LP             1 S1                 0.0000
     48 ****        -1.7797   2.1449  -3.6807 LP             1 S1                 0.0000
     49 ****        -4.2612   0.9588  -2.0392 LP             1 S1                 0.0000
     50 ****         2.1915   0.1109  -0.3659 LP             1 S1                 0.0000
     51 ****         1.9745  -1.4362   0.1097 LP             1 S1                 0.0000
     52 ****         4.2145  -0.1185  -0.2229 LP             1 S1                 0.0000
     53 ****         4.0099  -1.6671   0.2531 LP             1 S1                 0.0000
@<TRIPOS>BOND
    1    1    2 1     
    2    1   25 1     
    3    1   26 1     
    4    1   27 1     
    5    2    3 1     
    6    2   28 1     
    7    2   29 1     
    8    3    4 1     
    9    3    5 1     
   10    3   30 1     
   11    4   31 1     
   12    5   13 1     
   13    5    6 2     
   14    6    7 1     
   15    7   12 ar    
   16    7    8 ar    
   17    8    9 ar    
   18    8   32 1     
   19    9   10 ar    
   20    9   33 1     
   21   10   11 ar    
   22   10   34 1     
   23   11   12 ar    
   24   11   35 1     
   25   12   13 1     
   26   13   14 1     
   27   14   15 1     
   28   14   36 1     
   29   14   37 1     
   30   15   16 1     
   31   15   38 1     
   32   15   39 1     
   33   16   17 1     
   34   17   22 ar    
   35   17   18 ar    
   36   18   19 ar    
   37   18   40 1     
   38   19   20 ar    
   39   19   41 1     
   40   20   21 ar    
   41   20   42 1     
   42   21   22 ar    
   43   21   43 1     
   44   22   23 1     
   45   23   24 1     
   46   24   44 1     
   47   24   45 1     
   48   24   46 1     
   49    4   47 1     
   50    4   48 1     
   51    6   49 1     
   52   16   50 1     
   53   16   51 1     
   54   23   52 1     
   55   23   53 1     
@<TRIPOS>SUBSTRUCTURE
      1 S1             1
@<TRIPOS>SET
LONE_PAIRS      STATIC     ATOMS    <user>   **** ""
7 47 48 49 50 51 52 53
DONOR_HYDROGENS      STATIC     ATOMS    <user>   **** ""
1 31
ATOM$BLUE        STATIC     ATOMS    COLORGROUP SYSTEM
7 47 48 49 50 51 52 53
ATOM$RED        STATIC     ATOMS    COLORGROUP SYSTEM
1 31
