AV-unprocessed.smi:157|AV-procd|sdf|1316|dock1
  -GOLD-   2262019 03D 1   1.00000     0.00000
 Structure written by MMmdl.
 36 38  0  0  0  0  0  0  0  0  2 V2000
  143.9516  132.1450  148.4634 O   0  0  0  0  0  0  0  0  0  0  0  0
  145.1415  131.8607  149.1675 C   0  0  0  0  0  0  0  0  0  0  0  0
  145.1251  132.5398  150.5461 C   0  0  2  0  0  0  0  0  0  0  0  0
  144.5856  133.8577  150.4200 O   0  0  0  0  0  0  0  0  0  0  0  0
  145.4638  134.7845  150.9796 C   0  0  1  0  0  0  0  0  0  0  0  0
  144.6783  135.8310  151.6987 N   0  0  0  0  0  0  0  0  0  0  0  0
  144.9238  137.1584  151.7118 C   0  0  0  0  0  0  0  0  0  0  0  0
  144.0620  137.8637  152.4253 N   0  3  0  0  0  0  0  0  0  0  0  0
  143.1502  136.9651  152.9377 C   0  0  0  0  0  0  0  0  0  0  0  0
  143.5539  135.7080  152.4807 C   0  0  0  0  0  0  0  0  0  0  0  0
  142.9836  134.4445  152.6988 N   0  0  0  0  0  0  0  0  0  0  0  0
  142.1173  134.2157  153.6315 C   0  0  0  0  0  0  0  0  0  0  0  0
  141.5214  135.1074  154.5075 N   0  0  0  0  0  0  0  0  0  0  0  0
  140.9579  136.3776  154.0856 C   0  0  0  0  0  0  0  0  0  0  0  0
  142.0125  137.4497  153.7809 C   0  0  1  0  0  0  0  0  0  0  0  0
  142.4444  138.0172  155.0002 O   0  0  0  0  0  0  0  0  0  0  0  0
  146.3403  134.0119  151.9530 C   0  0  0  0  0  0  0  0  0  0  0  0
  146.5121  132.7197  151.1861 C   0  0  1  0  0  0  0  0  0  0  0  0
  146.8527  131.6621  152.0585 O   0  0  0  0  0  0  0  0  0  0  0  0
  144.4618  132.0002  151.2246 H   0  0  0  0  0  0  0  0  0  0  0  0
  146.0214  135.3053  150.2000 H   0  0  0  0  0  0  0  0  0  0  0  0
  141.5166  138.2536  153.2354 H   0  0  0  0  0  0  0  0  0  0  0  0
  147.2832  132.8406  150.4236 H   0  0  0  0  0  0  0  0  0  0  0  0
  143.3542  132.5877  149.0470 H   0  0  0  0  0  0  0  0  0  0  0  0
  145.2664  130.7817  149.2625 H   0  0  0  0  0  0  0  0  0  0  0  0
  145.9808  132.2311  148.5781 H   0  0  0  0  0  0  0  0  0  0  0  0
  145.7498  137.6012  151.1842 H   0  0  0  0  0  0  0  0  0  0  0  0
  141.7684  133.1939  153.7881 H   0  0  0  0  0  0  0  0  0  0  0  0
  141.0404  134.7407  155.3166 H   0  0  0  0  0  0  0  0  0  0  0  0
  140.3728  136.1909  153.1838 H   0  0  0  0  0  0  0  0  0  0  0  0
  140.2511  136.7330  154.8363 H   0  0  0  0  0  0  0  0  0  0  0  0
  143.3316  138.3244  154.8965 H   0  0  0  0  0  0  0  0  0  0  0  0
  147.2727  134.5393  152.1570 H   0  0  0  0  0  0  0  0  0  0  0  0
  145.7976  133.8516  152.8867 H   0  0  0  0  0  0  0  0  0  0  0  0
  147.4792  131.1024  151.6264 H   0  0  0  0  0  0  0  0  0  0  0  0
  144.0700  138.8671  152.5580 H   0  0  0  0  0  0  0  0  0  0  0  0
  1  2  1  0  0  0  0
  1 24  1  0  0  0  0
  2  3  1  0  0  0  0
  2 25  1  0  0  0  0
  2 26  1  0  0  0  0
  3 20  1  0  0  0  0
  3 18  1  0  0  0  0
  3  4  1  0  0  0  0
  4  5  1  0  0  0  0
  5 21  1  0  0  0  0
  5  6  1  0  0  0  0
  5 17  1  0  0  0  0
  6 10  1  0  0  0  0
  6  7  1  0  0  0  0
  7  8  2  0  0  0  0
  7 27  1  0  0  0  0
  8  9  1  0  0  0  0
  8 36  1  0  0  0  0
  9 15  1  0  0  0  0
  9 10  2  0  0  0  0
 10 11  1  0  0  0  0
 11 12  2  0  0  0  0
 12 13  1  0  0  0  0
 12 28  1  0  0  0  0
 13 14  1  0  0  0  0
 13 29  1  0  0  0  0
 14 15  1  0  0  0  0
 14 30  1  0  0  0  0
 14 31  1  0  0  0  0
 15 22  1  0  0  0  0
 15 16  1  0  0  0  0
 16 32  1  0  0  0  0
 17 18  1  0  0  0  0
 17 33  1  0  0  0  0
 17 34  1  0  0  0  0
 18 23  1  0  0  0  0
 18 19  1  0  0  0  0
 19 35  1  0  0  0  0
M  CHG  1   8   1
M  END
> <s_m_source_file>
AV-unprocessed.smi

> <i_m_source_file_index>
157

> <i_lp_mmshare_version>
43012

> <i_f3d_flags>
0

> <s_epik_input>
W09IXVtDSDJdW0NASF0xT1tDQEhdKFtDSDJdW0NAQEhdMVtPSF0pbihbY0hdbjIpYyhjMjMpTj1bQ0hdW05IXVtDSDJdW0NASF0zW09IXQ==

> <s_epik_cmdline>
J2VwaWtfcHl0aG9uJywgJy1waCcsICc3LjAnLCAnLXRuJywgJzgnLCAnLW1hJywgJzIwMCcsICctbWV0YWxfYmluZGluZycsICctaW1hZScsICc8aW5maWxlLm1hZT4nLCAnLW9tYWUnLCAnPG91dGZpbGUubWFlPic=

> <r_epik_Ionization_Penalty>
1.68594

> <r_epik_Ionization_Penalty_Charging>
0

> <r_epik_Ionization_Penalty_Neutral>
1.68594

> <r_epik_State_Penalty>
1.79006

> <r_epik_Charging_Adjusted_Penalty>
1.79006

> <i_epik_Tot_Q>
1

> <i_epik_Tot_abs_Q>
1

> <r_epik_Metal_State_Penalty>
5.85324

> <b_epik_Metal_Only>
0

> <s_epik_Chemistry_Notes>
This compound has an imine and may undergo hydrolysis. This compound contains an acetal/aminal-like group ( X-CH(R)-Y where X, Y are N, S, or O) that may be acid/base labile, releasing an aldehyde.

> <s_lp_Force_Field>
OPLS_2005

> <r_lp_Energy>
52.5264

> <b_lp_Chiralities_Consistent>
1

> <s_lp_Variant>
AV-unprocessed.smi:157-26

> <Gold.Version>
5.8.1

> <Gold.Id.Protein>
6NUR|6NUR_protein|mol2

> <Gold.PLP.Fitness>
46.0097

> <Gold.PLP.PLP>
-33.3852

> <Gold.PLP.part.hbond>
-6.1839

> <Gold.PLP.part.metal>
0.0000

> <Gold.PLP.part.buried>
-0.8975

> <Gold.PLP.part.nonpolar>
-25.8534

> <Gold.PLP.part.repulsive>
0.8766

> <Gold.PLP.ligand.clash>
0.0000

> <Gold.PLP.ligand.torsion>
0.6784

> <Gold.PLP.Chemscore.Hbond>
3.9550

> <Gold.PLP.Chemscore.CHOScore>
0.7012

> <Gold.PLP.Chemscore.Metal>
0.0000

> <Gold.Chemscore.Hbonds>
donor molecule, donor type, donor heavy atom, donor atom, acceptor molecule, acceptor atom, score
      L1  H     8    36       P1 10175  2.00
      L1  H    13    29       P1 11000  1.00
      L1  H    19    35       P1 10747  1.00
      P1  H 10785 10796       L1     1  0.22
      L1  C     7    27       P1 10171  0.05
      L1  C    12    28       P1 10957  0.74

> <Gold.PLP.Chemscore.Internal.Correction>
0.0125

> <Gold.Rescore>
     Score         DG    S(hbond)    S(metal)    S(lipo)     H(rot)  DE(clash)    DE(int)     intcor
      6.95     -11.23       2.81        0.00      49.28       3.67       2.38       1.89       ----

> <Gold.Chemscore.Fitness>
6.9541

> <Gold.Chemscore.DG>
-11.2325

> <Gold.Chemscore.ZeroCoef>
-5.4800

> <Gold.Chemscore.Hbond>
2.8059

> <Gold.Chemscore.Metal>
0.0000

> <Gold.Chemscore.Lipo>
49.2793

> <Gold.Chemscore.Internal_Hbond>
0.0000

> <Gold.Chemscore.DEClash>
2.3839

> <Gold.Chemscore.DEInternal>
1.8945

> <Gold.Chemscore.Rot>
3.6659

> <Gold.Chemscore.Internal.Correction>
   9.000000E+99

> <Gold.Chemscore.Hbonds>
donor molecule, donor type, donor heavy atom, donor atom, acceptor molecule, acceptor atom, score
      L1  H     8    36       P1 10175  0.99
      L1  H    13    29       P1 11000  0.70
      L1  H    19    35       P1 10747  0.88

> <Gold.Chemscore.Hbond.Weighted>
-9.3717

> <Gold.Chemscore.Metal.Weighted>
-0.0000

> <Gold.Chemscore.Lipo.Weighted>
-5.7657

> <Gold.Chemscore.Internal_Hbond.Weighted>
0.0000

> <Gold.Chemscore.DEClash.Weighted>
2.3839

> <Gold.Chemscore.DEInternal.Weighted>
1.8945

> <Gold.Chemscore.Rot.Weighted>
9.3848

> <Gold.Chemscore.Internal.Correction.Weighted>
   9.000000E+99

> <Gold.Protein.RotatedTorsions>
[ 6907 6896 6895 6894 ] final   88.66 input  -60.11 | X-H torsion
[ 7974 7965 7964 7962 ] final    0.13 input  175.53 | X-H torsion
[ 8008 7997 7996 7995 ] final  178.78 input   59.86 | X-H torsion
[ 10167 10162 10161 10158 ] final    5.35 input  -65.29 | X-H torsion
[ 10718 10713 10712 10709 ] final -116.21 input   66.30 | X-H torsion
[ 10763 10752 10751 10750 ] final -129.61 input  -60.55 | X-H torsion
[ 11005 11000 10999 10996 ] final -129.29 input  -57.11 | X-H torsion

> <Gold.Protein.ActiveResidues>
 VAL166  LYS551  ARG553  GLY616  TRP617  ASP618  TYR619  PRO620  LYS621  CYS622 
 ASP623  PHE694  ASN695  SER759  ASP760  ASP761  ALA762  ILE779  LEU786  VAL792 
 PHE793  MET794  SER795  GLU796  ALA797  LYS798  CYS799  TRP800  GLU811  SER814 

> <Gold.Protein.RotatedAtoms>
  152.5428  134.2087  159.8740 H   0  0  0  0  0  0  0  0  0  0  0  0  # atno 6907 bound_to 6896
  151.2071  133.4570  159.2605 H   0  0  0  0  0  0  0  0  0  0  0  0  # atno 6908 bound_to 6896
  151.0933  134.9941  159.8469 H   0  0  0  0  0  0  0  0  0  0  0  0  # atno 6909 bound_to 6896
  146.2432  140.1184  142.8341 H   0  0  0  0  0  0  0  0  0  0  0  0  # atno 7974 bound_to 7965
  156.0508  140.1325  157.0052 H   0  0  0  0  0  0  0  0  0  0  0  0  # atno 8008 bound_to 7997
  154.4434  140.1011  156.6444 H   0  0  0  0  0  0  0  0  0  0  0  0  # atno 8009 bound_to 7997
  155.5526  140.3463  155.4474 H   0  0  0  0  0  0  0  0  0  0  0  0  # atno 8010 bound_to 7997
  140.6486  143.7600  150.7539 H   0  0  0  0  0  0  0  0  0  0  0  0  # atno 10167 bound_to 10162
  156.0948  130.6123  150.9007 H   0  0  0  0  0  0  0  0  0  0  0  0  # atno 10718 bound_to 10713
  154.8757  135.3889  154.3949 H   0  0  0  0  0  0  0  0  0  0  0  0  # atno 10763 bound_to 10752
  153.4680  135.7029  153.6016 H   0  0  0  0  0  0  0  0  0  0  0  0  # atno 10764 bound_to 10752
  153.4485  135.3839  155.2238 H   0  0  0  0  0  0  0  0  0  0  0  0  # atno 10765 bound_to 10752
  140.9444  134.1150  157.4121 H   0  0  0  0  0  0  0  0  0  0  0  0  # atno 11005 bound_to 11000
  145.0427  140.8957  143.5043 LP  0  0  0  0  0  0  0  0  0  0  0  0  # atno 17320 bound_to 7965
  145.1268  139.2658  143.5560 LP  0  0  0  0  0  0  0  0  0  0  0  0  # atno 17321 bound_to 7965
  140.1246  143.4581  152.2292 LP  0  0  0  0  0  0  0  0  0  0  0  0  # atno 17342 bound_to 10162
  139.5699  144.7457  151.3919 LP  0  0  0  0  0  0  0  0  0  0  0  0  # atno 17343 bound_to 10162
  157.6106  131.0936  150.8801 LP  0  0  0  0  0  0  0  0  0  0  0  0  # atno 17370 bound_to 10713
  156.8941  130.5223  149.5285 LP  0  0  0  0  0  0  0  0  0  0  0  0  # atno 17371 bound_to 10713
  139.8829  135.0047  156.6264 LP  0  0  0  0  0  0  0  0  0  0  0  0  # atno 17394 bound_to 11000
  140.7690  133.8754  155.8477 LP  0  0  0  0  0  0  0  0  0  0  0  0  # atno 17395 bound_to 11000

$$$$
