AV-unprocessed.smi:151|AV-procd|sdf|1245|dock7
  -GOLD-   2262018463D 1   1.00000     0.00000
 Structure written by MMmdl.
 56 59  0  0  0  0  0  0  0  0  1 V2000
  152.7663  138.7010  158.9560 C   0  0  0  0  0  0  0  0  0  0  0  0
  153.3774  140.0645  159.3071 C   0  0  0  0  0  0  0  0  0  0  0  0
  152.3377  141.2031  159.4813 C   0  0  1  0  0  0  0  0  0  0  0  0
  152.9113  142.3511  160.3423 C   0  0  0  0  0  0  0  0  0  0  0  0
  151.9876  143.4313  160.4506 O   0  0  0  0  0  0  0  0  0  0  0  0
  151.5596  143.9959  159.2101 C   0  0  0  0  0  0  0  0  0  0  0  0
  150.4714  145.0166  159.5775 C   0  0  0  0  0  0  0  0  0  0  0  0
  152.7167  144.7218  158.4908 C   0  0  0  0  0  0  0  0  0  0  0  0
  150.9545  142.8700  158.3479 C   0  0  0  0  0  0  0  0  0  0  0  0
  151.8860  141.7559  158.1991 N   0  0  0  0  0  0  0  0  0  0  0  0
  151.4415  140.8515  157.2973 C   0  0  0  0  0  0  0  0  0  0  0  0
  152.2992  140.3136  156.3905 N   0  0  0  0  0  0  0  0  0  0  0  0
  151.8483  139.4371  155.4884 C   0  0  0  0  0  0  0  0  0  0  0  0
  150.6065  138.9775  155.3189 N   0  0  0  0  0  0  0  0  0  0  0  0
  149.7440  139.5201  156.2271 C   0  0  0  0  0  0  0  0  0  0  0  0
  150.0799  140.4554  157.2451 C   0  0  0  0  0  0  0  0  0  0  0  0
  148.9516  140.7896  157.9812 N   0  0  0  0  0  0  0  0  0  0  0  0
  147.9976  140.0906  157.4284 C   0  0  0  0  0  0  0  0  0  0  0  0
  148.3821  139.3024  156.3656 N   0  0  0  0  0  0  0  0  0  0  0  0
  147.5324  138.4463  155.5854 C   0  0  0  0  0  0  0  0  0  0  0  0
  148.0003  137.8806  154.2430 C   0  0  0  0  0  0  0  0  0  0  0  0
  146.5826  138.0622  153.6552 C   0  0  0  0  0  0  0  0  0  0  0  0
  146.5332  138.7562  152.2854 C   0  0  0  0  0  0  0  0  0  0  0  0
  147.2768  138.0417  151.3190 O   0  0  0  0  0  0  0  0  0  0  0  0
  145.6945  136.8024  153.5620 C   0  0  0  0  0  0  0  0  0  0  0  0
  146.0939  135.9190  152.5333 O   0  0  0  0  0  0  0  0  0  0  0  0
  146.3065  138.9990  154.8535 C   0  0  0  0  0  0  0  0  0  0  0  0
  153.5498  137.9721  158.7478 H   0  0  0  0  0  0  0  0  0  0  0  0
  152.1349  138.7695  158.0699 H   0  0  0  0  0  0  0  0  0  0  0  0
  152.1646  138.3027  159.7723 H   0  0  0  0  0  0  0  0  0  0  0  0
  153.9788  139.9716  160.2123 H   0  0  0  0  0  0  0  0  0  0  0  0
  154.0755  140.3105  158.5069 H   0  0  0  0  0  0  0  0  0  0  0  0
  151.4627  140.7983  159.9924 H   0  0  0  0  0  0  0  0  0  0  0  0
  153.1142  142.0025  161.3542 H   0  0  0  0  0  0  0  0  0  0  0  0
  153.8632  142.7027  159.9439 H   0  0  0  0  0  0  0  0  0  0  0  0
  150.0570  145.4927  158.6883 H   0  0  0  0  0  0  0  0  0  0  0  0
  150.8692  145.8030  160.2200 H   0  0  0  0  0  0  0  0  0  0  0  0
  149.6482  144.5421  160.1126 H   0  0  0  0  0  0  0  0  0  0  0  0
  152.3558  145.2467  157.6057 H   0  0  0  0  0  0  0  0  0  0  0  0
  153.4951  144.0368  158.1557 H   0  0  0  0  0  0  0  0  0  0  0  0
  153.1836  145.4596  159.1438 H   0  0  0  0  0  0  0  0  0  0  0  0
  150.0381  142.5058  158.8155 H   0  0  0  0  0  0  0  0  0  0  0  0
  150.6758  143.2588  157.3670 H   0  0  0  0  0  0  0  0  0  0  0  0
  152.5868  139.0512  154.8014 H   0  0  0  0  0  0  0  0  0  0  0  0
  146.9783  140.1346  157.7842 H   0  0  0  0  0  0  0  0  0  0  0  0
  147.2313  137.6297  156.2431 H   0  0  0  0  0  0  0  0  0  0  0  0
  148.7444  138.5112  153.7547 H   0  0  0  0  0  0  0  0  0  0  0  0
  148.3431  136.8466  154.2907 H   0  0  0  0  0  0  0  0  0  0  0  0
  145.5069  138.8644  151.9328 H   0  0  0  0  0  0  0  0  0  0  0  0
  146.9473  139.7635  152.3441 H   0  0  0  0  0  0  0  0  0  0  0  0
  147.7335  137.3374  151.7535 H   0  0  0  0  0  0  0  0  0  0  0  0
  145.7119  136.2479  154.5010 H   0  0  0  0  0  0  0  0  0  0  0  0
  144.6536  137.0687  153.3764 H   0  0  0  0  0  0  0  0  0  0  0  0
  147.0344  135.8311  152.5622 H   0  0  0  0  0  0  0  0  0  0  0  0
  145.3626  138.8167  155.3684 H   0  0  0  0  0  0  0  0  0  0  0  0
  146.4040  140.0552  154.6004 H   0  0  0  0  0  0  0  0  0  0  0  0
  1  2  1  0  0  0  0
  1 28  1  0  0  0  0
  1 29  1  0  0  0  0
  1 30  1  0  0  0  0
  2  3  1  0  0  0  0
  2 31  1  0  0  0  0
  2 32  1  0  0  0  0
  3 10  1  0  0  0  0
  3  4  1  0  0  0  0
  3 33  1  0  0  0  0
  4  5  1  0  0  0  0
  4 34  1  0  0  0  0
  4 35  1  0  0  0  0
  5  6  1  0  0  0  0
  6  7  1  0  0  0  0
  6  8  1  0  0  0  0
  6  9  1  0  0  0  0
  7 36  1  0  0  0  0
  7 37  1  0  0  0  0
  7 38  1  0  0  0  0
  8 39  1  0  0  0  0
  8 40  1  0  0  0  0
  8 41  1  0  0  0  0
  9 10  1  0  0  0  0
  9 42  1  0  0  0  0
  9 43  1  0  0  0  0
 10 11  1  0  0  0  0
 11 16  1  0  0  0  0
 11 12  2  0  0  0  0
 12 13  1  0  0  0  0
 13 14  2  0  0  0  0
 13 44  1  0  0  0  0
 14 15  1  0  0  0  0
 15 19  1  0  0  0  0
 15 16  2  0  0  0  0
 16 17  1  0  0  0  0
 17 18  2  0  0  0  0
 18 19  1  0  0  0  0
 18 45  1  0  0  0  0
 19 20  1  0  0  0  0
 20 27  1  0  0  0  0
 20 21  1  0  0  0  0
 20 46  1  0  0  0  0
 21 22  1  0  0  0  0
 21 47  1  0  0  0  0
 21 48  1  0  0  0  0
 22 23  1  0  0  0  0
 22 25  1  0  0  0  0
 22 27  1  0  0  0  0
 23 24  1  0  0  0  0
 23 49  1  0  0  0  0
 23 50  1  0  0  0  0
 24 51  1  0  0  0  0
 25 26  1  0  0  0  0
 25 52  1  0  0  0  0
 25 53  1  0  0  0  0
 26 54  1  0  0  0  0
 27 55  1  0  0  0  0
 27 56  1  0  0  0  0
M  END
> <s_m_source_file>
AV-unprocessed.smi

> <i_m_source_file_index>
151

> <i_lp_mmshare_version>
43012

> <i_f3d_flags>
0

> <s_epik_input>
W0NIM11DMShbQ0gzXSlPW0NIMl1bQ0BASF0oW0NIMl1bQ0gzXSlOKFtDSDJdMSljKG5bY0hdbjIpYyhjMjMpbltjSF1uM1tDSF0oW0NIMl00KVtDSDJdQzQoW0NIMl1bT0hdKVtDSDJdW09IXQ==

> <s_epik_cmdline>
J2VwaWtfcHl0aG9uJywgJy1waCcsICc3LjAnLCAnLXRuJywgJzgnLCAnLW1hJywgJzIwMCcsICctbWV0YWxfYmluZGluZycsICctaW1hZScsICc8aW5maWxlLm1hZT4nLCAnLW9tYWUnLCAnPG91dGZpbGUubWFlPic=

> <r_lp_tautomer_probability>
1

> <r_epik_Ionization_Penalty>
0.000102837

> <r_epik_Ionization_Penalty_Charging>
0

> <r_epik_Ionization_Penalty_Neutral>
0.000102837

> <r_epik_State_Penalty>
-0

> <r_epik_Charging_Adjusted_Penalty>
0

> <i_epik_Tot_Q>
0

> <i_epik_Tot_abs_Q>
0

> <r_epik_Metal_State_Penalty>
-0

> <b_epik_Metal_Only>
0

> <s_lp_Force_Field>
OPLS_2005

> <r_lp_Energy>
49.3626

> <b_lp_Chiralities_Consistent>
1

> <s_lp_Variant>
AV-unprocessed.smi:151-2

> <Gold.Version>
5.8.1

> <Gold.Id.Protein>
6NUR|6NUR_protein|mol2

> <Gold.PLP.Fitness>
50.4747

> <Gold.PLP.PLP>
-41.0354

> <Gold.PLP.part.hbond>
-4.7534

> <Gold.PLP.part.metal>
0.0000

> <Gold.PLP.part.buried>
-5.2454

> <Gold.PLP.part.nonpolar>
-31.7577

> <Gold.PLP.part.repulsive>
0.1359

> <Gold.PLP.ligand.clash>
0.0000

> <Gold.PLP.ligand.torsion>
1.2271

> <Gold.PLP.Chemscore.Hbond>
3.7913

> <Gold.PLP.Chemscore.CHOScore>
0.0000

> <Gold.PLP.Chemscore.Metal>
0.0000

> <Gold.Chemscore.Hbonds>
donor molecule, donor type, donor heavy atom, donor atom, acceptor molecule, acceptor atom, score
      L1  H    24    51       P1  7948  1.00
      L1  H    26    54       P1  7948  0.91
      P1  H  7954  7966       L1    24  0.65
      P1  H  7997  8009       L1    12  0.98

> <Gold.PLP.Chemscore.Internal.Correction>
0.5198

> <Gold.Rescore>
     Score         DG    S(hbond)    S(metal)    S(lipo)     H(rot)  DE(clash)    DE(int)     intcor
     14.24     -18.16       2.82        0.00      99.31       3.26       0.33       3.59       ----

> <Gold.Chemscore.Fitness>
14.2354

> <Gold.Chemscore.DG>
-18.1603

> <Gold.Chemscore.ZeroCoef>
-5.4800

> <Gold.Chemscore.Hbond>
2.8160

> <Gold.Chemscore.Metal>
0.0000

> <Gold.Chemscore.Lipo>
99.3118

> <Gold.Chemscore.Internal_Hbond>
0.0000

> <Gold.Chemscore.DEClash>
0.3305

> <Gold.Chemscore.DEInternal>
3.5944

> <Gold.Chemscore.Rot>
3.2596

> <Gold.Chemscore.Internal.Correction>
   9.000000E+99

> <Gold.Chemscore.Hbonds>
donor molecule, donor type, donor heavy atom, donor atom, acceptor molecule, acceptor atom, score
      L1  H    24    51       P1  7948  0.95
      L1  H    26    54       P1  7948  0.84
      P1  H  7954  7966       L1    24  0.06
      P1  H  7997  8009       L1    12  0.39

> <Gold.Chemscore.Hbond.Weighted>
-9.4055

> <Gold.Chemscore.Metal.Weighted>
-0.0000

> <Gold.Chemscore.Lipo.Weighted>
-11.6195

> <Gold.Chemscore.Internal_Hbond.Weighted>
0.0000

> <Gold.Chemscore.DEClash.Weighted>
0.3305

> <Gold.Chemscore.DEInternal.Weighted>
3.5944

> <Gold.Chemscore.Rot.Weighted>
8.3447

> <Gold.Chemscore.Internal.Correction.Weighted>
   9.000000E+99

> <Gold.Protein.RotatedTorsions>
[ 6907 6896 6895 6894 ] final  -26.14 input  -60.11 | X-H torsion
[ 7974 7965 7964 7962 ] final -128.66 input  175.53 | X-H torsion
[ 8008 7997 7996 7995 ] final -158.22 input   59.86 | X-H torsion
[ 10167 10162 10161 10158 ] final  137.24 input  -65.29 | X-H torsion
[ 10718 10713 10712 10709 ] final -150.92 input   66.30 | X-H torsion
[ 10763 10752 10751 10750 ] final  170.41 input  -60.55 | X-H torsion
[ 11005 11000 10999 10996 ] final  148.03 input  -57.11 | X-H torsion

> <Gold.Protein.ActiveResidues>
 VAL166  LYS551  ARG553  GLY616  TRP617  ASP618  TYR619  PRO620  LYS621  CYS622 
 ASP623  PHE694  ASN695  SER759  ASP760  ASP761  ALA762  ILE779  LEU786  VAL792 
 PHE793  MET794  SER795  GLU796  ALA797  LYS798  CYS799  TRP800  GLU811  SER814 

> <Gold.Protein.RotatedAtoms>
  151.1652  135.0292  159.8727 H   0  0  0  0  0  0  0  0  0  0  0  0  # atno 6907 bound_to 6896
  152.5450  134.1233  159.8418 H   0  0  0  0  0  0  0  0  0  0  0  0  # atno 6908 bound_to 6896
  151.1333  133.4975  159.2631 H   0  0  0  0  0  0  0  0  0  0  0  0  # atno 6909 bound_to 6896
  144.9648  140.7485  143.4706 H   0  0  0  0  0  0  0  0  0  0  0  0  # atno 7974 bound_to 7965
  155.7443  140.0818  157.2231 H   0  0  0  0  0  0  0  0  0  0  0  0  # atno 8008 bound_to 7997
  154.4018  140.1572  156.2707 H   0  0  0  0  0  0  0  0  0  0  0  0  # atno 8009 bound_to 7997
  155.8991  140.3411  155.6016 H   0  0  0  0  0  0  0  0  0  0  0  0  # atno 8010 bound_to 7997
  139.5151  144.6421  151.5541 H   0  0  0  0  0  0  0  0  0  0  0  0  # atno 10167 bound_to 10162
  156.4524  130.8174  151.2405 H   0  0  0  0  0  0  0  0  0  0  0  0  # atno 10718 bound_to 10713
  154.3972  135.2754  155.2119 H   0  0  0  0  0  0  0  0  0  0  0  0  # atno 10763 bound_to 10752
  154.4160  135.6011  153.5984 H   0  0  0  0  0  0  0  0  0  0  0  0  # atno 10764 bound_to 10752
  152.9831  135.5961  154.4235 H   0  0  0  0  0  0  0  0  0  0  0  0  # atno 10765 bound_to 10752
  140.0925  134.9032  157.1673 H   0  0  0  0  0  0  0  0  0  0  0  0  # atno 11005 bound_to 11000
  145.2645  139.1979  143.4874 LP  0  0  0  0  0  0  0  0  0  0  0  0  # atno 17320 bound_to 7965
  146.3364  140.2581  142.8601 LP  0  0  0  0  0  0  0  0  0  0  0  0  # atno 17321 bound_to 7965
  140.6191  143.9292  150.6512 LP  0  0  0  0  0  0  0  0  0  0  0  0  # atno 17342 bound_to 10162
  140.2560  143.3558  152.1364 LP  0  0  0  0  0  0  0  0  0  0  0  0  # atno 17343 bound_to 10162
  157.7502  131.0133  150.3421 LP  0  0  0  0  0  0  0  0  0  0  0  0  # atno 17370 bound_to 10713
  156.3802  130.3879  149.7107 LP  0  0  0  0  0  0  0  0  0  0  0  0  # atno 17371 bound_to 10713
  140.3332  134.2786  155.7224 LP  0  0  0  0  0  0  0  0  0  0  0  0  # atno 17394 bound_to 11000
  141.2082  133.7784  157.0072 LP  0  0  0  0  0  0  0  0  0  0  0  0  # atno 17395 bound_to 11000

$$$$
