AV-unprocessed.smi:2235|AV-procd|sdf|9044|dock10
  -GOLD-   2272012253D 1   1.00000     0.00000
 Structure written by MMmdl.
 36 37  0  0  0  0  0  0  0  0  1 V2000
  151.8848  141.0593  157.2910 O   0  0  0  0  0  0  0  0  0  0  0  0
  151.0249  141.8191  156.8452 C   0  0  0  0  0  0  0  0  0  0  0  0
  149.9355  141.2808  155.9172 C   0  0  0  0  0  0  0  0  0  0  0  0
  150.2363  139.9274  155.4863 N   0  0  0  0  0  0  0  0  0  0  0  0
  150.4455  138.8073  156.2632 C   0  0  0  0  0  0  0  0  0  0  0  0
  150.6968  137.7622  155.4197 C   0  0  0  0  0  0  0  0  0  0  0  0
  150.9879  136.3267  155.7600 C   0  0  0  0  0  0  0  0  0  0  0  0
  150.2445  135.3620  154.8263 C   0  0  0  0  0  0  0  0  0  0  0  0
  148.9000  135.7680  154.6875 O   0  0  0  0  0  0  0  0  0  0  0  0
  150.6169  138.3544  154.1272 C   0  0  0  0  0  0  0  0  0  0  0  0
  150.3418  139.6478  154.1694 N   0  0  0  0  0  0  0  0  0  0  0  0
  150.9786  143.1307  157.1249 N   0  0  0  0  0  0  0  0  0  0  0  0
  151.9211  143.8387  157.9864 C   0  0  0  0  0  0  0  0  0  0  0  0
  152.0940  143.0957  159.3232 C   0  0  0  0  0  0  0  0  0  0  0  0
  151.3604  143.9372  160.3674 C   0  0  0  0  0  0  0  0  0  0  0  0
  151.5174  145.3693  159.8662 C   0  0  0  0  0  0  0  0  0  0  0  0
  151.4170  145.2530  158.3441 C   0  0  0  0  0  0  0  0  0  0  0  0
  148.9681  141.3005  156.4218 H   0  0  0  0  0  0  0  0  0  0  0  0
  149.8492  141.9172  155.0354 H   0  0  0  0  0  0  0  0  0  0  0  0
  150.3979  138.8470  157.3416 H   0  0  0  0  0  0  0  0  0  0  0  0
  152.0594  136.1322  155.7002 H   0  0  0  0  0  0  0  0  0  0  0  0
  150.7057  136.1158  156.7924 H   0  0  0  0  0  0  0  0  0  0  0  0
  150.7120  135.3412  153.8414 H   0  0  0  0  0  0  0  0  0  0  0  0
  150.2690  134.3460  155.2219 H   0  0  0  0  0  0  0  0  0  0  0  0
  148.6815  135.7753  153.7681 H   0  0  0  0  0  0  0  0  0  0  0  0
  150.7506  137.8839  153.1643 H   0  0  0  0  0  0  0  0  0  0  0  0
  150.2333  143.6762  156.7159 H   0  0  0  0  0  0  0  0  0  0  0  0
  152.8910  143.8972  157.4888 H   0  0  0  0  0  0  0  0  0  0  0  0
  151.7351  142.0659  159.2981 H   0  0  0  0  0  0  0  0  0  0  0  0
  153.1543  143.0578  159.5774 H   0  0  0  0  0  0  0  0  0  0  0  0
  150.3038  143.6665  160.3828 H   0  0  0  0  0  0  0  0  0  0  0  0
  151.7565  143.7973  161.3736 H   0  0  0  0  0  0  0  0  0  0  0  0
  150.7721  146.0457  160.2851 H   0  0  0  0  0  0  0  0  0  0  0  0
  152.5030  145.7471  160.1416 H   0  0  0  0  0  0  0  0  0  0  0  0
  151.9898  146.0315  157.8393 H   0  0  0  0  0  0  0  0  0  0  0  0
  150.3747  145.3785  158.0463 H   0  0  0  0  0  0  0  0  0  0  0  0
  1  2  2  0  0  0  0
  2  3  1  0  0  0  0
  2 12  1  0  0  0  0
  3  4  1  0  0  0  0
  3 18  1  0  0  0  0
  3 19  1  0  0  0  0
  4 11  1  0  0  0  0
  4  5  1  0  0  0  0
  5  6  2  0  0  0  0
  5 20  1  0  0  0  0
  6  7  1  0  0  0  0
  6 10  1  0  0  0  0
  7  8  1  0  0  0  0
  7 21  1  0  0  0  0
  7 22  1  0  0  0  0
  8  9  1  0  0  0  0
  8 23  1  0  0  0  0
  8 24  1  0  0  0  0
  9 25  1  0  0  0  0
 10 11  2  0  0  0  0
 10 26  1  0  0  0  0
 12 13  1  0  0  0  0
 12 27  1  0  0  0  0
 13 17  1  0  0  0  0
 13 14  1  0  0  0  0
 13 28  1  0  0  0  0
 14 15  1  0  0  0  0
 14 29  1  0  0  0  0
 14 30  1  0  0  0  0
 15 16  1  0  0  0  0
 15 31  1  0  0  0  0
 15 32  1  0  0  0  0
 16 17  1  0  0  0  0
 16 33  1  0  0  0  0
 16 34  1  0  0  0  0
 17 35  1  0  0  0  0
 17 36  1  0  0  0  0
M  END
> <s_m_source_file>
AV-unprocessed.smi

> <i_m_source_file_index>
2235

> <i_lp_mmshare_version>
43012

> <i_f3d_flags>
0

> <s_epik_input>
W0NIMl0xW0NIMl1bQ0gyXVtDSDJdW0NIXTFbTkhdQyg9TylbQ0gyXW4yW2NIXWMoW2NIXW4yKVtDSDJdW0NIMl1bT0hd

> <s_epik_cmdline>
J2VwaWtfcHl0aG9uJywgJy1waCcsICc3LjAnLCAnLXRuJywgJzgnLCAnLW1hJywgJzIwMCcsICctbWV0YWxfYmluZGluZycsICctaW1hZScsICc8aW5maWxlLm1hZT4nLCAnLW9tYWUnLCAnPG91dGZpbGUubWFlPic=

> <r_lp_tautomer_probability>
1

> <r_epik_Ionization_Penalty>
3.35381e-05

> <r_epik_Ionization_Penalty_Charging>
0

> <r_epik_Ionization_Penalty_Neutral>
3.35381e-05

> <r_epik_State_Penalty>
-0

> <r_epik_Charging_Adjusted_Penalty>
0

> <i_epik_Tot_Q>
0

> <i_epik_Tot_abs_Q>
0

> <r_epik_Metal_State_Penalty>
-0

> <b_epik_Metal_Only>
0

> <s_lp_Force_Field>
OPLS_2005

> <r_lp_Energy>
18.0157

> <b_lp_Chiralities_Consistent>
1

> <s_lp_Variant>
AV-unprocessed.smi:2235-1

> <Gold.Version>
5.8.1

> <Gold.Id.Protein>
6NUR|6NUR_protein|mol2

> <Gold.PLP.Fitness>
46.3282

> <Gold.PLP.PLP>
-35.2560

> <Gold.PLP.part.hbond>
-3.0000

> <Gold.PLP.part.metal>
0.0000

> <Gold.PLP.part.buried>
-4.2619

> <Gold.PLP.part.nonpolar>
-27.7781

> <Gold.PLP.part.repulsive>
0.4457

> <Gold.PLP.ligand.clash>
0.0000

> <Gold.PLP.ligand.torsion>
0.5204

> <Gold.PLP.Chemscore.Hbond>
3.0000

> <Gold.PLP.Chemscore.CHOScore>
1.0255

> <Gold.PLP.Chemscore.Metal>
0.0000

> <Gold.Chemscore.Hbonds>
donor molecule, donor type, donor heavy atom, donor atom, acceptor molecule, acceptor atom, score
      L1  H     9    25       P1  7948  1.00
      L1  H    12    27       P1  8028  1.00
      P1  H  7989  7998       L1    11  1.00
      L1  C    10    26       P1  7948  0.25
      L1  C    10    26       P1  7949  0.74

> <Gold.PLP.Chemscore.Internal.Correction>
0.0364

> <Gold.Rescore>
     Score         DG    S(hbond)    S(metal)    S(lipo)     H(rot)  DE(clash)    DE(int)     intcor
     16.58     -19.22       2.84        0.00      90.18       2.46       0.03       2.61       ----

> <Gold.Chemscore.Fitness>
16.5803

> <Gold.Chemscore.DG>
-19.2176

> <Gold.Chemscore.ZeroCoef>
-5.4800

> <Gold.Chemscore.Hbond>
2.8382

> <Gold.Chemscore.Metal>
0.0000

> <Gold.Chemscore.Lipo>
90.1783

> <Gold.Chemscore.Internal_Hbond>
0.0000

> <Gold.Chemscore.DEClash>
0.0323

> <Gold.Chemscore.DEInternal>
2.6051

> <Gold.Chemscore.Rot>
2.4581

> <Gold.Chemscore.Internal.Correction>
   9.000000E+99

> <Gold.Chemscore.Hbonds>
donor molecule, donor type, donor heavy atom, donor atom, acceptor molecule, acceptor atom, score
      L1  H     9    25       P1  7948  0.96
      L1  H    12    27       P1  8028  0.97
      P1  H  7989  7998       L1    11  0.52

> <Gold.Chemscore.Hbond.Weighted>
-9.4796

> <Gold.Chemscore.Metal.Weighted>
-0.0000

> <Gold.Chemscore.Lipo.Weighted>
-10.5509

> <Gold.Chemscore.Internal_Hbond.Weighted>
0.0000

> <Gold.Chemscore.DEClash.Weighted>
0.0323

> <Gold.Chemscore.DEInternal.Weighted>
2.6051

> <Gold.Chemscore.Rot.Weighted>
6.2928

> <Gold.Chemscore.Internal.Correction.Weighted>
   9.000000E+99

> <Gold.Protein.RotatedTorsions>
[ 6907 6896 6895 6894 ] final  106.47 input  -60.11 | X-H torsion
[ 7974 7965 7964 7962 ] final   36.42 input  175.53 | X-H torsion
[ 8008 7997 7996 7995 ] final   77.62 input   59.86 | X-H torsion
[ 10167 10162 10161 10158 ] final -128.57 input  -65.29 | X-H torsion
[ 10718 10713 10712 10709 ] final -144.70 input   66.30 | X-H torsion
[ 10763 10752 10751 10750 ] final -157.35 input  -60.55 | X-H torsion
[ 11005 11000 10999 10996 ] final -129.82 input  -57.11 | X-H torsion

> <Gold.Protein.ActiveResidues>
 VAL166  LYS551  ARG553  GLY616  TRP617  ASP618  TYR619  PRO620  LYS621  CYS622 
 ASP623  PHE694  ASN695  SER759  ASP760  ASP761  ALA762  ILE779  LEU786  VAL792 
 PHE793  MET794  SER795  GLU796  ALA797  LYS798  CYS799  TRP800  GLU811  SER814 

> <Gold.Protein.RotatedAtoms>
  152.5192  133.9377  159.7610 H   0  0  0  0  0  0  0  0  0  0  0  0  # atno 6907 bound_to 6896
  150.9714  133.6332  159.2744 H   0  0  0  0  0  0  0  0  0  0  0  0  # atno 6908 bound_to 6896
  151.3542  135.0896  159.9466 H   0  0  0  0  0  0  0  0  0  0  0  0  # atno 6909 bound_to 6896
  146.1212  139.6019  142.9288 H   0  0  0  0  0  0  0  0  0  0  0  0  # atno 7974 bound_to 7965
  155.8442  140.3461  155.5651 H   0  0  0  0  0  0  0  0  0  0  0  0  # atno 8008 bound_to 7997
  155.8108  140.0898  157.1924 H   0  0  0  0  0  0  0  0  0  0  0  0  # atno 8009 bound_to 7997
  154.4006  140.1448  156.3372 H   0  0  0  0  0  0  0  0  0  0  0  0  # atno 8010 bound_to 7997
  139.9489  143.6078  152.2481 H   0  0  0  0  0  0  0  0  0  0  0  0  # atno 10167 bound_to 10162
  156.3734  130.7800  151.1983 H   0  0  0  0  0  0  0  0  0  0  0  0  # atno 10718 bound_to 10713
  154.7642  135.3126  154.8318 H   0  0  0  0  0  0  0  0  0  0  0  0  # atno 10763 bound_to 10752
  153.9070  135.6810  153.4757 H   0  0  0  0  0  0  0  0  0  0  0  0  # atno 10764 bound_to 10752
  153.1247  135.4807  154.9184 H   0  0  0  0  0  0  0  0  0  0  0  0  # atno 10765 bound_to 10752
  140.9399  134.1207  157.4160 H   0  0  0  0  0  0  0  0  0  0  0  0  # atno 11005 bound_to 11000
  145.5462  141.0417  143.2304 LP  0  0  0  0  0  0  0  0  0  0  0  0  # atno 17320 bound_to 7965
  144.7599  139.6982  143.7238 LP  0  0  0  0  0  0  0  0  0  0  0  0  # atno 17321 bound_to 7965
  139.6644  144.7662  151.1900 LP  0  0  0  0  0  0  0  0  0  0  0  0  # atno 17342 bound_to 10162
  140.7589  143.5960  150.8748 LP  0  0  0  0  0  0  0  0  0  0  0  0  # atno 17343 bound_to 10162
  157.7486  131.0365  150.4414 LP  0  0  0  0  0  0  0  0  0  0  0  0  # atno 17370 bound_to 10713
  156.4645  130.4039  149.6555 LP  0  0  0  0  0  0  0  0  0  0  0  0  # atno 17371 bound_to 10713
  139.8817  135.0033  156.6179 LP  0  0  0  0  0  0  0  0  0  0  0  0  # atno 17394 bound_to 11000
  140.7748  133.8708  155.8521 LP  0  0  0  0  0  0  0  0  0  0  0  0  # atno 17395 bound_to 11000

$$$$
