AV-unprocessed.smi:1054|AV-procd|sdf|4623|dock6
  -GOLD-   22720 3123D 1   1.00000     0.00000
 Structure written by MMmdl.
 35 36  0  0  0  0  0  0  0  0  1 V2000
  150.1504  140.9618  157.9064 O   0  0  0  0  0  0  0  0  0  0  0  0
  149.9812  141.9780  157.2324 C   0  0  0  0  0  0  0  0  0  0  0  0
  150.3698  143.2153  157.5875 N   0  0  0  0  0  0  0  0  0  0  0  0
  151.0354  143.6218  158.7747 C   0  0  0  0  0  0  0  0  0  0  0  0
  151.1458  145.0200  158.9488 C   0  0  0  0  0  0  0  0  0  0  0  0
  151.7894  145.5272  160.0942 C   0  0  0  0  0  0  0  0  0  0  0  0
  152.3068  144.6220  161.0376 C   0  0  0  0  0  0  0  0  0  0  0  0
  152.1541  143.2457  160.7888 C   0  0  0  0  0  0  0  0  0  0  0  0
  151.5380  142.7572  159.6914 N   0  0  0  0  0  0  0  0  0  0  0  0
  149.3749  141.9925  156.0329 N   0  0  0  0  0  0  0  0  0  0  0  0
  148.7828  140.8677  155.2924 C   0  0  0  0  0  0  0  0  0  0  0  0
  149.8501  139.7641  155.0455 C   0  0  0  0  0  0  0  0  0  0  0  0
  151.1391  140.3091  154.8425 O   0  0  0  0  0  0  0  0  0  0  0  0
  147.5992  140.3446  156.1439 C   0  0  0  0  0  0  0  0  0  0  0  0
  146.6823  139.3834  155.3683 C   0  0  0  0  0  0  0  0  0  0  0  0
  146.1942  140.0208  154.1962 O   0  0  0  0  0  0  0  0  0  0  0  0
  147.2340  140.3724  153.2939 C   0  0  0  0  0  0  0  0  0  0  0  0
  148.1931  141.3808  153.9520 C   0  0  0  0  0  0  0  0  0  0  0  0
  150.1617  143.9543  156.9329 H   0  0  0  0  0  0  0  0  0  0  0  0
  150.7426  145.7015  158.2137 H   0  0  0  0  0  0  0  0  0  0  0  0
  151.8842  146.5925  160.2449 H   0  0  0  0  0  0  0  0  0  0  0  0
  152.8075  144.9726  161.9280 H   0  0  0  0  0  0  0  0  0  0  0  0
  152.5365  142.5174  161.4886 H   0  0  0  0  0  0  0  0  0  0  0  0
  149.2943  142.8912  155.5807 H   0  0  0  0  0  0  0  0  0  0  0  0
  149.9111  139.0805  155.8913 H   0  0  0  0  0  0  0  0  0  0  0  0
  149.5945  139.1491  154.1828 H   0  0  0  0  0  0  0  0  0  0  0  0
  151.7577  139.8146  155.3578 H   0  0  0  0  0  0  0  0  0  0  0  0
  147.9538  139.8642  157.0563 H   0  0  0  0  0  0  0  0  0  0  0  0
  146.9915  141.1892  156.4732 H   0  0  0  0  0  0  0  0  0  0  0  0
  147.2005  138.4591  155.1100 H   0  0  0  0  0  0  0  0  0  0  0  0
  145.8319  139.1016  155.9891 H   0  0  0  0  0  0  0  0  0  0  0  0
  147.7633  139.4781  152.9634 H   0  0  0  0  0  0  0  0  0  0  0  0
  146.7868  140.8148  152.4037 H   0  0  0  0  0  0  0  0  0  0  0  0
  147.6400  142.3047  154.1288 H   0  0  0  0  0  0  0  0  0  0  0  0
  148.9856  141.6329  153.2473 H   0  0  0  0  0  0  0  0  0  0  0  0
  1  2  2  0  0  0  0
  2  3  1  0  0  0  0
  2 10  1  0  0  0  0
  3  4  1  0  0  0  0
  3 19  1  0  0  0  0
  4  9  1  0  0  0  0
  4  5  2  0  0  0  0
  5  6  1  0  0  0  0
  5 20  1  0  0  0  0
  6  7  2  0  0  0  0
  6 21  1  0  0  0  0
  7  8  1  0  0  0  0
  7 22  1  0  0  0  0
  8  9  2  0  0  0  0
  8 23  1  0  0  0  0
 10 11  1  0  0  0  0
 10 24  1  0  0  0  0
 11 18  1  0  0  0  0
 11 12  1  0  0  0  0
 11 14  1  0  0  0  0
 12 13  1  0  0  0  0
 12 25  1  0  0  0  0
 12 26  1  0  0  0  0
 13 27  1  0  0  0  0
 14 15  1  0  0  0  0
 14 28  1  0  0  0  0
 14 29  1  0  0  0  0
 15 16  1  0  0  0  0
 15 30  1  0  0  0  0
 15 31  1  0  0  0  0
 16 17  1  0  0  0  0
 17 18  1  0  0  0  0
 17 32  1  0  0  0  0
 17 33  1  0  0  0  0
 18 34  1  0  0  0  0
 18 35  1  0  0  0  0
M  END
> <s_m_source_file>
AV-unprocessed.smi

> <i_m_source_file_index>
1054

> <i_lp_mmshare_version>
43012

> <i_f3d_flags>
0

> <s_epik_input>
W0NIMl0xW0NIMl1PW0NIMl1bQ0gyXUMxKFtDSDJdW09IXSlbTkhdQyg9TylbTkhdYzJbY0hdW2NIXVtjSF1bY0hdbjI=

> <s_epik_cmdline>
J2VwaWtfcHl0aG9uJywgJy1waCcsICc3LjAnLCAnLXRuJywgJzgnLCAnLW1hJywgJzIwMCcsICctbWV0YWxfYmluZGluZycsICctaW1hZScsICc8aW5maWxlLm1hZT4nLCAnLW9tYWUnLCAnPG91dGZpbGUubWFlPic=

> <r_lp_tautomer_probability>
1

> <r_epik_Ionization_Penalty>
4.33411e-05

> <r_epik_Ionization_Penalty_Charging>
0

> <r_epik_Ionization_Penalty_Neutral>
4.33411e-05

> <r_epik_State_Penalty>
-0

> <r_epik_Charging_Adjusted_Penalty>
0

> <i_epik_Tot_Q>
0

> <i_epik_Tot_abs_Q>
0

> <r_epik_Metal_State_Penalty>
-0

> <b_epik_Metal_Only>
0

> <s_lp_Force_Field>
OPLS_2005

> <r_lp_Energy>
17.545

> <b_lp_Chiralities_Consistent>
1

> <s_lp_Variant>
AV-unprocessed.smi:1054-1

> <Gold.Version>
5.8.1

> <Gold.Id.Protein>
6NUR|6NUR_protein|mol2

> <Gold.PLP.Fitness>
40.4458

> <Gold.PLP.PLP>
-32.4938

> <Gold.PLP.part.hbond>
-2.8834

> <Gold.PLP.part.metal>
0.0000

> <Gold.PLP.part.buried>
-5.6332

> <Gold.PLP.part.nonpolar>
-24.6833

> <Gold.PLP.part.repulsive>
0.6093

> <Gold.PLP.ligand.clash>
0.0000

> <Gold.PLP.ligand.torsion>
0.4930

> <Gold.PLP.Chemscore.Hbond>
2.9760

> <Gold.PLP.Chemscore.CHOScore>
0.0000

> <Gold.PLP.Chemscore.Metal>
0.0000

> <Gold.Chemscore.Hbonds>
donor molecule, donor type, donor heavy atom, donor atom, acceptor molecule, acceptor atom, score
      L1  H     3    19       P1  8028  0.98
      L1  H    10    24       P1  8028  1.00
      P1  H  7989  7998       L1    13  1.00

> <Gold.PLP.Chemscore.Internal.Correction>
0.0100

> <Gold.Rescore>
     Score         DG    S(hbond)    S(metal)    S(lipo)     H(rot)  DE(clash)    DE(int)     intcor
     16.66     -18.54       2.65        0.00      76.95       1.88       0.15       1.74       ----

> <Gold.Chemscore.Fitness>
16.6563

> <Gold.Chemscore.DG>
-18.5421

> <Gold.Chemscore.ZeroCoef>
-5.4800

> <Gold.Chemscore.Hbond>
2.6539

> <Gold.Chemscore.Metal>
0.0000

> <Gold.Chemscore.Lipo>
76.9482

> <Gold.Chemscore.Internal_Hbond>
0.0000

> <Gold.Chemscore.DEClash>
0.1464

> <Gold.Chemscore.DEInternal>
1.7394

> <Gold.Chemscore.Rot>
1.8769

> <Gold.Chemscore.Internal.Correction>
   9.000000E+99

> <Gold.Chemscore.Hbonds>
donor molecule, donor type, donor heavy atom, donor atom, acceptor molecule, acceptor atom, score
      L1  H     3    19       P1  8028  0.89
      L1  H    10    24       P1  8028  0.95
      P1  H  7989  7998       L1    13  0.87

> <Gold.Chemscore.Hbond.Weighted>
-8.8640

> <Gold.Chemscore.Metal.Weighted>
-0.0000

> <Gold.Chemscore.Lipo.Weighted>
-9.0029

> <Gold.Chemscore.Internal_Hbond.Weighted>
0.0000

> <Gold.Chemscore.DEClash.Weighted>
0.1464

> <Gold.Chemscore.DEInternal.Weighted>
1.7394

> <Gold.Chemscore.Rot.Weighted>
4.8048

> <Gold.Chemscore.Internal.Correction.Weighted>
   9.000000E+99

> <Gold.Protein.RotatedTorsions>
[ 6907 6896 6895 6894 ] final   44.13 input  -60.11 | X-H torsion
[ 7974 7965 7964 7962 ] final -149.89 input  175.53 | X-H torsion
[ 8008 7997 7996 7995 ] final   34.82 input   59.86 | X-H torsion
[ 10167 10162 10161 10158 ] final -141.57 input  -65.29 | X-H torsion
[ 10718 10713 10712 10709 ] final  173.29 input   66.30 | X-H torsion
[ 10763 10752 10751 10750 ] final -104.94 input  -60.55 | X-H torsion
[ 11005 11000 10999 10996 ] final -133.34 input  -57.11 | X-H torsion

> <Gold.Protein.ActiveResidues>
 VAL166  LYS551  ARG553  GLY616  TRP617  ASP618  TYR619  PRO620  LYS621  CYS622 
 ASP623  PHE694  ASN695  SER759  ASP760  ASP761  ALA762  ILE779  LEU786  VAL792 
 PHE793  MET794  SER795  GLU796  ALA797  LYS798  CYS799  TRP800  GLU811  SER814 

> <Gold.Protein.RotatedAtoms>
  152.2287  134.8343  160.0476 H   0  0  0  0  0  0  0  0  0  0  0  0  # atno 6907 bound_to 6896
  151.9100  133.3553  159.3868 H   0  0  0  0  0  0  0  0  0  0  0  0  # atno 6908 bound_to 6896
  150.7019  134.4667  159.5450 H   0  0  0  0  0  0  0  0  0  0  0  0  # atno 6909 bound_to 6896
  144.7940  140.5004  143.5753 H   0  0  0  0  0  0  0  0  0  0  0  0  # atno 7974 bound_to 7965
  155.1610  140.3283  155.4411 H   0  0  0  0  0  0  0  0  0  0  0  0  # atno 8008 bound_to 7997
  156.2542  140.1960  156.6668 H   0  0  0  0  0  0  0  0  0  0  0  0  # atno 8009 bound_to 7997
  154.6405  140.0571  156.9826 H   0  0  0  0  0  0  0  0  0  0  0  0  # atno 8010 bound_to 7997
  139.8172  143.7623  152.2665 H   0  0  0  0  0  0  0  0  0  0  0  0  # atno 10167 bound_to 10162
  156.9664  131.0076  151.2915 H   0  0  0  0  0  0  0  0  0  0  0  0  # atno 10718 bound_to 10713
  154.7913  135.4767  154.0058 H   0  0  0  0  0  0  0  0  0  0  0  0  # atno 10763 bound_to 10752
  153.1635  135.6813  153.8716 H   0  0  0  0  0  0  0  0  0  0  0  0  # atno 10764 bound_to 10752
  153.8322  135.3190  155.3397 H   0  0  0  0  0  0  0  0  0  0  0  0  # atno 10765 bound_to 10752
  140.9089  134.1594  157.4404 H   0  0  0  0  0  0  0  0  0  0  0  0  # atno 11005 bound_to 11000
  145.5721  139.1484  143.3282 LP  0  0  0  0  0  0  0  0  0  0  0  0  # atno 17320 bound_to 7965
  146.2202  140.5854  142.9021 LP  0  0  0  0  0  0  0  0  0  0  0  0  # atno 17321 bound_to 7965
  139.7790  144.7451  151.0116 LP  0  0  0  0  0  0  0  0  0  0  0  0  # atno 17342 bound_to 10162
  140.7815  143.4563  151.0341 LP  0  0  0  0  0  0  0  0  0  0  0  0  # atno 17343 bound_to 10162
  157.5622  130.8254  149.8281 LP  0  0  0  0  0  0  0  0  0  0  0  0  # atno 17370 bound_to 10713
  156.0301  130.3767  150.1713 LP  0  0  0  0  0  0  0  0  0  0  0  0  # atno 17371 bound_to 10713
  139.8754  134.9928  156.5613 LP  0  0  0  0  0  0  0  0  0  0  0  0  # atno 17394 bound_to 11000
  140.8135  133.8410  155.8831 LP  0  0  0  0  0  0  0  0  0  0  0  0  # atno 17395 bound_to 11000

$$$$
