AV-unprocessed.smi:3136|AV-procd|sdf|11949|dock3
  -GOLD-   2272017343D 1   1.00000     0.00000
 Structure written by MMmdl.
 40 40  0  0  0  0  0  0  0  0  2 V2000
  144.4159  143.8289  162.3982 C   0  0  0  0  0  0  0  0  0  0  0  0
  143.7940  144.2700  161.0661 C   0  0  0  0  0  0  0  0  0  0  0  0
  144.7412  144.1470  159.9637 N   0  0  0  0  0  0  0  0  0  0  0  0
  145.5995  143.1301  159.7923 C   0  0  0  0  0  0  0  0  0  0  0  0
  145.6752  142.1738  160.5646 O   0  0  0  0  0  0  0  0  0  0  0  0
  146.5048  143.2199  158.5591 C   0  0  0  0  0  0  0  0  0  0  0  0
  148.0057  143.2085  158.8970 C   0  0  0  0  0  0  0  0  0  0  0  0
  148.8145  142.9036  157.6989 N   0  3  0  0  0  0  0  0  0  0  0  0
  150.1466  142.3142  157.9701 C   0  0  1  0  0  0  0  0  0  0  0  0
  150.8048  141.9224  156.6366 C   0  0  0  0  0  0  0  0  0  0  0  0
  151.0436  143.2611  158.8148 C   0  0  2  0  0  0  0  0  0  0  0  0
  151.6077  144.4550  158.0224 C   0  0  0  0  0  0  0  0  0  0  0  0
  152.0940  142.5572  159.5441 N   0  0  0  0  0  0  0  0  0  0  0  0
  152.8681  143.0281  160.5853 C   0  0  0  0  0  0  0  0  0  0  0  0
  153.7084  142.0197  160.9605 C   0  0  0  0  0  0  0  0  0  0  0  0
  153.3698  140.9532  160.0827 C   0  0  0  0  0  0  0  0  0  0  0  0
  152.4018  141.2752  159.2401 N   0  0  0  0  0  0  0  0  0  0  0  0
  143.7151  143.9770  163.2202 H   0  0  0  0  0  0  0  0  0  0  0  0
  145.3167  144.4015  162.6222 H   0  0  0  0  0  0  0  0  0  0  0  0
  144.6851  142.7724  162.3813 H   0  0  0  0  0  0  0  0  0  0  0  0
  142.8912  143.6930  160.8578 H   0  0  0  0  0  0  0  0  0  0  0  0
  143.4857  145.3137  161.1329 H   0  0  0  0  0  0  0  0  0  0  0  0
  144.7436  144.8922  159.2819 H   0  0  0  0  0  0  0  0  0  0  0  0
  146.2699  142.3851  157.8969 H   0  0  0  0  0  0  0  0  0  0  0  0
  146.2561  144.1329  158.0162 H   0  0  0  0  0  0  0  0  0  0  0  0
  148.3062  144.1748  159.3028 H   0  0  0  0  0  0  0  0  0  0  0  0
  148.2143  142.4578  159.6609 H   0  0  0  0  0  0  0  0  0  0  0  0
  148.2921  142.2471  157.1367 H   0  0  0  0  0  0  0  0  0  0  0  0
  150.0101  141.3899  158.5339 H   0  0  0  0  0  0  0  0  0  0  0  0
  151.7870  141.4780  156.7998 H   0  0  0  0  0  0  0  0  0  0  0  0
  150.9340  142.7822  155.9784 H   0  0  0  0  0  0  0  0  0  0  0  0
  150.1989  141.1892  156.1033 H   0  0  0  0  0  0  0  0  0  0  0  0
  150.3925  143.6959  159.5749 H   0  0  0  0  0  0  0  0  0  0  0  0
  150.8095  145.0128  157.5323 H   0  0  0  0  0  0  0  0  0  0  0  0
  152.3143  144.1400  157.2543 H   0  0  0  0  0  0  0  0  0  0  0  0
  152.1317  145.1465  158.6829 H   0  0  0  0  0  0  0  0  0  0  0  0
  152.7583  144.0316  160.9697 H   0  0  0  0  0  0  0  0  0  0  0  0
  154.4524  142.0405  161.7432 H   0  0  0  0  0  0  0  0  0  0  0  0
  153.7948  139.9615  160.0347 H   0  0  0  0  0  0  0  0  0  0  0  0
  148.9469  143.7485  157.1600 H   0  0  0  0  0  0  0  0  0  0  0  0
  1  2  1  0  0  0  0
  1 18  1  0  0  0  0
  1 19  1  0  0  0  0
  1 20  1  0  0  0  0
  2  3  1  0  0  0  0
  2 21  1  0  0  0  0
  2 22  1  0  0  0  0
  3  4  1  0  0  0  0
  3 23  1  0  0  0  0
  4  5  2  0  0  0  0
  4  6  1  0  0  0  0
  6  7  1  0  0  0  0
  6 24  1  0  0  0  0
  6 25  1  0  0  0  0
  7  8  1  0  0  0  0
  7 26  1  0  0  0  0
  7 27  1  0  0  0  0
  8  9  1  0  0  0  0
  8 28  1  0  0  0  0
  8 40  1  0  0  0  0
  9 10  1  0  0  0  0
  9 11  1  0  0  0  0
  9 29  1  0  0  0  0
 10 30  1  0  0  0  0
 10 31  1  0  0  0  0
 10 32  1  0  0  0  0
 11 12  1  0  0  0  0
 11 13  1  0  0  0  0
 11 33  1  0  0  0  0
 12 34  1  0  0  0  0
 12 35  1  0  0  0  0
 12 36  1  0  0  0  0
 13 17  1  0  0  0  0
 13 14  1  0  0  0  0
 14 15  2  0  0  0  0
 14 37  1  0  0  0  0
 15 16  1  0  0  0  0
 15 38  1  0  0  0  0
 16 17  2  0  0  0  0
 16 39  1  0  0  0  0
M  CHG  1   8   1
M  END
> <s_m_source_file>
AV-unprocessed.smi

> <i_m_source_file_index>
3136

> <i_lp_mmshare_version>
43012

> <i_f3d_flags>
0

> <s_epik_input>
W0NIM11bQ0gyXVtOSF1DKD1PKVtDSDJdW0NIMl1bTkhdW0NASF0oW0NIM10pW0NASF0oW0NIM10pbjFbY0hdW2NIXVtjSF1uMQ==

> <s_epik_cmdline>
J2VwaWtfcHl0aG9uJywgJy1waCcsICc3LjAnLCAnLXRuJywgJzgnLCAnLW1hJywgJzIwMCcsICctbWV0YWxfYmluZGluZycsICctaW1hZScsICc8aW5maWxlLm1hZT4nLCAnLW9tYWUnLCAnPG91dGZpbGUubWFlPic=

> <r_lp_tautomer_probability>
1

> <r_epik_Ionization_Penalty>
0.00463447

> <r_epik_Ionization_Penalty_Charging>
0.00462393

> <r_epik_Ionization_Penalty_Neutral>
1.05394e-05

> <r_epik_State_Penalty>
-0

> <r_epik_Charging_Adjusted_Penalty>
0.00462393

> <i_epik_Tot_Q>
1

> <i_epik_Tot_abs_Q>
1

> <r_epik_Metal_State_Penalty>
-0

> <b_epik_Metal_Only>
0

> <s_lp_Force_Field>
OPLS_2005

> <r_lp_Energy>
10.5289

> <b_lp_Chiralities_Consistent>
1

> <s_lp_Variant>
AV-unprocessed.smi:3136-2

> <Gold.Version>
5.8.1

> <Gold.Id.Protein>
6NUR|6NUR_protein|mol2

> <Gold.PLP.Fitness>
44.1177

> <Gold.PLP.PLP>
-36.4341

> <Gold.PLP.part.hbond>
-2.4458

> <Gold.PLP.part.metal>
0.0000

> <Gold.PLP.part.buried>
-3.6991

> <Gold.PLP.part.nonpolar>
-29.6732

> <Gold.PLP.part.repulsive>
0.0596

> <Gold.PLP.ligand.clash>
0.0000

> <Gold.PLP.ligand.torsion>
0.8509

> <Gold.PLP.Chemscore.Hbond>
3.0000

> <Gold.PLP.Chemscore.CHOScore>
0.0000

> <Gold.PLP.Chemscore.Metal>
0.0000

> <Gold.Chemscore.Hbonds>
donor molecule, donor type, donor heavy atom, donor atom, acceptor molecule, acceptor atom, score
      L1  H     8    40       P1  8028  2.00
      P1  H  6934  6946       L1     5  1.00

> <Gold.PLP.Chemscore.Internal.Correction>
0.3854

> <Gold.Rescore>
     Score         DG    S(hbond)    S(metal)    S(lipo)     H(rot)  DE(clash)    DE(int)     intcor
     13.49     -15.69       1.96        0.00      82.15       2.32       0.05       2.15       ----

> <Gold.Chemscore.Fitness>
13.4854

> <Gold.Chemscore.DG>
-15.6944

> <Gold.Chemscore.ZeroCoef>
-5.4800

> <Gold.Chemscore.Hbond>
1.9554

> <Gold.Chemscore.Metal>
0.0000

> <Gold.Chemscore.Lipo>
82.1536

> <Gold.Chemscore.Internal_Hbond>
0.0000

> <Gold.Chemscore.DEClash>
0.0544

> <Gold.Chemscore.DEInternal>
2.1547

> <Gold.Chemscore.Rot>
2.3159

> <Gold.Chemscore.Internal.Correction>
   9.000000E+99

> <Gold.Chemscore.Hbonds>
donor molecule, donor type, donor heavy atom, donor atom, acceptor molecule, acceptor atom, score
      L1  H     8    40       P1  8028  0.25
      P1  H  6934  6946       L1     5  1.00

> <Gold.Chemscore.Hbond.Weighted>
-6.5310

> <Gold.Chemscore.Metal.Weighted>
-0.0000

> <Gold.Chemscore.Lipo.Weighted>
-9.6120

> <Gold.Chemscore.Internal_Hbond.Weighted>
0.0000

> <Gold.Chemscore.DEClash.Weighted>
0.0544

> <Gold.Chemscore.DEInternal.Weighted>
2.1547

> <Gold.Chemscore.Rot.Weighted>
5.9286

> <Gold.Chemscore.Internal.Correction.Weighted>
   9.000000E+99

> <Gold.Protein.RotatedTorsions>
[ 6907 6896 6895 6894 ] final   92.01 input  -60.11 | X-H torsion
[ 7974 7965 7964 7962 ] final -153.45 input  175.53 | X-H torsion
[ 8008 7997 7996 7995 ] final -172.26 input   59.86 | X-H torsion
[ 10167 10162 10161 10158 ] final -126.25 input  -65.29 | X-H torsion
[ 10718 10713 10712 10709 ] final -129.18 input   66.30 | X-H torsion
[ 10763 10752 10751 10750 ] final -149.27 input  -60.55 | X-H torsion
[ 11005 11000 10999 10996 ] final -144.52 input  -57.11 | X-H torsion

> <Gold.Protein.ActiveResidues>
 VAL166  LYS551  ARG553  GLY616  TRP617  ASP618  TYR619  PRO620  LYS621  CYS622 
 ASP623  PHE694  ASN695  SER759  ASP760  ASP761  ALA762  ILE779  LEU786  VAL792 
 PHE793  MET794  SER795  GLU796  ALA797  LYS798  CYS799  TRP800  GLU811  SER814 

> <Gold.Protein.RotatedAtoms>
  152.5452  134.1568  159.8541 H   0  0  0  0  0  0  0  0  0  0  0  0  # atno 6907 bound_to 6896
  151.1590  133.4850  159.2602 H   0  0  0  0  0  0  0  0  0  0  0  0  # atno 6908 bound_to 6896
  151.1392  135.0182  159.8673 H   0  0  0  0  0  0  0  0  0  0  0  0  # atno 6909 bound_to 6896
  144.7740  140.4523  143.5887 H   0  0  0  0  0  0  0  0  0  0  0  0  # atno 7974 bound_to 7965
  155.9423  140.1111  157.1046 H   0  0  0  0  0  0  0  0  0  0  0  0  # atno 8008 bound_to 7997
  154.4092  140.1217  156.5009 H   0  0  0  0  0  0  0  0  0  0  0  0  # atno 8009 bound_to 7997
  155.6947  140.3472  155.4910 H   0  0  0  0  0  0  0  0  0  0  0  0  # atno 8010 bound_to 7997
  139.9734  143.5820  152.2404 H   0  0  0  0  0  0  0  0  0  0  0  0  # atno 10167 bound_to 10162
  156.2022  130.6864  151.0552 H   0  0  0  0  0  0  0  0  0  0  0  0  # atno 10718 bound_to 10713
  154.8186  135.3313  154.7103 H   0  0  0  0  0  0  0  0  0  0  0  0  # atno 10763 bound_to 10752
  153.7739  135.6923  153.4905 H   0  0  0  0  0  0  0  0  0  0  0  0  # atno 10764 bound_to 10752
  153.2026  135.4511  155.0232 H   0  0  0  0  0  0  0  0  0  0  0  0  # atno 10765 bound_to 10752
  140.8016  134.2850  157.4976 H   0  0  0  0  0  0  0  0  0  0  0  0  # atno 11005 bound_to 11000
  145.6240  139.1528  143.3006 LP  0  0  0  0  0  0  0  0  0  0  0  0  # atno 17320 bound_to 7965
  146.1907  140.6349  142.9147 LP  0  0  0  0  0  0  0  0  0  0  0  0  # atno 17321 bound_to 7965
  139.6464  144.7658  151.2236 LP  0  0  0  0  0  0  0  0  0  0  0  0  # atno 17342 bound_to 10162
  140.7514  143.6232  150.8493 LP  0  0  0  0  0  0  0  0  0  0  0  0  # atno 17343 bound_to 10162
  157.6992  131.0782  150.6874 LP  0  0  0  0  0  0  0  0  0  0  0  0  # atno 17370 bound_to 10713
  156.6932  130.4601  149.5594 LP  0  0  0  0  0  0  0  0  0  0  0  0  # atno 17371 bound_to 10713
  139.8721  134.9433  156.3848 LP  0  0  0  0  0  0  0  0  0  0  0  0  # atno 17394 bound_to 11000
  140.9289  133.7593  155.9999 LP  0  0  0  0  0  0  0  0  0  0  0  0  # atno 17395 bound_to 11000

$$$$
