AV-unprocessed.smi:2673|AV-procd|sdf|10357|dock2
  -GOLD-   2272014383D 1   1.00000     0.00000
 Structure written by MMmdl.
 32 33  0  0  0  0  0  0  0  0  1 V2000
  142.4051  132.5218  161.5132 O   0  0  0  0  0  0  0  0  0  0  0  0
  143.0025  132.9005  160.5034 C   0  0  0  0  0  0  0  0  0  0  0  0
  142.8844  132.4278  159.2057 N   0  0  0  0  0  0  0  0  0  0  0  0
  142.4158  131.2402  158.9753 C   0  0  0  0  0  0  0  0  0  0  0  0
  142.3001  130.7512  157.6821 N   0  0  0  0  0  0  0  0  0  0  0  0
  141.8125  129.5343  157.4793 N   0  0  0  0  0  0  0  0  0  0  0  0
  141.5059  128.9721  158.5875 C   0  0  0  0  0  0  0  0  0  0  0  0
  141.7946  129.9146  160.0551 S   0  0  0  0  0  0  0  0  0  0  0  0
  143.9048  133.8959  160.5341 N   0  0  0  0  0  0  0  0  0  0  0  0
  144.3675  134.7231  161.6628 C   0  0  0  0  0  0  0  0  0  0  0  0
  143.1464  135.3569  162.3904 C   0  0  0  0  0  0  0  0  0  0  0  0
  143.5421  136.3454  163.1934 F   0  0  0  0  0  0  0  0  0  0  0  0
  142.2884  135.8616  161.5020 F   0  0  0  0  0  0  0  0  0  0  0  0
  142.4971  134.4658  163.1390 F   0  0  0  0  0  0  0  0  0  0  0  0
  145.2540  133.9202  162.6589 C   0  0  0  0  0  0  0  0  0  0  0  0
  146.5369  133.3667  162.0121 C   0  0  0  0  0  0  0  0  0  0  0  0
  147.3723  134.4961  161.3928 C   0  0  0  0  0  0  0  0  0  0  0  0
  146.5403  135.3209  160.4001 C   0  0  0  0  0  0  0  0  0  0  0  0
  145.2465  135.8482  161.0523 C   0  0  0  0  0  0  0  0  0  0  0  0
  141.0861  127.9733  158.7060 H   0  0  0  0  0  0  0  0  0  0  0  0
  144.3290  134.1240  159.6469 H   0  0  0  0  0  0  0  0  0  0  0  0
  145.5418  134.5723  163.4844 H   0  0  0  0  0  0  0  0  0  0  0  0
  144.6972  133.1076  163.1231 H   0  0  0  0  0  0  0  0  0  0  0  0
  147.1291  132.8380  162.7595 H   0  0  0  0  0  0  0  0  0  0  0  0
  146.2842  132.6316  161.2474 H   0  0  0  0  0  0  0  0  0  0  0  0
  147.7464  135.1478  162.1834 H   0  0  0  0  0  0  0  0  0  0  0  0
  148.2485  134.0821  160.8932 H   0  0  0  0  0  0  0  0  0  0  0  0
  147.1337  136.1573  160.0299 H   0  0  0  0  0  0  0  0  0  0  0  0
  146.2992  134.7105  159.5292 H   0  0  0  0  0  0  0  0  0  0  0  0
  144.6766  136.4154  160.3153 H   0  0  0  0  0  0  0  0  0  0  0  0
  145.5228  136.5627  161.8284 H   0  0  0  0  0  0  0  0  0  0  0  0
  142.5753  131.3032  156.8823 H   0  0  0  0  0  0  0  0  0  0  0  0
  1  2  2  0  0  0  0
  2  3  1  0  0  0  0
  2  9  1  0  0  0  0
  3  4  2  0  0  0  0
  4  8  1  0  0  0  0
  4  5  1  0  0  0  0
  5  6  1  0  0  0  0
  5 32  1  0  0  0  0
  6  7  2  0  0  0  0
  7  8  1  0  0  0  0
  7 20  1  0  0  0  0
  9 10  1  0  0  0  0
  9 21  1  0  0  0  0
 10 19  1  0  0  0  0
 10 11  1  0  0  0  0
 10 15  1  0  0  0  0
 11 12  1  0  0  0  0
 11 13  1  0  0  0  0
 11 14  1  0  0  0  0
 15 16  1  0  0  0  0
 15 22  1  0  0  0  0
 15 23  1  0  0  0  0
 16 17  1  0  0  0  0
 16 24  1  0  0  0  0
 16 25  1  0  0  0  0
 17 18  1  0  0  0  0
 17 26  1  0  0  0  0
 17 27  1  0  0  0  0
 18 19  1  0  0  0  0
 18 28  1  0  0  0  0
 18 29  1  0  0  0  0
 19 30  1  0  0  0  0
 19 31  1  0  0  0  0
M  END
> <s_m_source_file>
AV-unprocessed.smi

> <i_m_source_file_index>
2673

> <i_lp_mmshare_version>
43012

> <i_f3d_flags>
0

> <s_epik_input>
czFbY0hdbm5jMVtOSF1DKD1PKVtOSF1DMihDKEYpKEYpRilbQ0gyXVtDSDJdW0NIMl1bQ0gyXVtDSDJdMg==

> <s_epik_cmdline>
J2VwaWtfcHl0aG9uJywgJy1waCcsICc3LjAnLCAnLXRuJywgJzgnLCAnLW1hJywgJzIwMCcsICctbWV0YWxfYmluZGluZycsICctaW1hZScsICc8aW5maWxlLm1hZT4nLCAnLW9tYWUnLCAnPG91dGZpbGUubWFlPic=

> <r_epik_Ionization_Penalty>
1.69703

> <r_epik_Ionization_Penalty_Charging>
1.69675

> <r_epik_Ionization_Penalty_Neutral>
0.00027895

> <r_epik_State_Penalty>
1.84993

> <r_epik_Charging_Adjusted_Penalty>
3.54668

> <i_epik_Tot_Q>
0

> <i_epik_Tot_abs_Q>
0

> <r_epik_Metal_State_Penalty>
1.90085

> <b_epik_Metal_Only>
0

> <s_lp_Force_Field>
OPLS_2005

> <r_lp_Energy>
22.7267

> <b_lp_Chiralities_Consistent>
1

> <s_lp_Variant>
AV-unprocessed.smi:2673-3

> <Gold.Version>
5.8.1

> <Gold.Id.Protein>
6NUR|6NUR_protein|mol2

> <Gold.PLP.Fitness>
29.0459

> <Gold.PLP.PLP>
-27.1426

> <Gold.PLP.part.hbond>
-1.3960

> <Gold.PLP.part.metal>
0.0000

> <Gold.PLP.part.buried>
-5.0349

> <Gold.PLP.part.nonpolar>
-22.2871

> <Gold.PLP.part.repulsive>
1.2028

> <Gold.PLP.ligand.clash>
0.0000

> <Gold.PLP.ligand.torsion>
0.5507

> <Gold.PLP.Chemscore.Hbond>
0.9913

> <Gold.PLP.Chemscore.CHOScore>
0.0000

> <Gold.PLP.Chemscore.Metal>
0.0000

> <Gold.Chemscore.Hbonds>
donor molecule, donor type, donor heavy atom, donor atom, acceptor molecule, acceptor atom, score
      L1  H     5    32       P1 10957  0.91

> <Gold.PLP.Chemscore.Internal.Correction>
0.0310

> <Gold.Rescore>
     Score         DG    S(hbond)    S(metal)    S(lipo)     H(rot)  DE(clash)    DE(int)     intcor
      8.41     -11.54       0.63        0.00      55.70       1.00       0.16       2.98       ----

> <Gold.Chemscore.Fitness>
8.4110

> <Gold.Chemscore.DG>
-11.5442

> <Gold.Chemscore.ZeroCoef>
-5.4800

> <Gold.Chemscore.Hbond>
0.6308

> <Gold.Chemscore.Metal>
0.0000

> <Gold.Chemscore.Lipo>
55.7032

> <Gold.Chemscore.Internal_Hbond>
0.0000

> <Gold.Chemscore.DEClash>
0.1571

> <Gold.Chemscore.DEInternal>
2.9761

> <Gold.Chemscore.Rot>
1.0000

> <Gold.Chemscore.Internal.Correction>
   9.000000E+99

> <Gold.Chemscore.Hbonds>
donor molecule, donor type, donor heavy atom, donor atom, acceptor molecule, acceptor atom, score
      L1  H     5    32       P1 10957  0.19

> <Gold.Chemscore.Hbond.Weighted>
-2.1070

> <Gold.Chemscore.Metal.Weighted>
-0.0000

> <Gold.Chemscore.Lipo.Weighted>
-6.5173

> <Gold.Chemscore.Internal_Hbond.Weighted>
0.0000

> <Gold.Chemscore.DEClash.Weighted>
0.1571

> <Gold.Chemscore.DEInternal.Weighted>
2.9761

> <Gold.Chemscore.Rot.Weighted>
2.5600

> <Gold.Chemscore.Internal.Correction.Weighted>
   9.000000E+99

> <Gold.Protein.RotatedTorsions>
[ 6907 6896 6895 6894 ] final  -45.94 input  -60.11 | X-H torsion
[ 7974 7965 7964 7962 ] final  142.72 input  175.53 | X-H torsion
[ 8008 7997 7996 7995 ] final   75.68 input   59.86 | X-H torsion
[ 10167 10162 10161 10158 ] final   85.20 input  -65.29 | X-H torsion
[ 10718 10713 10712 10709 ] final -106.12 input   66.30 | X-H torsion
[ 10763 10752 10751 10750 ] final  -71.49 input  -60.55 | X-H torsion
[ 11005 11000 10999 10996 ] final   89.89 input  -57.11 | X-H torsion

> <Gold.Protein.ActiveResidues>
 VAL166  LYS551  ARG553  GLY616  TRP617  ASP618  TYR619  PRO620  LYS621  CYS622 
 ASP623  PHE694  ASN695  SER759  ASP760  ASP761  ALA762  ILE779  LEU786  VAL792 
 PHE793  MET794  SER795  GLU796  ALA797  LYS798  CYS799  TRP800  GLU811  SER814 

> <Gold.Protein.RotatedAtoms>
  150.9165  134.8583  159.7460 H   0  0  0  0  0  0  0  0  0  0  0  0  # atno 6907 bound_to 6896
  152.4971  134.4281  159.9513 H   0  0  0  0  0  0  0  0  0  0  0  0  # atno 6908 bound_to 6896
  151.4318  133.3628  159.2805 H   0  0  0  0  0  0  0  0  0  0  0  0  # atno 6909 bound_to 6896
  144.8983  139.5459  143.5766 H   0  0  0  0  0  0  0  0  0  0  0  0  # atno 7974 bound_to 7965
  155.8165  140.3471  155.5488 H   0  0  0  0  0  0  0  0  0  0  0  0  # atno 8008 bound_to 7997
  155.8387  140.0938  157.1768 H   0  0  0  0  0  0  0  0  0  0  0  0  # atno 8009 bound_to 7997
  154.4005  140.1398  156.3689 H   0  0  0  0  0  0  0  0  0  0  0  0  # atno 8010 bound_to 7997
  139.9002  144.6334  150.8645 H   0  0  0  0  0  0  0  0  0  0  0  0  # atno 10167 bound_to 10162
  156.0376  130.5597  150.7636 H   0  0  0  0  0  0  0  0  0  0  0  0  # atno 10718 bound_to 10713
  154.4324  135.5960  153.6077 H   0  0  0  0  0  0  0  0  0  0  0  0  # atno 10763 bound_to 10752
  152.9800  135.5978  154.3822 H   0  0  0  0  0  0  0  0  0  0  0  0  # atno 10764 bound_to 10752
  154.3662  135.2841  155.2271 H   0  0  0  0  0  0  0  0  0  0  0  0  # atno 10765 bound_to 10752
  139.8866  134.8580  156.3207 H   0  0  0  0  0  0  0  0  0  0  0  0  # atno 11005 bound_to 11000
  146.3094  139.7692  142.9031 LP  0  0  0  0  0  0  0  0  0  0  0  0  # atno 17320 bound_to 7965
  145.3661  141.0334  143.3257 LP  0  0  0  0  0  0  0  0  0  0  0  0  # atno 17321 bound_to 7965
  140.7708  143.3442  151.2145 LP  0  0  0  0  0  0  0  0  0  0  0  0  # atno 17342 bound_to 10162
  139.7032  143.9499  152.2915 LP  0  0  0  0  0  0  0  0  0  0  0  0  # atno 17343 bound_to 10162
  157.5148  131.0928  151.0152 LP  0  0  0  0  0  0  0  0  0  0  0  0  # atno 17370 bound_to 10713
  157.0498  130.5782  149.5368 LP  0  0  0  0  0  0  0  0  0  0  0  0  # atno 17371 bound_to 10713
  140.9789  133.7280  156.0642 LP  0  0  0  0  0  0  0  0  0  0  0  0  # atno 17394 bound_to 11000
  140.7775  134.3762  157.5494 LP  0  0  0  0  0  0  0  0  0  0  0  0  # atno 17395 bound_to 11000

$$$$
