AV-unprocessed.smi:1205|AV-procd|sdf|5040|dock1
  -GOLD-   22720 4 63D 1   1.00000     0.00000
 Structure written by MMmdl.
 49 50  0  0  0  0  0  0  0  0  2 V2000
  150.9028  142.1711  157.3849 C   0  0  0  0  0  0  0  0  0  0  0  0
  150.6247  141.1807  156.2927 C   0  0  0  0  0  0  0  0  0  0  0  0
  149.5833  141.2152  155.3203 C   0  0  0  0  0  0  0  0  0  0  0  0
  149.8108  140.0775  154.5952 C   0  0  0  0  0  0  0  0  0  0  0  0
  149.1169  139.5873  153.5337 N   0  0  0  0  0  0  0  0  0  0  0  0
  147.8800  139.0610  153.5097 C   0  0  0  0  0  0  0  0  0  0  0  0
  147.1378  138.9296  154.4833 O   0  0  0  0  0  0  0  0  0  0  0  0
  147.5337  138.6929  152.2679 N   0  0  0  0  0  0  0  0  0  0  0  0
  146.2534  138.0952  151.9022 C   0  0  0  0  0  0  0  0  0  0  0  0
  145.7801  137.0319  152.9268 C   0  0  1  0  0  0  0  0  0  0  0  0
  144.2450  136.9365  153.0160 C   0  0  0  0  0  0  0  0  0  0  0  0
  146.3792  135.6849  152.6951 N   0  3  1  0  0  0  0  0  0  0  0  0
  146.6206  134.8742  153.9198 C   0  0  0  0  0  0  0  0  0  0  0  0
  147.4539  133.6265  153.5886 C   0  0  0  0  0  0  0  0  0  0  0  0
  146.7703  132.7853  152.5024 C   0  0  0  0  0  0  0  0  0  0  0  0
  146.4910  133.6439  151.2566 C   0  0  1  0  0  0  0  0  0  0  0  0
  145.7839  132.8317  150.1627 C   0  0  0  0  0  0  0  0  0  0  0  0
  145.6811  134.8984  151.6427 C   0  0  0  0  0  0  0  0  0  0  0  0
  150.9087  139.4295  155.1163 N   0  0  0  0  0  0  0  0  0  0  0  0
  151.5323  138.1888  154.6985 C   0  0  0  0  0  0  0  0  0  0  0  0
  151.4090  140.1161  156.1661 N   0  0  0  0  0  0  0  0  0  0  0  0
  150.1920  142.9975  157.3579 H   0  0  0  0  0  0  0  0  0  0  0  0
  151.9036  142.5920  157.2886 H   0  0  0  0  0  0  0  0  0  0  0  0
  150.8297  141.7031  158.3669 H   0  0  0  0  0  0  0  0  0  0  0  0
  148.8091  141.9573  155.1967 H   0  0  0  0  0  0  0  0  0  0  0  0
  149.5962  139.6406  152.6470 H   0  0  0  0  0  0  0  0  0  0  0  0
  148.2025  138.8331  151.5245 H   0  0  0  0  0  0  0  0  0  0  0  0
  145.5320  138.9092  151.8358 H   0  0  0  0  0  0  0  0  0  0  0  0
  146.3313  137.6690  150.9011 H   0  0  0  0  0  0  0  0  0  0  0  0
  146.1106  137.3490  153.9170 H   0  0  0  0  0  0  0  0  0  0  0  0
  143.8098  137.8744  153.3618 H   0  0  0  0  0  0  0  0  0  0  0  0
  143.9405  136.1630  153.7218 H   0  0  0  0  0  0  0  0  0  0  0  0
  143.7927  136.7063  152.0517 H   0  0  0  0  0  0  0  0  0  0  0  0
  147.1467  135.4630  154.6704 H   0  0  0  0  0  0  0  0  0  0  0  0
  145.6710  134.5689  154.3612 H   0  0  0  0  0  0  0  0  0  0  0  0
  148.4472  133.9261  153.2516 H   0  0  0  0  0  0  0  0  0  0  0  0
  147.5993  133.0263  154.4872 H   0  0  0  0  0  0  0  0  0  0  0  0
  147.3992  131.9328  152.2427 H   0  0  0  0  0  0  0  0  0  0  0  0
  145.8361  132.3767  152.8902 H   0  0  0  0  0  0  0  0  0  0  0  0
  147.4494  133.9732  150.8518 H   0  0  0  0  0  0  0  0  0  0  0  0
  144.8158  132.4640  150.5042 H   0  0  0  0  0  0  0  0  0  0  0  0
  146.3819  131.9694  149.8663 H   0  0  0  0  0  0  0  0  0  0  0  0
  145.6148  133.4364  149.2712 H   0  0  0  0  0  0  0  0  0  0  0  0
  144.6885  134.6109  151.9920 H   0  0  0  0  0  0  0  0  0  0  0  0
  145.5375  135.5174  150.7560 H   0  0  0  0  0  0  0  0  0  0  0  0
  151.6633  138.1876  153.6162 H   0  0  0  0  0  0  0  0  0  0  0  0
  150.8993  137.3480  154.9835 H   0  0  0  0  0  0  0  0  0  0  0  0
  152.5091  138.0735  155.1701 H   0  0  0  0  0  0  0  0  0  0  0  0
  147.2936  135.8743  152.3100 H   0  0  0  0  0  0  0  0  0  0  0  0
  1  2  1  0  0  0  0
  1 22  1  0  0  0  0
  1 23  1  0  0  0  0
  1 24  1  0  0  0  0
  2 21  2  0  0  0  0
  2  3  1  0  0  0  0
  3  4  2  0  0  0  0
  3 25  1  0  0  0  0
  4  5  1  0  0  0  0
  4 19  1  0  0  0  0
  5  6  1  0  0  0  0
  5 26  1  0  0  0  0
  6  7  2  0  0  0  0
  6  8  1  0  0  0  0
  8  9  1  0  0  0  0
  8 27  1  0  0  0  0
  9 10  1  0  0  0  0
  9 28  1  0  0  0  0
  9 29  1  0  0  0  0
 10 11  1  0  0  0  0
 10 12  1  0  0  0  0
 10 30  1  0  0  0  0
 11 31  1  0  0  0  0
 11 32  1  0  0  0  0
 11 33  1  0  0  0  0
 12 18  1  0  0  0  0
 12 13  1  0  0  0  0
 12 49  1  0  0  0  0
 13 14  1  0  0  0  0
 13 34  1  0  0  0  0
 13 35  1  0  0  0  0
 14 15  1  0  0  0  0
 14 36  1  0  0  0  0
 14 37  1  0  0  0  0
 15 16  1  0  0  0  0
 15 38  1  0  0  0  0
 15 39  1  0  0  0  0
 16 17  1  0  0  0  0
 16 18  1  0  0  0  0
 16 40  1  0  0  0  0
 17 41  1  0  0  0  0
 17 42  1  0  0  0  0
 17 43  1  0  0  0  0
 18 44  1  0  0  0  0
 18 45  1  0  0  0  0
 19 20  1  0  0  0  0
 19 21  1  0  0  0  0
 20 46  1  0  0  0  0
 20 47  1  0  0  0  0
 20 48  1  0  0  0  0
M  CHG  1  12   1
M  END
> <s_m_source_file>
AV-unprocessed.smi

> <i_m_source_file_index>
1205

> <i_lp_mmshare_version>
43012

> <i_f3d_flags>
0

> <s_epik_input>
W0NIM11jMVtjSF1jKG4objEpW0NIM10pW05IXUMoPU8pW05IXVtDSDJdW0NASF0oW0NIM10pTjJbQ0gyXVtDSDJdW0NIMl1bQ0BASF0oW0NIM10pW0NIMl0y

> <s_epik_cmdline>
J2VwaWtfcHl0aG9uJywgJy1waCcsICc3LjAnLCAnLXRuJywgJzgnLCAnLW1hJywgJzIwMCcsICctbWV0YWxfYmluZGluZycsICctaW1hZScsICc8aW5maWxlLm1hZT4nLCAnLW9tYWUnLCAnPG91dGZpbGUubWFlPic=

> <r_lp_tautomer_probability>
1

> <r_epik_Ionization_Penalty>
0.0020309

> <r_epik_Ionization_Penalty_Charging>
0.00195276

> <r_epik_Ionization_Penalty_Neutral>
7.81448e-05

> <r_epik_State_Penalty>
0.00133177

> <r_epik_Charging_Adjusted_Penalty>
0.00328452

> <i_epik_Tot_Q>
1

> <i_epik_Tot_abs_Q>
1

> <r_epik_Metal_State_Penalty>
-0

> <b_epik_Metal_Only>
0

> <s_lp_Force_Field>
OPLS_2005

> <r_lp_Energy>
21.6269

> <b_lp_Chiralities_Consistent>
1

> <s_lp_Variant>
AV-unprocessed.smi:1205-2

> <Gold.Version>
5.8.1

> <Gold.Id.Protein>
6NUR|6NUR_protein|mol2

> <Gold.PLP.Fitness>
48.4344

> <Gold.PLP.PLP>
-40.0786

> <Gold.PLP.part.hbond>
-3.7774

> <Gold.PLP.part.metal>
0.0000

> <Gold.PLP.part.buried>
-2.4638

> <Gold.PLP.part.nonpolar>
-34.1969

> <Gold.PLP.part.repulsive>
0.3316

> <Gold.PLP.ligand.clash>
0.0000

> <Gold.PLP.ligand.torsion>
1.6183

> <Gold.PLP.Chemscore.Hbond>
3.7910

> <Gold.PLP.Chemscore.CHOScore>
0.0000

> <Gold.PLP.Chemscore.Metal>
0.0000

> <Gold.Chemscore.Hbonds>
donor molecule, donor type, donor heavy atom, donor atom, acceptor molecule, acceptor atom, score
      L1  H     5    26       P1  7957  1.00
      L1  H     8    27       P1  7957  0.77
      L1  H    12    49       P1  7948  2.00

> <Gold.PLP.Chemscore.Internal.Correction>
0.2193

> <Gold.Rescore>
     Score         DG    S(hbond)    S(metal)    S(lipo)     H(rot)  DE(clash)    DE(int)     intcor
     16.93     -20.14       2.88        0.00      75.11       1.47       0.01       3.20       ----

> <Gold.Chemscore.Fitness>
16.9312

> <Gold.Chemscore.DG>
-20.1428

> <Gold.Chemscore.ZeroCoef>
-5.4800

> <Gold.Chemscore.Hbond>
2.8824

> <Gold.Chemscore.Metal>
0.0000

> <Gold.Chemscore.Lipo>
75.1122

> <Gold.Chemscore.Internal_Hbond>
0.0000

> <Gold.Chemscore.DEClash>
0.0117

> <Gold.Chemscore.DEInternal>
3.1999

> <Gold.Chemscore.Rot>
1.4658

> <Gold.Chemscore.Internal.Correction>
   9.000000E+99

> <Gold.Chemscore.Hbonds>
donor molecule, donor type, donor heavy atom, donor atom, acceptor molecule, acceptor atom, score
      L1  H     5    26       P1  7957  0.89
      L1  H     8    27       P1  7957  0.46
      L1  H    12    49       P1  7948  1.00

> <Gold.Chemscore.Hbond.Weighted>
-9.6272

> <Gold.Chemscore.Metal.Weighted>
-0.0000

> <Gold.Chemscore.Lipo.Weighted>
-8.7881

> <Gold.Chemscore.Internal_Hbond.Weighted>
0.0000

> <Gold.Chemscore.DEClash.Weighted>
0.0117

> <Gold.Chemscore.DEInternal.Weighted>
3.1999

> <Gold.Chemscore.Rot.Weighted>
3.7526

> <Gold.Chemscore.Internal.Correction.Weighted>
   9.000000E+99

> <Gold.Protein.RotatedTorsions>
[ 6907 6896 6895 6894 ] final -127.57 input  -60.11 | X-H torsion
[ 7974 7965 7964 7962 ] final -126.18 input  175.53 | X-H torsion
[ 8008 7997 7996 7995 ] final  -90.63 input   59.86 | X-H torsion
[ 10167 10162 10161 10158 ] final  -56.63 input  -65.29 | X-H torsion
[ 10718 10713 10712 10709 ] final    7.57 input   66.30 | X-H torsion
[ 10763 10752 10751 10750 ] final   66.18 input  -60.55 | X-H torsion
[ 11005 11000 10999 10996 ] final  106.17 input  -57.11 | X-H torsion

> <Gold.Protein.ActiveResidues>
 VAL166  LYS551  ARG553  GLY616  TRP617  ASP618  TYR619  PRO620  LYS621  CYS622 
 ASP623  PHE694  ASN695  SER759  ASP760  ASP761  ALA762  ILE779  LEU786  VAL792 
 PHE793  MET794  SER795  GLU796  ALA797  LYS798  CYS799  TRP800  GLU811  SER814 

> <Gold.Protein.RotatedAtoms>
  150.9087  133.7026  159.2860 H   0  0  0  0  0  0  0  0  0  0  0  0  # atno 6907 bound_to 6896
  151.4520  135.1029  159.9710 H   0  0  0  0  0  0  0  0  0  0  0  0  # atno 6908 bound_to 6896
  152.4917  133.8470  159.7237 H   0  0  0  0  0  0  0  0  0  0  0  0  # atno 6909 bound_to 6896
  144.9899  140.7722  143.4560 H   0  0  0  0  0  0  0  0  0  0  0  0  # atno 7974 bound_to 7965
  154.7009  140.0528  157.0457 H   0  0  0  0  0  0  0  0  0  0  0  0  # atno 8008 bound_to 7997
  155.0686  140.3197  155.4619 H   0  0  0  0  0  0  0  0  0  0  0  0  # atno 8009 bound_to 7997
  156.2759  140.2086  156.5813 H   0  0  0  0  0  0  0  0  0  0  0  0  # atno 8010 bound_to 7997
  140.6306  143.2458  151.5251 H   0  0  0  0  0  0  0  0  0  0  0  0  # atno 10167 bound_to 10162
  156.9389  130.5854  149.5652 H   0  0  0  0  0  0  0  0  0  0  0  0  # atno 10718 bound_to 10713
  153.0129  135.5330  154.6784 H   0  0  0  0  0  0  0  0  0  0  0  0  # atno 10763 bound_to 10752
  154.5950  135.2862  155.0598 H   0  0  0  0  0  0  0  0  0  0  0  0  # atno 10764 bound_to 10752
  154.1676  135.6537  153.5054 H   0  0  0  0  0  0  0  0  0  0  0  0  # atno 10765 bound_to 10752
  139.8811  134.9360  156.5625 H   0  0  0  0  0  0  0  0  0  0  0  0  # atno 11005 bound_to 11000
  145.2300  139.2119  143.5048 LP  0  0  0  0  0  0  0  0  0  0  0  0  # atno 17320 bound_to 7965
  146.3429  140.2175  142.8591 LP  0  0  0  0  0  0  0  0  0  0  0  0  # atno 17321 bound_to 7965
  139.5521  144.2370  152.1548 LP  0  0  0  0  0  0  0  0  0  0  0  0  # atno 17342 bound_to 10162
  140.1612  144.5024  150.6631 LP  0  0  0  0  0  0  0  0  0  0  0  0  # atno 17343 bound_to 10162
  156.0413  130.5495  150.8778 LP  0  0  0  0  0  0  0  0  0  0  0  0  # atno 17370 bound_to 10713
  157.5798  131.0946  150.9289 LP  0  0  0  0  0  0  0  0  0  0  0  0  # atno 17371 bound_to 10713
  140.8158  133.8392  155.8851 LP  0  0  0  0  0  0  0  0  0  0  0  0  # atno 17394 bound_to 11000
  140.9464  134.1835  157.4760 LP  0  0  0  0  0  0  0  0  0  0  0  0  # atno 17395 bound_to 11000

$$$$
