AV-unprocessed.smi:884|AV-procd|sdf|4043|dock8
  -GOLD-   22720 1533D 1   1.00000     0.00000
 Structure written by MMmdl.
 48 50  0  0  0  0  0  0  0  0  2 V2000
  150.8810  137.1425  159.6305 O   0  0  0  0  0  0  0  0  0  0  0  0
  150.0026  137.5726  158.8818 C   0  0  0  0  0  0  0  0  0  0  0  0
  150.0841  138.7857  158.3067 N   0  0  0  0  0  0  0  0  0  0  0  0
  151.1624  139.7523  158.5035 C   0  0  0  0  0  0  0  0  0  0  0  0
  150.9178  141.0751  157.7515 C   0  0  0  0  0  0  0  0  0  0  0  0
  151.3785  142.3114  158.5050 C   0  0  0  0  0  0  0  0  0  0  0  0
  152.2416  142.2307  159.6189 C   0  0  0  0  0  0  0  0  0  0  0  0
  152.6155  143.4146  160.2885 C   0  0  0  0  0  0  0  0  0  0  0  0
  152.1230  144.6532  159.8279 C   0  0  0  0  0  0  0  0  0  0  0  0
  151.2623  144.6762  158.7117 C   0  0  0  0  0  0  0  0  0  0  0  0
  150.9201  143.5196  158.1028 N   0  3  0  0  0  0  0  0  0  0  0  0
  148.8833  136.8687  158.5722 N   0  0  0  0  0  0  0  0  0  0  0  0
  147.7225  137.3761  157.8250 C   0  0  0  0  0  0  0  0  0  0  0  0
  146.6170  137.7447  158.8223 C   0  0  0  0  0  0  0  0  0  0  0  0
  146.0510  136.2757  159.7334 S   0  0  0  0  0  0  0  0  0  0  0  0
  147.6360  135.5514  160.3055 C   0  0  0  0  0  0  0  0  0  0  0  0
  148.2060  136.3621  161.4994 C   0  0  0  0  0  0  0  0  0  0  0  0
  147.3548  136.2567  162.7771 C   0  0  0  0  0  0  0  0  0  0  0  0
  147.1517  134.7938  163.1909 C   0  0  0  0  0  0  0  0  0  0  0  0
  146.5410  133.9805  162.0425 C   0  0  0  0  0  0  0  0  0  0  0  0
  147.3926  134.0915  160.7641 C   0  0  0  0  0  0  0  0  0  0  0  0
  148.6324  135.5242  159.1132 C   0  0  0  0  0  0  0  0  0  0  0  0
  149.3350  139.0615  157.6882 H   0  0  0  0  0  0  0  0  0  0  0  0
  151.3079  139.9570  159.5652 H   0  0  0  0  0  0  0  0  0  0  0  0
  152.0928  139.3021  158.1570 H   0  0  0  0  0  0  0  0  0  0  0  0
  151.4220  141.0452  156.7848 H   0  0  0  0  0  0  0  0  0  0  0  0
  149.8538  141.1743  157.5317 H   0  0  0  0  0  0  0  0  0  0  0  0
  152.6067  141.2734  159.9614 H   0  0  0  0  0  0  0  0  0  0  0  0
  153.2721  143.3727  161.1453 H   0  0  0  0  0  0  0  0  0  0  0  0
  152.3970  145.5711  160.3273 H   0  0  0  0  0  0  0  0  0  0  0  0
  150.8331  145.5765  158.2969 H   0  0  0  0  0  0  0  0  0  0  0  0
  147.9532  138.2344  157.1941 H   0  0  0  0  0  0  0  0  0  0  0  0
  147.3612  136.6124  157.1346 H   0  0  0  0  0  0  0  0  0  0  0  0
  146.9709  138.4958  159.5289 H   0  0  0  0  0  0  0  0  0  0  0  0
  145.7641  138.1776  158.2994 H   0  0  0  0  0  0  0  0  0  0  0  0
  149.2131  136.0090  161.7247 H   0  0  0  0  0  0  0  0  0  0  0  0
  148.3120  137.4111  161.2319 H   0  0  0  0  0  0  0  0  0  0  0  0
  147.8375  136.8036  163.5874 H   0  0  0  0  0  0  0  0  0  0  0  0
  146.3863  136.7337  162.6227 H   0  0  0  0  0  0  0  0  0  0  0  0
  148.1091  134.3582  163.4791 H   0  0  0  0  0  0  0  0  0  0  0  0
  146.5086  134.7395  164.0697 H   0  0  0  0  0  0  0  0  0  0  0  0
  146.4560  132.9343  162.3375 H   0  0  0  0  0  0  0  0  0  0  0  0
  145.5246  134.3241  161.8485 H   0  0  0  0  0  0  0  0  0  0  0  0
  146.9198  133.5217  159.9631 H   0  0  0  0  0  0  0  0  0  0  0  0
  148.3519  133.6061  160.9490 H   0  0  0  0  0  0  0  0  0  0  0  0
  148.2402  134.8890  158.3173 H   0  0  0  0  0  0  0  0  0  0  0  0
  149.5630  135.0408  159.4152 H   0  0  0  0  0  0  0  0  0  0  0  0
  150.2918  143.5594  157.3001 H   0  0  0  0  0  0  0  0  0  0  0  0
  1  2  2  0  0  0  0
  2  3  1  0  0  0  0
  2 12  1  0  0  0  0
  3  4  1  0  0  0  0
  3 23  1  0  0  0  0
  4  5  1  0  0  0  0
  4 24  1  0  0  0  0
  4 25  1  0  0  0  0
  5  6  1  0  0  0  0
  5 26  1  0  0  0  0
  5 27  1  0  0  0  0
  6 11  1  0  0  0  0
  6  7  2  0  0  0  0
  7  8  1  0  0  0  0
  7 28  1  0  0  0  0
  8  9  2  0  0  0  0
  8 29  1  0  0  0  0
  9 10  1  0  0  0  0
  9 30  1  0  0  0  0
 10 11  2  0  0  0  0
 10 31  1  0  0  0  0
 11 48  1  0  0  0  0
 12 22  1  0  0  0  0
 12 13  1  0  0  0  0
 13 14  1  0  0  0  0
 13 32  1  0  0  0  0
 13 33  1  0  0  0  0
 14 15  1  0  0  0  0
 14 34  1  0  0  0  0
 14 35  1  0  0  0  0
 15 16  1  0  0  0  0
 16 21  1  0  0  0  0
 16 17  1  0  0  0  0
 16 22  1  0  0  0  0
 17 18  1  0  0  0  0
 17 36  1  0  0  0  0
 17 37  1  0  0  0  0
 18 19  1  0  0  0  0
 18 38  1  0  0  0  0
 18 39  1  0  0  0  0
 19 20  1  0  0  0  0
 19 40  1  0  0  0  0
 19 41  1  0  0  0  0
 20 21  1  0  0  0  0
 20 42  1  0  0  0  0
 20 43  1  0  0  0  0
 21 44  1  0  0  0  0
 21 45  1  0  0  0  0
 22 46  1  0  0  0  0
 22 47  1  0  0  0  0
M  CHG  1  11   1
M  END
> <s_m_source_file>
AV-unprocessed.smi

> <i_m_source_file_index>
884

> <i_lp_mmshare_version>
43012

> <i_f3d_flags>
0

> <s_epik_input>
bjFbY0hdW2NIXVtjSF1bY0hdYzFbQ0gyXVtDSDJdW05IXUMoPU8pTihbQ0gyXTIpW0NIMl1bQ0gyXVNDMjNbQ0gyXVtDSDJdW0NIMl1bQ0gyXVtDSDJdMw==

> <s_epik_cmdline>
J2VwaWtfcHl0aG9uJywgJy1waCcsICc3LjAnLCAnLXRuJywgJzgnLCAnLW1hJywgJzIwMCcsICctbWV0YWxfYmluZGluZycsICctaW1hZScsICc8aW5maWxlLm1hZT4nLCAnLW9tYWUnLCAnPG91dGZpbGUubWFlPic=

> <r_epik_Ionization_Penalty>
1.55139

> <r_epik_Ionization_Penalty_Charging>
1.55135

> <r_epik_Ionization_Penalty_Neutral>
4.66963e-05

> <r_epik_State_Penalty>
1.64559

> <r_epik_Charging_Adjusted_Penalty>
3.19693

> <i_epik_Tot_Q>
1

> <i_epik_Tot_abs_Q>
1

> <r_epik_Metal_State_Penalty>
1.68773

> <b_epik_Metal_Only>
0

> <s_lp_Force_Field>
OPLS_2005

> <r_lp_Energy>
36.5944

> <b_lp_Chiralities_Consistent>
1

> <s_lp_Variant>
AV-unprocessed.smi:884-2

> <Gold.Version>
5.8.1

> <Gold.Id.Protein>
6NUR|6NUR_protein|mol2

> <Gold.PLP.Fitness>
49.5102

> <Gold.PLP.PLP>
-44.0831

> <Gold.PLP.part.hbond>
-1.4759

> <Gold.PLP.part.metal>
0.0000

> <Gold.PLP.part.buried>
-4.2137

> <Gold.PLP.part.nonpolar>
-38.6121

> <Gold.PLP.part.repulsive>
0.1001

> <Gold.PLP.ligand.clash>
0.0000

> <Gold.PLP.ligand.torsion>
0.4723

> <Gold.PLP.Chemscore.Hbond>
2.1161

> <Gold.PLP.Chemscore.CHOScore>
0.0000

> <Gold.PLP.Chemscore.Metal>
0.0000

> <Gold.Chemscore.Hbonds>
donor molecule, donor type, donor heavy atom, donor atom, acceptor molecule, acceptor atom, score
      P1  H  6896  6907       L1     1  0.81

> <Gold.PLP.Chemscore.Internal.Correction>
0.0233

> <Gold.Rescore>
     Score         DG    S(hbond)    S(metal)    S(lipo)     H(rot)  DE(clash)    DE(int)     intcor
     19.05     -19.64       0.97        0.00     121.78       1.30       0.21       0.39       ----

> <Gold.Chemscore.Fitness>
19.0452

> <Gold.Chemscore.DG>
-19.6448

> <Gold.Chemscore.ZeroCoef>
-5.4800

> <Gold.Chemscore.Hbond>
0.9680

> <Gold.Chemscore.Metal>
0.0000

> <Gold.Chemscore.Lipo>
121.7759

> <Gold.Chemscore.Internal_Hbond>
0.0000

> <Gold.Chemscore.DEClash>
0.2111

> <Gold.Chemscore.DEInternal>
0.3886

> <Gold.Chemscore.Rot>
1.2953

> <Gold.Chemscore.Internal.Correction>
   9.000000E+99

> <Gold.Chemscore.Hbonds>
donor molecule, donor type, donor heavy atom, donor atom, acceptor molecule, acceptor atom, score
      L1  H    11    48       P1  8028  0.06
      P1  H  6896  6907       L1     1  0.76

> <Gold.Chemscore.Hbond.Weighted>
-3.2330

> <Gold.Chemscore.Metal.Weighted>
-0.0000

> <Gold.Chemscore.Lipo.Weighted>
-14.2478

> <Gold.Chemscore.Internal_Hbond.Weighted>
0.0000

> <Gold.Chemscore.DEClash.Weighted>
0.2111

> <Gold.Chemscore.DEInternal.Weighted>
0.3886

> <Gold.Chemscore.Rot.Weighted>
3.3159

> <Gold.Chemscore.Internal.Correction.Weighted>
   9.000000E+99

> <Gold.Protein.RotatedTorsions>
[ 6907 6896 6895 6894 ] final  -32.26 input  -60.11 | X-H torsion
[ 7974 7965 7964 7962 ] final  171.90 input  175.53 | X-H torsion
[ 8008 7997 7996 7995 ] final -104.27 input   59.86 | X-H torsion
[ 10167 10162 10161 10158 ] final  103.64 input  -65.29 | X-H torsion
[ 10718 10713 10712 10709 ] final   -4.67 input   66.30 | X-H torsion
[ 10763 10752 10751 10750 ] final    2.82 input  -60.55 | X-H torsion
[ 11005 11000 10999 10996 ] final  145.27 input  -57.11 | X-H torsion

> <Gold.Protein.ActiveResidues>
 VAL166  LYS551  ARG553  GLY616  TRP617  ASP618  TYR619  PRO620  LYS621  CYS622 
 ASP623  PHE694  ASN695  SER759  ASP760  ASP761  ALA762  ILE779  LEU786  VAL792 
 PHE793  MET794  SER795  GLU796  ALA797  LYS798  CYS799  TRP800  GLU811  SER814 

> <Gold.Protein.RotatedAtoms>
  151.0811  134.9859  159.8356 H   0  0  0  0  0  0  0  0  0  0  0  0  # atno 6907 bound_to 6896
  152.5419  134.2180  159.8786 H   0  0  0  0  0  0  0  0  0  0  0  0  # atno 6908 bound_to 6896
  151.2210  133.4458  159.2634 H   0  0  0  0  0  0  0  0  0  0  0  0  # atno 6909 bound_to 6896
  144.7282  139.9418  143.6429 H   0  0  0  0  0  0  0  0  0  0  0  0  # atno 7974 bound_to 7965
  154.8828  140.0418  157.1793 H   0  0  0  0  0  0  0  0  0  0  0  0  # atno 8008 bound_to 7997
  154.8621  140.2945  155.5512 H   0  0  0  0  0  0  0  0  0  0  0  0  # atno 8009 bound_to 7997
  156.2998  140.2445  156.3597 H   0  0  0  0  0  0  0  0  0  0  0  0  # atno 8010 bound_to 7997
  139.7245  144.7050  151.0819 H   0  0  0  0  0  0  0  0  0  0  0  0  # atno 10167 bound_to 10162
  156.7578  130.5260  149.5791 H   0  0  0  0  0  0  0  0  0  0  0  0  # atno 10718 bound_to 10713
  153.2909  135.6948  153.7294 H   0  0  0  0  0  0  0  0  0  0  0  0  # atno 10763 bound_to 10752
  153.6246  135.3421  155.3022 H   0  0  0  0  0  0  0  0  0  0  0  0  # atno 10764 bound_to 10752
  154.8523  135.4394  154.1991 H   0  0  0  0  0  0  0  0  0  0  0  0  # atno 10765 bound_to 10752
  140.0699  134.9158  157.1327 H   0  0  0  0  0  0  0  0  0  0  0  0  # atno 11005 bound_to 11000
  146.0779  139.3767  143.0483 LP  0  0  0  0  0  0  0  0  0  0  0  0  # atno 17320 bound_to 7965
  145.7881  140.9827  143.1064 LP  0  0  0  0  0  0  0  0  0  0  0  0  # atno 17321 bound_to 7965
  140.7760  143.5122  150.9638 LP  0  0  0  0  0  0  0  0  0  0  0  0  # atno 17342 bound_to 10162
  139.8810  143.7072  152.3157 LP  0  0  0  0  0  0  0  0  0  0  0  0  # atno 17343 bound_to 10162
  156.1359  130.6210  151.0399 LP  0  0  0  0  0  0  0  0  0  0  0  0  # atno 17370 bound_to 10713
  157.6748  131.0853  150.7522 LP  0  0  0  0  0  0  0  0  0  0  0  0  # atno 17371 bound_to 10713
  140.3643  134.2460  155.7184 LP  0  0  0  0  0  0  0  0  0  0  0  0  # atno 17394 bound_to 11000
  141.2007  133.7980  157.0474 LP  0  0  0  0  0  0  0  0  0  0  0  0  # atno 17395 bound_to 11000

$$$$
