AV-unprocessed.smi:1878|AV-procd|sdf|7629|dock1
  -GOLD-   22720 9353D 1   1.00000     0.00000
 Structure written by MMmdl.
 35 36  0  0  0  0  0  0  0  0  3 V2000
  151.4863  134.6158  156.1556 O   0  0  0  0  0  0  0  0  0  0  0  0
  151.4637  133.4477  156.5602 C   0  0  0  0  0  0  0  0  0  0  0  0
  152.2036  132.9019  157.5610 N   0  5  0  0  0  0  0  0  0  0  0  0
  152.9731  131.6598  157.4424 C   0  0  0  0  0  0  0  0  0  0  0  0
  154.4203  131.8646  157.9282 C   0  0  0  0  0  0  0  0  0  0  0  0
  154.4068  132.1713  159.2255 F   0  0  0  0  0  0  0  0  0  0  0  0
  155.1352  130.7501  157.7646 F   0  0  0  0  0  0  0  0  0  0  0  0
  155.0051  132.8630  157.2640 F   0  0  0  0  0  0  0  0  0  0  0  0
  150.6558  132.5421  155.9797 N   0  0  0  0  0  0  0  0  0  0  0  0
  149.7255  132.7189  154.9208 C   0  0  0  0  0  0  0  0  0  0  0  0
  148.9668  131.5999  154.5177 C   0  0  0  0  0  0  0  0  0  0  0  0
  148.0214  131.7327  153.4802 C   0  0  0  0  0  0  0  0  0  0  0  0
  147.8367  132.9944  152.8681 C   0  0  0  0  0  0  0  0  0  0  0  0
  146.9333  133.2327  151.8231 N   0  0  0  0  0  0  0  0  0  0  0  0
  146.0242  134.3509  152.0115 C   0  0  0  0  0  0  0  0  0  0  0  0
  144.9240  134.1568  150.9654 C   0  0  0  0  0  0  0  0  0  0  0  0
  144.9551  132.6589  150.6370 C   0  0  0  0  0  0  0  0  0  0  0  0
  146.0993  132.0929  151.4829 C   0  0  0  0  0  0  0  0  0  0  0  0
  148.5715  134.0450  153.2932 N   0  3  0  0  0  0  0  0  0  0  0  0
  149.4878  133.9597  154.2819 C   0  0  0  0  0  0  0  0  0  0  0  0
  152.5187  130.8548  158.0221 H   0  0  0  0  0  0  0  0  0  0  0  0
  152.9962  131.3027  156.4117 H   0  0  0  0  0  0  0  0  0  0  0  0
  150.7724  131.5937  156.3054 H   0  0  0  0  0  0  0  0  0  0  0  0
  149.1139  130.6410  154.9932 H   0  0  0  0  0  0  0  0  0  0  0  0
  147.4539  130.8711  153.1614 H   0  0  0  0  0  0  0  0  0  0  0  0
  145.5927  134.3377  153.0128 H   0  0  0  0  0  0  0  0  0  0  0  0
  146.5394  135.3028  151.8796 H   0  0  0  0  0  0  0  0  0  0  0  0
  143.9517  134.4826  151.3359 H   0  0  0  0  0  0  0  0  0  0  0  0
  145.1491  134.7363  150.0692 H   0  0  0  0  0  0  0  0  0  0  0  0
  144.0093  132.1654  150.8630 H   0  0  0  0  0  0  0  0  0  0  0  0
  145.1592  132.5151  149.5753 H   0  0  0  0  0  0  0  0  0  0  0  0
  146.6674  131.3389  150.9373 H   0  0  0  0  0  0  0  0  0  0  0  0
  145.7048  131.6284  152.3880 H   0  0  0  0  0  0  0  0  0  0  0  0
  149.9826  134.8879  154.5264 H   0  0  0  0  0  0  0  0  0  0  0  0
  148.4253  134.9510  152.8479 H   0  0  0  0  0  0  0  0  0  0  0  0
  1  2  2  0  0  0  0
  2  3  1  0  0  0  0
  2  9  1  0  0  0  0
  3  4  1  0  0  0  0
  4  5  1  0  0  0  0
  4 21  1  0  0  0  0
  4 22  1  0  0  0  0
  5  6  1  0  0  0  0
  5  7  1  0  0  0  0
  5  8  1  0  0  0  0
  9 10  1  0  0  0  0
  9 23  1  0  0  0  0
 10 20  1  0  0  0  0
 10 11  2  0  0  0  0
 11 12  1  0  0  0  0
 11 24  1  0  0  0  0
 12 13  2  0  0  0  0
 12 25  1  0  0  0  0
 13 14  1  0  0  0  0
 13 19  1  0  0  0  0
 14 18  1  0  0  0  0
 14 15  1  0  0  0  0
 15 16  1  0  0  0  0
 15 26  1  0  0  0  0
 15 27  1  0  0  0  0
 16 17  1  0  0  0  0
 16 28  1  0  0  0  0
 16 29  1  0  0  0  0
 17 18  1  0  0  0  0
 17 30  1  0  0  0  0
 17 31  1  0  0  0  0
 18 32  1  0  0  0  0
 18 33  1  0  0  0  0
 19 20  2  0  0  0  0
 19 35  1  0  0  0  0
 20 34  1  0  0  0  0
M  CHG  1   3  -1
M  CHG  1  19   1
M  END
> <s_m_source_file>
AV-unprocessed.smi

> <i_m_source_file_index>
1878

> <i_lp_mmshare_version>
43012

> <i_f3d_flags>
0

> <s_epik_input>
RkMoRikoRilbQ0gyXVtOSF1DKD1PKVtOSF1jMVtjSF1bY0hdYyhuW2NIXTEpTjJbQ0gyXVtDSDJdW0NIMl1bQ0gyXTI=

> <s_epik_cmdline>
J2VwaWtfcHl0aG9uJywgJy1waCcsICc3LjAnLCAnLXRuJywgJzgnLCAnLW1hJywgJzIwMCcsICctbWV0YWxfYmluZGluZycsICctaW1hZScsICc8aW5maWxlLm1hZT4nLCAnLW9tYWUnLCAnPG91dGZpbGUubWFlPic=

> <r_lp_tautomer_probability>
0.999994

> <r_epik_Ionization_Penalty>
8.03425

> <r_epik_Ionization_Penalty_Charging>
8.03425

> <r_epik_Ionization_Penalty_Neutral>
2.43273e-06

> <r_epik_State_Penalty>
7.63947

> <r_epik_Charging_Adjusted_Penalty>
15.6737

> <i_epik_Tot_Q>
0

> <i_epik_Tot_abs_Q>
2

> <r_epik_Metal_State_Penalty>
3.63831

> <b_epik_Metal_Only>
1

> <s_lp_Force_Field>
OPLS_2005

> <r_lp_Energy>
42.9348

> <b_lp_Chiralities_Consistent>
1

> <s_lp_Variant>
AV-unprocessed.smi:1878-4

> <Gold.Version>
5.8.1

> <Gold.Id.Protein>
6NUR|6NUR_protein|mol2

> <Gold.PLP.Fitness>
40.2241

> <Gold.PLP.PLP>
-27.8272

> <Gold.PLP.part.hbond>
-3.0000

> <Gold.PLP.part.metal>
0.0000

> <Gold.PLP.part.buried>
-1.7337

> <Gold.PLP.part.nonpolar>
-22.4235

> <Gold.PLP.part.repulsive>
0.2585

> <Gold.PLP.ligand.clash>
0.0000

> <Gold.PLP.ligand.torsion>
0.5770

> <Gold.PLP.Chemscore.Hbond>
4.4727

> <Gold.PLP.Chemscore.CHOScore>
0.0000

> <Gold.PLP.Chemscore.Metal>
0.0000

> <Gold.Chemscore.Hbonds>
donor molecule, donor type, donor heavy atom, donor atom, acceptor molecule, acceptor atom, score
      L1  H    19    35       P1  7948  1.98
      P1  H  6896  6909       L1     3  1.66
      P1  H 10752 10764       L1     1  0.58

> <Gold.PLP.Chemscore.Internal.Correction>
0.1328

> <Gold.Rescore>
     Score         DG    S(hbond)    S(metal)    S(lipo)     H(rot)  DE(clash)    DE(int)     intcor
     13.00     -15.35       2.12        0.00      52.93       1.33       0.26       2.09       ----

> <Gold.Chemscore.Fitness>
13.0003

> <Gold.Chemscore.DG>
-15.3451

> <Gold.Chemscore.ZeroCoef>
-5.4800

> <Gold.Chemscore.Hbond>
2.1201

> <Gold.Chemscore.Metal>
0.0000

> <Gold.Chemscore.Lipo>
52.9331

> <Gold.Chemscore.Internal_Hbond>
0.0000

> <Gold.Chemscore.DEClash>
0.2563

> <Gold.Chemscore.DEInternal>
2.0886

> <Gold.Chemscore.Rot>
1.3317

> <Gold.Chemscore.Internal.Correction>
   9.000000E+99

> <Gold.Chemscore.Hbonds>
donor molecule, donor type, donor heavy atom, donor atom, acceptor molecule, acceptor atom, score
      L1  H    19    35       P1  7948  0.57
      P1  H  6896  6909       L1     3  0.67
      P1  H 10752 10764       L1     1  0.56

> <Gold.Chemscore.Hbond.Weighted>
-7.0812

> <Gold.Chemscore.Metal.Weighted>
-0.0000

> <Gold.Chemscore.Lipo.Weighted>
-6.1932

> <Gold.Chemscore.Internal_Hbond.Weighted>
0.0000

> <Gold.Chemscore.DEClash.Weighted>
0.2563

> <Gold.Chemscore.DEInternal.Weighted>
2.0886

> <Gold.Chemscore.Rot.Weighted>
3.4092

> <Gold.Chemscore.Internal.Correction.Weighted>
   9.000000E+99

> <Gold.Protein.RotatedTorsions>
[ 6907 6896 6895 6894 ] final  -73.22 input  -60.11 | X-H torsion
[ 7974 7965 7964 7962 ] final  103.21 input  175.53 | X-H torsion
[ 8008 7997 7996 7995 ] final  -89.15 input   59.86 | X-H torsion
[ 10167 10162 10161 10158 ] final  -82.87 input  -65.29 | X-H torsion
[ 10718 10713 10712 10709 ] final  127.68 input   66.30 | X-H torsion
[ 10763 10752 10751 10750 ] final  -29.51 input  -60.55 | X-H torsion
[ 11005 11000 10999 10996 ] final  -50.28 input  -57.11 | X-H torsion

> <Gold.Protein.ActiveResidues>
 VAL166  LYS551  ARG553  GLY616  TRP617  ASP618  TYR619  PRO620  LYS621  CYS622 
 ASP623  PHE694  ASN695  SER759  ASP760  ASP761  ALA762  ILE779  LEU786  VAL792 
 PHE793  MET794  SER795  GLU796  ALA797  LYS798  CYS799  TRP800  GLU811  SER814 

> <Gold.Protein.RotatedAtoms>
  150.7138  134.5048  159.5578 H   0  0  0  0  0  0  0  0  0  0  0  0  # atno 6907 bound_to 6896
  152.2637  134.8004  160.0435 H   0  0  0  0  0  0  0  0  0  0  0  0  # atno 6908 bound_to 6896
  151.8708  133.3440  159.3771 H   0  0  0  0  0  0  0  0  0  0  0  0  # atno 6909 bound_to 6896
  145.3489  139.2444  143.3569 H   0  0  0  0  0  0  0  0  0  0  0  0  # atno 7974 bound_to 7965
  154.6832  140.0545  157.0288 H   0  0  0  0  0  0  0  0  0  0  0  0  # atno 8008 bound_to 7997
  155.0921  140.3220  155.4552 H   0  0  0  0  0  0  0  0  0  0  0  0  # atno 8009 bound_to 7997
  156.2702  140.2046  156.6048 H   0  0  0  0  0  0  0  0  0  0  0  0  # atno 8010 bound_to 7997
  140.4279  143.2559  151.8800 H   0  0  0  0  0  0  0  0  0  0  0  0  # atno 10167 bound_to 10162
  157.5311  131.1098  150.9007 H   0  0  0  0  0  0  0  0  0  0  0  0  # atno 10718 bound_to 10713
  153.7658  135.6916  153.4916 H   0  0  0  0  0  0  0  0  0  0  0  0  # atno 10763 bound_to 10752
  153.1907  135.4472  155.0145 H   0  0  0  0  0  0  0  0  0  0  0  0  # atno 10764 bound_to 10752
  154.8136  135.3388  154.7171 H   0  0  0  0  0  0  0  0  0  0  0  0  # atno 10765 bound_to 10752
  141.0807  133.6654  156.3707 H   0  0  0  0  0  0  0  0  0  0  0  0  # atno 11005 bound_to 11000
  146.2976  140.4102  142.8716 LP  0  0  0  0  0  0  0  0  0  0  0  0  # atno 17320 bound_to 7965
  144.8732  140.7301  143.6033 LP  0  0  0  0  0  0  0  0  0  0  0  0  # atno 17321 bound_to 7965
  139.4784  144.5366  151.8589 LP  0  0  0  0  0  0  0  0  0  0  0  0  # atno 17342 bound_to 10162
  140.4460  144.1921  150.5894 LP  0  0  0  0  0  0  0  0  0  0  0  0  # atno 17343 bound_to 10162
  156.9588  130.5447  149.5285 LP  0  0  0  0  0  0  0  0  0  0  0  0  # atno 17370 bound_to 10713
  156.0423  130.5504  150.8800 LP  0  0  0  0  0  0  0  0  0  0  0  0  # atno 17371 bound_to 10713
  140.5475  134.6060  157.5398 LP  0  0  0  0  0  0  0  0  0  0  0  0  # atno 17394 bound_to 11000
  139.9620  134.7436  156.0216 LP  0  0  0  0  0  0  0  0  0  0  0  0  # atno 17395 bound_to 11000

$$$$
