AV-unprocessed.smi:1868|AV-procd|sdf|7590|dock2
  -GOLD-   22720 9303D 1   1.00000     0.00000
 Structure written by MMmdl.
 48 50  0  0  0  0  0  0  0  0  3 V2000
  152.4043  139.1782  158.2164 C   0  0  0  0  0  0  0  0  0  0  0  0
  152.2047  140.6212  158.5382 C   0  0  0  0  0  0  0  0  0  0  0  0
  152.4818  141.2211  159.7301 N   0  3  0  0  0  0  0  0  0  0  0  0
  152.1708  142.5799  159.6589 C   0  0  0  0  0  0  0  0  0  0  0  0
  152.2804  143.5915  160.6081 C   0  0  0  0  0  0  0  0  0  0  0  0
  151.8734  144.8812  160.2082 C   0  0  0  0  0  0  0  0  0  0  0  0
  151.3813  145.1265  158.9096 C   0  0  0  0  0  0  0  0  0  0  0  0
  151.2746  144.0927  157.9555 C   0  0  0  0  0  0  0  0  0  0  0  0
  151.6787  142.8206  158.3596 C   0  0  0  0  0  0  0  0  0  0  0  0
  151.7143  141.5841  157.7052 N   0  0  0  0  0  0  0  0  0  0  0  0
  151.2575  141.4950  156.3093 C   0  0  0  0  0  0  0  0  0  0  0  0
  150.0149  140.5978  156.1358 C   0  0  2  0  0  0  0  0  0  0  0  0
  150.4351  139.2588  155.9543 O   0  0  0  0  0  0  0  0  0  0  0  0
  149.1734  141.0353  154.9186 C   0  0  0  0  0  0  0  0  0  0  0  0
  148.0355  141.9227  155.2759 N   0  3  2  0  0  0  0  0  0  0  0  0
  147.4056  141.5264  156.5622 C   0  0  0  0  0  0  0  0  0  0  0  0
  146.3175  142.5284  156.9884 C   0  0  0  0  0  0  0  0  0  0  0  0
  145.2467  142.7247  155.9003 C   0  0  2  0  0  0  0  0  0  0  0  0
  144.2889  141.5257  155.7825 C   0  0  0  0  0  0  0  0  0  0  0  0
  145.9328  143.0714  154.5668 C   0  0  0  0  0  0  0  0  0  0  0  0
  147.0252  142.0538  154.1916 C   0  0  0  0  0  0  0  0  0  0  0  0
  152.8046  138.6447  159.0789 H   0  0  0  0  0  0  0  0  0  0  0  0
  153.1039  139.0707  157.3873 H   0  0  0  0  0  0  0  0  0  0  0  0
  151.4564  138.7195  157.9357 H   0  0  0  0  0  0  0  0  0  0  0  0
  152.6579  143.4064  161.6032 H   0  0  0  0  0  0  0  0  0  0  0  0
  151.9409  145.6987  160.9115 H   0  0  0  0  0  0  0  0  0  0  0  0
  151.0803  146.1286  158.6402 H   0  0  0  0  0  0  0  0  0  0  0  0
  150.8975  144.2915  156.9635 H   0  0  0  0  0  0  0  0  0  0  0  0
  151.0629  142.5055  155.9477 H   0  0  0  0  0  0  0  0  0  0  0  0
  152.0871  141.1130  155.7129 H   0  0  0  0  0  0  0  0  0  0  0  0
  149.4249  140.6465  157.0496 H   0  0  0  0  0  0  0  0  0  0  0  0
  149.7448  138.6779  156.2348 H   0  0  0  0  0  0  0  0  0  0  0  0
  149.8013  141.5437  154.1852 H   0  0  0  0  0  0  0  0  0  0  0  0
  148.7980  140.1384  154.4235 H   0  0  0  0  0  0  0  0  0  0  0  0
  146.9884  140.5226  156.4721 H   0  0  0  0  0  0  0  0  0  0  0  0
  148.1655  141.4802  157.3431 H   0  0  0  0  0  0  0  0  0  0  0  0
  145.8540  142.2034  157.9207 H   0  0  0  0  0  0  0  0  0  0  0  0
  146.7876  143.4889  157.2050 H   0  0  0  0  0  0  0  0  0  0  0  0
  144.6348  143.5803  156.1894 H   0  0  0  0  0  0  0  0  0  0  0  0
  144.8077  140.6082  155.5060 H   0  0  0  0  0  0  0  0  0  0  0  0
  143.5238  141.7113  155.0279 H   0  0  0  0  0  0  0  0  0  0  0  0
  143.7760  141.3409  156.7268 H   0  0  0  0  0  0  0  0  0  0  0  0
  145.1933  143.1391  153.7681 H   0  0  0  0  0  0  0  0  0  0  0  0
  146.3840  144.0617  154.6436 H   0  0  0  0  0  0  0  0  0  0  0  0
  147.4987  142.3824  153.2677 H   0  0  0  0  0  0  0  0  0  0  0  0
  146.5822  141.0793  153.9825 H   0  0  0  0  0  0  0  0  0  0  0  0
  148.4256  142.8412  155.4305 H   0  0  0  0  0  0  0  0  0  0  0  0
  152.8588  140.7340  160.5332 H   0  0  0  0  0  0  0  0  0  0  0  0
  1  2  1  0  0  0  0
  1 22  1  0  0  0  0
  1 23  1  0  0  0  0
  1 24  1  0  0  0  0
  2 10  1  0  0  0  0
  2  3  2  0  0  0  0
  3  4  1  0  0  0  0
  3 48  1  0  0  0  0
  4  9  2  0  0  0  0
  4  5  1  0  0  0  0
  5  6  2  0  0  0  0
  5 25  1  0  0  0  0
  6  7  1  0  0  0  0
  6 26  1  0  0  0  0
  7  8  2  0  0  0  0
  7 27  1  0  0  0  0
  8  9  1  0  0  0  0
  8 28  1  0  0  0  0
  9 10  1  0  0  0  0
 10 11  1  0  0  0  0
 11 12  1  0  0  0  0
 11 29  1  0  0  0  0
 11 30  1  0  0  0  0
 12 13  1  0  0  0  0
 12 14  1  0  0  0  0
 12 31  1  0  0  0  0
 13 32  1  0  0  0  0
 14 15  1  0  0  0  0
 14 33  1  0  0  0  0
 14 34  1  0  0  0  0
 15 21  1  0  0  0  0
 15 16  1  0  0  0  0
 15 47  1  0  0  0  0
 16 17  1  0  0  0  0
 16 35  1  0  0  0  0
 16 36  1  0  0  0  0
 17 18  1  0  0  0  0
 17 37  1  0  0  0  0
 17 38  1  0  0  0  0
 18 19  1  0  0  0  0
 18 20  1  0  0  0  0
 18 39  1  0  0  0  0
 19 40  1  0  0  0  0
 19 41  1  0  0  0  0
 19 42  1  0  0  0  0
 20 21  1  0  0  0  0
 20 43  1  0  0  0  0
 20 44  1  0  0  0  0
 21 45  1  0  0  0  0
 21 46  1  0  0  0  0
M  CHG  1   3   1
M  CHG  1  15   1
M  END
> <s_m_source_file>
AV-unprocessed.smi

> <i_m_source_file_index>
1868

> <i_lp_mmshare_version>
43012

> <i_f3d_flags>
0

> <s_epik_input>
W2NIXTFbY0hdW2NIXVtjSF1jKGMxMiluKGMobjIpW0NIM10pW0NIMl1bQ0BIXShbT0hdKVtDSDJdTjNbQ0gyXVtDSDJdW0NIXShbQ0gzXSlbQ0gyXVtDSDJdMw==

> <s_epik_cmdline>
J2VwaWtfcHl0aG9uJywgJy1waCcsICc3LjAnLCAnLXRuJywgJzgnLCAnLW1hJywgJzIwMCcsICctbWV0YWxfYmluZGluZycsICctaW1hZScsICc8aW5maWxlLm1hZT4nLCAnLW9tYWUnLCAnPG91dGZpbGUubWFlPic=

> <r_epik_Ionization_Penalty>
1.10901

> <r_epik_Ionization_Penalty_Charging>
1.10901

> <r_epik_Ionization_Penalty_Neutral>
6.90208e-07

> <r_epik_State_Penalty>
1.18788

> <r_epik_Charging_Adjusted_Penalty>
2.29689

> <i_epik_Tot_Q>
2

> <i_epik_Tot_abs_Q>
2

> <r_epik_Metal_State_Penalty>
5.19353

> <b_epik_Metal_Only>
0

> <s_lp_Force_Field>
OPLS_2005

> <r_lp_Energy>
32.3741

> <b_lp_Chiralities_Consistent>
1

> <s_lp_Variant>
AV-unprocessed.smi:1868-7

> <Gold.Version>
5.8.1

> <Gold.Id.Protein>
6NUR|6NUR_protein|mol2

> <Gold.PLP.Fitness>
49.2933

> <Gold.PLP.PLP>
-45.3002

> <Gold.PLP.part.hbond>
-1.0000

> <Gold.PLP.part.metal>
0.0000

> <Gold.PLP.part.buried>
-7.8177

> <Gold.PLP.part.nonpolar>
-37.4480

> <Gold.PLP.part.repulsive>
0.2472

> <Gold.PLP.ligand.clash>
0.0000

> <Gold.PLP.ligand.torsion>
1.0214

> <Gold.PLP.Chemscore.Hbond>
2.0000

> <Gold.PLP.Chemscore.CHOScore>
0.0000

> <Gold.PLP.Chemscore.Metal>
0.0000

> <Gold.Chemscore.Hbonds>
donor molecule, donor type, donor heavy atom, donor atom, acceptor molecule, acceptor atom, score
      L1  H    15    47       P1  8028  2.00

> <Gold.PLP.Chemscore.Internal.Correction>
0.0359

> <Gold.Rescore>
     Score         DG    S(hbond)    S(metal)    S(lipo)     H(rot)  DE(clash)    DE(int)     intcor
     16.15     -17.25       1.00        0.00     115.54       1.99       0.01       1.09       ----

> <Gold.Chemscore.Fitness>
16.1451

> <Gold.Chemscore.DG>
-17.2462

> <Gold.Chemscore.ZeroCoef>
-5.4800

> <Gold.Chemscore.Hbond>
0.9978

> <Gold.Chemscore.Metal>
0.0000

> <Gold.Chemscore.Lipo>
115.5440

> <Gold.Chemscore.Internal_Hbond>
0.0000

> <Gold.Chemscore.DEClash>
0.0133

> <Gold.Chemscore.DEInternal>
1.0878

> <Gold.Chemscore.Rot>
1.9863

> <Gold.Chemscore.Internal.Correction>
   9.000000E+99

> <Gold.Chemscore.Hbonds>
donor molecule, donor type, donor heavy atom, donor atom, acceptor molecule, acceptor atom, score
      L1  H    15    47       P1  8028  0.99

> <Gold.Chemscore.Hbond.Weighted>
-3.3326

> <Gold.Chemscore.Metal.Weighted>
-0.0000

> <Gold.Chemscore.Lipo.Weighted>
-13.5186

> <Gold.Chemscore.Internal_Hbond.Weighted>
0.0000

> <Gold.Chemscore.DEClash.Weighted>
0.0133

> <Gold.Chemscore.DEInternal.Weighted>
1.0878

> <Gold.Chemscore.Rot.Weighted>
5.0850

> <Gold.Chemscore.Internal.Correction.Weighted>
   9.000000E+99

> <Gold.Protein.RotatedTorsions>
[ 6907 6896 6895 6894 ] final -139.41 input  -60.11 | X-H torsion
[ 7974 7965 7964 7962 ] final -162.79 input  175.53 | X-H torsion
[ 8008 7997 7996 7995 ] final  -17.46 input   59.86 | X-H torsion
[ 10167 10162 10161 10158 ] final  -27.17 input  -65.29 | X-H torsion
[ 10718 10713 10712 10709 ] final   92.08 input   66.30 | X-H torsion
[ 10763 10752 10751 10750 ] final  -64.73 input  -60.55 | X-H torsion
[ 11005 11000 10999 10996 ] final    1.71 input  -57.11 | X-H torsion

> <Gold.Protein.ActiveResidues>
 VAL166  LYS551  ARG553  GLY616  TRP617  ASP618  TYR619  PRO620  LYS621  CYS622 
 ASP623  PHE694  ASN695  SER759  ASP760  ASP761  ALA762  ILE779  LEU786  VAL792 
 PHE793  MET794  SER795  GLU796  ALA797  LYS798  CYS799  TRP800  GLU811  SER814 

> <Gold.Protein.RotatedAtoms>
  151.0474  133.5653  159.2645 H   0  0  0  0  0  0  0  0  0  0  0  0  # atno 6907 bound_to 6896
  151.2677  135.0674  159.9132 H   0  0  0  0  0  0  0  0  0  0  0  0  # atno 6908 bound_to 6896
  152.5375  134.0209  159.8035 H   0  0  0  0  0  0  0  0  0  0  0  0  # atno 6909 bound_to 6896
  144.7346  140.3201  143.6172 H   0  0  0  0  0  0  0  0  0  0  0  0  # atno 7974 bound_to 7965
  154.4977  140.2142  155.9413 H   0  0  0  0  0  0  0  0  0  0  0  0  # atno 8008 bound_to 7997
  156.1392  140.3183  155.8436 H   0  0  0  0  0  0  0  0  0  0  0  0  # atno 8009 bound_to 7997
  155.4152  140.0493  157.3020 H   0  0  0  0  0  0  0  0  0  0  0  0  # atno 8010 bound_to 7997
  140.7279  143.4116  151.1096 H   0  0  0  0  0  0  0  0  0  0  0  0  # atno 10167 bound_to 10162
  157.6959  131.0430  150.3827 H   0  0  0  0  0  0  0  0  0  0  0  0  # atno 10718 bound_to 10713
  154.3345  135.6169  153.5567 H   0  0  0  0  0  0  0  0  0  0  0  0  # atno 10763 bound_to 10752
  152.9809  135.5754  154.4924 H   0  0  0  0  0  0  0  0  0  0  0  0  # atno 10764 bound_to 10752
  154.4616  135.2856  155.1685 H   0  0  0  0  0  0  0  0  0  0  0  0  # atno 10765 bound_to 10752
  140.6124  133.9736  155.8184 H   0  0  0  0  0  0  0  0  0  0  0  0  # atno 11005 bound_to 11000
  145.7577  139.1814  143.2285 LP  0  0  0  0  0  0  0  0  0  0  0  0  # atno 17320 bound_to 7965
  146.1011  140.7543  142.9549 LP  0  0  0  0  0  0  0  0  0  0  0  0  # atno 17321 bound_to 7965
  139.7750  143.8438  152.3127 LP  0  0  0  0  0  0  0  0  0  0  0  0  # atno 17342 bound_to 10162
  139.8370  144.7228  150.9379 LP  0  0  0  0  0  0  0  0  0  0  0  0  # atno 17343 bound_to 10162
  156.4239  130.3958  149.6806 LP  0  0  0  0  0  0  0  0  0  0  0  0  # atno 17370 bound_to 10713
  156.4047  130.7692  151.2702 LP  0  0  0  0  0  0  0  0  0  0  0  0  # atno 17371 bound_to 10713
  141.0798  134.0079  157.3402 LP  0  0  0  0  0  0  0  0  0  0  0  0  # atno 17394 bound_to 11000
  139.9186  135.0199  156.7979 LP  0  0  0  0  0  0  0  0  0  0  0  0  # atno 17395 bound_to 11000

$$$$
