AV-unprocessed.smi:2232|AV-procd|sdf|9038|dock9
  -GOLD-   2272012243D 1   1.00000     0.00000
 Structure written by MMmdl.
 42 43  0  0  0  0  0  0  0  0  1 V2000
  145.8860  129.1410  152.2753 C   0  0  0  0  0  0  0  0  0  0  0  0
  145.8768  130.5953  151.8533 C   0  0  0  0  0  0  0  0  0  0  0  0
  144.9573  131.0641  150.8958 C   0  0  0  0  0  0  0  0  0  0  0  0
  144.9980  132.4282  150.5471 C   0  0  0  0  0  0  0  0  0  0  0  0
  144.0369  132.9995  149.5258 C   0  0  0  0  0  0  0  0  0  0  0  0
  145.8770  133.3003  151.0854 N   0  0  0  0  0  0  0  0  0  0  0  0
  146.7679  132.8599  152.0081 C   0  0  0  0  0  0  0  0  0  0  0  0
  147.7276  133.6963  152.6380 N   0  0  0  0  0  0  0  0  0  0  0  0
  148.3810  133.4857  153.7944 C   0  0  0  0  0  0  0  0  0  0  0  0
  148.2280  132.5121  154.5330 O   0  0  0  0  0  0  0  0  0  0  0  0
  149.2374  134.4837  154.0569 N   0  0  0  0  0  0  0  0  0  0  0  0
  150.0964  134.5617  155.2326 C   0  0  0  0  0  0  0  0  0  0  0  0
  150.2015  136.0064  155.7578 C   0  0  0  0  0  0  0  0  0  0  0  0
  151.5220  136.6185  155.6191 N   0  0  0  0  0  0  0  0  0  0  0  0
  152.1661  136.8669  156.9076 C   0  0  0  0  0  0  0  0  0  0  0  0
  153.5382  137.5453  156.7454 C   0  0  0  0  0  0  0  0  0  0  0  0
  153.3931  138.7525  156.0049 O   0  0  0  0  0  0  0  0  0  0  0  0
  152.8163  138.5404  154.7207 C   0  0  0  0  0  0  0  0  0  0  0  0
  151.4390  137.8744  154.8808 C   0  0  0  0  0  0  0  0  0  0  0  0
  146.7927  131.5071  152.4156 C   0  0  0  0  0  0  0  0  0  0  0  0
  145.0684  128.5883  151.8114 H   0  0  0  0  0  0  0  0  0  0  0  0
  145.7802  129.0604  153.3573 H   0  0  0  0  0  0  0  0  0  0  0  0
  146.8254  128.6697  151.9851 H   0  0  0  0  0  0  0  0  0  0  0  0
  144.2397  130.3968  150.4413 H   0  0  0  0  0  0  0  0  0  0  0  0
  143.2572  132.2808  149.2724 H   0  0  0  0  0  0  0  0  0  0  0  0
  144.5695  133.2623  148.6116 H   0  0  0  0  0  0  0  0  0  0  0  0
  143.5559  133.8977  149.9143 H   0  0  0  0  0  0  0  0  0  0  0  0
  147.9465  134.5505  152.1476 H   0  0  0  0  0  0  0  0  0  0  0  0
  149.2992  135.2452  153.3971 H   0  0  0  0  0  0  0  0  0  0  0  0
  149.6688  133.9041  155.9884 H   0  0  0  0  0  0  0  0  0  0  0  0
  151.0866  134.1672  154.9983 H   0  0  0  0  0  0  0  0  0  0  0  0
  149.4793  136.6144  155.2111 H   0  0  0  0  0  0  0  0  0  0  0  0
  149.8884  136.0404  156.8027 H   0  0  0  0  0  0  0  0  0  0  0  0
  151.5250  137.4961  157.5269 H   0  0  0  0  0  0  0  0  0  0  0  0
  152.3044  135.9319  157.4494 H   0  0  0  0  0  0  0  0  0  0  0  0
  153.9656  137.7751  157.7216 H   0  0  0  0  0  0  0  0  0  0  0  0
  154.2398  136.8818  156.2375 H   0  0  0  0  0  0  0  0  0  0  0  0
  152.7178  139.4984  154.2100 H   0  0  0  0  0  0  0  0  0  0  0  0
  153.4779  137.9199  154.1142 H   0  0  0  0  0  0  0  0  0  0  0  0
  151.0106  137.6956  153.8939 H   0  0  0  0  0  0  0  0  0  0  0  0
  150.7643  138.5618  155.3933 H   0  0  0  0  0  0  0  0  0  0  0  0
  147.5072  131.1685  153.1522 H   0  0  0  0  0  0  0  0  0  0  0  0
  1  2  1  0  0  0  0
  1 21  1  0  0  0  0
  1 22  1  0  0  0  0
  1 23  1  0  0  0  0
  2 20  1  0  0  0  0
  2  3  2  0  0  0  0
  3  4  1  0  0  0  0
  3 24  1  0  0  0  0
  4  5  1  0  0  0  0
  4  6  2  0  0  0  0
  5 25  1  0  0  0  0
  5 26  1  0  0  0  0
  5 27  1  0  0  0  0
  6  7  1  0  0  0  0
  7  8  1  0  0  0  0
  7 20  2  0  0  0  0
  8  9  1  0  0  0  0
  8 28  1  0  0  0  0
  9 10  2  0  0  0  0
  9 11  1  0  0  0  0
 11 12  1  0  0  0  0
 11 29  1  0  0  0  0
 12 13  1  0  0  0  0
 12 30  1  0  0  0  0
 12 31  1  0  0  0  0
 13 14  1  0  0  0  0
 13 32  1  0  0  0  0
 13 33  1  0  0  0  0
 14 19  1  0  0  0  0
 14 15  1  0  0  0  0
 15 16  1  0  0  0  0
 15 34  1  0  0  0  0
 15 35  1  0  0  0  0
 16 17  1  0  0  0  0
 16 36  1  0  0  0  0
 16 37  1  0  0  0  0
 17 18  1  0  0  0  0
 18 19  1  0  0  0  0
 18 38  1  0  0  0  0
 18 39  1  0  0  0  0
 19 40  1  0  0  0  0
 19 41  1  0  0  0  0
 20 42  1  0  0  0  0
M  END
> <s_m_source_file>
AV-unprocessed.smi

> <i_m_source_file_index>
2232

> <i_lp_mmshare_version>
43012

> <i_f3d_flags>
0

> <s_epik_input>
W0NIM11jMVtjSF1jKFtDSDNdKW5jKFtjSF0xKVtOSF1DKD1PKVtOSF1bQ0gyXVtDSDJdTjJbQ0gyXVtDSDJdT1tDSDJdW0NIMl0y

> <s_epik_cmdline>
J2VwaWtfcHl0aG9uJywgJy1waCcsICc3LjAnLCAnLXRuJywgJzgnLCAnLW1hJywgJzIwMCcsICctbWV0YWxfYmluZGluZycsICctaW1hZScsICc8aW5maWxlLm1hZT4nLCAnLW9tYWUnLCAnPG91dGZpbGUubWFlPic=

> <r_epik_Ionization_Penalty>
0.26623

> <r_epik_Ionization_Penalty_Charging>
0

> <r_epik_Ionization_Penalty_Neutral>
0.26623

> <r_epik_State_Penalty>
0.257924

> <r_epik_Charging_Adjusted_Penalty>
0.257924

> <i_epik_Tot_Q>
0

> <i_epik_Tot_abs_Q>
0

> <r_epik_Metal_State_Penalty>
0.257909

> <b_epik_Metal_Only>
0

> <s_lp_Force_Field>
OPLS_2005

> <r_lp_Energy>
21.9386

> <b_lp_Chiralities_Consistent>
1

> <s_lp_Variant>
AV-unprocessed.smi:2232-1

> <Gold.Version>
5.8.1

> <Gold.Id.Protein>
6NUR|6NUR_protein|mol2

> <Gold.PLP.Fitness>
45.8006

> <Gold.PLP.PLP>
-36.9778

> <Gold.PLP.part.hbond>
-4.0000

> <Gold.PLP.part.metal>
0.0000

> <Gold.PLP.part.buried>
-5.8481

> <Gold.PLP.part.nonpolar>
-28.1181

> <Gold.PLP.part.repulsive>
0.2731

> <Gold.PLP.ligand.clash>
0.0592

> <Gold.PLP.ligand.torsion>
1.3393

> <Gold.PLP.Chemscore.Hbond>
3.8513

> <Gold.PLP.Chemscore.CHOScore>
0.0000

> <Gold.PLP.Chemscore.Metal>
0.0000

> <Gold.Chemscore.Hbonds>
donor molecule, donor type, donor heavy atom, donor atom, acceptor molecule, acceptor atom, score
      L1  H     8    28       P1  7948  1.00
      L1  H    11    29       P1  7948  0.85
      P1  H  7997  8009       L1    17  0.94
      P1  H 10752 10763       L1    14  1.00

> <Gold.PLP.Chemscore.Internal.Correction>
0.0070

> <Gold.Rescore>
     Score         DG    S(hbond)    S(metal)    S(lipo)     H(rot)  DE(clash)    DE(int)     intcor
     16.35     -19.20       2.16        0.00      87.21       1.44       0.05       2.80       ----

> <Gold.Chemscore.Fitness>
16.3546

> <Gold.Chemscore.DG>
-19.2021

> <Gold.Chemscore.ZeroCoef>
-5.4800

> <Gold.Chemscore.Hbond>
2.1596

> <Gold.Chemscore.Metal>
0.0000

> <Gold.Chemscore.Lipo>
87.2130

> <Gold.Chemscore.Internal_Hbond>
0.0000

> <Gold.Chemscore.DEClash>
0.0516

> <Gold.Chemscore.DEInternal>
2.7959

> <Gold.Chemscore.Rot>
1.4433

> <Gold.Chemscore.Internal.Correction>
   9.000000E+99

> <Gold.Chemscore.Hbonds>
donor molecule, donor type, donor heavy atom, donor atom, acceptor molecule, acceptor atom, score
      L1  H     8    28       P1  7948  0.29
      L1  H    11    29       P1  7948  0.15
      P1  H  7997  8009       L1    17  0.88
      P1  H 10752 10763       L1    14  0.14

> <Gold.Chemscore.Hbond.Weighted>
-7.2130

> <Gold.Chemscore.Metal.Weighted>
-0.0000

> <Gold.Chemscore.Lipo.Weighted>
-10.2039

> <Gold.Chemscore.Internal_Hbond.Weighted>
0.0000

> <Gold.Chemscore.DEClash.Weighted>
0.0516

> <Gold.Chemscore.DEInternal.Weighted>
2.7959

> <Gold.Chemscore.Rot.Weighted>
3.6948

> <Gold.Chemscore.Internal.Correction.Weighted>
   9.000000E+99

> <Gold.Protein.RotatedTorsions>
[ 6907 6896 6895 6894 ] final  133.85 input  -60.11 | X-H torsion
[ 7974 7965 7964 7962 ] final -160.98 input  175.53 | X-H torsion
[ 8008 7997 7996 7995 ] final -165.26 input   59.86 | X-H torsion
[ 10167 10162 10161 10158 ] final   62.11 input  -65.29 | X-H torsion
[ 10718 10713 10712 10709 ] final  -31.41 input   66.30 | X-H torsion
[ 10763 10752 10751 10750 ] final   61.66 input  -60.55 | X-H torsion
[ 11005 11000 10999 10996 ] final  103.20 input  -57.11 | X-H torsion

> <Gold.Protein.ActiveResidues>
 VAL166  LYS551  ARG553  GLY616  TRP617  ASP618  TYR619  PRO620  LYS621  CYS622 
 ASP623  PHE694  ASN695  SER759  ASP760  ASP761  ALA762  ILE779  LEU786  VAL792 
 PHE793  MET794  SER795  GLU796  ALA797  LYS798  CYS799  TRP800  GLU811  SER814 

> <Gold.Protein.RotatedAtoms>
  152.3175  133.5818  159.5721 H   0  0  0  0  0  0  0  0  0  0  0  0  # atno 6907 bound_to 6896
  150.7354  134.0060  159.3663 H   0  0  0  0  0  0  0  0  0  0  0  0  # atno 6908 bound_to 6896
  151.7948  135.0726  160.0443 H   0  0  0  0  0  0  0  0  0  0  0  0  # atno 6909 bound_to 6896
  144.7407  140.3463  143.6124 H   0  0  0  0  0  0  0  0  0  0  0  0  # atno 7974 bound_to 7965
  155.8473  140.0957  157.1697 H   0  0  0  0  0  0  0  0  0  0  0  0  # atno 8008 bound_to 7997
  154.3984  140.1390  156.3863 H   0  0  0  0  0  0  0  0  0  0  0  0  # atno 8009 bound_to 7997
  155.7999  140.3453  155.5399 H   0  0  0  0  0  0  0  0  0  0  0  0  # atno 8010 bound_to 7997
  140.1475  144.4495  150.6777 H   0  0  0  0  0  0  0  0  0  0  0  0  # atno 10167 bound_to 10162
  156.3876  130.4367  149.7420 H   0  0  0  0  0  0  0  0  0  0  0  0  # atno 10718 bound_to 10713
  152.9958  135.5492  154.6070 H   0  0  0  0  0  0  0  0  0  0  0  0  # atno 10763 bound_to 10752
  154.5399  135.2819  155.1107 H   0  0  0  0  0  0  0  0  0  0  0  0  # atno 10764 bound_to 10752
  154.2389  135.6420  153.5253 H   0  0  0  0  0  0  0  0  0  0  0  0  # atno 10765 bound_to 10752
  139.8782  134.9254  156.5173 H   0  0  0  0  0  0  0  0  0  0  0  0  # atno 11005 bound_to 11000
  145.7322  139.1739  143.2424 LP  0  0  0  0  0  0  0  0  0  0  0  0  # atno 17320 bound_to 7965
  146.1197  140.7324  142.9463 LP  0  0  0  0  0  0  0  0  0  0  0  0  # atno 17321 bound_to 7965
  140.6723  143.2291  151.5595 LP  0  0  0  0  0  0  0  0  0  0  0  0  # atno 17342 bound_to 10162
  139.5442  144.2566  152.1410 LP  0  0  0  0  0  0  0  0  0  0  0  0  # atno 17343 bound_to 10162
  156.4486  130.7895  151.2917 LP  0  0  0  0  0  0  0  0  0  0  0  0  # atno 17370 bound_to 10713
  157.7497  131.0102  150.3299 LP  0  0  0  0  0  0  0  0  0  0  0  0  # atno 17371 bound_to 10713
  140.8476  133.8156  155.9137 LP  0  0  0  0  0  0  0  0  0  0  0  0  # atno 17394 bound_to 11000
  140.9176  134.2183  157.4947 LP  0  0  0  0  0  0  0  0  0  0  0  0  # atno 17395 bound_to 11000

$$$$
