#       Name:                AV-unprocessed.smi:2520
#       Creating user name   scv26
#       Creation time:       Fri Mar 27 13:54:45 2020


#       File generated by GOLD software.
#

@<TRIPOS>MOLECULE
AV-unprocessed.smi:2520
    47    50     1
SMALL
NO_CHARGES


@<TRIPOS>ATOM
      1 ****        -2.6885  -2.0622  -0.5528 O.2            1 S1                 0.0000
      2 ****        -1.4685  -1.9203  -0.4927 C.2            1 S1                 0.0000
      3 ****        -0.6410  -2.9869  -0.5180 N.am           1 S1                 0.0000
      4 ****        -0.9075  -4.3849  -0.6100 C.ar           1 S1                 0.0000
      5 ****         0.2415  -5.2036  -0.6507 C.ar           1 S1                 0.0000
      6 ****         0.0697  -6.5957  -0.7377 C.ar           1 S1                 0.0000
      7 ****        -1.2487  -7.0802  -0.7765 C.ar           1 S1                 0.0000
      8 ****        -2.3221  -6.2623  -0.7319 N.ar           1 S1                 0.0000
      9 ****        -2.1488  -4.9392  -0.6494 N.ar           1 S1                 0.0000
     10 ****        -0.8794  -0.7192  -0.3980 N.am           1 S1                 0.0000
     11 ****        -1.5598   0.5750  -0.3812 C.3            1 S1                 0.0000
     12 ****        -1.0247   1.5451  -1.4596 C.3            1 S1                 0.0000
     13 ****        -0.1234   1.0982  -2.5859 C.3            1 S1                 0.0000
     14 ****         1.2738   1.4435  -2.0619 C.3            1 S1                 0.0000
     15 ****         1.1208   1.5449  -0.6477 O.3            1 S1                 0.0000
     16 ****        -0.1394   2.1584  -0.3860 C.3            1 S1                 0.0000
     17 ****        -1.0009   1.5094   0.7174 C.3            1 S1                 0.0000
     18 ****        -0.2769   0.9286   1.9329 C.3            1 S1                 0.0000
     19 ****        -0.1731   2.0511   2.9671 C.3            1 S1                 0.0000
     20 ****        -1.3162   3.0167   2.6404 C.3            1 S1                 0.0000
     21 ****        -2.0010   2.4444   1.3952 C.3            1 S1                 0.0000
     22 ****         0.3380  -2.7551  -0.4350 H              1 S1                 0.0000
     23 ****         1.2337  -4.7773  -0.6170 H              1 S1                 0.0000
     24 ****         0.9159  -7.2658  -0.7731 H              1 S1                 0.0000
     25 ****        -1.4468  -8.1397  -0.8434 H              1 S1                 0.0000
     26 ****         0.1296  -0.6954  -0.3479 H              1 S1                 0.0000
     27 ****        -2.6493   0.5149  -0.3748 H              1 S1                 0.0000
     28 ****        -1.8029   2.2439  -1.7703 H              1 S1                 0.0000
     29 ****        -0.2167   0.0316  -2.7899 H              1 S1                 0.0000
     30 ****        -0.3344   1.6252  -3.5167 H              1 S1                 0.0000
     31 ****         2.0207   0.6959  -2.3300 H              1 S1                 0.0000
     32 ****         1.6001   2.4085  -2.4522 H              1 S1                 0.0000
     33 ****        -0.1081   3.2489  -0.4002 H              1 S1                 0.0000
     34 ****        -0.8583   0.1062   2.3523 H              1 S1                 0.0000
     35 ****         0.7055   0.5234   1.6885 H              1 S1                 0.0000
     36 ****        -0.2347   1.6668   3.9858 H              1 S1                 0.0000
     37 ****         0.7836   2.5652   2.8660 H              1 S1                 0.0000
     38 ****        -2.0182   3.1133   3.4693 H              1 S1                 0.0000
     39 ****        -0.9155   4.0094   2.4318 H              1 S1                 0.0000
     40 ****        -2.3485   3.2377   0.7324 H              1 S1                 0.0000
     41 ****        -2.8851   1.8820   1.6994 H              1 S1                 0.0000
     42 ****        -3.0825  -2.9787  -0.6217 LP             1 S1                 0.0000
     43 ****        -3.2867  -1.2611  -0.5328 LP             1 S1                 0.0000
     44 ****        -3.2452  -6.6457  -0.7605 LP             1 S1                 0.0000
     45 ****        -2.9510  -4.3430  -0.6160 LP             1 S1                 0.0000
     46 ****         1.8567   2.1039  -0.2656 LP             1 S1                 0.0000
     47 ****         1.1468   0.6335  -0.2370 LP             1 S1                 0.0000
@<TRIPOS>BOND
    1    1    2 2     
    2    2    3 am    
    3    2   10 am    
    4    3    4 1     
    5    3   22 1     
    6    4    9 ar    
    7    4    5 ar    
    8    5    6 ar    
    9    5   23 1     
   10    6    7 ar    
   11    6   24 1     
   12    7    8 ar    
   13    7   25 1     
   14    8    9 ar    
   15   10   11 1     
   16   10   26 1     
   17   11   17 1     
   18   11   12 1     
   19   11   27 1     
   20   12   16 1     
   21   12   13 1     
   22   12   28 1     
   23   13   14 1     
   24   13   29 1     
   25   13   30 1     
   26   14   15 1     
   27   14   31 1     
   28   14   32 1     
   29   15   16 1     
   30   16   17 1     
   31   16   33 1     
   32   17   21 1     
   33   17   18 1     
   34   18   19 1     
   35   18   34 1     
   36   18   35 1     
   37   19   20 1     
   38   19   36 1     
   39   19   37 1     
   40   20   21 1     
   41   20   38 1     
   42   20   39 1     
   43   21   40 1     
   44   21   41 1     
   45    1   42 1     
   46    1   43 1     
   47    8   44 1     
   48    9   45 1     
   49   15   46 1     
   50   15   47 1     
@<TRIPOS>SUBSTRUCTURE
      1 S1             1
@<TRIPOS>SET
LONE_PAIRS      STATIC     ATOMS    <user>   **** ""
6 42 43 44 45 46 47
DONOR_HYDROGENS      STATIC     ATOMS    <user>   **** ""
2 22 26
ATOM$BLUE        STATIC     ATOMS    COLORGROUP SYSTEM
6 42 43 44 45 46 47
ATOM$RED        STATIC     ATOMS    COLORGROUP SYSTEM
2 22 26
