AV-unprocessed.smi:2061|AV-procd|sdf|8375|dock2
  -GOLD-   2272011 53D 1   1.00000     0.00000
 Structure written by MMmdl.
 44 45  0  0  0  0  0  0  0  0  2 V2000
  144.9736  134.2287  162.5919 C   0  0  0  0  0  0  0  0  0  0  0  0
  145.9284  135.2256  162.0297 C   0  0  0  0  0  0  0  0  0  0  0  0
  147.2759  135.1963  161.8081 C   0  0  0  0  0  0  0  0  0  0  0  0
  147.5404  136.4758  161.2472 C   0  0  0  0  0  0  0  0  0  0  0  0
  148.7418  136.9383  160.8685 N   0  5  0  0  0  0  0  0  0  0  0  0
  149.1313  136.8466  159.5758 C   0  0  0  0  0  0  0  0  0  0  0  0
  148.6579  136.0924  158.7230 O   0  0  0  0  0  0  0  0  0  0  0  0
  150.1376  137.6751  159.2591 N   0  0  0  0  0  0  0  0  0  0  0  0
  150.7799  137.8081  157.9524 C   0  0  0  0  0  0  0  0  0  0  0  0
  150.8428  139.2802  157.4535 C   0  0  1  0  0  0  0  0  0  0  0  0
  149.4718  139.6679  156.8426 C   0  0  0  0  0  0  0  0  0  0  0  0
  151.2943  140.2331  158.4962 N   0  0  0  0  0  0  0  0  0  0  0  0
  151.4494  141.5983  157.9818 C   0  0  0  0  0  0  0  0  0  0  0  0
  151.9369  142.5930  159.0523 C   0  0  2  0  0  0  0  0  0  0  0  0
  152.1668  143.9952  158.4784 C   0  0  0  0  0  0  0  0  0  0  0  0
  153.1659  142.1284  159.5957 O   0  0  0  0  0  0  0  0  0  0  0  0
  153.0515  140.8377  160.1812 C   0  0  2  0  0  0  0  0  0  0  0  0
  154.4176  140.4491  160.7566 C   0  0  0  0  0  0  0  0  0  0  0  0
  152.5643  139.8378  159.1150 C   0  0  0  0  0  0  0  0  0  0  0  0
  146.4523  137.2217  161.1532 N   0  0  0  0  0  0  0  0  0  0  0  0
  145.4128  136.4249  161.6474 O   0  0  0  0  0  0  0  0  0  0  0  0
  145.1294  134.1091  163.6641 H   0  0  0  0  0  0  0  0  0  0  0  0
  145.1094  133.2559  162.1194 H   0  0  0  0  0  0  0  0  0  0  0  0
  143.9410  134.5399  162.4325 H   0  0  0  0  0  0  0  0  0  0  0  0
  147.9634  134.3888  162.0101 H   0  0  0  0  0  0  0  0  0  0  0  0
  150.4889  138.2690  159.9956 H   0  0  0  0  0  0  0  0  0  0  0  0
  151.7775  137.3664  157.9441 H   0  0  0  0  0  0  0  0  0  0  0  0
  150.1697  137.1944  157.2929 H   0  0  0  0  0  0  0  0  0  0  0  0
  151.5693  139.3064  156.6396 H   0  0  0  0  0  0  0  0  0  0  0  0
  149.1336  138.9523  156.0946 H   0  0  0  0  0  0  0  0  0  0  0  0
  149.5029  140.6220  156.3191 H   0  0  0  0  0  0  0  0  0  0  0  0
  148.7007  139.7272  157.6114 H   0  0  0  0  0  0  0  0  0  0  0  0
  152.1442  141.5977  157.1402 H   0  0  0  0  0  0  0  0  0  0  0  0
  150.4996  141.9755  157.6076 H   0  0  0  0  0  0  0  0  0  0  0  0
  151.1973  142.6605  159.8521 H   0  0  0  0  0  0  0  0  0  0  0  0
  151.2475  144.4025  158.0570 H   0  0  0  0  0  0  0  0  0  0  0  0
  152.9194  143.9798  157.6894 H   0  0  0  0  0  0  0  0  0  0  0  0
  152.5099  144.6818  159.2527 H   0  0  0  0  0  0  0  0  0  0  0  0
  152.3285  140.8814  160.9977 H   0  0  0  0  0  0  0  0  0  0  0  0
  154.3783  139.4690  161.2325 H   0  0  0  0  0  0  0  0  0  0  0  0
  154.7442  141.1700  161.5064 H   0  0  0  0  0  0  0  0  0  0  0  0
  155.1780  140.4121  159.9760 H   0  0  0  0  0  0  0  0  0  0  0  0
  152.4645  138.8749  159.6117 H   0  0  0  0  0  0  0  0  0  0  0  0
  153.3283  139.7215  158.3445 H   0  0  0  0  0  0  0  0  0  0  0  0
  1  2  1  0  0  0  0
  1 22  1  0  0  0  0
  1 23  1  0  0  0  0
  1 24  1  0  0  0  0
  2 21  1  0  0  0  0
  2  3  2  0  0  0  0
  3  4  1  0  0  0  0
  3 25  1  0  0  0  0
  4  5  1  0  0  0  0
  4 20  2  0  0  0  0
  5  6  1  0  0  0  0
  6  7  2  0  0  0  0
  6  8  1  0  0  0  0
  8  9  1  0  0  0  0
  8 26  1  0  0  0  0
  9 10  1  0  0  0  0
  9 27  1  0  0  0  0
  9 28  1  0  0  0  0
 10 11  1  0  0  0  0
 10 12  1  0  0  0  0
 10 29  1  0  0  0  0
 11 30  1  0  0  0  0
 11 31  1  0  0  0  0
 11 32  1  0  0  0  0
 12 19  1  0  0  0  0
 12 13  1  0  0  0  0
 13 14  1  0  0  0  0
 13 33  1  0  0  0  0
 13 34  1  0  0  0  0
 14 15  1  0  0  0  0
 14 16  1  0  0  0  0
 14 35  1  0  0  0  0
 15 36  1  0  0  0  0
 15 37  1  0  0  0  0
 15 38  1  0  0  0  0
 16 17  1  0  0  0  0
 17 18  1  0  0  0  0
 17 19  1  0  0  0  0
 17 39  1  0  0  0  0
 18 40  1  0  0  0  0
 18 41  1  0  0  0  0
 18 42  1  0  0  0  0
 19 43  1  0  0  0  0
 19 44  1  0  0  0  0
 20 21  1  0  0  0  0
M  CHG  1   5  -1
M  END
> <s_m_source_file>
AV-unprocessed.smi

> <i_m_source_file_index>
2061

> <i_lp_mmshare_version>
43012

> <i_f3d_flags>
0

> <s_epik_input>
W0NIM11jMVtjSF1jKG5vMSlbTkhdQyg9TylbTkhdW0NIMl1bQ0BIXShbQ0gzXSlOMltDSDJdW0NAQEhdKFtDSDNdKU9bQ0BASF0oW0NIM10pW0NIMl0y

> <s_epik_cmdline>
J2VwaWtfcHl0aG9uJywgJy1waCcsICc3LjAnLCAnLXRuJywgJzgnLCAnLW1hJywgJzIwMCcsICctbWV0YWxfYmluZGluZycsICctaW1hZScsICc8aW5maWxlLm1hZT4nLCAnLW9tYWUnLCAnPG91dGZpbGUubWFlPic=

> <r_epik_Ionization_Penalty>
6.88367

> <r_epik_Ionization_Penalty_Charging>
6.57198

> <r_epik_Ionization_Penalty_Neutral>
0.311681

> <r_epik_State_Penalty>
6.77619

> <r_epik_Charging_Adjusted_Penalty>
13.3482

> <i_epik_Tot_Q>
-1

> <i_epik_Tot_abs_Q>
1

> <r_epik_Metal_State_Penalty>
2.70524

> <b_epik_Metal_Only>
1

> <s_lp_Force_Field>
OPLS_2005

> <r_lp_Energy>
21.0449

> <b_lp_Chiralities_Consistent>
1

> <s_lp_Variant>
AV-unprocessed.smi:2061-16

> <Gold.Version>
5.8.1

> <Gold.Id.Protein>
6NUR|6NUR_protein|mol2

> <Gold.PLP.Fitness>
42.2768

> <Gold.PLP.PLP>
-35.3655

> <Gold.PLP.part.hbond>
-2.0761

> <Gold.PLP.part.metal>
0.0000

> <Gold.PLP.part.buried>
-6.4651

> <Gold.PLP.part.nonpolar>
-28.6536

> <Gold.PLP.part.repulsive>
0.2333

> <Gold.PLP.ligand.clash>
0.0000

> <Gold.PLP.ligand.torsion>
1.0232

> <Gold.PLP.Chemscore.Hbond>
2.9520

> <Gold.PLP.Chemscore.CHOScore>
0.0000

> <Gold.PLP.Chemscore.Metal>
0.0000

> <Gold.Chemscore.Hbonds>
donor molecule, donor type, donor heavy atom, donor atom, acceptor molecule, acceptor atom, score
      P1  H  6931  6943       L1     5  1.89
      P1  H  6934  6947       L1    20  1.00

> <Gold.PLP.Chemscore.Internal.Correction>
0.1017

> <Gold.Rescore>
     Score         DG    S(hbond)    S(metal)    S(lipo)     H(rot)  DE(clash)    DE(int)     intcor
     14.01     -15.05       1.00        0.00      86.59       1.52       0.01       1.03       ----

> <Gold.Chemscore.Fitness>
14.0061

> <Gold.Chemscore.DG>
-15.0459

> <Gold.Chemscore.ZeroCoef>
-5.4800

> <Gold.Chemscore.Hbond>
0.9952

> <Gold.Chemscore.Metal>
0.0000

> <Gold.Chemscore.Lipo>
86.5856

> <Gold.Chemscore.Internal_Hbond>
0.0000

> <Gold.Chemscore.DEClash>
0.0126

> <Gold.Chemscore.DEInternal>
1.0272

> <Gold.Chemscore.Rot>
1.5190

> <Gold.Chemscore.Internal.Correction>
   9.000000E+99

> <Gold.Chemscore.Hbonds>
donor molecule, donor type, donor heavy atom, donor atom, acceptor molecule, acceptor atom, score
      P1  H  6931  6943       L1     5  0.45
      P1  H  6934  6947       L1    20  0.39

> <Gold.Chemscore.Hbond.Weighted>
-3.3240

> <Gold.Chemscore.Metal.Weighted>
-0.0000

> <Gold.Chemscore.Lipo.Weighted>
-10.1305

> <Gold.Chemscore.Internal_Hbond.Weighted>
0.0000

> <Gold.Chemscore.DEClash.Weighted>
0.0126

> <Gold.Chemscore.DEInternal.Weighted>
1.0272

> <Gold.Chemscore.Rot.Weighted>
3.8886

> <Gold.Chemscore.Internal.Correction.Weighted>
   9.000000E+99

> <Gold.Protein.RotatedTorsions>
[ 6907 6896 6895 6894 ] final   -1.26 input  -60.11 | X-H torsion
[ 7974 7965 7964 7962 ] final  143.19 input  175.53 | X-H torsion
[ 8008 7997 7996 7995 ] final  -44.85 input   59.86 | X-H torsion
[ 10167 10162 10161 10158 ] final -169.12 input  -65.29 | X-H torsion
[ 10718 10713 10712 10709 ] final  160.36 input   66.30 | X-H torsion
[ 10763 10752 10751 10750 ] final  142.01 input  -60.55 | X-H torsion
[ 11005 11000 10999 10996 ] final  -21.23 input  -57.11 | X-H torsion

> <Gold.Protein.ActiveResidues>
 VAL166  LYS551  ARG553  GLY616  TRP617  ASP618  TYR619  PRO620  LYS621  CYS622 
 ASP623  PHE694  ASN695  SER759  ASP760  ASP761  ALA762  ILE779  LEU786  VAL792 
 PHE793  MET794  SER795  GLU796  ALA797  LYS798  CYS799  TRP800  GLU811  SER814 

> <Gold.Protein.RotatedAtoms>
  151.5490  135.1067  159.9944 H   0  0  0  0  0  0  0  0  0  0  0  0  # atno 6907 bound_to 6896
  152.4500  133.7607  159.6755 H   0  0  0  0  0  0  0  0  0  0  0  0  # atno 6908 bound_to 6896
  150.8426  133.7845  159.3079 H   0  0  0  0  0  0  0  0  0  0  0  0  # atno 6909 bound_to 6896
  144.8942  139.5514  143.5784 H   0  0  0  0  0  0  0  0  0  0  0  0  # atno 7974 bound_to 7965
  154.3998  140.1412  156.3750 H   0  0  0  0  0  0  0  0  0  0  0  0  # atno 8008 bound_to 7997
  155.8057  140.3474  155.5407 H   0  0  0  0  0  0  0  0  0  0  0  0  # atno 8009 bound_to 7997
  155.8438  140.0931  157.1708 H   0  0  0  0  0  0  0  0  0  0  0  0  # atno 8010 bound_to 7997
  139.5942  144.1147  152.1670 H   0  0  0  0  0  0  0  0  0  0  0  0  # atno 10167 bound_to 10162
  157.1515  131.0565  151.2278 H   0  0  0  0  0  0  0  0  0  0  0  0  # atno 10718 bound_to 10713
  153.9487  135.2972  155.3439 H   0  0  0  0  0  0  0  0  0  0  0  0  # atno 10763 bound_to 10752
  154.7438  135.5012  153.9171 H   0  0  0  0  0  0  0  0  0  0  0  0  # atno 10764 bound_to 10752
  153.1005  135.6733  153.9790 H   0  0  0  0  0  0  0  0  0  0  0  0  # atno 10765 bound_to 10752
  140.8541  133.7835  155.9999 H   0  0  0  0  0  0  0  0  0  0  0  0  # atno 11005 bound_to 11000
  146.3072  139.7620  142.9047 LP  0  0  0  0  0  0  0  0  0  0  0  0  # atno 17320 bound_to 7965
  145.3728  141.0345  143.3221 LP  0  0  0  0  0  0  0  0  0  0  0  0  # atno 17321 bound_to 7965
  140.0728  144.5765  150.7179 LP  0  0  0  0  0  0  0  0  0  0  0  0  # atno 17342 bound_to 10162
  140.7198  143.2578  151.4314 LP  0  0  0  0  0  0  0  0  0  0  0  0  # atno 17343 bound_to 10162
  157.4216  130.7440  149.6918 LP  0  0  0  0  0  0  0  0  0  0  0  0  # atno 17370 bound_to 10713
  155.9769  130.4069  150.3744 LP  0  0  0  0  0  0  0  0  0  0  0  0  # atno 17371 bound_to 10713
  140.8757  134.2672  157.5169 LP  0  0  0  0  0  0  0  0  0  0  0  0  # atno 17394 bound_to 11000
  139.8705  134.9590  156.4317 LP  0  0  0  0  0  0  0  0  0  0  0  0  # atno 17395 bound_to 11000

$$$$
