AV-unprocessed.smi:1490|AV-procd|sdf|6031|dock1
  -GOLD-   22720 6133D 1   1.00000     0.00000
 Structure written by MMmdl.
 37 38  0  0  0  0  0  0  0  0  3 V2000
  147.8499  141.3348  154.3655 C   0  0  0  0  0  0  0  0  0  0  0  0
  149.1522  140.8688  154.0622 O   0  0  0  0  0  0  0  0  0  0  0  0
  149.8337  140.3594  155.1966 C   0  0  0  0  0  0  0  0  0  0  0  0
  150.5274  141.5137  155.9340 C   0  0  0  0  0  0  0  0  0  0  0  0
  151.3971  141.0345  157.0174 N   0  0  0  0  0  0  0  0  0  0  0  0
  152.0793  139.8623  157.1486 C   0  0  0  0  0  0  0  0  0  0  0  0
  152.1089  138.5371  155.9872 S   0  0  0  0  0  0  0  0  0  0  0  0
  152.7262  137.1003  156.9091 C   0  0  0  0  0  0  0  0  0  0  0  0
  151.6461  136.0425  157.1321 C   0  0  0  0  0  0  0  0  0  0  0  0
  151.1403  135.9161  158.2463 O   0  0  0  0  0  0  0  0  0  0  0  0
  151.3786  135.3523  156.0016 N   0  5  0  0  0  0  0  0  0  0  0  0
  150.5259  134.1826  156.0758 C   0  0  0  0  0  0  0  0  0  0  0  0
  151.0395  133.2345  157.0763 C   0  0  0  0  0  0  0  0  0  0  0  0
  151.4432  132.4885  157.8640 N   0  0  0  0  0  0  0  0  0  0  0  0
  152.7236  139.8916  158.3476 N   0  3  0  0  0  0  0  0  0  0  0  0
  152.4448  141.0953  158.9969 C   0  0  0  0  0  0  0  0  0  0  0  0
  152.8620  141.5822  160.2316 C   0  0  0  0  0  0  0  0  0  0  0  0
  152.3857  142.8563  160.6055 C   0  0  0  0  0  0  0  0  0  0  0  0
  152.8613  143.5239  162.1232 Cl  0  0  0  0  0  0  0  0  0  0  0  0
  151.5270  143.5930  159.7631 C   0  0  0  0  0  0  0  0  0  0  0  0
  151.1101  143.0902  158.5129 C   0  0  0  0  0  0  0  0  0  0  0  0
  151.5894  141.8320  158.1504 C   0  0  0  0  0  0  0  0  0  0  0  0
  147.3774  141.7127  153.4587 H   0  0  0  0  0  0  0  0  0  0  0  0
  147.8813  142.1471  155.0926 H   0  0  0  0  0  0  0  0  0  0  0  0
  147.2266  140.5325  154.7617 H   0  0  0  0  0  0  0  0  0  0  0  0
  149.1298  139.8631  155.8661 H   0  0  0  0  0  0  0  0  0  0  0  0
  150.5695  139.6162  154.8856 H   0  0  0  0  0  0  0  0  0  0  0  0
  151.1458  142.0824  155.2389 H   0  0  0  0  0  0  0  0  0  0  0  0
  149.7994  142.2150  156.3422 H   0  0  0  0  0  0  0  0  0  0  0  0
  153.5658  136.6658  156.3658 H   0  0  0  0  0  0  0  0  0  0  0  0
  153.1141  137.4301  157.8742 H   0  0  0  0  0  0  0  0  0  0  0  0
  149.5022  134.4254  156.3637 H   0  0  0  0  0  0  0  0  0  0  0  0
  150.4672  133.6495  155.1267 H   0  0  0  0  0  0  0  0  0  0  0  0
  153.5167  141.0167  160.8784 H   0  0  0  0  0  0  0  0  0  0  0  0
  151.1795  144.5650  160.0821 H   0  0  0  0  0  0  0  0  0  0  0  0
  150.4497  143.6618  157.8779 H   0  0  0  0  0  0  0  0  0  0  0  0
  153.3024  139.1377  158.6948 H   0  0  0  0  0  0  0  0  0  0  0  0
  1  2  1  0  0  0  0
  1 23  1  0  0  0  0
  1 24  1  0  0  0  0
  1 25  1  0  0  0  0
  2  3  1  0  0  0  0
  3  4  1  0  0  0  0
  3 26  1  0  0  0  0
  3 27  1  0  0  0  0
  4  5  1  0  0  0  0
  4 28  1  0  0  0  0
  4 29  1  0  0  0  0
  5 22  1  0  0  0  0
  5  6  1  0  0  0  0
  6  7  1  0  0  0  0
  6 15  2  0  0  0  0
  7  8  1  0  0  0  0
  8  9  1  0  0  0  0
  8 30  1  0  0  0  0
  8 31  1  0  0  0  0
  9 10  2  0  0  0  0
  9 11  1  0  0  0  0
 11 12  1  0  0  0  0
 12 13  1  0  0  0  0
 12 32  1  0  0  0  0
 12 33  1  0  0  0  0
 13 14  3  0  0  0  0
 15 16  1  0  0  0  0
 15 37  1  0  0  0  0
 16 22  2  0  0  0  0
 16 17  1  0  0  0  0
 17 18  2  0  0  0  0
 17 34  1  0  0  0  0
 18 19  1  0  0  0  0
 18 20  1  0  0  0  0
 20 21  2  0  0  0  0
 20 35  1  0  0  0  0
 21 22  1  0  0  0  0
 21 36  1  0  0  0  0
M  CHG  1  11  -1
M  CHG  1  15   1
M  END
> <s_m_source_file>
AV-unprocessed.smi

> <i_m_source_file_index>
1490

> <i_lp_mmshare_version>
43012

> <i_f3d_flags>
0

> <s_epik_input>
W2NIXTFjKENsKVtjSF1bY0hdYyhjMTIpbihbQ0gyXVtDSDJdT1tDSDNdKWMobjIpU1tDSDJdQyg9TylbTkhdW0NIMl1DI04=

> <s_epik_cmdline>
J2VwaWtfcHl0aG9uJywgJy1waCcsICc3LjAnLCAnLXRuJywgJzgnLCAnLW1hJywgJzIwMCcsICctbWV0YWxfYmluZGluZycsICctaW1hZScsICc8aW5maWxlLm1hZT4nLCAnLW9tYWUnLCAnPG91dGZpbGUubWFlPic=

> <r_epik_Ionization_Penalty>
9.25224

> <r_epik_Ionization_Penalty_Charging>
9.25224

> <r_epik_Ionization_Penalty_Neutral>
2.90678e-12

> <r_epik_State_Penalty>
9.37242

> <r_epik_Charging_Adjusted_Penalty>
18.6247

> <i_epik_Tot_Q>
0

> <i_epik_Tot_abs_Q>
2

> <r_epik_Metal_State_Penalty>
5.29561

> <b_epik_Metal_Only>
1

> <s_lp_Force_Field>
OPLS_2005

> <r_lp_Energy>
5.70634

> <b_lp_Chiralities_Consistent>
1

> <s_lp_Variant>
AV-unprocessed.smi:1490-3

> <Gold.Version>
5.8.1

> <Gold.Id.Protein>
6NUR|6NUR_protein|mol2

> <Gold.PLP.Fitness>
54.1680

> <Gold.PLP.PLP>
-43.7343

> <Gold.PLP.part.hbond>
-5.0000

> <Gold.PLP.part.metal>
0.0000

> <Gold.PLP.part.buried>
-5.3513

> <Gold.PLP.part.nonpolar>
-34.5016

> <Gold.PLP.part.repulsive>
1.1860

> <Gold.PLP.ligand.clash>
0.0000

> <Gold.PLP.ligand.torsion>
1.3204

> <Gold.PLP.Chemscore.Hbond>
4.2175

> <Gold.PLP.Chemscore.CHOScore>
0.0000

> <Gold.PLP.Chemscore.Metal>
0.0000

> <Gold.Chemscore.Hbonds>
donor molecule, donor type, donor heavy atom, donor atom, acceptor molecule, acceptor atom, score
      P1  H  6896  6908       L1    14  1.00
      P1  H  6896  6909       L1    10  0.40
      P1  H  8011  8017       L1     2  0.06
      P1  H 10752 10765       L1    11  1.57

> <Gold.PLP.Chemscore.Internal.Correction>
0.4221

> <Gold.Rescore>
     Score         DG    S(hbond)    S(metal)    S(lipo)     H(rot)  DE(clash)    DE(int)     intcor
     16.08     -19.85       2.61        0.00     108.24       2.74       0.35       3.42       ----

> <Gold.Chemscore.Fitness>
16.0829

> <Gold.Chemscore.DG>
-19.8518

> <Gold.Chemscore.ZeroCoef>
-5.4800

> <Gold.Chemscore.Hbond>
2.6130

> <Gold.Chemscore.Metal>
0.0000

> <Gold.Chemscore.Lipo>
108.2364

> <Gold.Chemscore.Internal_Hbond>
0.0000

> <Gold.Chemscore.DEClash>
0.3452

> <Gold.Chemscore.DEInternal>
3.4238

> <Gold.Chemscore.Rot>
2.7420

> <Gold.Chemscore.Internal.Correction>
   9.000000E+99

> <Gold.Chemscore.Hbonds>
donor molecule, donor type, donor heavy atom, donor atom, acceptor molecule, acceptor atom, score
      P1  H  6896  6908       L1    14  0.54
      P1  H  6896  6909       L1    10  0.40
      P1  H  8011  8017       L1     2  0.03
      P1  H 10752 10765       L1    11  0.56

> <Gold.Chemscore.Hbond.Weighted>
-8.7276

> <Gold.Chemscore.Metal.Weighted>
-0.0000

> <Gold.Chemscore.Lipo.Weighted>
-12.6637

> <Gold.Chemscore.Internal_Hbond.Weighted>
0.0000

> <Gold.Chemscore.DEClash.Weighted>
0.3452

> <Gold.Chemscore.DEInternal.Weighted>
3.4238

> <Gold.Chemscore.Rot.Weighted>
7.0194

> <Gold.Chemscore.Internal.Correction.Weighted>
   9.000000E+99

> <Gold.Protein.RotatedTorsions>
[ 6907 6896 6895 6894 ] final   66.13 input  -60.11 | X-H torsion
[ 7974 7965 7964 7962 ] final  125.05 input  175.53 | X-H torsion
[ 8008 7997 7996 7995 ] final   26.10 input   59.86 | X-H torsion
[ 10167 10162 10161 10158 ] final   37.24 input  -65.29 | X-H torsion
[ 10718 10713 10712 10709 ] final  139.36 input   66.30 | X-H torsion
[ 10763 10752 10751 10750 ] final -177.26 input  -60.55 | X-H torsion
[ 11005 11000 10999 10996 ] final   21.58 input  -57.11 | X-H torsion

> <Gold.Protein.ActiveResidues>
 VAL166  LYS551  ARG553  GLY616  TRP617  ASP618  TYR619  PRO620  LYS621  CYS622 
 ASP623  PHE694  ASN695  SER759  ASP760  ASP761  ALA762  ILE779  LEU786  VAL792 
 PHE793  MET794  SER795  GLU796  ALA797  LYS798  CYS799  TRP800  GLU811  SER814 

> <Gold.Protein.RotatedAtoms>
  152.4459  134.5496  159.9862 H   0  0  0  0  0  0  0  0  0  0  0  0  # atno 6907 bound_to 6896
  151.5581  133.3401  159.2974 H   0  0  0  0  0  0  0  0  0  0  0  0  # atno 6908 bound_to 6896
  150.8375  134.7686  159.6968 H   0  0  0  0  0  0  0  0  0  0  0  0  # atno 6909 bound_to 6896
  145.0774  139.3683  143.4927 H   0  0  0  0  0  0  0  0  0  0  0  0  # atno 7974 bound_to 7965
  155.0221  140.3149  155.4790 H   0  0  0  0  0  0  0  0  0  0  0  0  # atno 8008 bound_to 7997
  156.2890  140.2195  156.5281 H   0  0  0  0  0  0  0  0  0  0  0  0  # atno 8009 bound_to 7997
  154.7443  140.0471  157.0826 H   0  0  0  0  0  0  0  0  0  0  0  0  # atno 8010 bound_to 7997
  140.4051  144.1669  150.6136 H   0  0  0  0  0  0  0  0  0  0  0  0  # atno 10167 bound_to 10162
  157.4152  131.1032  151.0412 H   0  0  0  0  0  0  0  0  0  0  0  0  # atno 10718 bound_to 10713
  154.5623  135.2821  155.0907 H   0  0  0  0  0  0  0  0  0  0  0  0  # atno 10763 bound_to 10752
  154.2312  135.6374  153.5179 H   0  0  0  0  0  0  0  0  0  0  0  0  # atno 10764 bound_to 10752
  153.0032  135.5537  154.6221 H   0  0  0  0  0  0  0  0  0  0  0  0  # atno 10765 bound_to 10752
  140.3900  134.1829  155.7662 H   0  0  0  0  0  0  0  0  0  0  0  0  # atno 11005 bound_to 11000
  146.3530  140.0547  142.8633 LP  0  0  0  0  0  0  0  0  0  0  0  0  # atno 17320 bound_to 7965
  145.1219  140.9467  143.4595 LP  0  0  0  0  0  0  0  0  0  0  0  0  # atno 17321 bound_to 7965
  140.4698  143.2417  151.9105 LP  0  0  0  0  0  0  0  0  0  0  0  0  # atno 17342 bound_to 10162
  139.4783  144.5382  151.8567 LP  0  0  0  0  0  0  0  0  0  0  0  0  # atno 17343 bound_to 10162
  157.1362  130.6123  149.5543 LP  0  0  0  0  0  0  0  0  0  0  0  0  # atno 17370 bound_to 10713
  155.9863  130.4897  150.7072 LP  0  0  0  0  0  0  0  0  0  0  0  0  # atno 17371 bound_to 10713
  141.1894  133.8239  157.0958 LP  0  0  0  0  0  0  0  0  0  0  0  0  # atno 17394 bound_to 11000
  140.0414  134.9852  157.0968 LP  0  0  0  0  0  0  0  0  0  0  0  0  # atno 17395 bound_to 11000

$$$$
