AV-unprocessed.smi:21|AV-procd|sdf|157|dock10
  -GOLD-   2262015393D 1   1.00000     0.00000
 Structure written by MMmdl.
 61 64  0  0  0  0  0  0  0  0  1 V2000
  154.4031  141.0160  160.8516 C   0  0  0  0  0  0  0  0  0  0  0  0
  153.2472  141.7878  161.1356 O   0  0  0  0  0  0  0  0  0  0  0  0
  153.0779  142.8965  160.2627 C   0  0  1  0  0  0  0  0  0  0  0  0
  152.8978  142.4546  158.8001 C   0  0  0  0  0  0  0  0  0  0  0  0
  151.6432  143.2023  158.3358 C   0  0  1  0  0  0  0  0  0  0  0  0
  150.9506  142.5352  157.1286 C   0  0  0  0  0  0  0  0  0  0  0  0
  150.2446  141.3042  157.4833 N   0  0  0  0  0  0  0  0  0  0  0  0
  151.0485  140.1149  157.7544 C   0  0  0  0  0  0  0  0  0  0  0  0
  149.0609  141.1163  156.8447 C   0  0  0  0  0  0  0  0  0  0  0  0
  147.9337  141.7077  157.3241 N   0  0  0  0  0  0  0  0  0  0  0  0
  146.7602  141.5199  156.7138 C   0  0  0  0  0  0  0  0  0  0  0  0
  146.4928  140.7982  155.6244 N   0  0  0  0  0  0  0  0  0  0  0  0
  147.6195  140.2108  155.1294 C   0  0  0  0  0  0  0  0  0  0  0  0
  148.9302  140.3126  155.6765 C   0  0  0  0  0  0  0  0  0  0  0  0
  149.8203  139.5785  154.9034 N   0  0  0  0  0  0  0  0  0  0  0  0
  149.0791  139.0647  153.9613 C   0  0  0  0  0  0  0  0  0  0  0  0
  147.7461  139.4069  154.0080 N   0  0  0  0  0  0  0  0  0  0  0  0
  146.7016  138.9837  153.0851 C   0  0  0  0  0  0  0  0  0  0  0  0
  145.9421  137.6989  153.5176 C   0  0  1  0  0  0  0  0  0  0  0  0
  145.0566  137.9356  154.7637 C   0  0  0  0  0  0  0  0  0  0  0  0
  143.8792  138.6343  154.4176 O   0  0  0  0  0  0  0  0  0  0  0  0
  145.1278  137.0711  152.3554 C   0  0  2  0  0  0  0  0  0  0  0  0
  144.3541  135.8140  152.7180 C   0  0  0  0  0  0  0  0  0  0  0  0
  144.0873  135.1811  151.3555 C   0  0  0  0  0  0  0  0  0  0  0  0
  145.1637  135.5879  150.5181 O   0  0  0  0  0  0  0  0  0  0  0  0
  145.9813  136.5289  151.2038 C   0  0  0  0  0  0  0  0  0  0  0  0
  150.8233  143.2863  159.5325 N   0  0  0  0  0  0  0  0  0  0  0  0
  149.7382  144.2539  159.4377 C   0  0  0  0  0  0  0  0  0  0  0  0
  151.7634  143.6186  160.5886 C   0  0  0  0  0  0  0  0  0  0  0  0
  153.9075  143.5977  160.3684 H   0  0  0  0  0  0  0  0  0  0  0  0
  151.9425  144.2147  158.0613 H   0  0  0  0  0  0  0  0  0  0  0  0
  154.4786  140.1973  161.5668 H   0  0  0  0  0  0  0  0  0  0  0  0
  155.3088  141.6179  160.9356 H   0  0  0  0  0  0  0  0  0  0  0  0
  154.3628  140.5825  159.8519 H   0  0  0  0  0  0  0  0  0  0  0  0
  153.7689  142.6753  158.1827 H   0  0  0  0  0  0  0  0  0  0  0  0
  152.7220  141.3797  158.7603 H   0  0  0  0  0  0  0  0  0  0  0  0
  150.2839  143.2536  156.6508 H   0  0  0  0  0  0  0  0  0  0  0  0
  151.6931  142.2748  156.3744 H   0  0  0  0  0  0  0  0  0  0  0  0
  150.4252  139.2942  158.1115 H   0  0  0  0  0  0  0  0  0  0  0  0
  151.7928  140.3142  158.5244 H   0  0  0  0  0  0  0  0  0  0  0  0
  151.5701  139.7876  156.8544 H   0  0  0  0  0  0  0  0  0  0  0  0
  145.9141  142.0183  157.1633 H   0  0  0  0  0  0  0  0  0  0  0  0
  149.4939  138.4224  153.1996 H   0  0  0  0  0  0  0  0  0  0  0  0
  146.0062  139.8132  152.9568 H   0  0  0  0  0  0  0  0  0  0  0  0
  147.1551  138.8355  152.1044 H   0  0  0  0  0  0  0  0  0  0  0  0
  146.7008  136.9677  153.8016 H   0  0  0  0  0  0  0  0  0  0  0  0
  144.7970  136.9970  155.2531 H   0  0  0  0  0  0  0  0  0  0  0  0
  145.5754  138.5428  155.5046 H   0  0  0  0  0  0  0  0  0  0  0  0
  144.0702  139.2023  153.6867 H   0  0  0  0  0  0  0  0  0  0  0  0
  144.4196  137.8005  151.9601 H   0  0  0  0  0  0  0  0  0  0  0  0
  144.9714  135.1478  153.3229 H   0  0  0  0  0  0  0  0  0  0  0  0
  143.4325  136.0143  153.2652 H   0  0  0  0  0  0  0  0  0  0  0  0
  144.0154  134.0947  151.4114 H   0  0  0  0  0  0  0  0  0  0  0  0
  143.1570  135.5618  150.9325 H   0  0  0  0  0  0  0  0  0  0  0  0
  146.3292  137.3063  150.5247 H   0  0  0  0  0  0  0  0  0  0  0  0
  146.8575  136.0045  151.5875 H   0  0  0  0  0  0  0  0  0  0  0  0
  149.1953  144.3141  160.3814 H   0  0  0  0  0  0  0  0  0  0  0  0
  149.0238  143.9673  158.6664 H   0  0  0  0  0  0  0  0  0  0  0  0
  150.1153  145.2493  159.1994 H   0  0  0  0  0  0  0  0  0  0  0  0
  151.3694  143.3517  161.5698 H   0  0  0  0  0  0  0  0  0  0  0  0
  151.9493  144.6939  160.5950 H   0  0  0  0  0  0  0  0  0  0  0  0
  1  2  1  0  0  0  0
  1 32  1  0  0  0  0
  1 33  1  0  0  0  0
  1 34  1  0  0  0  0
  2  3  1  0  0  0  0
  3 30  1  0  0  0  0
  3 29  1  0  0  0  0
  3  4  1  0  0  0  0
  4  5  1  0  0  0  0
  4 35  1  0  0  0  0
  4 36  1  0  0  0  0
  5 31  1  0  0  0  0
  5  6  1  0  0  0  0
  5 27  1  0  0  0  0
  6  7  1  0  0  0  0
  6 37  1  0  0  0  0
  6 38  1  0  0  0  0
  7  8  1  0  0  0  0
  7  9  1  0  0  0  0
  8 39  1  0  0  0  0
  8 40  1  0  0  0  0
  8 41  1  0  0  0  0
  9 14  1  0  0  0  0
  9 10  2  0  0  0  0
 10 11  1  0  0  0  0
 11 12  2  0  0  0  0
 11 42  1  0  0  0  0
 12 13  1  0  0  0  0
 13 17  1  0  0  0  0
 13 14  2  0  0  0  0
 14 15  1  0  0  0  0
 15 16  2  0  0  0  0
 16 17  1  0  0  0  0
 16 43  1  0  0  0  0
 17 18  1  0  0  0  0
 18 19  1  0  0  0  0
 18 44  1  0  0  0  0
 18 45  1  0  0  0  0
 19 20  1  0  0  0  0
 19 22  1  0  0  0  0
 19 46  1  0  0  0  0
 20 21  1  0  0  0  0
 20 47  1  0  0  0  0
 20 48  1  0  0  0  0
 21 49  1  0  0  0  0
 22 26  1  0  0  0  0
 22 23  1  0  0  0  0
 22 50  1  0  0  0  0
 23 24  1  0  0  0  0
 23 51  1  0  0  0  0
 23 52  1  0  0  0  0
 24 25  1  0  0  0  0
 24 53  1  0  0  0  0
 24 54  1  0  0  0  0
 25 26  1  0  0  0  0
 26 55  1  0  0  0  0
 26 56  1  0  0  0  0
 27 28  1  0  0  0  0
 27 29  1  0  0  0  0
 28 57  1  0  0  0  0
 28 58  1  0  0  0  0
 28 59  1  0  0  0  0
 29 60  1  0  0  0  0
 29 61  1  0  0  0  0
M  END
> <s_m_source_file>
AV-unprocessed.smi

> <i_m_source_file_index>
21

> <i_lp_mmshare_version>
43012

> <i_f3d_flags>
0

> <s_epik_input>
W0NIM11PW0NASF0xW0NIMl1bQ0BIXShOKFtDSDNdKVtDSDJdMSlbQ0gyXU4oW0NIM10pYyhuW2NIXW4yKWMoYzIzKW5bY0hdbjNbQ0gyXVtDQEhdKFtDSDJdW09IXSlbQ0BASF00W0NIMl1bQ0gyXU9bQ0gyXTQ=

> <s_epik_cmdline>
J2VwaWtfcHl0aG9uJywgJy1waCcsICc3LjAnLCAnLXRuJywgJzgnLCAnLW1hJywgJzIwMCcsICctbWV0YWxfYmluZGluZycsICctaW1hZScsICc8aW5maWxlLm1hZT4nLCAnLW9tYWUnLCAnPG91dGZpbGUubWFlPic=

> <r_lp_tautomer_probability>
1

> <r_epik_Ionization_Penalty>
2.17574

> <r_epik_Ionization_Penalty_Charging>
0

> <r_epik_Ionization_Penalty_Neutral>
2.17574

> <r_epik_State_Penalty>
2.31336

> <r_epik_Charging_Adjusted_Penalty>
2.31336

> <i_epik_Tot_Q>
0

> <i_epik_Tot_abs_Q>
0

> <r_epik_Metal_State_Penalty>
2.31025

> <b_epik_Metal_Only>
0

> <s_lp_Force_Field>
OPLS_2005

> <r_lp_Energy>
71.0879

> <b_lp_Chiralities_Consistent>
1

> <s_lp_Variant>
AV-unprocessed.smi:21-37

> <Gold.Version>
5.8.1

> <Gold.Id.Protein>
6NUR|6NUR_protein|mol2

> <Gold.PLP.Fitness>
44.2922

> <Gold.PLP.PLP>
-40.1077

> <Gold.PLP.part.hbond>
-0.9705

> <Gold.PLP.part.metal>
0.0000

> <Gold.PLP.part.buried>
-6.2031

> <Gold.PLP.part.nonpolar>
-34.0218

> <Gold.PLP.part.repulsive>
0.6419

> <Gold.PLP.ligand.clash>
0.0000

> <Gold.PLP.ligand.torsion>
1.4733

> <Gold.PLP.Chemscore.Hbond>
0.9920

> <Gold.PLP.Chemscore.CHOScore>
1.0002

> <Gold.PLP.Chemscore.Metal>
0.0000

> <Gold.Chemscore.Hbonds>
donor molecule, donor type, donor heavy atom, donor atom, acceptor molecule, acceptor atom, score
      L1  H    21    49       P1 10175  1.00
      L1  C    16    43       P1  7948  0.86
      L1  C    16    43       P1  7957  0.38

> <Gold.PLP.Chemscore.Internal.Correction>
1.1545

> <Gold.Rescore>
     Score         DG    S(hbond)    S(metal)    S(lipo)     H(rot)  DE(clash)    DE(int)     intcor
     11.12     -12.93       0.99        0.00     106.85       3.26       0.15       1.66       ----

> <Gold.Chemscore.Fitness>
11.1224

> <Gold.Chemscore.DG>
-12.9323

> <Gold.Chemscore.ZeroCoef>
-5.4800

> <Gold.Chemscore.Hbond>
0.9850

> <Gold.Chemscore.Metal>
0.0000

> <Gold.Chemscore.Lipo>
106.8523

> <Gold.Chemscore.Internal_Hbond>
0.0000

> <Gold.Chemscore.DEClash>
0.1530

> <Gold.Chemscore.DEInternal>
1.6570

> <Gold.Chemscore.Rot>
3.2576

> <Gold.Chemscore.Internal.Correction>
   9.000000E+99

> <Gold.Chemscore.Hbonds>
donor molecule, donor type, donor heavy atom, donor atom, acceptor molecule, acceptor atom, score
      L1  H    21    49       P1 10175  0.97

> <Gold.Chemscore.Hbond.Weighted>
-3.2901

> <Gold.Chemscore.Metal.Weighted>
-0.0000

> <Gold.Chemscore.Lipo.Weighted>
-12.5017

> <Gold.Chemscore.Internal_Hbond.Weighted>
0.0000

> <Gold.Chemscore.DEClash.Weighted>
0.1530

> <Gold.Chemscore.DEInternal.Weighted>
1.6570

> <Gold.Chemscore.Rot.Weighted>
8.3395

> <Gold.Chemscore.Internal.Correction.Weighted>
   9.000000E+99

> <Gold.Protein.RotatedTorsions>
[ 6907 6896 6895 6894 ] final   -5.00 input  -60.11 | X-H torsion
[ 7974 7965 7964 7962 ] final   56.72 input  175.53 | X-H torsion
[ 8008 7997 7996 7995 ] final   20.64 input   59.86 | X-H torsion
[ 10167 10162 10161 10158 ] final  151.70 input  -65.29 | X-H torsion
[ 10718 10713 10712 10709 ] final  148.11 input   66.30 | X-H torsion
[ 10763 10752 10751 10750 ] final   29.40 input  -60.55 | X-H torsion
[ 11005 11000 10999 10996 ] final  -22.47 input  -57.11 | X-H torsion

> <Gold.Protein.ActiveResidues>
 VAL166  LYS551  ARG553  GLY616  TRP617  ASP618  TYR619  PRO620  LYS621  CYS622 
 ASP623  PHE694  ASN695  SER759  ASP760  ASP761  ALA762  ILE779  LEU786  VAL792 
 PHE793  MET794  SER795  GLU796  ALA797  LYS798  CYS799  TRP800  GLU811  SER814 

> <Gold.Protein.RotatedAtoms>
  151.4887  135.1056  159.9797 H   0  0  0  0  0  0  0  0  0  0  0  0  # atno 6907 bound_to 6896
  152.4750  133.8113  159.7015 H   0  0  0  0  0  0  0  0  0  0  0  0  # atno 6908 bound_to 6896
  150.8782  133.7347  159.2966 H   0  0  0  0  0  0  0  0  0  0  0  0  # atno 6909 bound_to 6896
  145.9368  139.3854  143.0388 H   0  0  0  0  0  0  0  0  0  0  0  0  # atno 7974 bound_to 7965
  154.9386  140.3050  155.5132 H   0  0  0  0  0  0  0  0  0  0  0  0  # atno 8008 bound_to 7997
  156.2998  140.2340  156.4390 H   0  0  0  0  0  0  0  0  0  0  0  0  # atno 8009 bound_to 7997
  154.8167  140.0425  157.1370 H   0  0  0  0  0  0  0  0  0  0  0  0  # atno 8010 bound_to 7997
  139.4838  144.5419  151.7550 H   0  0  0  0  0  0  0  0  0  0  0  0  # atno 10167 bound_to 10162
  157.3126  131.0890  151.1304 H   0  0  0  0  0  0  0  0  0  0  0  0  # atno 10718 bound_to 10713
  153.0433  135.6490  154.0884 H   0  0  0  0  0  0  0  0  0  0  0  0  # atno 10763 bound_to 10752
  154.0587  135.2890  155.3330 H   0  0  0  0  0  0  0  0  0  0  0  0  # atno 10764 bound_to 10752
  154.6672  135.5369  153.8157 H   0  0  0  0  0  0  0  0  0  0  0  0  # atno 10765 bound_to 10752
  140.8659  133.7754  156.0129 H   0  0  0  0  0  0  0  0  0  0  0  0  # atno 11005 bound_to 11000
  145.8353  140.9609  143.0827 LP  0  0  0  0  0  0  0  0  0  0  0  0  # atno 17320 bound_to 7965
  144.6773  140.0215  143.7483 LP  0  0  0  0  0  0  0  0  0  0  0  0  # atno 17321 bound_to 7965
  140.4960  144.1240  150.5960 LP  0  0  0  0  0  0  0  0  0  0  0  0  # atno 17342 bound_to 10162
  140.4117  143.2654  151.9825 LP  0  0  0  0  0  0  0  0  0  0  0  0  # atno 17343 bound_to 10162
  157.2620  130.6663  149.5979 LP  0  0  0  0  0  0  0  0  0  0  0  0  # atno 17370 bound_to 10713
  155.9679  130.4506  150.5702 LP  0  0  0  0  0  0  0  0  0  0  0  0  # atno 17371 bound_to 10713
  140.8629  134.2819  157.5226 LP  0  0  0  0  0  0  0  0  0  0  0  0  # atno 17394 bound_to 11000
  139.8709  134.9527  156.4124 LP  0  0  0  0  0  0  0  0  0  0  0  0  # atno 17395 bound_to 11000

$$$$
