AV-unprocessed.smi:1224|AV-procd|sdf|5135|dock7
  -GOLD-   22720 4193D 1   1.00000     0.00000
 Structure written by MMmdl.
 44 46  0  0  0  0  0  0  0  0  2 V2000
  152.6991  143.0515  161.3926 C   0  0  0  0  0  0  0  0  0  0  0  0
  152.3829  142.3717  160.0713 C   0  0  0  0  0  0  0  0  0  0  0  0
  151.5437  143.0414  159.1522 C   0  0  0  0  0  0  0  0  0  0  0  0
  151.2748  142.3953  157.9514 C   0  0  0  0  0  0  0  0  0  0  0  0
  150.5003  142.7828  156.8555 N   0  3  0  0  0  0  0  0  0  0  0  0
  150.5401  141.8093  155.9038 C   0  0  0  0  0  0  0  0  0  0  0  0
  151.3239  140.8040  156.3795 N   0  0  0  0  0  0  0  0  0  0  0  0
  151.6990  139.5239  155.7644 C   0  0  0  0  0  0  0  0  0  0  0  0
  150.5089  138.8123  155.0865 C   0  0  1  0  0  0  0  0  0  0  0  0
  150.3633  139.3127  153.7731 O   0  0  0  0  0  0  0  0  0  0  0  0
  150.7033  137.2909  154.9977 C   0  0  0  0  0  0  0  0  0  0  0  0
  149.4338  136.6041  154.7649 N   0  0  0  0  0  0  0  0  0  0  0  0
  149.2207  135.4406  155.6216 C   0  0  0  0  0  0  0  0  0  0  0  0
  149.1186  134.1647  154.8508 C   0  0  0  0  0  0  0  0  0  0  0  0
  149.8827  133.0339  154.9914 C   0  0  0  0  0  0  0  0  0  0  0  0
  149.5199  131.9958  154.0841 C   0  0  0  0  0  0  0  0  0  0  0  0
  148.4826  132.3480  153.2621 C   0  0  0  0  0  0  0  0  0  0  0  0
  147.9297  133.9677  153.5878 S   0  0  0  0  0  0  0  0  0  0  0  0
  151.8082  141.1274  157.6507 C   0  0  0  0  0  0  0  0  0  0  0  0
  152.6368  140.4532  158.5438 C   0  0  0  0  0  0  0  0  0  0  0  0
  152.9220  141.0935  159.7711 C   0  0  0  0  0  0  0  0  0  0  0  0
  153.8231  140.3828  160.7666 C   0  0  0  0  0  0  0  0  0  0  0  0
  152.2176  144.0272  161.4648 H   0  0  0  0  0  0  0  0  0  0  0  0
  153.7737  143.2019  161.4983 H   0  0  0  0  0  0  0  0  0  0  0  0
  152.3500  142.4452  162.2287 H   0  0  0  0  0  0  0  0  0  0  0  0
  151.1301  144.0145  159.3736 H   0  0  0  0  0  0  0  0  0  0  0  0
  150.0380  141.8292  154.9471 H   0  0  0  0  0  0  0  0  0  0  0  0
  152.4836  139.7284  155.0344 H   0  0  0  0  0  0  0  0  0  0  0  0
  152.1501  138.8954  156.5333 H   0  0  0  0  0  0  0  0  0  0  0  0
  149.5844  139.0287  155.6235 H   0  0  0  0  0  0  0  0  0  0  0  0
  149.4972  139.6805  153.6876 H   0  0  0  0  0  0  0  0  0  0  0  0
  151.3886  137.0631  154.1802 H   0  0  0  0  0  0  0  0  0  0  0  0
  151.1766  136.9247  155.9097 H   0  0  0  0  0  0  0  0  0  0  0  0
  149.3605  136.3296  153.7907 H   0  0  0  0  0  0  0  0  0  0  0  0
  150.0567  135.3546  156.3159 H   0  0  0  0  0  0  0  0  0  0  0  0
  148.3337  135.5838  156.2399 H   0  0  0  0  0  0  0  0  0  0  0  0
  150.6835  132.9187  155.7067 H   0  0  0  0  0  0  0  0  0  0  0  0
  150.0250  131.0414  154.0666 H   0  0  0  0  0  0  0  0  0  0  0  0
  148.0116  131.7588  152.4892 H   0  0  0  0  0  0  0  0  0  0  0  0
  153.0467  139.4810  158.3122 H   0  0  0  0  0  0  0  0  0  0  0  0
  154.1256  139.4010  160.4008 H   0  0  0  0  0  0  0  0  0  0  0  0
  153.3079  140.2388  161.7166 H   0  0  0  0  0  0  0  0  0  0  0  0
  154.7271  140.9648  160.9470 H   0  0  0  0  0  0  0  0  0  0  0  0
  149.9839  143.6481  156.7604 H   0  0  0  0  0  0  0  0  0  0  0  0
  1  2  1  0  0  0  0
  1 23  1  0  0  0  0
  1 24  1  0  0  0  0
  1 25  1  0  0  0  0
  2 21  1  0  0  0  0
  2  3  2  0  0  0  0
  3  4  1  0  0  0  0
  3 26  1  0  0  0  0
  4 19  2  0  0  0  0
  4  5  1  0  0  0  0
  5  6  2  0  0  0  0
  5 44  1  0  0  0  0
  6  7  1  0  0  0  0
  6 27  1  0  0  0  0
  7  8  1  0  0  0  0
  7 19  1  0  0  0  0
  8  9  1  0  0  0  0
  8 28  1  0  0  0  0
  8 29  1  0  0  0  0
  9 10  1  0  0  0  0
  9 11  1  0  0  0  0
  9 30  1  0  0  0  0
 10 31  1  0  0  0  0
 11 12  1  0  0  0  0
 11 32  1  0  0  0  0
 11 33  1  0  0  0  0
 12 13  1  0  0  0  0
 12 34  1  0  0  0  0
 13 14  1  0  0  0  0
 13 35  1  0  0  0  0
 13 36  1  0  0  0  0
 14 18  1  0  0  0  0
 14 15  2  0  0  0  0
 15 16  1  0  0  0  0
 15 37  1  0  0  0  0
 16 17  2  0  0  0  0
 16 38  1  0  0  0  0
 17 18  1  0  0  0  0
 17 39  1  0  0  0  0
 19 20  1  0  0  0  0
 20 21  2  0  0  0  0
 20 40  1  0  0  0  0
 21 22  1  0  0  0  0
 22 41  1  0  0  0  0
 22 42  1  0  0  0  0
 22 43  1  0  0  0  0
M  CHG  1   5   1
M  END
> <s_m_source_file>
AV-unprocessed.smi

> <i_m_source_file_index>
1224

> <i_lp_mmshare_version>
43012

> <i_f3d_flags>
0

> <s_epik_input>
W0NIM11jKFtjSF0xKWMoW0NIM10pW2NIXWMoYzEyKW4oW2NIXW4yKVtDSDJdW0NASF0oW09IXSlbQ0gyXVtOSF1bQ0gyXWMzW2NIXVtjSF1bY0hdczM=

> <s_epik_cmdline>
J2VwaWtfcHl0aG9uJywgJy1waCcsICc3LjAnLCAnLXRuJywgJzgnLCAnLW1hJywgJzIwMCcsICctbWV0YWxfYmluZGluZycsICctaW1hZScsICc8aW5maWxlLm1hZT4nLCAnLW9tYWUnLCAnPG91dGZpbGUubWFlPic=

> <r_epik_Ionization_Penalty>
2.3772

> <r_epik_Ionization_Penalty_Charging>
0.996291

> <r_epik_Ionization_Penalty_Neutral>
1.38091

> <r_epik_State_Penalty>
2.60954

> <r_epik_Charging_Adjusted_Penalty>
3.60583

> <i_epik_Tot_Q>
1

> <i_epik_Tot_abs_Q>
1

> <r_epik_Metal_State_Penalty>
6.5861

> <b_epik_Metal_Only>
0

> <s_lp_Force_Field>
OPLS_2005

> <r_lp_Energy>
14.7648

> <b_lp_Chiralities_Consistent>
1

> <s_lp_Variant>
AV-unprocessed.smi:1224-8

> <Gold.Version>
5.8.1

> <Gold.Id.Protein>
6NUR|6NUR_protein|mol2

> <Gold.PLP.Fitness>
60.4851

> <Gold.PLP.PLP>
-48.3115

> <Gold.PLP.part.hbond>
-4.0000

> <Gold.PLP.part.metal>
0.0000

> <Gold.PLP.part.buried>
-3.6765

> <Gold.PLP.part.nonpolar>
-39.7788

> <Gold.PLP.part.repulsive>
0.0356

> <Gold.PLP.ligand.clash>
0.0000

> <Gold.PLP.ligand.torsion>
1.3644

> <Gold.PLP.Chemscore.Hbond>
3.9440

> <Gold.PLP.Chemscore.CHOScore>
0.9984

> <Gold.PLP.Chemscore.Metal>
0.0000

> <Gold.Chemscore.Hbonds>
donor molecule, donor type, donor heavy atom, donor atom, acceptor molecule, acceptor atom, score
      L1  H     5    44       P1  8028  1.92
      L1  H    12    34       P1  7948  1.00
      P1  H  7989  7998       L1    10  0.98
      L1  C    17    39       P1 10747  0.89

> <Gold.PLP.Chemscore.Internal.Correction>
0.0752

> <Gold.Rescore>
     Score         DG    S(hbond)    S(metal)    S(lipo)     H(rot)  DE(clash)    DE(int)     intcor
     19.63     -21.20       2.22        0.00     123.31       2.40       0.26       1.31       ----

> <Gold.Chemscore.Fitness>
19.6256

> <Gold.Chemscore.DG>
-21.1976

> <Gold.Chemscore.ZeroCoef>
-5.4800

> <Gold.Chemscore.Hbond>
2.2250

> <Gold.Chemscore.Metal>
0.0000

> <Gold.Chemscore.Lipo>
123.3141

> <Gold.Chemscore.Internal_Hbond>
0.0000

> <Gold.Chemscore.DEClash>
0.2605

> <Gold.Chemscore.DEInternal>
1.3114

> <Gold.Chemscore.Rot>
2.3990

> <Gold.Chemscore.Internal.Correction>
   9.000000E+99

> <Gold.Chemscore.Hbonds>
donor molecule, donor type, donor heavy atom, donor atom, acceptor molecule, acceptor atom, score
      L1  H     5    44       P1  8028  0.92
      L1  H    12    34       P1  7948  0.84
      P1  H  7989  7998       L1    10  0.35

> <Gold.Chemscore.Hbond.Weighted>
-7.4314

> <Gold.Chemscore.Metal.Weighted>
-0.0000

> <Gold.Chemscore.Lipo.Weighted>
-14.4277

> <Gold.Chemscore.Internal_Hbond.Weighted>
0.0000

> <Gold.Chemscore.DEClash.Weighted>
0.2605

> <Gold.Chemscore.DEInternal.Weighted>
1.3114

> <Gold.Chemscore.Rot.Weighted>
6.1415

> <Gold.Chemscore.Internal.Correction.Weighted>
   9.000000E+99

> <Gold.Protein.RotatedTorsions>
[ 6907 6896 6895 6894 ] final -100.02 input  -60.11 | X-H torsion
[ 7974 7965 7964 7962 ] final   88.69 input  175.53 | X-H torsion
[ 8008 7997 7996 7995 ] final   69.28 input   59.86 | X-H torsion
[ 10167 10162 10161 10158 ] final -119.58 input  -65.29 | X-H torsion
[ 10718 10713 10712 10709 ] final  -71.95 input   66.30 | X-H torsion
[ 10763 10752 10751 10750 ] final  -85.32 input  -60.55 | X-H torsion
[ 11005 11000 10999 10996 ] final -123.25 input  -57.11 | X-H torsion

> <Gold.Protein.ActiveResidues>
 VAL166  LYS551  ARG553  GLY616  TRP617  ASP618  TYR619  PRO620  LYS621  CYS622 
 ASP623  PHE694  ASN695  SER759  ASP760  ASP761  ALA762  ILE779  LEU786  VAL792 
 PHE793  MET794  SER795  GLU796  ALA797  LYS798  CYS799  TRP800  GLU811  SER814 

> <Gold.Protein.RotatedAtoms>
  150.7100  134.0952  159.3945 H   0  0  0  0  0  0  0  0  0  0  0  0  # atno 6907 bound_to 6896
  151.8938  135.0404  160.0509 H   0  0  0  0  0  0  0  0  0  0  0  0  # atno 6908 bound_to 6896
  152.2470  133.5147  159.5340 H   0  0  0  0  0  0  0  0  0  0  0  0  # atno 6909 bound_to 6896
  145.5423  139.2289  143.2559 H   0  0  0  0  0  0  0  0  0  0  0  0  # atno 7974 bound_to 7965
  155.7213  140.3493  155.5017 H   0  0  0  0  0  0  0  0  0  0  0  0  # atno 8008 bound_to 7997
  155.9267  140.1077  157.1186 H   0  0  0  0  0  0  0  0  0  0  0  0  # atno 8009 bound_to 7997
  154.4078  140.1239  156.4736 H   0  0  0  0  0  0  0  0  0  0  0  0  # atno 8010 bound_to 7997
  140.0451  143.5115  152.2110 H   0  0  0  0  0  0  0  0  0  0  0  0  # atno 10167 bound_to 10162
  156.0341  130.4362  150.2521 H   0  0  0  0  0  0  0  0  0  0  0  0  # atno 10718 bound_to 10713
  154.6097  135.5489  153.7460 H   0  0  0  0  0  0  0  0  0  0  0  0  # atno 10763 bound_to 10752
  153.0190  135.6386  154.1596 H   0  0  0  0  0  0  0  0  0  0  0  0  # atno 10764 bound_to 10752
  154.1534  135.2901  155.3109 H   0  0  0  0  0  0  0  0  0  0  0  0  # atno 10765 bound_to 10752
  140.9933  134.0508  157.3628 H   0  0  0  0  0  0  0  0  0  0  0  0  # atno 11005 bound_to 11000
  146.1972  140.6244  142.9118 LP  0  0  0  0  0  0  0  0  0  0  0  0  # atno 17320 bound_to 7965
  144.7571  140.5332  143.6761 LP  0  0  0  0  0  0  0  0  0  0  0  0  # atno 17321 bound_to 7965
  139.5989  144.7576  151.3220 LP  0  0  0  0  0  0  0  0  0  0  0  0  # atno 17342 bound_to 10162
  140.7242  143.7050  150.7815 LP  0  0  0  0  0  0  0  0  0  0  0  0  # atno 17343 bound_to 10162
  157.0621  131.0093  151.3219 LP  0  0  0  0  0  0  0  0  0  0  0  0  # atno 17370 bound_to 10713
  157.5062  130.7910  149.7657 LP  0  0  0  0  0  0  0  0  0  0  0  0  # atno 17371 bound_to 10713
  139.9002  135.0161  156.7233 LP  0  0  0  0  0  0  0  0  0  0  0  0  # atno 17394 bound_to 11000
  140.7006  133.9310  155.8022 LP  0  0  0  0  0  0  0  0  0  0  0  0  # atno 17395 bound_to 11000

$$$$
