#       Name:                AV-unprocessed.smi:54
#       Creating user name   scv26
#       Creation time:       Thu Mar 26 16:45:56 2020


#       File generated by GOLD software.
#

@<TRIPOS>MOLECULE
AV-unprocessed.smi:54
    58    60     1
SMALL
NO_CHARGES


@<TRIPOS>ATOM
      1 ****        -0.5287   5.5401  -1.9387 C.3            1 S1                 0.0000
      2 ****        -1.1741   5.0033  -0.6501 C.3            1 S1                 0.0000
      3 ****        -0.6813   5.7760   0.5844 C.3            1 S1                 0.0000
      4 ****        -0.9058   3.4999  -0.4927 C.2            1 S1                 0.0000
      5 ****         0.2596   3.1025  -0.4175 O.2            1 S1                 0.0000
      6 ****        -2.0073   2.7170  -0.4481 N.am           1 S1                 0.0000
      7 ****        -2.0971   1.3256  -0.3248 C.2            1 S1                 0.0000
      8 ****        -1.0110   0.5853  -0.3406 N.2            1 S1                 0.0000
      9 ****        -1.2900  -0.7619  -0.2205 C.2            1 S1                 0.0000
     10 ****        -2.5150  -1.3564  -0.0948 C.2            1 S1                 0.0000
     11 ****        -2.4017  -2.7379   0.0007 N.2            1 S1                 0.0000
     12 ****        -1.0834  -2.9142  -0.0749 C.2            1 S1                 0.0000
     13 ****        -0.3519  -1.7870  -0.1994 N.pl3          1 S1                 0.0000
     14 ****         1.1375  -1.6514  -0.3062 C.3            1 S1                 0.0000
     15 ****         1.6305  -2.8337  -0.8637 O.3            1 S1                 0.0000
     16 ****         2.5366  -3.4850   0.0269 C.3            1 S1                 0.0000
     17 ****         2.4309  -5.0145  -0.1031 C.3            1 S1                 0.0000
     18 ****         3.1654  -5.4570  -1.2244 O.3            1 S1                 0.0000
     19 ****         2.2174  -2.9105   1.4155 C.3            1 S1                 0.0000
     20 ****         1.1851  -3.6381   2.0603 O.3            1 S1                 0.0000
     21 ****         1.8043  -1.4868   1.0714 C.3            1 S1                 0.0000
     22 ****         1.0105  -0.8743   2.0728 O.3            1 S1                 0.0000
     23 ****        -3.6948  -0.4596  -0.0844 C.2            1 S1                 0.0000
     24 ****        -4.8172  -0.9485   0.0285 O.2            1 S1                 0.0000
     25 ****        -3.4207   0.8747  -0.2048 N.pl3          1 S1                -1.0000
     26 ****         1.2894  -0.8018  -0.9727 H              1 S1                 0.0000
     27 ****         3.5445  -3.1590  -0.2368 H              1 S1                 0.0000
     28 ****         3.0933  -2.9264   2.0650 H              1 S1                 0.0000
     29 ****         2.7019  -0.8851   0.9235 H              1 S1                 0.0000
     30 ****        -0.8676   4.9837  -2.8135 H              1 S1                 0.0000
     31 ****         0.5594   5.4722  -1.9020 H              1 S1                 0.0000
     32 ****        -0.7880   6.5872  -2.0968 H              1 S1                 0.0000
     33 ****        -2.2520   5.1544  -0.7303 H              1 S1                 0.0000
     34 ****        -1.1347   5.3917   1.4990 H              1 S1                 0.0000
     35 ****        -0.9406   6.8323   0.5110 H              1 S1                 0.0000
     36 ****         0.4018   5.7088   0.6950 H              1 S1                 0.0000
     37 ****        -2.8854   3.2121  -0.4995 H              1 S1                 0.0000
     38 ****        -0.6378  -3.8969  -0.0364 H              1 S1                 0.0000
     39 ****         2.8581  -5.4976   0.7761 H              1 S1                 0.0000
     40 ****         1.3924  -5.3371  -0.1807 H              1 S1                 0.0000
     41 ****         3.0889  -6.3971  -1.2816 H              1 S1                 0.0000
     42 ****         0.9866  -3.2095   2.8791 H              1 S1                 0.0000
     43 ****         0.1903  -1.3405   2.1311 H              1 S1                 0.0000
     44 ****         1.0147   3.7568  -0.4593 LP             1 S1                 0.0000
     45 ****         0.4493   2.1261  -0.3148 LP             1 S1                 0.0000
     46 ****        -0.0865   0.9560  -0.4296 LP             1 S1                 0.0000
     47 ****        -3.1233  -3.4229   0.1004 LP             1 S1                 0.0000
     48 ****         2.1082  -2.6184  -1.7155 LP             1 S1                 0.0000
     49 ****         0.8650  -3.4474  -1.0568 LP             1 S1                 0.0000
     50 ****         4.1269  -5.2027  -1.1195 LP             1 S1                 0.0000
     51 ****         2.7985  -5.0377  -2.0548 LP             1 S1                 0.0000
     52 ****         1.4894  -4.5747   2.2340 LP             1 S1                 0.0000
     53 ****         0.3702  -3.6543   1.4809 LP             1 S1                 0.0000
     54 ****         0.8395   0.0808   1.8306 LP             1 S1                 0.0000
     55 ****         1.4854  -0.9153   2.9519 LP             1 S1                 0.0000
     56 ****        -4.9249  -1.9392   0.1117 LP             1 S1                 0.0000
     57 ****        -5.6223  -0.3555   0.0370 LP             1 S1                 0.0000
     58 ****        -4.1709   1.5359  -0.2074 LP             1 S1                 0.0000
@<TRIPOS>BOND
    1    1    2 1     
    2    1   30 1     
    3    1   31 1     
    4    1   32 1     
    5    2    3 1     
    6    2    4 1     
    7    2   33 1     
    8    3   34 1     
    9    3   35 1     
   10    3   36 1     
   11    4    5 2     
   12    4    6 am    
   13    6   37 1     
   14    6    7 1     
   15    7   25 1     
   16    7    8 2     
   17    8    9 1     
   18    9   13 1     
   19    9   10 2     
   20   10   11 1     
   21   10   23 1     
   22   11   12 2     
   23   12   13 1     
   24   12   38 1     
   25   13   14 1     
   26   14   26 1     
   27   14   21 1     
   28   14   15 1     
   29   15   16 1     
   30   16   27 1     
   31   16   17 1     
   32   16   19 1     
   33   17   18 1     
   34   17   39 1     
   35   17   40 1     
   36   18   41 1     
   37   19   28 1     
   38   19   20 1     
   39   19   21 1     
   40   20   42 1     
   41   21   29 1     
   42   21   22 1     
   43   22   43 1     
   44   23   24 2     
   45   23   25 1     
   46    5   44 1     
   47    5   45 1     
   48    8   46 1     
   49   11   47 1     
   50   15   48 1     
   51   15   49 1     
   52   18   50 1     
   53   18   51 1     
   54   20   52 1     
   55   20   53 1     
   56   22   54 1     
   57   22   55 1     
   58   24   56 1     
   59   24   57 1     
   60   25   58 1     
@<TRIPOS>SUBSTRUCTURE
      1 S1             1
@<TRIPOS>SET
LONE_PAIRS      STATIC     ATOMS    <user>   **** ""
15 44 45 46 47 48 49 50 51 52 53 54 55 56 57 58
DONOR_HYDROGENS      STATIC     ATOMS    <user>   **** ""
4 37 41 42 43
ATOM$BLUE        STATIC     ATOMS    COLORGROUP SYSTEM
15 44 45 46 47 48 49 50 51 52 53 54 55 56 57 58
ATOM$RED        STATIC     ATOMS    COLORGROUP SYSTEM
4 37 41 42 43
