AV-unprocessed.smi:72|AV-procd|sdf|681|dock2
  -GOLD-   2262016593D 1   1.00000     0.00000
 Structure written by MMmdl.
 29 30  0  0  0  0  0  0  0  0  1 V2000
  152.3034  140.6270  159.1811 N   0  0  0  0  0  0  0  0  0  0  0  0
  151.5980  140.7687  158.1169 C   0  0  0  0  0  0  0  0  0  0  0  0
  150.4720  141.5957  157.9929 N   0  0  0  0  0  0  0  0  0  0  0  0
  149.8449  141.6272  156.8572 C   0  0  0  0  0  0  0  0  0  0  0  0
  150.2590  140.8185  155.7164 N   0  0  0  0  0  0  0  0  0  0  0  0
  149.5402  140.8526  154.3771 C   0  0  2  0  0  0  0  0  0  0  0  0
  148.6900  141.9623  154.3196 O   0  0  0  0  0  0  0  0  0  0  0  0
  147.3576  141.5669  154.6331 C   0  0  1  0  0  0  0  0  0  0  0  0
  146.3380  142.6267  154.1813 C   0  0  0  0  0  0  0  0  0  0  0  0
  145.0276  142.1872  154.4689 O   0  0  0  0  0  0  0  0  0  0  0  0
  147.2622  140.2075  153.9345 C   0  0  1  0  0  0  0  0  0  0  0  0
  146.9984  140.3794  152.5512 O   0  0  0  0  0  0  0  0  0  0  0  0
  148.6429  139.6072  154.2001 C   0  0  1  0  0  0  0  0  0  0  0  0
  149.0694  138.7483  153.1588 O   0  0  0  0  0  0  0  0  0  0  0  0
  151.4191  140.0106  155.8183 C   0  0  0  0  0  0  0  0  0  0  0  0
  151.8415  139.3420  154.8749 O   0  0  0  0  0  0  0  0  0  0  0  0
  152.0339  140.0156  157.0203 N   0  0  0  0  0  0  0  0  0  0  0  0
  150.3289  140.9555  153.6295 H   0  0  0  0  0  0  0  0  0  0  0  0
  147.2692  141.4011  155.7084 H   0  0  0  0  0  0  0  0  0  0  0  0
  146.4690  139.5900  154.3569 H   0  0  0  0  0  0  0  0  0  0  0  0
  148.6125  139.0461  155.1356 H   0  0  0  0  0  0  0  0  0  0  0  0
  151.9281  141.1991  159.9241 H   0  0  0  0  0  0  0  0  0  0  0  0
  148.9741  142.2628  156.6966 H   0  0  0  0  0  0  0  0  0  0  0  0
  146.5261  143.5903  154.6563 H   0  0  0  0  0  0  0  0  0  0  0  0
  146.4035  142.7756  153.1032 H   0  0  0  0  0  0  0  0  0  0  0  0
  144.8218  141.4637  153.8969 H   0  0  0  0  0  0  0  0  0  0  0  0
  147.7998  140.2199  152.0759 H   0  0  0  0  0  0  0  0  0  0  0  0
  149.0358  139.2282  152.3447 H   0  0  0  0  0  0  0  0  0  0  0  0
  152.8584  139.4431  157.1279 H   0  0  0  0  0  0  0  0  0  0  0  0
  1  2  2  0  0  0  0
  1 22  1  0  0  0  0
  2 17  1  0  0  0  0
  2  3  1  0  0  0  0
  3  4  2  0  0  0  0
  4  5  1  0  0  0  0
  4 23  1  0  0  0  0
  5  6  1  0  0  0  0
  5 15  1  0  0  0  0
  6 18  1  0  0  0  0
  6 13  1  0  0  0  0
  6  7  1  0  0  0  0
  7  8  1  0  0  0  0
  8 19  1  0  0  0  0
  8  9  1  0  0  0  0
  8 11  1  0  0  0  0
  9 10  1  0  0  0  0
  9 24  1  0  0  0  0
  9 25  1  0  0  0  0
 10 26  1  0  0  0  0
 11 20  1  0  0  0  0
 11 12  1  0  0  0  0
 11 13  1  0  0  0  0
 12 27  1  0  0  0  0
 13 21  1  0  0  0  0
 13 14  1  0  0  0  0
 14 28  1  0  0  0  0
 15 16  2  0  0  0  0
 15 17  1  0  0  0  0
 17 29  1  0  0  0  0
M  END
> <s_m_source_file>
AV-unprocessed.smi

> <i_m_source_file_index>
72

> <i_lp_mmshare_version>
43012

> <i_f3d_flags>
0

> <s_epik_input>
W05IMl1jMW5bY0hdbihjKD1PKW4xKVtDQEBIXTJPW0NASF0oW0NIMl1bT0hdKVtDQEBIXShbT0hdKVtDQEhdMltPSF0=

> <s_epik_cmdline>
J2VwaWtfcHl0aG9uJywgJy1waCcsICc3LjAnLCAnLXRuJywgJzgnLCAnLW1hJywgJzIwMCcsICctbWV0YWxfYmluZGluZycsICctaW1hZScsICc8aW5maWxlLm1hZT4nLCAnLW9tYWUnLCAnPG91dGZpbGUubWFlPic=

> <r_lp_tautomer_probability>
7.17554e-07

> <r_epik_Ionization_Penalty>
0.0066451

> <r_epik_Ionization_Penalty_Charging>
0.00663793

> <r_epik_Ionization_Penalty_Neutral>
7.17052e-06

> <r_epik_State_Penalty>
0.419231

> <r_epik_Charging_Adjusted_Penalty>
0.425868

> <i_epik_Tot_Q>
0

> <i_epik_Tot_abs_Q>
0

> <r_epik_Metal_State_Penalty>
1.44144

> <b_epik_Metal_Only>
0

> <s_epik_Chemistry_Notes>
This compound contains an acetal/aminal-like group ( X-CH(R)-Y where X, Y are N, S, or O) that may be acid/base labile, releasing an aldehyde.

> <s_lp_Force_Field>
OPLS_2005

> <r_lp_Energy>
42.1864

> <b_lp_Chiralities_Consistent>
1

> <s_lp_Variant>
AV-unprocessed.smi:72-19

> <Gold.Version>
5.8.1

> <Gold.Id.Protein>
6NUR|6NUR_protein|mol2

> <Gold.PLP.Fitness>
42.9467

> <Gold.PLP.PLP>
-29.7158

> <Gold.PLP.part.hbond>
-6.1201

> <Gold.PLP.part.metal>
0.0000

> <Gold.PLP.part.buried>
-3.0663

> <Gold.PLP.part.nonpolar>
-21.4901

> <Gold.PLP.part.repulsive>
0.6926

> <Gold.PLP.ligand.clash>
0.0000

> <Gold.PLP.ligand.torsion>
0.4623

> <Gold.PLP.Chemscore.Hbond>
3.7150

> <Gold.PLP.Chemscore.CHOScore>
0.9959

> <Gold.PLP.Chemscore.Metal>
0.0000

> <Gold.Chemscore.Hbonds>
donor molecule, donor type, donor heavy atom, donor atom, acceptor molecule, acceptor atom, score
      L1  H    10    26       P1 10175  0.96
      L1  H    12    27       P1  7957  1.00
      L1  H    14    28       P1  7957  1.00
      P1  H  7989  7998       L1    16  0.71
      P1  H  8011  8017       L1     7  0.03
      L1  C     4    23       P1  8028  0.65

> <Gold.PLP.Chemscore.Internal.Correction>
0.0229

> <Gold.Rescore>
     Score         DG    S(hbond)    S(metal)    S(lipo)     H(rot)  DE(clash)    DE(int)     intcor
      6.02      -6.57       2.65        0.00      22.58       4.06       0.26       0.28       ----

> <Gold.Chemscore.Fitness>
6.0249

> <Gold.Chemscore.DG>
-6.5688

> <Gold.Chemscore.ZeroCoef>
-5.4800

> <Gold.Chemscore.Hbond>
2.6470

> <Gold.Chemscore.Metal>
0.0000

> <Gold.Chemscore.Lipo>
22.5759

> <Gold.Chemscore.Internal_Hbond>
0.0000

> <Gold.Chemscore.DEClash>
0.2621

> <Gold.Chemscore.DEInternal>
0.2818

> <Gold.Chemscore.Rot>
4.0600

> <Gold.Chemscore.Internal.Correction>
   9.000000E+99

> <Gold.Chemscore.Hbonds>
donor molecule, donor type, donor heavy atom, donor atom, acceptor molecule, acceptor atom, score
      L1  H    10    26       P1 10175  0.23
      L1  H    12    27       P1  7957  0.95
      L1  H    14    28       P1  7957  0.92
      P1  H  7989  7998       L1    16  0.08

> <Gold.Chemscore.Hbond.Weighted>
-8.8410

> <Gold.Chemscore.Metal.Weighted>
-0.0000

> <Gold.Chemscore.Lipo.Weighted>
-2.6414

> <Gold.Chemscore.Internal_Hbond.Weighted>
0.0000

> <Gold.Chemscore.DEClash.Weighted>
0.2621

> <Gold.Chemscore.DEInternal.Weighted>
0.2818

> <Gold.Chemscore.Rot.Weighted>
10.3936

> <Gold.Chemscore.Internal.Correction.Weighted>
   9.000000E+99

> <Gold.Protein.RotatedTorsions>
[ 6907 6896 6895 6894 ] final -112.78 input  -60.11 | X-H torsion
[ 7974 7965 7964 7962 ] final   24.17 input  175.53 | X-H torsion
[ 8008 7997 7996 7995 ] final   41.91 input   59.86 | X-H torsion
[ 10167 10162 10161 10158 ] final  106.28 input  -65.29 | X-H torsion
[ 10718 10713 10712 10709 ] final  -81.57 input   66.30 | X-H torsion
[ 10763 10752 10751 10750 ] final  -24.99 input  -60.55 | X-H torsion
[ 11005 11000 10999 10996 ] final   81.73 input  -57.11 | X-H torsion

> <Gold.Protein.ActiveResidues>
 VAL166  LYS551  ARG553  GLY616  TRP617  ASP618  TYR619  PRO620  LYS621  CYS622 
 ASP623  PHE694  ASN695  SER759  ASP760  ASP761  ALA762  ILE779  LEU786  VAL792 
 PHE793  MET794  SER795  GLU796  ALA797  LYS798  CYS799  TRP800  GLU811  SER814 

> <Gold.Protein.RotatedAtoms>
  150.7782  133.9040  159.3349 H   0  0  0  0  0  0  0  0  0  0  0  0  # atno 6907 bound_to 6896
  151.6909  135.0944  160.0243 H   0  0  0  0  0  0  0  0  0  0  0  0  # atno 6908 bound_to 6896
  152.3825  133.6528  159.6208 H   0  0  0  0  0  0  0  0  0  0  0  0  # atno 6909 bound_to 6896
  146.1950  139.7642  142.8804 H   0  0  0  0  0  0  0  0  0  0  0  0  # atno 7974 bound_to 7965
  155.2775  140.3370  155.4260 H   0  0  0  0  0  0  0  0  0  0  0  0  # atno 8008 bound_to 7997
  156.2105  140.1768  156.7747 H   0  0  0  0  0  0  0  0  0  0  0  0  # atno 8009 bound_to 7997
  154.5679  140.0675  156.8905 H   0  0  0  0  0  0  0  0  0  0  0  0  # atno 8010 bound_to 7997
  139.7022  144.7092  151.1166 H   0  0  0  0  0  0  0  0  0  0  0  0  # atno 10167 bound_to 10162
  156.0048  130.4608  150.3972 H   0  0  0  0  0  0  0  0  0  0  0  0  # atno 10718 bound_to 10713
  153.6927  135.6961  153.5085 H   0  0  0  0  0  0  0  0  0  0  0  0  # atno 10763 bound_to 10752
  153.2401  135.4309  155.0688 H   0  0  0  0  0  0  0  0  0  0  0  0  # atno 10764 bound_to 10752
  154.8368  135.3505  154.6468 H   0  0  0  0  0  0  0  0  0  0  0  0  # atno 10765 bound_to 10752
  139.9088  134.8018  156.2080 H   0  0  0  0  0  0  0  0  0  0  0  0  # atno 11005 bound_to 11000
  145.3672  141.0336  143.3251 LP  0  0  0  0  0  0  0  0  0  0  0  0  # atno 17320 bound_to 7965
  144.8562  139.5246  143.6833 LP  0  0  0  0  0  0  0  0  0  0  0  0  # atno 17321 bound_to 7965
  140.7712  143.5408  150.9315 LP  0  0  0  0  0  0  0  0  0  0  0  0  # atno 17342 bound_to 10162
  139.9090  143.6744  152.3118 LP  0  0  0  0  0  0  0  0  0  0  0  0  # atno 17343 bound_to 10162
  157.2044  131.0445  151.2633 LP  0  0  0  0  0  0  0  0  0  0  0  0  # atno 17370 bound_to 10713
  157.3946  130.7300  149.6722 LP  0  0  0  0  0  0  0  0  0  0  0  0  # atno 17371 bound_to 10713
  141.0483  133.6901  156.1725 LP  0  0  0  0  0  0  0  0  0  0  0  0  # atno 17394 bound_to 11000
  140.6849  134.4727  157.5589 LP  0  0  0  0  0  0  0  0  0  0  0  0  # atno 17395 bound_to 11000

$$$$
