AV-unprocessed.smi:227|AV-procd|sdf|1734|dock8
  -GOLD-   2262020233D 1   1.00000     0.00000
 Structure written by MMmdl.
 54 58  0  0  0  0  0  0  0  0  1 V2000
  151.7518  136.7752  154.1220 O   0  0  0  0  0  0  0  0  0  0  0  0
  150.9493  136.4053  155.2243 C   0  0  0  0  0  0  0  0  0  0  0  0
  150.0119  137.5608  155.6610 C   0  0  1  0  0  0  0  0  0  0  0  0
  148.7378  137.0112  156.3690 C   0  0  0  0  0  0  0  0  0  0  0  0
  147.7853  136.3699  155.4734 N   0  0  0  0  0  0  0  0  0  0  0  0
  146.6274  136.9206  154.9750 C   0  0  0  0  0  0  0  0  0  0  0  0
  145.9391  136.1453  154.1839 N   0  0  0  0  0  0  0  0  0  0  0  0
  146.6647  134.9603  154.1388 C   0  0  0  0  0  0  0  0  0  0  0  0
  146.5001  133.7066  153.4761 C   0  0  0  0  0  0  0  0  0  0  0  0
  145.4680  133.3951  152.6425 N   0  0  0  0  0  0  0  0  0  0  0  0
  144.3700  134.3236  152.4128 C   0  0  1  0  0  0  0  0  0  0  0  0
  144.9892  135.4180  151.5215 C   0  0  0  0  0  0  0  0  0  0  0  0
  145.9745  134.5929  150.6795 C   0  0  0  0  0  0  0  0  0  0  0  0
  145.7232  133.1677  151.2253 C   0  0  2  0  0  0  0  0  0  0  0  0
  144.3613  132.6066  150.7569 C   0  0  2  0  0  0  0  0  0  0  0  0
  144.0891  132.5733  149.2409 C   0  0  0  0  0  0  0  0  0  0  0  0
  142.8272  131.9970  148.9799 O   0  0  0  0  0  0  0  0  0  0  0  0
  143.3932  133.4877  151.5655 C   0  0  0  0  0  0  0  0  0  0  0  0
  147.4361  132.7509  153.7189 N   0  0  0  0  0  0  0  0  0  0  0  0
  148.4697  132.9986  154.5265 C   0  0  0  0  0  0  0  0  0  0  0  0
  148.7575  134.1183  155.1893 N   0  0  0  0  0  0  0  0  0  0  0  0
  147.8207  135.0824  154.9645 C   0  0  0  0  0  0  0  0  0  0  0  0
  150.7649  138.6252  156.5208 C   0  0  2  0  0  0  0  0  0  0  0  0
  150.0003  139.9336  156.7038 C   0  0  0  0  0  0  0  0  0  0  0  0
  150.3685  140.7538  155.4672 C   0  0  0  0  0  0  0  0  0  0  0  0
  151.5789  140.1932  154.9724 O   0  0  0  0  0  0  0  0  0  0  0  0
  152.0359  139.2018  155.8801 C   0  0  0  0  0  0  0  0  0  0  0  0
  151.3266  136.4839  153.3297 H   0  0  0  0  0  0  0  0  0  0  0  0
  150.3827  135.5082  154.9763 H   0  0  0  0  0  0  0  0  0  0  0  0
  151.6425  136.1288  156.0153 H   0  0  0  0  0  0  0  0  0  0  0  0
  149.6761  138.0551  154.7484 H   0  0  0  0  0  0  0  0  0  0  0  0
  148.9981  136.3052  157.1554 H   0  0  0  0  0  0  0  0  0  0  0  0
  148.2163  137.8148  156.8894 H   0  0  0  0  0  0  0  0  0  0  0  0
  146.3103  137.9257  155.2127 H   0  0  0  0  0  0  0  0  0  0  0  0
  143.8851  134.7147  153.3049 H   0  0  0  0  0  0  0  0  0  0  0  0
  144.2462  135.9395  150.9172 H   0  0  0  0  0  0  0  0  0  0  0  0
  145.5202  136.1597  152.1195 H   0  0  0  0  0  0  0  0  0  0  0  0
  145.8162  134.6916  149.6070 H   0  0  0  0  0  0  0  0  0  0  0  0
  146.9986  134.9080  150.8836 H   0  0  0  0  0  0  0  0  0  0  0  0
  146.5419  132.4789  151.0147 H   0  0  0  0  0  0  0  0  0  0  0  0
  144.2779  131.5846  151.1319 H   0  0  0  0  0  0  0  0  0  0  0  0
  144.0907  133.5885  148.8434 H   0  0  0  0  0  0  0  0  0  0  0  0
  144.8595  132.0283  148.6968 H   0  0  0  0  0  0  0  0  0  0  0  0
  142.1668  132.6674  149.0656 H   0  0  0  0  0  0  0  0  0  0  0  0
  142.7536  132.8708  152.1982 H   0  0  0  0  0  0  0  0  0  0  0  0
  142.7486  134.1089  150.9424 H   0  0  0  0  0  0  0  0  0  0  0  0
  149.1658  132.1836  154.6597 H   0  0  0  0  0  0  0  0  0  0  0  0
  151.0120  138.1878  157.4888 H   0  0  0  0  0  0  0  0  0  0  0  0
  148.9240  139.8338  156.8266 H   0  0  0  0  0  0  0  0  0  0  0  0
  150.3723  140.4411  157.5952 H   0  0  0  0  0  0  0  0  0  0  0  0
  149.6014  140.6684  154.6970 H   0  0  0  0  0  0  0  0  0  0  0  0
  150.4936  141.8101  155.7064 H   0  0  0  0  0  0  0  0  0  0  0  0
  152.6411  139.6942  156.6433 H   0  0  0  0  0  0  0  0  0  0  0  0
  152.6843  138.4793  155.3907 H   0  0  0  0  0  0  0  0  0  0  0  0
  1  2  1  0  0  0  0
  1 28  1  0  0  0  0
  2  3  1  0  0  0  0
  2 29  1  0  0  0  0
  2 30  1  0  0  0  0
  3  4  1  0  0  0  0
  3 23  1  0  0  0  0
  3 31  1  0  0  0  0
  4  5  1  0  0  0  0
  4 32  1  0  0  0  0
  4 33  1  0  0  0  0
  5 22  1  0  0  0  0
  5  6  1  0  0  0  0
  6  7  2  0  0  0  0
  6 34  1  0  0  0  0
  7  8  1  0  0  0  0
  8 22  2  0  0  0  0
  8  9  1  0  0  0  0
  9 10  1  0  0  0  0
  9 19  2  0  0  0  0
 10 14  1  0  0  0  0
 10 11  1  0  0  0  0
 11 18  1  0  0  0  0
 11 12  1  0  0  0  0
 11 35  1  0  0  0  0
 12 13  1  0  0  0  0
 12 36  1  0  0  0  0
 12 37  1  0  0  0  0
 13 14  1  0  0  0  0
 13 38  1  0  0  0  0
 13 39  1  0  0  0  0
 14 15  1  0  0  0  0
 14 40  1  0  0  0  0
 15 16  1  0  0  0  0
 15 18  1  0  0  0  0
 15 41  1  0  0  0  0
 16 17  1  0  0  0  0
 16 42  1  0  0  0  0
 16 43  1  0  0  0  0
 17 44  1  0  0  0  0
 18 45  1  0  0  0  0
 18 46  1  0  0  0  0
 19 20  1  0  0  0  0
 20 21  2  0  0  0  0
 20 47  1  0  0  0  0
 21 22  1  0  0  0  0
 23 27  1  0  0  0  0
 23 24  1  0  0  0  0
 23 48  1  0  0  0  0
 24 25  1  0  0  0  0
 24 49  1  0  0  0  0
 24 50  1  0  0  0  0
 25 26  1  0  0  0  0
 25 51  1  0  0  0  0
 25 52  1  0  0  0  0
 26 27  1  0  0  0  0
 27 53  1  0  0  0  0
 27 54  1  0  0  0  0
M  END
> <s_m_source_file>
AV-unprocessed.smi

> <i_m_source_file_index>
227

> <i_lp_mmshare_version>
43012

> <i_f3d_flags>
0

> <s_epik_input>
W0NIMl0xT1tDSDJdW0NIMl1bQ0BIXTFbQ0BIXShbQ0gyXVtPSF0pW0NIMl1uKFtjSF1uMiljKGMyMyluW2NIXW5jM04oW0NASF00NSlbQ0BASF0oW0NIMl1bQ0gyXTQpW0NASF0oW0NIMl01KVtDSDJdW09IXQ==

> <s_epik_cmdline>
J2VwaWtfcHl0aG9uJywgJy1waCcsICc3LjAnLCAnLXRuJywgJzgnLCAnLW1hJywgJzIwMCcsICctbWV0YWxfYmluZGluZycsICctaW1hZScsICc8aW5maWxlLm1hZT4nLCAnLW9tYWUnLCAnPG91dGZpbGUubWFlPic=

> <r_lp_tautomer_probability>
1

> <r_epik_Ionization_Penalty>
0.0055791

> <r_epik_Ionization_Penalty_Charging>
0

> <r_epik_Ionization_Penalty_Neutral>
0.0055791

> <r_epik_State_Penalty>
0.00401299

> <r_epik_Charging_Adjusted_Penalty>
0.00401299

> <i_epik_Tot_Q>
0

> <i_epik_Tot_abs_Q>
0

> <r_epik_Metal_State_Penalty>
-0

> <b_epik_Metal_Only>
0

> <s_lp_Force_Field>
OPLS_2005

> <r_lp_Energy>
91.5897

> <b_lp_Chiralities_Consistent>
1

> <s_lp_Variant>
AV-unprocessed.smi:227-8

> <Gold.Version>
5.8.1

> <Gold.Id.Protein>
6NUR|6NUR_protein|mol2

> <Gold.PLP.Fitness>
52.0734

> <Gold.PLP.PLP>
-38.4995

> <Gold.PLP.part.hbond>
-6.0000

> <Gold.PLP.part.metal>
0.0000

> <Gold.PLP.part.buried>
-6.3887

> <Gold.PLP.part.nonpolar>
-26.9634

> <Gold.PLP.part.repulsive>
0.3870

> <Gold.PLP.ligand.clash>
0.0000

> <Gold.PLP.ligand.torsion>
0.7868

> <Gold.PLP.Chemscore.Hbond>
5.0000

> <Gold.PLP.Chemscore.CHOScore>
0.0000

> <Gold.PLP.Chemscore.Metal>
0.0000

> <Gold.Chemscore.Hbonds>
donor molecule, donor type, donor heavy atom, donor atom, acceptor molecule, acceptor atom, score
      L1  H     1    28       P1  7949  1.00
      L1  H    17    44       P1 10186  0.71
      P1  H  7989  7998       L1    26  1.00
      P1  H 10752 10764       L1     1  0.60
      P1  H 10785 10796       L1    17  1.00

> <Gold.PLP.Chemscore.Internal.Correction>
0.1475

> <Gold.Rescore>
     Score         DG    S(hbond)    S(metal)    S(lipo)     H(rot)  DE(clash)    DE(int)     intcor
     12.86     -15.83       3.12        0.00      78.25       3.61       0.14       2.83       ----

> <Gold.Chemscore.Fitness>
12.8612

> <Gold.Chemscore.DG>
-15.8292

> <Gold.Chemscore.ZeroCoef>
-5.4800

> <Gold.Chemscore.Hbond>
3.1221

> <Gold.Chemscore.Metal>
0.0000

> <Gold.Chemscore.Lipo>
78.2533

> <Gold.Chemscore.Internal_Hbond>
0.0000

> <Gold.Chemscore.DEClash>
0.1410

> <Gold.Chemscore.DEInternal>
2.8270

> <Gold.Chemscore.Rot>
3.6071

> <Gold.Chemscore.Internal.Correction>
   9.000000E+99

> <Gold.Chemscore.Hbonds>
donor molecule, donor type, donor heavy atom, donor atom, acceptor molecule, acceptor atom, score
      L1  H     1    28       P1  7949  0.69
      L1  H    17    44       P1 10186  0.71
      P1  H  7989  7998       L1    26  0.28
      P1  H 10752 10764       L1     1  0.04
      P1  H 10785 10796       L1    17  0.49

> <Gold.Chemscore.Hbond.Weighted>
-10.4278

> <Gold.Chemscore.Metal.Weighted>
-0.0000

> <Gold.Chemscore.Lipo.Weighted>
-9.1556

> <Gold.Chemscore.Internal_Hbond.Weighted>
0.0000

> <Gold.Chemscore.DEClash.Weighted>
0.1410

> <Gold.Chemscore.DEInternal.Weighted>
2.8270

> <Gold.Chemscore.Rot.Weighted>
9.2342

> <Gold.Chemscore.Internal.Correction.Weighted>
   9.000000E+99

> <Gold.Protein.RotatedTorsions>
[ 6907 6896 6895 6894 ] final -126.08 input  -60.11 | X-H torsion
[ 7974 7965 7964 7962 ] final  154.68 input  175.53 | X-H torsion
[ 8008 7997 7996 7995 ] final -156.15 input   59.86 | X-H torsion
[ 10167 10162 10161 10158 ] final  137.68 input  -65.29 | X-H torsion
[ 10718 10713 10712 10709 ] final  102.25 input   66.30 | X-H torsion
[ 10763 10752 10751 10750 ] final -103.03 input  -60.55 | X-H torsion
[ 11005 11000 10999 10996 ] final  126.05 input  -57.11 | X-H torsion

> <Gold.Protein.ActiveResidues>
 VAL166  LYS551  ARG553  GLY616  TRP617  ASP618  TYR619  PRO620  LYS621  CYS622 
 ASP623  PHE694  ASN695  SER759  ASP760  ASP761  ALA762  ILE779  LEU786  VAL792 
 PHE793  MET794  SER795  GLU796  ALA797  LYS798  CYS799  TRP800  GLU811  SER814 

> <Gold.Protein.RotatedAtoms>
  150.8932  133.7215  159.2898 H   0  0  0  0  0  0  0  0  0  0  0  0  # atno 6907 bound_to 6896
  151.4758  135.1047  159.9773 H   0  0  0  0  0  0  0  0  0  0  0  0  # atno 6908 bound_to 6896
  152.4833  133.8261  159.7134 H   0  0  0  0  0  0  0  0  0  0  0  0  # atno 6909 bound_to 6896
  144.8073  139.6966  143.6156 H   0  0  0  0  0  0  0  0  0  0  0  0  # atno 7974 bound_to 7965
  155.7128  140.0780  157.2364 H   0  0  0  0  0  0  0  0  0  0  0  0  # atno 8008 bound_to 7997
  154.4056  140.1627  156.2369 H   0  0  0  0  0  0  0  0  0  0  0  0  # atno 8009 bound_to 7997
  155.9267  140.3394  155.6219 H   0  0  0  0  0  0  0  0  0  0  0  0  # atno 8010 bound_to 7997
  139.5136  144.6396  151.5605 H   0  0  0  0  0  0  0  0  0  0  0  0  # atno 10167 bound_to 10162
  157.6807  131.0748  150.5376 H   0  0  0  0  0  0  0  0  0  0  0  0  # atno 10718 bound_to 10713
  154.7778  135.4838  153.9780 H   0  0  0  0  0  0  0  0  0  0  0  0  # atno 10763 bound_to 10752
  153.1452  135.6780  153.8973 H   0  0  0  0  0  0  0  0  0  0  0  0  # atno 10764 bound_to 10752
  153.8635  135.3152  155.3417 H   0  0  0  0  0  0  0  0  0  0  0  0  # atno 10765 bound_to 10752
  139.9437  134.9632  156.8650 H   0  0  0  0  0  0  0  0  0  0  0  0  # atno 11005 bound_to 11000
  146.2366  139.5918  142.9519 LP  0  0  0  0  0  0  0  0  0  0  0  0  # atno 17320 bound_to 7965
  145.5408  141.0421  143.2332 LP  0  0  0  0  0  0  0  0  0  0  0  0  # atno 17321 bound_to 7965
  140.6158  143.9352  150.6487 LP  0  0  0  0  0  0  0  0  0  0  0  0  # atno 17342 bound_to 10162
  140.2609  143.3524  152.1323 LP  0  0  0  0  0  0  0  0  0  0  0  0  # atno 17343 bound_to 10162
  156.5684  130.4273  149.6030 LP  0  0  0  0  0  0  0  0  0  0  0  0  # atno 17370 bound_to 10713
  156.2761  130.7044  151.1856 LP  0  0  0  0  0  0  0  0  0  0  0  0  # atno 17371 bound_to 10713
  140.5888  134.0281  155.7492 LP  0  0  0  0  0  0  0  0  0  0  0  0  # atno 17394 bound_to 11000
  141.1080  133.9662  157.2962 LP  0  0  0  0  0  0  0  0  0  0  0  0  # atno 17395 bound_to 11000

$$$$
