AV-unprocessed.smi:153|AV-procd|sdf|1256|dock3
  -GOLD-   2262018493D 1   1.00000     0.00000
 Structure written by MMmdl.
 60 63  0  0  0  0  0  0  0  0  2 V2000
  153.4417  141.8341  160.7125 C   0  0  0  0  0  0  0  0  0  0  0  0
  152.8968  142.8859  159.7295 C   0  0  2  0  0  0  0  0  0  0  0  0
  152.5084  144.0637  160.4350 O   0  0  0  0  0  0  0  0  0  0  0  0
  151.1213  144.3024  160.2521 C   0  0  0  0  0  0  0  0  0  0  0  0
  150.8294  143.7236  158.8744 C   0  0  0  0  0  0  0  0  0  0  0  0
  151.6855  142.4659  158.8568 C   0  0  2  0  0  0  0  0  0  0  0  0
  150.9485  141.4266  159.4813 O   0  0  0  0  0  0  0  0  0  0  0  0
  152.0510  142.0179  157.4204 C   0  0  0  0  0  0  0  0  0  0  0  0
  150.9037  141.5776  156.6426 N   0  0  0  0  0  0  0  0  0  0  0  0
  149.6858  142.2087  156.5459 C   0  0  0  0  0  0  0  0  0  0  0  0
  148.8233  141.6281  155.7592 N   0  0  0  0  0  0  0  0  0  0  0  0
  149.4832  140.4971  155.2875 C   0  0  0  0  0  0  0  0  0  0  0  0
  149.1480  139.4366  154.3892 C   0  0  0  0  0  0  0  0  0  0  0  0
  147.9615  139.3059  153.7311 N   0  0  0  0  0  0  0  0  0  0  0  0
  146.9750  140.3770  153.7989 C   0  0  0  0  0  0  0  0  0  0  0  0
  147.8759  138.3638  152.6131 C   0  0  0  0  0  0  0  0  0  0  0  0
  146.4801  138.3488  151.9554 C   0  0  1  0  0  0  0  0  0  0  0  0
  146.6385  138.0711  150.5776 O   0  0  0  0  0  0  0  0  0  0  0  0
  145.5868  137.2405  152.5476 C   0  0  0  0  0  0  0  0  0  0  0  0
  146.1110  135.8778  152.2742 N   0  3  0  0  0  0  0  0  0  0  0  0
  145.9023  134.9492  153.4103 C   0  0  0  0  0  0  0  0  0  0  0  0
  146.5281  133.5783  153.1033 C   0  0  0  0  0  0  0  0  0  0  0  0
  145.9665  133.0569  151.9052 O   0  0  0  0  0  0  0  0  0  0  0  0
  146.2284  133.8947  150.7862 C   0  0  0  0  0  0  0  0  0  0  0  0
  145.5988  135.2793  151.0163 C   0  0  0  0  0  0  0  0  0  0  0  0
  150.1021  138.4928  154.1707 N   0  0  0  0  0  0  0  0  0  0  0  0
  151.2903  138.5657  154.7749 C   0  0  0  0  0  0  0  0  0  0  0  0
  151.7367  139.4915  155.6229 N   0  0  0  0  0  0  0  0  0  0  0  0
  150.7939  140.4498  155.8478 C   0  0  0  0  0  0  0  0  0  0  0  0
  153.7322  140.9197  160.1954 H   0  0  0  0  0  0  0  0  0  0  0  0
  152.7028  141.5725  161.4701 H   0  0  0  0  0  0  0  0  0  0  0  0
  154.3216  142.2127  161.2326 H   0  0  0  0  0  0  0  0  0  0  0  0
  153.7128  143.1988  159.0773 H   0  0  0  0  0  0  0  0  0  0  0  0
  150.5601  143.7716  161.0223 H   0  0  0  0  0  0  0  0  0  0  0  0
  150.8833  145.3638  160.3242 H   0  0  0  0  0  0  0  0  0  0  0  0
  149.7684  143.5367  158.7034 H   0  0  0  0  0  0  0  0  0  0  0  0
  151.1707  144.4265  158.1134 H   0  0  0  0  0  0  0  0  0  0  0  0
  150.8312  141.6466  160.3928 H   0  0  0  0  0  0  0  0  0  0  0  0
  152.5447  142.8280  156.8822 H   0  0  0  0  0  0  0  0  0  0  0  0
  152.7669  141.1956  157.4548 H   0  0  0  0  0  0  0  0  0  0  0  0
  149.4606  143.1277  157.0673 H   0  0  0  0  0  0  0  0  0  0  0  0
  146.8197  140.6987  154.8292 H   0  0  0  0  0  0  0  0  0  0  0  0
  146.0121  140.0402  153.4144 H   0  0  0  0  0  0  0  0  0  0  0  0
  147.2918  141.2340  153.2041 H   0  0  0  0  0  0  0  0  0  0  0  0
  148.6619  138.5267  151.8745 H   0  0  0  0  0  0  0  0  0  0  0  0
  148.0817  137.3749  153.0239 H   0  0  0  0  0  0  0  0  0  0  0  0
  146.0053  139.3222  152.0766 H   0  0  0  0  0  0  0  0  0  0  0  0
  145.8665  138.3696  150.1198 H   0  0  0  0  0  0  0  0  0  0  0  0
  145.5132  137.3945  153.6256 H   0  0  0  0  0  0  0  0  0  0  0  0
  144.5699  137.3173  152.1596 H   0  0  0  0  0  0  0  0  0  0  0  0
  146.3520  135.3611  154.3146 H   0  0  0  0  0  0  0  0  0  0  0  0
  144.8340  134.8392  153.6032 H   0  0  0  0  0  0  0  0  0  0  0  0
  147.6124  133.6575  153.0078 H   0  0  0  0  0  0  0  0  0  0  0  0
  146.3305  132.8830  153.9192 H   0  0  0  0  0  0  0  0  0  0  0  0
  147.3040  133.9781  150.6222 H   0  0  0  0  0  0  0  0  0  0  0  0
  145.8054  133.4335  149.8934 H   0  0  0  0  0  0  0  0  0  0  0  0
  144.5128  135.1890  151.0690 H   0  0  0  0  0  0  0  0  0  0  0  0
  145.8245  135.9207  150.1652 H   0  0  0  0  0  0  0  0  0  0  0  0
  151.9836  137.7710  154.5414 H   0  0  0  0  0  0  0  0  0  0  0  0
  147.1115  135.9766  152.1716 H   0  0  0  0  0  0  0  0  0  0  0  0
  1  2  1  0  0  0  0
  1 30  1  0  0  0  0
  1 31  1  0  0  0  0
  1 32  1  0  0  0  0
  2  6  1  0  0  0  0
  2  3  1  0  0  0  0
  2 33  1  0  0  0  0
  3  4  1  0  0  0  0
  4  5  1  0  0  0  0
  4 34  1  0  0  0  0
  4 35  1  0  0  0  0
  5  6  1  0  0  0  0
  5 36  1  0  0  0  0
  5 37  1  0  0  0  0
  6  7  1  0  0  0  0
  6  8  1  0  0  0  0
  7 38  1  0  0  0  0
  8  9  1  0  0  0  0
  8 39  1  0  0  0  0
  8 40  1  0  0  0  0
  9 29  1  0  0  0  0
  9 10  1  0  0  0  0
 10 11  2  0  0  0  0
 10 41  1  0  0  0  0
 11 12  1  0  0  0  0
 12 29  2  0  0  0  0
 12 13  1  0  0  0  0
 13 14  1  0  0  0  0
 13 26  2  0  0  0  0
 14 15  1  0  0  0  0
 14 16  1  0  0  0  0
 15 42  1  0  0  0  0
 15 43  1  0  0  0  0
 15 44  1  0  0  0  0
 16 17  1  0  0  0  0
 16 45  1  0  0  0  0
 16 46  1  0  0  0  0
 17 18  1  0  0  0  0
 17 19  1  0  0  0  0
 17 47  1  0  0  0  0
 18 48  1  0  0  0  0
 19 20  1  0  0  0  0
 19 49  1  0  0  0  0
 19 50  1  0  0  0  0
 20 25  1  0  0  0  0
 20 21  1  0  0  0  0
 20 60  1  0  0  0  0
 21 22  1  0  0  0  0
 21 51  1  0  0  0  0
 21 52  1  0  0  0  0
 22 23  1  0  0  0  0
 22 53  1  0  0  0  0
 22 54  1  0  0  0  0
 23 24  1  0  0  0  0
 24 25  1  0  0  0  0
 24 55  1  0  0  0  0
 24 56  1  0  0  0  0
 25 57  1  0  0  0  0
 25 58  1  0  0  0  0
 26 27  1  0  0  0  0
 27 28  2  0  0  0  0
 27 59  1  0  0  0  0
 28 29  1  0  0  0  0
M  CHG  1  20   1
M  END
> <s_m_source_file>
AV-unprocessed.smi

> <i_m_source_file_index>
153

> <i_lp_mmshare_version>
43012

> <i_f3d_flags>
0

> <s_epik_input>
W0NIMl0xW0NIMl1PW0NAQEhdKFtDSDNdKVtDQEBdMShbT0hdKVtDSDJdbihbY0hdbjIpYyhjMjMpbltjSF1uYzNOKFtDSDNdKVtDSDJdW0NASF0oW09IXSlbQ0gyXU40W0NIMl1bQ0gyXU9bQ0gyXVtDSDJdNA==

> <s_epik_cmdline>
J2VwaWtfcHl0aG9uJywgJy1waCcsICc3LjAnLCAnLXRuJywgJzgnLCAnLW1hJywgJzIwMCcsICctbWV0YWxfYmluZGluZycsICctaW1hZScsICc8aW5maWxlLm1hZT4nLCAnLW9tYWUnLCAnPG91dGZpbGUubWFlPic=

> <r_lp_tautomer_probability>
1

> <r_epik_Ionization_Penalty>
0.403509

> <r_epik_Ionization_Penalty_Charging>
0.40072

> <r_epik_Ionization_Penalty_Neutral>
0.00278876

> <r_epik_State_Penalty>
0.400058

> <r_epik_Charging_Adjusted_Penalty>
0.800778

> <i_epik_Tot_Q>
1

> <i_epik_Tot_abs_Q>
1

> <r_epik_Metal_State_Penalty>
0.400321

> <b_epik_Metal_Only>
0

> <s_lp_Force_Field>
OPLS_2005

> <r_lp_Energy>
47.9216

> <b_lp_Chiralities_Consistent>
1

> <s_lp_Variant>
AV-unprocessed.smi:153-7

> <Gold.Version>
5.8.1

> <Gold.Id.Protein>
6NUR|6NUR_protein|mol2

> <Gold.PLP.Fitness>
54.8992

> <Gold.PLP.PLP>
-42.9389

> <Gold.PLP.part.hbond>
-4.5369

> <Gold.PLP.part.metal>
0.0000

> <Gold.PLP.part.buried>
2.7234

> <Gold.PLP.part.nonpolar>
-42.0840

> <Gold.PLP.part.repulsive>
1.0268

> <Gold.PLP.ligand.clash>
0.0000

> <Gold.PLP.ligand.torsion>
1.2983

> <Gold.PLP.Chemscore.Hbond>
3.9760

> <Gold.PLP.Chemscore.CHOScore>
0.6527

> <Gold.PLP.Chemscore.Metal>
0.0000

> <Gold.Chemscore.Hbonds>
donor molecule, donor type, donor heavy atom, donor atom, acceptor molecule, acceptor atom, score
      L1  H    18    48       P1 10171  1.00
      L1  H    20    60       P1  7948  2.00
      P1  H  7954  7966       L1    18  0.98
      L1  C    10    41       P1  8028  0.64

> <Gold.PLP.Chemscore.Internal.Correction>
0.6708

> <Gold.Rescore>
     Score         DG    S(hbond)    S(metal)    S(lipo)     H(rot)  DE(clash)    DE(int)     intcor
     10.83     -19.06       2.92        0.00     112.01       3.62       5.50       2.73       ----

> <Gold.Chemscore.Fitness>
10.8313

> <Gold.Chemscore.DG>
-19.0649

> <Gold.Chemscore.ZeroCoef>
-5.4800

> <Gold.Chemscore.Hbond>
2.9168

> <Gold.Chemscore.Metal>
0.0000

> <Gold.Chemscore.Lipo>
112.0123

> <Gold.Chemscore.Internal_Hbond>
0.0000

> <Gold.Chemscore.DEClash>
5.5013

> <Gold.Chemscore.DEInternal>
2.7323

> <Gold.Chemscore.Rot>
3.6182

> <Gold.Chemscore.Internal.Correction>
   9.000000E+99

> <Gold.Chemscore.Hbonds>
donor molecule, donor type, donor heavy atom, donor atom, acceptor molecule, acceptor atom, score
      L1  H    18    48       P1 10171  0.94
      L1  H    20    60       P1  7948  1.00
      P1  H  7954  7966       L1    18  0.92

> <Gold.Chemscore.Hbond.Weighted>
-9.7420

> <Gold.Chemscore.Metal.Weighted>
-0.0000

> <Gold.Chemscore.Lipo.Weighted>
-13.1054

> <Gold.Chemscore.Internal_Hbond.Weighted>
0.0000

> <Gold.Chemscore.DEClash.Weighted>
5.5013

> <Gold.Chemscore.DEInternal.Weighted>
2.7323

> <Gold.Chemscore.Rot.Weighted>
9.2625

> <Gold.Chemscore.Internal.Correction.Weighted>
   9.000000E+99

> <Gold.Protein.RotatedTorsions>
[ 6907 6896 6895 6894 ] final   57.12 input  -60.11 | X-H torsion
[ 7974 7965 7964 7962 ] final   80.03 input  175.53 | X-H torsion
[ 8008 7997 7996 7995 ] final -113.44 input   59.86 | X-H torsion
[ 10167 10162 10161 10158 ] final  -82.38 input  -65.29 | X-H torsion
[ 10718 10713 10712 10709 ] final -128.17 input   66.30 | X-H torsion
[ 10763 10752 10751 10750 ] final -138.54 input  -60.55 | X-H torsion
[ 11005 11000 10999 10996 ] final   28.33 input  -57.11 | X-H torsion

> <Gold.Protein.ActiveResidues>
 VAL166  LYS551  ARG553  GLY616  TRP617  ASP618  TYR619  PRO620  LYS621  CYS622 
 ASP623  PHE694  ASN695  SER759  ASP760  ASP761  ALA762  ILE779  LEU786  VAL792 
 PHE793  MET794  SER795  GLU796  ALA797  LYS798  CYS799  TRP800  GLU811  SER814 

> <Gold.Protein.RotatedAtoms>
  152.3701  134.6746  160.0178 H   0  0  0  0  0  0  0  0  0  0  0  0  # atno 6907 bound_to 6896
  151.7041  133.3306  159.3282 H   0  0  0  0  0  0  0  0  0  0  0  0  # atno 6908 bound_to 6896
  150.7668  134.6525  159.6340 H   0  0  0  0  0  0  0  0  0  0  0  0  # atno 6909 bound_to 6896
  145.6565  139.2460  143.1947 H   0  0  0  0  0  0  0  0  0  0  0  0  # atno 7974 bound_to 7965
  155.0208  140.0393  157.2436 H   0  0  0  0  0  0  0  0  0  0  0  0  # atno 8008 bound_to 7997
  154.7379  140.2743  155.6375 H   0  0  0  0  0  0  0  0  0  0  0  0  # atno 8009 bound_to 7997
  156.2857  140.2671  156.2098 H   0  0  0  0  0  0  0  0  0  0  0  0  # atno 8010 bound_to 7997
  140.4325  143.2543  151.8739 H   0  0  0  0  0  0  0  0  0  0  0  0  # atno 10167 bound_to 10162
  156.1925  130.6805  151.0442 H   0  0  0  0  0  0  0  0  0  0  0  0  # atno 10718 bound_to 10713
  154.8634  135.3609  154.5401 H   0  0  0  0  0  0  0  0  0  0  0  0  # atno 10763 bound_to 10752
  153.6023  135.7012  153.5384 H   0  0  0  0  0  0  0  0  0  0  0  0  # atno 10764 bound_to 10752
  153.3280  135.4132  155.1433 H   0  0  0  0  0  0  0  0  0  0  0  0  # atno 10765 bound_to 10752
  140.3167  134.2588  155.7724 H   0  0  0  0  0  0  0  0  0  0  0  0  # atno 11005 bound_to 11000
  146.1161  140.7368  142.9480 LP  0  0  0  0  0  0  0  0  0  0  0  0  # atno 17320 bound_to 7965
  144.7104  140.4016  143.7085 LP  0  0  0  0  0  0  0  0  0  0  0  0  # atno 17321 bound_to 7965
  139.4785  144.5318  151.8655 LP  0  0  0  0  0  0  0  0  0  0  0  0  # atno 17342 bound_to 10162
  140.4410  144.1986  150.5891 LP  0  0  0  0  0  0  0  0  0  0  0  0  # atno 17343 bound_to 10162
  157.6938  131.0801  150.7030 LP  0  0  0  0  0  0  0  0  0  0  0  0  # atno 17370 bound_to 10713
  156.7087  130.4645  149.5553 LP  0  0  0  0  0  0  0  0  0  0  0  0  # atno 17371 bound_to 10713
  141.2096  133.7744  156.9987 LP  0  0  0  0  0  0  0  0  0  0  0  0  # atno 17394 bound_to 11000
  140.0977  134.9554  157.1875 LP  0  0  0  0  0  0  0  0  0  0  0  0  # atno 17395 bound_to 11000

$$$$
