AV-unprocessed.smi:1594|AV-procd|sdf|6414|dock2
  -GOLD-   22720 7 53D 1   1.00000     0.00000
 Structure written by MMmdl.
 35 36  0  0  0  0  0  0  0  0  1 V2000
  149.6392  135.3674  155.8858 C   0  0  0  0  0  0  0  0  0  0  0  0
  149.7943  133.8846  156.0650 C   0  0  0  0  0  0  0  0  0  0  0  0
  150.0478  133.3934  157.2663 N   0  0  0  0  0  0  0  0  0  0  0  0
  150.1288  132.0070  157.1035 O   0  0  0  0  0  0  0  0  0  0  0  0
  149.9192  131.7151  155.7946 C   0  0  0  0  0  0  0  0  0  0  0  0
  149.9618  130.2740  155.4143 C   0  0  0  0  0  0  0  0  0  0  0  0
  149.7055  132.8607  155.0788 C   0  0  0  0  0  0  0  0  0  0  0  0
  149.4353  133.0136  153.6018 C   0  0  0  0  0  0  0  0  0  0  0  0
  147.9525  133.2840  153.3179 C   0  0  0  0  0  0  0  0  0  0  0  0
  147.2896  134.0343  154.0363 O   0  0  0  0  0  0  0  0  0  0  0  0
  147.4418  132.6556  152.2482 N   0  0  0  0  0  0  0  0  0  0  0  0
  146.0631  132.7714  151.7822 C   0  0  0  0  0  0  0  0  0  0  0  0
  145.8401  131.8506  150.5733 C   0  0  0  0  0  0  0  0  0  0  0  0
  144.4391  132.0660  149.9774 C   0  0  0  0  0  0  0  0  0  0  0  0
  144.2649  133.4343  149.6253 O   0  0  0  0  0  0  0  0  0  0  0  0
  144.3431  134.3094  150.7454 C   0  0  0  0  0  0  0  0  0  0  0  0
  145.7377  134.2219  151.3857 C   0  0  0  0  0  0  0  0  0  0  0  0
  148.7818  135.5959  155.2525 H   0  0  0  0  0  0  0  0  0  0  0  0
  150.5236  135.7966  155.4146 H   0  0  0  0  0  0  0  0  0  0  0  0
  149.4896  135.8760  156.8390 H   0  0  0  0  0  0  0  0  0  0  0  0
  149.2375  130.0595  154.6284 H   0  0  0  0  0  0  0  0  0  0  0  0
  149.7302  129.6369  156.2678 H   0  0  0  0  0  0  0  0  0  0  0  0
  150.9511  130.0022  155.0463 H   0  0  0  0  0  0  0  0  0  0  0  0
  150.0245  133.8312  153.1844 H   0  0  0  0  0  0  0  0  0  0  0  0
  149.7302  132.1177  153.0544 H   0  0  0  0  0  0  0  0  0  0  0  0
  148.0539  132.0556  151.7143 H   0  0  0  0  0  0  0  0  0  0  0  0
  145.3851  132.4588  152.5790 H   0  0  0  0  0  0  0  0  0  0  0  0
  146.5891  132.0545  149.8067 H   0  0  0  0  0  0  0  0  0  0  0  0
  145.9658  130.8070  150.8638 H   0  0  0  0  0  0  0  0  0  0  0  0
  144.3149  131.4545  149.0835 H   0  0  0  0  0  0  0  0  0  0  0  0
  143.6648  131.7595  150.6822 H   0  0  0  0  0  0  0  0  0  0  0  0
  144.1488  135.3284  150.4106 H   0  0  0  0  0  0  0  0  0  0  0  0
  143.5666  134.0598  151.4702 H   0  0  0  0  0  0  0  0  0  0  0  0
  145.7874  134.8765  152.2565 H   0  0  0  0  0  0  0  0  0  0  0  0
  146.4810  134.5888  150.6764 H   0  0  0  0  0  0  0  0  0  0  0  0
  1  2  1  0  0  0  0
  1 18  1  0  0  0  0
  1 19  1  0  0  0  0
  1 20  1  0  0  0  0
  2  7  1  0  0  0  0
  2  3  2  0  0  0  0
  3  4  1  0  0  0  0
  4  5  1  0  0  0  0
  5  6  1  0  0  0  0
  5  7  2  0  0  0  0
  6 21  1  0  0  0  0
  6 22  1  0  0  0  0
  6 23  1  0  0  0  0
  7  8  1  0  0  0  0
  8  9  1  0  0  0  0
  8 24  1  0  0  0  0
  8 25  1  0  0  0  0
  9 10  2  0  0  0  0
  9 11  1  0  0  0  0
 11 12  1  0  0  0  0
 11 26  1  0  0  0  0
 12 17  1  0  0  0  0
 12 13  1  0  0  0  0
 12 27  1  0  0  0  0
 13 14  1  0  0  0  0
 13 28  1  0  0  0  0
 13 29  1  0  0  0  0
 14 15  1  0  0  0  0
 14 30  1  0  0  0  0
 14 31  1  0  0  0  0
 15 16  1  0  0  0  0
 16 17  1  0  0  0  0
 16 32  1  0  0  0  0
 16 33  1  0  0  0  0
 17 34  1  0  0  0  0
 17 35  1  0  0  0  0
M  END
> <s_m_source_file>
AV-unprocessed.smi

> <i_m_source_file_index>
1594

> <i_lp_mmshare_version>
43012

> <i_f3d_flags>
0

> <s_epik_input>
W0NIM11jMW5vYyhbQ0gzXSljMVtDSDJdQyg9TylbTkhdW0NIXTJbQ0gyXVtDSDJdT1tDSDJdW0NIMl0y

> <s_epik_cmdline>
J2VwaWtfcHl0aG9uJywgJy1waCcsICc3LjAnLCAnLXRuJywgJzgnLCAnLW1hJywgJzIwMCcsICctbWV0YWxfYmluZGluZycsICctaW1hZScsICc8aW5maWxlLm1hZT4nLCAnLW9tYWUnLCAnPG91dGZpbGUubWFlPic=

> <r_lp_tautomer_probability>
1

> <r_epik_Ionization_Penalty>
2.34123e-08

> <r_epik_Ionization_Penalty_Charging>
0

> <r_epik_Ionization_Penalty_Neutral>
2.34123e-08

> <r_epik_State_Penalty>
-0

> <r_epik_Charging_Adjusted_Penalty>
0

> <i_epik_Tot_Q>
0

> <i_epik_Tot_abs_Q>
0

> <r_epik_Metal_State_Penalty>
-0

> <b_epik_Metal_Only>
0

> <s_lp_Force_Field>
OPLS_2005

> <r_lp_Energy>
1.65601

> <b_lp_Chiralities_Consistent>
1

> <s_lp_Variant>
AV-unprocessed.smi:1594-1

> <Gold.Version>
5.8.1

> <Gold.Id.Protein>
6NUR|6NUR_protein|mol2

> <Gold.PLP.Fitness>
32.0497

> <Gold.PLP.PLP>
-28.0527

> <Gold.PLP.part.hbond>
-1.8562

> <Gold.PLP.part.metal>
0.0000

> <Gold.PLP.part.buried>
-5.8364

> <Gold.PLP.part.nonpolar>
-21.4026

> <Gold.PLP.part.repulsive>
0.4726

> <Gold.PLP.ligand.clash>
0.0000

> <Gold.PLP.ligand.torsion>
0.5056

> <Gold.PLP.Chemscore.Hbond>
1.6683

> <Gold.PLP.Chemscore.CHOScore>
0.0000

> <Gold.PLP.Chemscore.Metal>
0.0000

> <Gold.Chemscore.Hbonds>
donor molecule, donor type, donor heavy atom, donor atom, acceptor molecule, acceptor atom, score
      L1  H    11    26       P1 10747  0.88
      P1  H  6896  6908       L1     3  0.56

> <Gold.PLP.Chemscore.Internal.Correction>
0.0033

> <Gold.Rescore>
     Score         DG    S(hbond)    S(metal)    S(lipo)     H(rot)  DE(clash)    DE(int)     intcor
     15.19     -15.88       1.84        0.00      66.45       1.38       0.13       0.55       ----

> <Gold.Chemscore.Fitness>
15.1946

> <Gold.Chemscore.DG>
-15.8828

> <Gold.Chemscore.ZeroCoef>
-5.4800

> <Gold.Chemscore.Hbond>
1.8436

> <Gold.Chemscore.Metal>
0.0000

> <Gold.Chemscore.Lipo>
66.4493

> <Gold.Chemscore.Internal_Hbond>
0.0000

> <Gold.Chemscore.DEClash>
0.1349

> <Gold.Chemscore.DEInternal>
0.5534

> <Gold.Chemscore.Rot>
1.3786

> <Gold.Chemscore.Internal.Correction>
   9.000000E+99

> <Gold.Chemscore.Hbonds>
donor molecule, donor type, donor heavy atom, donor atom, acceptor molecule, acceptor atom, score
      L1  H    11    26       P1 10747  0.86
      P1  H  6896  6908       L1     3  0.11

> <Gold.Chemscore.Hbond.Weighted>
-6.1576

> <Gold.Chemscore.Metal.Weighted>
-0.0000

> <Gold.Chemscore.Lipo.Weighted>
-7.7746

> <Gold.Chemscore.Internal_Hbond.Weighted>
0.0000

> <Gold.Chemscore.DEClash.Weighted>
0.1349

> <Gold.Chemscore.DEInternal.Weighted>
0.5534

> <Gold.Chemscore.Rot.Weighted>
3.5293

> <Gold.Chemscore.Internal.Correction.Weighted>
   9.000000E+99

> <Gold.Protein.RotatedTorsions>
[ 6907 6896 6895 6894 ] final   98.30 input  -60.11 | X-H torsion
[ 7974 7965 7964 7962 ] final -153.68 input  175.53 | X-H torsion
[ 8008 7997 7996 7995 ] final  118.31 input   59.86 | X-H torsion
[ 10167 10162 10161 10158 ] final -122.27 input  -65.29 | X-H torsion
[ 10718 10713 10712 10709 ] final  113.45 input   66.30 | X-H torsion
[ 10763 10752 10751 10750 ] final  -89.98 input  -60.55 | X-H torsion
[ 11005 11000 10999 10996 ] final   86.99 input  -57.11 | X-H torsion

> <Gold.Protein.ActiveResidues>
 VAL166  LYS551  ARG553  GLY616  TRP617  ASP618  TYR619  PRO620  LYS621  CYS622 
 ASP623  PHE694  ASN695  SER759  ASP760  ASP761  ALA762  ILE779  LEU786  VAL792 
 PHE793  MET794  SER795  GLU796  ALA797  LYS798  CYS799  TRP800  GLU811  SER814 

> <Gold.Protein.RotatedAtoms>
  152.5411  134.0601  159.8147 H   0  0  0  0  0  0  0  0  0  0  0  0  # atno 6907 bound_to 6896
  151.0730  133.5443  159.2633 H   0  0  0  0  0  0  0  0  0  0  0  0  # atno 6908 bound_to 6896
  151.2299  135.0559  159.9037 H   0  0  0  0  0  0  0  0  0  0  0  0  # atno 6909 bound_to 6896
  144.7728  140.4492  143.5895 H   0  0  0  0  0  0  0  0  0  0  0  0  # atno 7974 bound_to 7965
  156.2540  140.2877  156.0814 H   0  0  0  0  0  0  0  0  0  0  0  0  # atno 8008 bound_to 7997
  155.1562  140.0398  157.2850 H   0  0  0  0  0  0  0  0  0  0  0  0  # atno 8009 bound_to 7997
  154.6425  140.2525  155.7312 H   0  0  0  0  0  0  0  0  0  0  0  0  # atno 8010 bound_to 7997
  140.0161  143.5392  152.2242 H   0  0  0  0  0  0  0  0  0  0  0  0  # atno 10167 bound_to 10162
  157.6337  131.0984  150.7043 H   0  0  0  0  0  0  0  0  0  0  0  0  # atno 10718 bound_to 10713
  154.6610  135.5321  153.8018 H   0  0  0  0  0  0  0  0  0  0  0  0  # atno 10763 bound_to 10752
  153.0442  135.6505  154.0872 H   0  0  0  0  0  0  0  0  0  0  0  0  # atno 10764 bound_to 10752
  154.0781  135.2949  155.3275 H   0  0  0  0  0  0  0  0  0  0  0  0  # atno 10765 bound_to 10752
  139.8930  134.8392  156.2797 H   0  0  0  0  0  0  0  0  0  0  0  0  # atno 11005 bound_to 11000
  145.6274  139.1532  143.2988 LP  0  0  0  0  0  0  0  0  0  0  0  0  # atno 17320 bound_to 7965
  146.1887  140.6380  142.9156 LP  0  0  0  0  0  0  0  0  0  0  0  0  # atno 17321 bound_to 7965
  139.6172  144.7622  151.2820 LP  0  0  0  0  0  0  0  0  0  0  0  0  # atno 17342 bound_to 10162
  140.7362  143.6715  150.8077 LP  0  0  0  0  0  0  0  0  0  0  0  0  # atno 17343 bound_to 10162
  156.7378  130.4729  149.5484 LP  0  0  0  0  0  0  0  0  0  0  0  0  # atno 17370 bound_to 10713
  156.1559  130.6342  151.0657 LP  0  0  0  0  0  0  0  0  0  0  0  0  # atno 17371 bound_to 10713
  141.0047  133.7131  156.1015 LP  0  0  0  0  0  0  0  0  0  0  0  0  # atno 17394 bound_to 11000
  140.7450  134.4108  157.5549 LP  0  0  0  0  0  0  0  0  0  0  0  0  # atno 17395 bound_to 11000

$$$$
