AV-unprocessed.smi:3259|AV-procd|sdf|12472|dock6
  -GOLD-   2272018373D 1   1.00000     0.00000
 Structure written by MMmdl.
 39 40  0  0  0  0  0  0  0  0  1 V2000
  148.5979  140.1408  154.0380 C   0  0  0  0  0  0  0  0  0  0  0  0
  149.9594  140.3830  154.3679 O   0  0  0  0  0  0  0  0  0  0  0  0
  150.5173  139.5645  155.3975 C   0  0  1  0  0  0  0  0  0  0  0  0
  150.6056  138.1065  154.9200 C   0  0  0  0  0  0  0  0  0  0  0  0
  151.7744  140.1939  156.0251 C   0  0  0  0  0  0  0  0  0  0  0  0
  151.1981  139.7824  157.3782 C   0  0  1  0  0  0  0  0  0  0  0  0
  151.4633  140.7663  158.4201 N   0  0  0  0  0  0  0  0  0  0  0  0
  152.5751  140.8010  159.1698 C   0  0  0  0  0  0  0  0  0  0  0  0
  153.5285  140.0406  159.0038 O   0  0  0  0  0  0  0  0  0  0  0  0
  152.6113  141.8460  160.2861 C   0  0  0  0  0  0  0  0  0  0  0  0
  152.3501  143.1783  159.7678 N   0  0  0  0  0  0  0  0  0  0  0  0
  152.2032  144.3575  160.4688 C   0  0  0  0  0  0  0  0  0  0  0  0
  151.9884  145.3497  159.5561 C   0  0  0  0  0  0  0  0  0  0  0  0
  152.0200  144.6712  158.3059 C   0  0  0  0  0  0  0  0  0  0  0  0
  152.2369  143.3724  158.4353 N   0  0  0  0  0  0  0  0  0  0  0  0
  149.7863  139.8774  156.7436 C   0  0  0  0  0  0  0  0  0  0  0  0
  149.0760  141.2447  156.8305 C   0  0  0  0  0  0  0  0  0  0  0  0
  148.7654  138.8444  157.2307 C   0  0  0  0  0  0  0  0  0  0  0  0
  148.3260  140.7543  153.1792 H   0  0  0  0  0  0  0  0  0  0  0  0
  147.9274  140.4111  154.8532 H   0  0  0  0  0  0  0  0  0  0  0  0
  148.4213  139.0995  153.7679 H   0  0  0  0  0  0  0  0  0  0  0  0
  150.9020  137.4330  155.7238 H   0  0  0  0  0  0  0  0  0  0  0  0
  151.3445  137.9815  154.1291 H   0  0  0  0  0  0  0  0  0  0  0  0
  149.6470  137.7559  154.5373 H   0  0  0  0  0  0  0  0  0  0  0  0
  152.7116  139.7014  155.7645 H   0  0  0  0  0  0  0  0  0  0  0  0
  151.8399  141.2747  155.8870 H   0  0  0  0  0  0  0  0  0  0  0  0
  151.4806  138.7624  157.6486 H   0  0  0  0  0  0  0  0  0  0  0  0
  150.7307  141.4316  158.6201 H   0  0  0  0  0  0  0  0  0  0  0  0
  151.8731  141.6069  161.0533 H   0  0  0  0  0  0  0  0  0  0  0  0
  153.5901  141.8376  160.7672 H   0  0  0  0  0  0  0  0  0  0  0  0
  152.2672  144.3919  161.5465 H   0  0  0  0  0  0  0  0  0  0  0  0
  151.8332  146.4003  159.7520 H   0  0  0  0  0  0  0  0  0  0  0  0
  151.8936  145.0814  157.3147 H   0  0  0  0  0  0  0  0  0  0  0  0
  148.7591  141.4715  157.8492 H   0  0  0  0  0  0  0  0  0  0  0  0
  148.1838  141.2711  156.2040 H   0  0  0  0  0  0  0  0  0  0  0  0
  149.7160  142.0661  156.5077 H   0  0  0  0  0  0  0  0  0  0  0  0
  148.3621  139.1094  158.2084 H   0  0  0  0  0  0  0  0  0  0  0  0
  149.2050  137.8526  157.3342 H   0  0  0  0  0  0  0  0  0  0  0  0
  147.9255  138.7580  156.5408 H   0  0  0  0  0  0  0  0  0  0  0  0
  1  2  1  0  0  0  0
  1 19  1  0  0  0  0
  1 20  1  0  0  0  0
  1 21  1  0  0  0  0
  2  3  1  0  0  0  0
  3 16  1  0  0  0  0
  3  4  1  0  0  0  0
  3  5  1  0  0  0  0
  4 22  1  0  0  0  0
  4 23  1  0  0  0  0
  4 24  1  0  0  0  0
  5  6  1  0  0  0  0
  5 25  1  0  0  0  0
  5 26  1  0  0  0  0
  6  7  1  0  0  0  0
  6 16  1  0  0  0  0
  6 27  1  0  0  0  0
  7  8  1  0  0  0  0
  7 28  1  0  0  0  0
  8  9  2  0  0  0  0
  8 10  1  0  0  0  0
 10 11  1  0  0  0  0
 10 29  1  0  0  0  0
 10 30  1  0  0  0  0
 11 15  1  0  0  0  0
 11 12  1  0  0  0  0
 12 13  2  0  0  0  0
 12 31  1  0  0  0  0
 13 14  1  0  0  0  0
 13 32  1  0  0  0  0
 14 15  2  0  0  0  0
 14 33  1  0  0  0  0
 16 17  1  0  0  0  0
 16 18  1  0  0  0  0
 17 34  1  0  0  0  0
 17 35  1  0  0  0  0
 17 36  1  0  0  0  0
 18 37  1  0  0  0  0
 18 38  1  0  0  0  0
 18 39  1  0  0  0  0
M  END
> <s_m_source_file>
AV-unprocessed.smi

> <i_m_source_file_index>
3259

> <i_lp_mmshare_version>
43012

> <i_f3d_flags>
0

> <s_epik_input>
W0NIM11PW0NAQF0xKFtDSDNdKVtDSDJdW0NASF0oQzEoW0NIM10pW0NIM10pW05IXUMoPU8pW0NIMl1uMltjSF1bY0hdW2NIXW4y

> <s_epik_cmdline>
J2VwaWtfcHl0aG9uJywgJy1waCcsICc3LjAnLCAnLXRuJywgJzgnLCAnLW1hJywgJzIwMCcsICctbWV0YWxfYmluZGluZycsICctaW1hZScsICc8aW5maWxlLm1hZT4nLCAnLW9tYWUnLCAnPG91dGZpbGUubWFlPic=

> <r_lp_tautomer_probability>
1

> <r_epik_Ionization_Penalty>
1.78399e-05

> <r_epik_Ionization_Penalty_Charging>
0

> <r_epik_Ionization_Penalty_Neutral>
1.78399e-05

> <r_epik_State_Penalty>
-0

> <r_epik_Charging_Adjusted_Penalty>
0

> <i_epik_Tot_Q>
0

> <i_epik_Tot_abs_Q>
0

> <r_epik_Metal_State_Penalty>
-0

> <b_epik_Metal_Only>
0

> <s_lp_Force_Field>
OPLS_2005

> <r_lp_Energy>
22.2184

> <b_lp_Chiralities_Consistent>
1

> <s_lp_Variant>
AV-unprocessed.smi:3259-1

> <Gold.Version>
5.8.1

> <Gold.Id.Protein>
6NUR|6NUR_protein|mol2

> <Gold.PLP.Fitness>
43.9472

> <Gold.PLP.PLP>
-38.9390

> <Gold.PLP.part.hbond>
-2.0000

> <Gold.PLP.part.metal>
0.0000

> <Gold.PLP.part.buried>
-5.0542

> <Gold.PLP.part.nonpolar>
-32.3763

> <Gold.PLP.part.repulsive>
0.2460

> <Gold.PLP.ligand.clash>
0.0000

> <Gold.PLP.ligand.torsion>
0.3775

> <Gold.PLP.Chemscore.Hbond>
1.7952

> <Gold.PLP.Chemscore.CHOScore>
0.0000

> <Gold.PLP.Chemscore.Metal>
0.0000

> <Gold.Chemscore.Hbonds>
donor molecule, donor type, donor heavy atom, donor atom, acceptor molecule, acceptor atom, score
      P1  H  7989  7998       L1     2  0.79
      P1  H  7997  8008       L1     9  0.57

> <Gold.PLP.Chemscore.Internal.Correction>
0.3776

> <Gold.Rescore>
     Score         DG    S(hbond)    S(metal)    S(lipo)     H(rot)  DE(clash)    DE(int)     intcor
     13.24     -15.38       0.97        0.00      91.91       1.60       0.25       1.90       ----

> <Gold.Chemscore.Fitness>
13.2405

> <Gold.Chemscore.DG>
-15.3850

> <Gold.Chemscore.ZeroCoef>
-5.4800

> <Gold.Chemscore.Hbond>
0.9692

> <Gold.Chemscore.Metal>
0.0000

> <Gold.Chemscore.Lipo>
91.9149

> <Gold.Chemscore.Internal_Hbond>
0.0000

> <Gold.Chemscore.DEClash>
0.2469

> <Gold.Chemscore.DEInternal>
1.8976

> <Gold.Chemscore.Rot>
1.5962

> <Gold.Chemscore.Internal.Correction>
   9.000000E+99

> <Gold.Chemscore.Hbonds>
donor molecule, donor type, donor heavy atom, donor atom, acceptor molecule, acceptor atom, score
      P1  H  7989  7998       L1     2  0.15
      P1  H  7997  8008       L1     9  0.55

> <Gold.Chemscore.Hbond.Weighted>
-3.2371

> <Gold.Chemscore.Metal.Weighted>
-0.0000

> <Gold.Chemscore.Lipo.Weighted>
-10.7540

> <Gold.Chemscore.Internal_Hbond.Weighted>
0.0000

> <Gold.Chemscore.DEClash.Weighted>
0.2469

> <Gold.Chemscore.DEInternal.Weighted>
1.8976

> <Gold.Chemscore.Rot.Weighted>
4.0862

> <Gold.Chemscore.Internal.Correction.Weighted>
   9.000000E+99

> <Gold.Protein.RotatedTorsions>
[ 6907 6896 6895 6894 ] final   19.61 input  -60.11 | X-H torsion
[ 7974 7965 7964 7962 ] final  114.30 input  175.53 | X-H torsion
[ 8008 7997 7996 7995 ] final -102.65 input   59.86 | X-H torsion
[ 10167 10162 10161 10158 ] final -169.23 input  -65.29 | X-H torsion
[ 10718 10713 10712 10709 ] final  148.99 input   66.30 | X-H torsion
[ 10763 10752 10751 10750 ] final   90.36 input  -60.55 | X-H torsion
[ 11005 11000 10999 10996 ] final  -66.41 input  -57.11 | X-H torsion

> <Gold.Protein.ActiveResidues>
 VAL166  LYS551  ARG553  GLY616  TRP617  ASP618  TYR619  PRO620  LYS621  CYS622 
 ASP623  PHE694  ASN695  SER759  ASP760  ASP761  ALA762  ILE779  LEU786  VAL792 
 PHE793  MET794  SER795  GLU796  ALA797  LYS798  CYS799  TRP800  GLU811  SER814 

> <Gold.Protein.RotatedAtoms>
  151.8835  135.0444  160.0490 H   0  0  0  0  0  0  0  0  0  0  0  0  # atno 6907 bound_to 6896
  152.2493  133.5197  159.5324 H   0  0  0  0  0  0  0  0  0  0  0  0  # atno 6908 bound_to 6896
  150.7078  134.0898  159.3970 H   0  0  0  0  0  0  0  0  0  0  0  0  # atno 6909 bound_to 6896
  145.2062  139.2928  143.4292 H   0  0  0  0  0  0  0  0  0  0  0  0  # atno 7974 bound_to 7965
  154.8596  140.0427  157.1657 H   0  0  0  0  0  0  0  0  0  0  0  0  # atno 8008 bound_to 7997
  154.8854  140.2978  155.5380 H   0  0  0  0  0  0  0  0  0  0  0  0  # atno 8009 bound_to 7997
  156.2998  140.2403  156.3862 H   0  0  0  0  0  0  0  0  0  0  0  0  # atno 8010 bound_to 7997
  139.5935  144.1161  152.1662 H   0  0  0  0  0  0  0  0  0  0  0  0  # atno 10167 bound_to 10162
  157.3017  131.0872  151.1385 H   0  0  0  0  0  0  0  0  0  0  0  0  # atno 10718 bound_to 10713
  153.1968  135.4436  155.0217 H   0  0  0  0  0  0  0  0  0  0  0  0  # atno 10763 bound_to 10752
  154.8123  135.3300  154.7273 H   0  0  0  0  0  0  0  0  0  0  0  0  # atno 10764 bound_to 10752
  153.7722  135.6984  153.4959 H   0  0  0  0  0  0  0  0  0  0  0  0  # atno 10765 bound_to 10752
  141.1481  133.6699  156.6136 H   0  0  0  0  0  0  0  0  0  0  0  0  # atno 11005 bound_to 11000
  146.3407  140.2322  142.8593 LP  0  0  0  0  0  0  0  0  0  0  0  0  # atno 17320 bound_to 7965
  144.9900  140.8538  143.5345 LP  0  0  0  0  0  0  0  0  0  0  0  0  # atno 17321 bound_to 7965
  140.0741  144.5755  150.7170 LP  0  0  0  0  0  0  0  0  0  0  0  0  # atno 17342 bound_to 10162
  140.7193  143.2573  151.4332 LP  0  0  0  0  0  0  0  0  0  0  0  0  # atno 17343 bound_to 10162
  157.2741  130.6718  149.6034 LP  0  0  0  0  0  0  0  0  0  0  0  0  # atno 17370 bound_to 10713
  155.9672  130.4470  150.5562 LP  0  0  0  0  0  0  0  0  0  0  0  0  # atno 17371 bound_to 10713
  140.3595  134.7699  157.4524 LP  0  0  0  0  0  0  0  0  0  0  0  0  # atno 17394 bound_to 11000
  140.0796  134.5749  155.8554 LP  0  0  0  0  0  0  0  0  0  0  0  0  # atno 17395 bound_to 11000

$$$$
