AV-unprocessed.smi:565|AV-procd|sdf|2953|dock3
  -GOLD-   2262023453D 1   1.00000     0.00000
 Structure written by MMmdl.
 50 51  0  0  0  0  0  0  0  0  2 V2000
  151.6438  144.1633  157.9464 C   0  0  0  0  0  0  0  0  0  0  0  0
  152.2318  142.8915  158.4876 C   0  0  0  0  0  0  0  0  0  0  0  0
  153.2412  142.9531  159.3398 N   0  0  0  0  0  0  0  0  0  0  0  0
  153.5232  141.6675  159.6326 N   0  0  0  0  0  0  0  0  0  0  0  0
  154.5981  141.3670  160.5581 C   0  0  0  0  0  0  0  0  0  0  0  0
  152.6909  140.7922  158.9628 C   0  0  0  0  0  0  0  0  0  0  0  0
  152.7987  139.3102  159.1261 C   0  0  0  0  0  0  0  0  0  0  0  0
  151.8382  141.5504  158.2053 C   0  0  0  0  0  0  0  0  0  0  0  0
  150.7317  141.0952  157.2884 C   0  0  0  0  0  0  0  0  0  0  0  0
  151.3129  140.2173  156.1790 C   0  0  0  0  0  0  0  0  0  0  0  0
  152.5184  139.9678  156.1565 O   0  0  0  0  0  0  0  0  0  0  0  0
  150.4463  139.7457  155.2693 N   0  0  0  0  0  0  0  0  0  0  0  0
  150.7894  138.8478  154.1730 C   0  0  0  0  0  0  0  0  0  0  0  0
  151.3390  137.4995  154.6810 C   0  0  0  0  0  0  0  0  0  0  0  0
  150.2902  136.4519  154.7636 N   0  3  1  0  0  0  0  0  0  0  0  0
  150.8694  135.0894  154.8879 C   0  0  0  0  0  0  0  0  0  0  0  0
  149.7762  134.0123  154.8066 C   0  0  0  0  0  0  0  0  0  0  0  0
  148.6909  134.2472  155.8668 C   0  0  0  0  0  0  0  0  0  0  0  0
  148.1319  135.6797  155.7865 C   0  0  2  0  0  0  0  0  0  0  0  0
  147.2005  135.8895  154.5795 C   0  0  0  0  0  0  0  0  0  0  0  0
  149.2784  136.7115  155.8248 C   0  0  0  0  0  0  0  0  0  0  0  0
  150.5675  144.1965  158.1142 H   0  0  0  0  0  0  0  0  0  0  0  0
  151.8154  144.2445  156.8730 H   0  0  0  0  0  0  0  0  0  0  0  0
  152.0784  145.0448  158.4194 H   0  0  0  0  0  0  0  0  0  0  0  0
  155.3824  140.8151  160.0400 H   0  0  0  0  0  0  0  0  0  0  0  0
  154.2168  140.7590  161.3787 H   0  0  0  0  0  0  0  0  0  0  0  0
  155.0224  142.2843  160.9683 H   0  0  0  0  0  0  0  0  0  0  0  0
  152.0447  138.7898  158.5359 H   0  0  0  0  0  0  0  0  0  0  0  0
  152.6577  139.0243  160.1684 H   0  0  0  0  0  0  0  0  0  0  0  0
  153.7781  138.9551  158.8054 H   0  0  0  0  0  0  0  0  0  0  0  0
  149.9670  140.5441  157.8377 H   0  0  0  0  0  0  0  0  0  0  0  0
  150.2180  141.9403  156.8298 H   0  0  0  0  0  0  0  0  0  0  0  0
  149.4738  140.0006  155.3662 H   0  0  0  0  0  0  0  0  0  0  0  0
  149.9074  138.7134  153.5468 H   0  0  0  0  0  0  0  0  0  0  0  0
  151.5375  139.3433  153.5536 H   0  0  0  0  0  0  0  0  0  0  0  0
  152.1186  137.1737  153.9907 H   0  0  0  0  0  0  0  0  0  0  0  0
  151.8178  137.6072  155.6553 H   0  0  0  0  0  0  0  0  0  0  0  0
  151.5944  134.9195  154.0910 H   0  0  0  0  0  0  0  0  0  0  0  0
  151.4109  135.0074  155.8319 H   0  0  0  0  0  0  0  0  0  0  0  0
  149.3319  134.0133  153.8107 H   0  0  0  0  0  0  0  0  0  0  0  0
  150.2173  133.0243  154.9420 H   0  0  0  0  0  0  0  0  0  0  0  0
  147.8894  133.5155  155.7581 H   0  0  0  0  0  0  0  0  0  0  0  0
  149.1202  134.0846  156.8564 H   0  0  0  0  0  0  0  0  0  0  0  0
  147.5202  135.8390  156.6754 H   0  0  0  0  0  0  0  0  0  0  0  0
  147.7266  135.7716  153.6322 H   0  0  0  0  0  0  0  0  0  0  0  0
  146.7646  136.8891  154.5906 H   0  0  0  0  0  0  0  0  0  0  0  0
  146.3774  135.1747  154.5923 H   0  0  0  0  0  0  0  0  0  0  0  0
  149.7700  136.6799  156.7987 H   0  0  0  0  0  0  0  0  0  0  0  0
  148.8588  137.7116  155.7258 H   0  0  0  0  0  0  0  0  0  0  0  0
  149.8002  136.4693  153.8807 H   0  0  0  0  0  0  0  0  0  0  0  0
  1  2  1  0  0  0  0
  1 22  1  0  0  0  0
  1 23  1  0  0  0  0
  1 24  1  0  0  0  0
  2  8  1  0  0  0  0
  2  3  2  0  0  0  0
  3  4  1  0  0  0  0
  4  5  1  0  0  0  0
  4  6  1  0  0  0  0
  5 25  1  0  0  0  0
  5 26  1  0  0  0  0
  5 27  1  0  0  0  0
  6  7  1  0  0  0  0
  6  8  2  0  0  0  0
  7 28  1  0  0  0  0
  7 29  1  0  0  0  0
  7 30  1  0  0  0  0
  8  9  1  0  0  0  0
  9 10  1  0  0  0  0
  9 31  1  0  0  0  0
  9 32  1  0  0  0  0
 10 11  2  0  0  0  0
 10 12  1  0  0  0  0
 12 13  1  0  0  0  0
 12 33  1  0  0  0  0
 13 14  1  0  0  0  0
 13 34  1  0  0  0  0
 13 35  1  0  0  0  0
 14 15  1  0  0  0  0
 14 36  1  0  0  0  0
 14 37  1  0  0  0  0
 15 21  1  0  0  0  0
 15 16  1  0  0  0  0
 15 50  1  0  0  0  0
 16 17  1  0  0  0  0
 16 38  1  0  0  0  0
 16 39  1  0  0  0  0
 17 18  1  0  0  0  0
 17 40  1  0  0  0  0
 17 41  1  0  0  0  0
 18 19  1  0  0  0  0
 18 42  1  0  0  0  0
 18 43  1  0  0  0  0
 19 20  1  0  0  0  0
 19 21  1  0  0  0  0
 19 44  1  0  0  0  0
 20 45  1  0  0  0  0
 20 46  1  0  0  0  0
 20 47  1  0  0  0  0
 21 48  1  0  0  0  0
 21 49  1  0  0  0  0
M  CHG  1  15   1
M  END
> <s_m_source_file>
AV-unprocessed.smi

> <i_m_source_file_index>
565

> <i_lp_mmshare_version>
43012

> <i_f3d_flags>
0

> <s_epik_input>
W0NIM11jMW5uKFtDSDNdKWMoW0NIM10pYzFbQ0gyXUMoPU8pW05IXVtDSDJdW0NIMl1OMltDSDJdW0NIMl1bQ0gyXVtDQEBIXShbQ0gzXSlbQ0gyXTI=

> <s_epik_cmdline>
J2VwaWtfcHl0aG9uJywgJy1waCcsICc3LjAnLCAnLXRuJywgJzgnLCAnLW1hJywgJzIwMCcsICctbWV0YWxfYmluZGluZycsICctaW1hZScsICc8aW5maWxlLm1hZT4nLCAnLW9tYWUnLCAnPG91dGZpbGUubWFlPic=

> <r_lp_tautomer_probability>
1

> <r_epik_Ionization_Penalty>
0.00411138

> <r_epik_Ionization_Penalty_Charging>
0.0019503

> <r_epik_Ionization_Penalty_Neutral>
0.00216107

> <r_epik_State_Penalty>
-0

> <r_epik_Charging_Adjusted_Penalty>
0.0019503

> <i_epik_Tot_Q>
1

> <i_epik_Tot_abs_Q>
1

> <r_epik_Metal_State_Penalty>
-0

> <b_epik_Metal_Only>
0

> <s_lp_Force_Field>
OPLS_2005

> <r_lp_Energy>
13.161

> <b_lp_Chiralities_Consistent>
1

> <s_lp_Variant>
AV-unprocessed.smi:565-3

> <Gold.Version>
5.8.1

> <Gold.Id.Protein>
6NUR|6NUR_protein|mol2

> <Gold.PLP.Fitness>
46.7217

> <Gold.PLP.PLP>
-38.2822

> <Gold.PLP.part.hbond>
-2.0000

> <Gold.PLP.part.metal>
0.0000

> <Gold.PLP.part.buried>
-4.2250

> <Gold.PLP.part.nonpolar>
-31.5628

> <Gold.PLP.part.repulsive>
0.1484

> <Gold.PLP.ligand.clash>
0.0000

> <Gold.PLP.ligand.torsion>
0.3216

> <Gold.PLP.Chemscore.Hbond>
3.0000

> <Gold.PLP.Chemscore.CHOScore>
0.0000

> <Gold.PLP.Chemscore.Metal>
0.0000

> <Gold.Chemscore.Hbonds>
donor molecule, donor type, donor heavy atom, donor atom, acceptor molecule, acceptor atom, score
      L1  H    15    50       P1  7948  1.33
      P1  H  7997  8009       L1    11  1.00

> <Gold.PLP.Chemscore.Internal.Correction>
0.0827

> <Gold.Rescore>
     Score         DG    S(hbond)    S(metal)    S(lipo)     H(rot)  DE(clash)    DE(int)     intcor
     16.92     -18.37       1.92        0.00      90.60       1.61       0.01       1.44       ----

> <Gold.Chemscore.Fitness>
16.9219

> <Gold.Chemscore.DG>
-18.3710

> <Gold.Chemscore.ZeroCoef>
-5.4800

> <Gold.Chemscore.Hbond>
1.9230

> <Gold.Chemscore.Metal>
0.0000

> <Gold.Chemscore.Lipo>
90.6032

> <Gold.Chemscore.Internal_Hbond>
0.0000

> <Gold.Chemscore.DEClash>
0.0108

> <Gold.Chemscore.DEInternal>
1.4383

> <Gold.Chemscore.Rot>
1.6142

> <Gold.Chemscore.Internal.Correction>
   9.000000E+99

> <Gold.Chemscore.Hbonds>
donor molecule, donor type, donor heavy atom, donor atom, acceptor molecule, acceptor atom, score
      L1  H    15    50       P1  7948  0.30
      P1  H  7997  8009       L1    11  1.00

> <Gold.Chemscore.Hbond.Weighted>
-6.4229

> <Gold.Chemscore.Metal.Weighted>
-0.0000

> <Gold.Chemscore.Lipo.Weighted>
-10.6006

> <Gold.Chemscore.Internal_Hbond.Weighted>
0.0000

> <Gold.Chemscore.DEClash.Weighted>
0.0108

> <Gold.Chemscore.DEInternal.Weighted>
1.4383

> <Gold.Chemscore.Rot.Weighted>
4.1324

> <Gold.Chemscore.Internal.Correction.Weighted>
   9.000000E+99

> <Gold.Protein.RotatedTorsions>
[ 6907 6896 6895 6894 ] final -129.17 input  -60.11 | X-H torsion
[ 7974 7965 7964 7962 ] final  173.56 input  175.53 | X-H torsion
[ 8008 7997 7996 7995 ] final -167.42 input   59.86 | X-H torsion
[ 10167 10162 10161 10158 ] final -112.19 input  -65.29 | X-H torsion
[ 10718 10713 10712 10709 ] final -121.15 input   66.30 | X-H torsion
[ 10763 10752 10751 10750 ] final  -33.86 input  -60.55 | X-H torsion
[ 11005 11000 10999 10996 ] final -113.27 input  -57.11 | X-H torsion

> <Gold.Protein.ActiveResidues>
 VAL166  LYS551  ARG553  GLY616  TRP617  ASP618  TYR619  PRO620  LYS621  CYS622 
 ASP623  PHE694  ASN695  SER759  ASP760  ASP761  ALA762  ILE779  LEU786  VAL792 
 PHE793  MET794  SER795  GLU796  ALA797  LYS798  CYS799  TRP800  GLU811  SER814 

> <Gold.Protein.RotatedAtoms>
  150.9258  133.6825  159.2821 H   0  0  0  0  0  0  0  0  0  0  0  0  # atno 6907 bound_to 6896
  151.4264  135.1003  159.9639 H   0  0  0  0  0  0  0  0  0  0  0  0  # atno 6908 bound_to 6896
  152.5002  133.8699  159.7348 H   0  0  0  0  0  0  0  0  0  0  0  0  # atno 6909 bound_to 6896
  144.7241  139.9666  143.6436 H   0  0  0  0  0  0  0  0  0  0  0  0  # atno 7974 bound_to 7965
  155.8774  140.1003  157.1509 H   0  0  0  0  0  0  0  0  0  0  0  0  # atno 8008 bound_to 7997
  154.4002  140.1335  156.4217 H   0  0  0  0  0  0  0  0  0  0  0  0  # atno 8009 bound_to 7997
  155.7682  140.3461  155.5235 H   0  0  0  0  0  0  0  0  0  0  0  0  # atno 8010 bound_to 7997
  140.1254  143.4407  152.1663 H   0  0  0  0  0  0  0  0  0  0  0  0  # atno 10167 bound_to 10162
  156.1314  130.6398  150.9627 H   0  0  0  0  0  0  0  0  0  0  0  0  # atno 10718 bound_to 10713
  153.8372  135.6861  153.4807 H   0  0  0  0  0  0  0  0  0  0  0  0  # atno 10763 bound_to 10752
  153.1475  135.4631  154.9586 H   0  0  0  0  0  0  0  0  0  0  0  0  # atno 10764 bound_to 10752
  154.7861  135.3285  154.7829 H   0  0  0  0  0  0  0  0  0  0  0  0  # atno 10765 bound_to 10752
  141.0624  133.9513  157.2641 H   0  0  0  0  0  0  0  0  0  0  0  0  # atno 11005 bound_to 11000
  146.0596  139.3590  143.0589 LP  0  0  0  0  0  0  0  0  0  0  0  0  # atno 17320 bound_to 7965
  145.8110  140.9726  143.0949 LP  0  0  0  0  0  0  0  0  0  0  0  0  # atno 17321 bound_to 7965
  139.5547  144.7364  151.4330 LP  0  0  0  0  0  0  0  0  0  0  0  0  # atno 17342 bound_to 10162
  140.6848  143.8000  150.7170 LP  0  0  0  0  0  0  0  0  0  0  0  0  # atno 17343 bound_to 10162
  157.6492  131.0899  150.8088 LP  0  0  0  0  0  0  0  0  0  0  0  0  # atno 17370 bound_to 10713
  156.8173  130.4972  149.5348 LP  0  0  0  0  0  0  0  0  0  0  0  0  # atno 17371 bound_to 10713
  139.9445  135.0186  156.8810 LP  0  0  0  0  0  0  0  0  0  0  0  0  # atno 17394 bound_to 11000
  140.5841  134.0324  155.7475 LP  0  0  0  0  0  0  0  0  0  0  0  0  # atno 17395 bound_to 11000

$$$$
