AV-unprocessed.smi:423|AV-procd|sdf|2538|dock4
  -GOLD-   2262022503D 1   1.00000     0.00000
 Structure written by MMmdl.
 47 48  0  0  0  0  0  0  0  0  1 V2000
  153.0965  138.0583  155.9229 C   0  0  0  0  0  0  0  0  0  0  0  0
  152.1023  139.1778  155.8085 C   0  0  0  0  0  0  0  0  0  0  0  0
  152.3223  140.3074  156.4588 N   0  0  0  0  0  0  0  0  0  0  0  0
  151.2618  141.0890  156.1670 N   0  0  0  0  0  0  0  0  0  0  0  0
  151.1864  142.4223  156.7460 C   0  0  0  0  0  0  0  0  0  0  0  0
  151.1197  142.4166  158.2889 C   0  0  0  0  0  0  0  0  0  0  0  0
  151.2118  143.8469  158.8406 C   0  0  0  0  0  0  0  0  0  0  0  0
  152.1828  141.5111  158.9352 C   0  0  0  0  0  0  0  0  0  0  0  0
  150.3762  140.4525  155.3160 C   0  0  0  0  0  0  0  0  0  0  0  0
  149.1138  141.0941  154.8349 C   0  0  0  0  0  0  0  0  0  0  0  0
  150.8881  139.2078  155.0626 C   0  0  0  0  0  0  0  0  0  0  0  0
  150.3122  138.1093  154.2015 C   0  0  0  0  0  0  0  0  0  0  0  0
  149.9544  136.8621  155.0303 C   0  0  0  0  0  0  0  0  0  0  0  0
  150.1099  136.8551  156.2511 O   0  0  0  0  0  0  0  0  0  0  0  0
  149.4728  135.7788  154.3981 N   0  0  0  0  0  0  0  0  0  0  0  0
  149.0765  134.5060  154.9981 C   0  0  0  0  0  0  0  0  0  0  0  0
  150.3022  133.6494  155.3827 C   0  0  0  0  0  0  0  0  0  0  0  0
  150.0777  132.2723  154.7546 C   0  0  0  0  0  0  0  0  0  0  0  0
  149.2123  132.5501  153.5303 C   0  0  0  0  0  0  0  0  0  0  0  0
  148.2745  133.6674  153.9864 C   0  0  0  0  0  0  0  0  0  0  0  0
  152.5962  137.0897  155.9334 H   0  0  0  0  0  0  0  0  0  0  0  0
  153.6831  138.1337  156.8394 H   0  0  0  0  0  0  0  0  0  0  0  0
  153.7898  138.0660  155.0821 H   0  0  0  0  0  0  0  0  0  0  0  0
  152.0538  142.9962  156.4145 H   0  0  0  0  0  0  0  0  0  0  0  0
  150.3141  142.9279  156.3311 H   0  0  0  0  0  0  0  0  0  0  0  0
  150.1450  142.0242  158.5796 H   0  0  0  0  0  0  0  0  0  0  0  0
  152.1686  144.3064  158.5904 H   0  0  0  0  0  0  0  0  0  0  0  0
  151.1114  143.8579  159.9262 H   0  0  0  0  0  0  0  0  0  0  0  0
  150.4221  144.4778  158.4317 H   0  0  0  0  0  0  0  0  0  0  0  0
  153.1895  141.8189  158.6509 H   0  0  0  0  0  0  0  0  0  0  0  0
  152.0563  140.4690  158.6405 H   0  0  0  0  0  0  0  0  0  0  0  0
  152.1186  141.5465  160.0229 H   0  0  0  0  0  0  0  0  0  0  0  0
  148.6761  140.5325  154.0098 H   0  0  0  0  0  0  0  0  0  0  0  0
  149.2956  142.1089  154.4822 H   0  0  0  0  0  0  0  0  0  0  0  0
  148.3743  141.1372  155.6341 H   0  0  0  0  0  0  0  0  0  0  0  0
  149.4235  138.4646  153.6813 H   0  0  0  0  0  0  0  0  0  0  0  0
  151.0192  137.8143  153.4257 H   0  0  0  0  0  0  0  0  0  0  0  0
  149.3696  135.8458  153.3959 H   0  0  0  0  0  0  0  0  0  0  0  0
  148.4469  134.6863  155.8707 H   0  0  0  0  0  0  0  0  0  0  0  0
  151.2180  134.0817  154.9764 H   0  0  0  0  0  0  0  0  0  0  0  0
  150.4319  133.5813  156.4631 H   0  0  0  0  0  0  0  0  0  0  0  0
  151.0114  131.7678  154.5043 H   0  0  0  0  0  0  0  0  0  0  0  0
  149.5315  131.6351  155.4516 H   0  0  0  0  0  0  0  0  0  0  0  0
  149.8380  132.9048  152.7100 H   0  0  0  0  0  0  0  0  0  0  0  0
  148.6757  131.6660  153.1846 H   0  0  0  0  0  0  0  0  0  0  0  0
  147.4136  133.2255  154.4903 H   0  0  0  0  0  0  0  0  0  0  0  0
  147.8884  134.2494  153.1483 H   0  0  0  0  0  0  0  0  0  0  0  0
  1  2  1  0  0  0  0
  1 21  1  0  0  0  0
  1 22  1  0  0  0  0
  1 23  1  0  0  0  0
  2 11  1  0  0  0  0
  2  3  2  0  0  0  0
  3  4  1  0  0  0  0
  4  5  1  0  0  0  0
  4  9  1  0  0  0  0
  5  6  1  0  0  0  0
  5 24  1  0  0  0  0
  5 25  1  0  0  0  0
  6  7  1  0  0  0  0
  6  8  1  0  0  0  0
  6 26  1  0  0  0  0
  7 27  1  0  0  0  0
  7 28  1  0  0  0  0
  7 29  1  0  0  0  0
  8 30  1  0  0  0  0
  8 31  1  0  0  0  0
  8 32  1  0  0  0  0
  9 10  1  0  0  0  0
  9 11  2  0  0  0  0
 10 33  1  0  0  0  0
 10 34  1  0  0  0  0
 10 35  1  0  0  0  0
 11 12  1  0  0  0  0
 12 13  1  0  0  0  0
 12 36  1  0  0  0  0
 12 37  1  0  0  0  0
 13 14  2  0  0  0  0
 13 15  1  0  0  0  0
 15 16  1  0  0  0  0
 15 38  1  0  0  0  0
 16 20  1  0  0  0  0
 16 17  1  0  0  0  0
 16 39  1  0  0  0  0
 17 18  1  0  0  0  0
 17 40  1  0  0  0  0
 17 41  1  0  0  0  0
 18 19  1  0  0  0  0
 18 42  1  0  0  0  0
 18 43  1  0  0  0  0
 19 20  1  0  0  0  0
 19 44  1  0  0  0  0
 19 45  1  0  0  0  0
 20 46  1  0  0  0  0
 20 47  1  0  0  0  0
M  END
> <s_m_source_file>
AV-unprocessed.smi

> <i_m_source_file_index>
423

> <i_lp_mmshare_version>
43012

> <i_f3d_flags>
0

> <s_epik_input>
W0NIM11jMW5uKFtDSDJdW0NIXShbQ0gzXSlbQ0gzXSljKFtDSDNdKWMxW0NIMl1DKD1PKVtOSF1bQ0hdMltDSDJdW0NIMl1bQ0gyXVtDSDJdMg==

> <s_epik_cmdline>
J2VwaWtfcHl0aG9uJywgJy1waCcsICc3LjAnLCAnLXRuJywgJzgnLCAnLW1hJywgJzIwMCcsICctbWV0YWxfYmluZGluZycsICctaW1hZScsICc8aW5maWxlLm1hZT4nLCAnLW9tYWUnLCAnPG91dGZpbGUubWFlPic=

> <r_lp_tautomer_probability>
1

> <r_epik_Ionization_Penalty>
0.00323157

> <r_epik_Ionization_Penalty_Charging>
0

> <r_epik_Ionization_Penalty_Neutral>
0.00323157

> <r_epik_State_Penalty>
0.00228044

> <r_epik_Charging_Adjusted_Penalty>
0.00228044

> <i_epik_Tot_Q>
0

> <i_epik_Tot_abs_Q>
0

> <r_epik_Metal_State_Penalty>
-0

> <b_epik_Metal_Only>
0

> <s_lp_Force_Field>
OPLS_2005

> <r_lp_Energy>
20.2574

> <b_lp_Chiralities_Consistent>
1

> <s_lp_Variant>
AV-unprocessed.smi:423-1

> <Gold.Version>
5.8.1

> <Gold.Id.Protein>
6NUR|6NUR_protein|mol2

> <Gold.PLP.Fitness>
43.4012

> <Gold.PLP.PLP>
-38.3077

> <Gold.PLP.part.hbond>
-2.0000

> <Gold.PLP.part.metal>
0.0000

> <Gold.PLP.part.buried>
-1.5199

> <Gold.PLP.part.nonpolar>
-34.0956

> <Gold.PLP.part.repulsive>
0.0496

> <Gold.PLP.ligand.clash>
0.0000

> <Gold.PLP.ligand.torsion>
0.2535

> <Gold.PLP.Chemscore.Hbond>
1.8500

> <Gold.PLP.Chemscore.CHOScore>
0.0000

> <Gold.PLP.Chemscore.Metal>
0.0000

> <Gold.Chemscore.Hbonds>
donor molecule, donor type, donor heavy atom, donor atom, acceptor molecule, acceptor atom, score
      L1  H    15    38       P1  7948  1.00
      P1  H  7997  8008       L1     3  0.80

> <Gold.PLP.Chemscore.Internal.Correction>
0.0505

> <Gold.Rescore>
     Score         DG    S(hbond)    S(metal)    S(lipo)     H(rot)  DE(clash)    DE(int)     intcor
     16.63     -20.18       1.89        0.00     102.88       1.43       1.79       1.75       ----

> <Gold.Chemscore.Fitness>
16.6308

> <Gold.Chemscore.DG>
-20.1751

> <Gold.Chemscore.ZeroCoef>
-5.4800

> <Gold.Chemscore.Hbond>
1.8932

> <Gold.Chemscore.Metal>
0.0000

> <Gold.Chemscore.Lipo>
102.8778

> <Gold.Chemscore.Internal_Hbond>
0.0000

> <Gold.Chemscore.DEClash>
1.7916

> <Gold.Chemscore.DEInternal>
1.7527

> <Gold.Chemscore.Rot>
1.4316

> <Gold.Chemscore.Internal.Correction>
   9.000000E+99

> <Gold.Chemscore.Hbonds>
donor molecule, donor type, donor heavy atom, donor atom, acceptor molecule, acceptor atom, score
      L1  H    15    38       P1  7948  0.44
      P1  H  7997  8008       L1     3  0.11

> <Gold.Chemscore.Hbond.Weighted>
-6.3234

> <Gold.Chemscore.Metal.Weighted>
-0.0000

> <Gold.Chemscore.Lipo.Weighted>
-12.0367

> <Gold.Chemscore.Internal_Hbond.Weighted>
0.0000

> <Gold.Chemscore.DEClash.Weighted>
1.7916

> <Gold.Chemscore.DEInternal.Weighted>
1.7527

> <Gold.Chemscore.Rot.Weighted>
3.6649

> <Gold.Chemscore.Internal.Correction.Weighted>
   9.000000E+99

> <Gold.Protein.RotatedTorsions>
[ 6907 6896 6895 6894 ] final  -82.99 input  -60.11 | X-H torsion
[ 7974 7965 7964 7962 ] final   74.74 input  175.53 | X-H torsion
[ 8008 7997 7996 7995 ] final  -52.53 input   59.86 | X-H torsion
[ 10167 10162 10161 10158 ] final  -65.43 input  -65.29 | X-H torsion
[ 10718 10713 10712 10709 ] final  -25.50 input   66.30 | X-H torsion
[ 10763 10752 10751 10750 ] final  -64.28 input  -60.55 | X-H torsion
[ 11005 11000 10999 10996 ] final   66.44 input  -57.11 | X-H torsion

> <Gold.Protein.ActiveResidues>
 VAL166  LYS551  ARG553  GLY616  TRP617  ASP618  TYR619  PRO620  LYS621  CYS622 
 ASP623  PHE694  ASN695  SER759  ASP760  ASP761  ALA762  ILE779  LEU786  VAL792 
 PHE793  MET794  SER795  GLU796  ALA797  LYS798  CYS799  TRP800  GLU811  SER814 

> <Gold.Protein.RotatedAtoms>
  150.6890  134.3580  159.4937 H   0  0  0  0  0  0  0  0  0  0  0  0  # atno 6907 bound_to 6896
  152.1412  134.9058  160.0563 H   0  0  0  0  0  0  0  0  0  0  0  0  # atno 6908 bound_to 6896
  152.0191  133.3856  159.4287 H   0  0  0  0  0  0  0  0  0  0  0  0  # atno 6909 bound_to 6896
  145.7245  139.2660  143.1577 H   0  0  0  0  0  0  0  0  0  0  0  0  # atno 7974 bound_to 7965
  154.4109  140.1222  156.5006 H   0  0  0  0  0  0  0  0  0  0  0  0  # atno 8008 bound_to 7997
  155.6899  140.3495  155.4870 H   0  0  0  0  0  0  0  0  0  0  0  0  # atno 8009 bound_to 7997
  155.9478  140.1099  157.0992 H   0  0  0  0  0  0  0  0  0  0  0  0  # atno 8010 bound_to 7997
  140.5730  143.2319  151.6499 H   0  0  0  0  0  0  0  0  0  0  0  0  # atno 10167 bound_to 10162
  156.4635  130.4509  149.6913 H   0  0  0  0  0  0  0  0  0  0  0  0  # atno 10718 bound_to 10713
  154.3277  135.6183  153.5537 H   0  0  0  0  0  0  0  0  0  0  0  0  # atno 10763 bound_to 10752
  152.9814  135.5739  154.4997 H   0  0  0  0  0  0  0  0  0  0  0  0  # atno 10764 bound_to 10752
  154.4677  135.2858  155.1642 H   0  0  0  0  0  0  0  0  0  0  0  0  # atno 10765 bound_to 10752
  139.9831  134.6711  156.0225 H   0  0  0  0  0  0  0  0  0  0  0  0  # atno 11005 bound_to 11000
  146.0595  140.7985  142.9742 LP  0  0  0  0  0  0  0  0  0  0  0  0  # atno 17320 bound_to 7965
  144.6908  140.3175  143.7238 LP  0  0  0  0  0  0  0  0  0  0  0  0  # atno 17321 bound_to 7965
  139.5127  144.3465  152.0692 LP  0  0  0  0  0  0  0  0  0  0  0  0  # atno 17342 bound_to 10162
  140.2605  144.4072  150.6187 LP  0  0  0  0  0  0  0  0  0  0  0  0  # atno 17343 bound_to 10162
  156.3691  130.7521  151.2502 LP  0  0  0  0  0  0  0  0  0  0  0  0  # atno 17370 bound_to 10713
  157.7496  131.0328  150.4243 LP  0  0  0  0  0  0  0  0  0  0  0  0  # atno 17371 bound_to 10713
  141.1500  133.6550  156.3985 LP  0  0  0  0  0  0  0  0  0  0  0  0  # atno 17394 bound_to 11000
  140.5056  134.6444  157.5265 LP  0  0  0  0  0  0  0  0  0  0  0  0  # atno 17395 bound_to 11000

$$$$
