AV-unprocessed.smi:910|AV-procd|sdf|4117|dock6
  -GOLD-   22720 2 13D 1   1.00000     0.00000
 Structure written by MMmdl.
 46 47  0  0  0  0  0  0  0  0  1 V2000
  145.3023  130.5513  151.6354 C   0  0  0  0  0  0  0  0  0  0  0  0
  145.3550  132.0329  151.4313 C   0  0  0  0  0  0  0  0  0  0  0  0
  146.1358  132.8617  152.2246 N   0  0  0  0  0  0  0  0  0  0  0  0
  145.9197  134.0868  151.7430 C   0  0  0  0  0  0  0  0  0  0  0  0
  146.4873  135.2941  152.2209 N   0  0  0  0  0  0  0  0  0  0  0  0
  145.8508  136.3216  152.8066 C   0  0  0  0  0  0  0  0  0  0  0  0
  144.6485  136.3555  153.0702 O   0  0  0  0  0  0  0  0  0  0  0  0
  146.6947  137.3307  153.0645 N   0  0  0  0  0  0  0  0  0  0  0  0
  146.3166  138.6302  153.6111 C   0  0  0  0  0  0  0  0  0  0  0  0
  147.4357  139.6681  153.4357 C   0  0  0  0  0  0  0  0  0  0  0  0
  148.5000  139.3381  154.3154 O   0  0  0  0  0  0  0  0  0  0  0  0
  149.6699  140.1312  154.1576 C   0  0  1  0  0  0  0  0  0  0  0  0
  149.4551  141.5224  154.7871 C   0  0  0  0  0  0  0  0  0  0  0  0
  149.2737  141.4357  156.3117 C   0  0  0  0  0  0  0  0  0  0  0  0
  150.4512  140.7026  156.9723 C   0  0  0  0  0  0  0  0  0  0  0  0
  150.6595  139.3102  156.3552 C   0  0  0  0  0  0  0  0  0  0  0  0
  150.8491  139.3916  154.8271 C   0  0  1  0  0  0  0  0  0  0  0  0
  151.0840  138.0054  154.2046 C   0  0  0  0  0  0  0  0  0  0  0  0
  145.0556  134.1215  150.6941 O   0  0  0  0  0  0  0  0  0  0  0  0
  144.7037  132.8112  150.5082 C   0  0  0  0  0  0  0  0  0  0  0  0
  143.7446  132.4975  149.4107 C   0  0  0  0  0  0  0  0  0  0  0  0
  144.3201  130.2399  151.9909 H   0  0  0  0  0  0  0  0  0  0  0  0
  146.0395  130.2206  152.3677 H   0  0  0  0  0  0  0  0  0  0  0  0
  145.5014  130.0199  150.7047 H   0  0  0  0  0  0  0  0  0  0  0  0
  147.4799  135.3988  152.0729 H   0  0  0  0  0  0  0  0  0  0  0  0
  147.6661  137.2117  152.8174 H   0  0  0  0  0  0  0  0  0  0  0  0
  145.3958  138.9797  153.1420 H   0  0  0  0  0  0  0  0  0  0  0  0
  146.0985  138.5007  154.6714 H   0  0  0  0  0  0  0  0  0  0  0  0
  147.7822  139.6709  152.4014 H   0  0  0  0  0  0  0  0  0  0  0  0
  147.0575  140.6671  153.6534 H   0  0  0  0  0  0  0  0  0  0  0  0
  149.9037  140.2478  153.0978 H   0  0  0  0  0  0  0  0  0  0  0  0
  150.3174  142.1524  154.5658 H   0  0  0  0  0  0  0  0  0  0  0  0
  148.5958  142.0194  154.3375 H   0  0  0  0  0  0  0  0  0  0  0  0
  149.1780  142.4374  156.7312 H   0  0  0  0  0  0  0  0  0  0  0  0
  148.3434  140.9146  156.5410 H   0  0  0  0  0  0  0  0  0  0  0  0
  151.3607  141.2933  156.8560 H   0  0  0  0  0  0  0  0  0  0  0  0
  150.2772  140.6113  158.0445 H   0  0  0  0  0  0  0  0  0  0  0  0
  151.5277  138.8355  156.8132 H   0  0  0  0  0  0  0  0  0  0  0  0
  149.8036  138.6758  156.5894 H   0  0  0  0  0  0  0  0  0  0  0  0
  151.7494  139.9792  154.6413 H   0  0  0  0  0  0  0  0  0  0  0  0
  150.2344  137.3423  154.3708 H   0  0  0  0  0  0  0  0  0  0  0  0
  151.9650  137.5275  154.6332 H   0  0  0  0  0  0  0  0  0  0  0  0
  151.2402  138.0791  153.1281 H   0  0  0  0  0  0  0  0  0  0  0  0
  144.2685  132.0880  148.5471 H   0  0  0  0  0  0  0  0  0  0  0  0
  143.2102  133.3918  149.0897 H   0  0  0  0  0  0  0  0  0  0  0  0
  143.0077  131.7643  149.7388 H   0  0  0  0  0  0  0  0  0  0  0  0
  1  2  1  0  0  0  0
  1 22  1  0  0  0  0
  1 23  1  0  0  0  0
  1 24  1  0  0  0  0
  2 20  2  0  0  0  0
  2  3  1  0  0  0  0
  3  4  2  0  0  0  0
  4  5  1  0  0  0  0
  4 19  1  0  0  0  0
  5  6  1  0  0  0  0
  5 25  1  0  0  0  0
  6  7  2  0  0  0  0
  6  8  1  0  0  0  0
  8  9  1  0  0  0  0
  8 26  1  0  0  0  0
  9 10  1  0  0  0  0
  9 27  1  0  0  0  0
  9 28  1  0  0  0  0
 10 11  1  0  0  0  0
 10 29  1  0  0  0  0
 10 30  1  0  0  0  0
 11 12  1  0  0  0  0
 12 17  1  0  0  0  0
 12 13  1  0  0  0  0
 12 31  1  0  0  0  0
 13 14  1  0  0  0  0
 13 32  1  0  0  0  0
 13 33  1  0  0  0  0
 14 15  1  0  0  0  0
 14 34  1  0  0  0  0
 14 35  1  0  0  0  0
 15 16  1  0  0  0  0
 15 36  1  0  0  0  0
 15 37  1  0  0  0  0
 16 17  1  0  0  0  0
 16 38  1  0  0  0  0
 16 39  1  0  0  0  0
 17 18  1  0  0  0  0
 17 40  1  0  0  0  0
 18 41  1  0  0  0  0
 18 42  1  0  0  0  0
 18 43  1  0  0  0  0
 19 20  1  0  0  0  0
 20 21  1  0  0  0  0
 21 44  1  0  0  0  0
 21 45  1  0  0  0  0
 21 46  1  0  0  0  0
M  END
> <s_m_source_file>
AV-unprocessed.smi

> <i_m_source_file_index>
910

> <i_lp_mmshare_version>
43012

> <i_f3d_flags>
0

> <s_epik_input>
W0NIM11jMW5jKG9jMVtDSDNdKVtOSF1DKD1PKVtOSF1bQ0gyXVtDSDJdT1tDQEBIXTJbQ0gyXVtDSDJdW0NIMl1bQ0gyXVtDQEhdMltDSDNd

> <s_epik_cmdline>
J2VwaWtfcHl0aG9uJywgJy1waCcsICc3LjAnLCAnLXRuJywgJzgnLCAnLW1hJywgJzIwMCcsICctbWV0YWxfYmluZGluZycsICctaW1hZScsICc8aW5maWxlLm1hZT4nLCAnLW9tYWUnLCAnPG91dGZpbGUubWFlPic=

> <r_lp_tautomer_probability>
0.785861

> <r_epik_Ionization_Penalty>
4.15957e-05

> <r_epik_Ionization_Penalty_Charging>
0

> <r_epik_Ionization_Penalty_Neutral>
4.15957e-05

> <r_epik_State_Penalty>
0.0240523

> <r_epik_Charging_Adjusted_Penalty>
0.0240523

> <i_epik_Tot_Q>
0

> <i_epik_Tot_abs_Q>
0

> <r_epik_Metal_State_Penalty>
0.057053

> <b_epik_Metal_Only>
0

> <s_lp_Force_Field>
OPLS_2005

> <r_lp_Energy>
9.72379

> <b_lp_Chiralities_Consistent>
1

> <s_lp_Variant>
AV-unprocessed.smi:910-2

> <Gold.Version>
5.8.1

> <Gold.Id.Protein>
6NUR|6NUR_protein|mol2

> <Gold.PLP.Fitness>
38.6559

> <Gold.PLP.PLP>
-34.6411

> <Gold.PLP.part.hbond>
-2.0000

> <Gold.PLP.part.metal>
0.0000

> <Gold.PLP.part.buried>
-4.5876

> <Gold.PLP.part.nonpolar>
-29.2379

> <Gold.PLP.part.repulsive>
0.8986

> <Gold.PLP.ligand.clash>
0.0000

> <Gold.PLP.ligand.torsion>
0.9002

> <Gold.PLP.Chemscore.Hbond>
1.9280

> <Gold.PLP.Chemscore.CHOScore>
0.0000

> <Gold.PLP.Chemscore.Metal>
0.0000

> <Gold.Chemscore.Hbonds>
donor molecule, donor type, donor heavy atom, donor atom, acceptor molecule, acceptor atom, score
      L1  H     5    25       P1  7948  1.00
      L1  H     8    26       P1  7948  0.96

> <Gold.PLP.Chemscore.Internal.Correction>
0.0312

> <Gold.Rescore>
     Score         DG    S(hbond)    S(metal)    S(lipo)     H(rot)  DE(clash)    DE(int)     intcor
     17.61     -18.47       1.94        0.00      91.89       1.66       0.02       0.83       ----

> <Gold.Chemscore.Fitness>
17.6109

> <Gold.Chemscore.DG>
-18.4693

> <Gold.Chemscore.ZeroCoef>
-5.4800

> <Gold.Chemscore.Hbond>
1.9406

> <Gold.Chemscore.Metal>
0.0000

> <Gold.Chemscore.Lipo>
91.8911

> <Gold.Chemscore.Internal_Hbond>
0.0000

> <Gold.Chemscore.DEClash>
0.0234

> <Gold.Chemscore.DEInternal>
0.8349

> <Gold.Chemscore.Rot>
1.6576

> <Gold.Chemscore.Internal.Correction>
   9.000000E+99

> <Gold.Chemscore.Hbonds>
donor molecule, donor type, donor heavy atom, donor atom, acceptor molecule, acceptor atom, score
      L1  H     5    25       P1  7948  0.99
      L1  H     8    26       P1  7948  0.92

> <Gold.Chemscore.Hbond.Weighted>
-6.4816

> <Gold.Chemscore.Metal.Weighted>
-0.0000

> <Gold.Chemscore.Lipo.Weighted>
-10.7513

> <Gold.Chemscore.Internal_Hbond.Weighted>
0.0000

> <Gold.Chemscore.DEClash.Weighted>
0.0234

> <Gold.Chemscore.DEInternal.Weighted>
0.8349

> <Gold.Chemscore.Rot.Weighted>
4.2436

> <Gold.Chemscore.Internal.Correction.Weighted>
   9.000000E+99

> <Gold.Protein.RotatedTorsions>
[ 6907 6896 6895 6894 ] final  -73.20 input  -60.11 | X-H torsion
[ 7974 7965 7964 7962 ] final  105.28 input  175.53 | X-H torsion
[ 8008 7997 7996 7995 ] final   -5.60 input   59.86 | X-H torsion
[ 10167 10162 10161 10158 ] final -126.43 input  -65.29 | X-H torsion
[ 10718 10713 10712 10709 ] final   43.78 input   66.30 | X-H torsion
[ 10763 10752 10751 10750 ] final -118.72 input  -60.55 | X-H torsion
[ 11005 11000 10999 10996 ] final   33.92 input  -57.11 | X-H torsion

> <Gold.Protein.ActiveResidues>
 VAL166  LYS551  ARG553  GLY616  TRP617  ASP618  TYR619  PRO620  LYS621  CYS622 
 ASP623  PHE694  ASN695  SER759  ASP760  ASP761  ALA762  ILE779  LEU786  VAL792 
 PHE793  MET794  SER795  GLU796  ALA797  LYS798  CYS799  TRP800  GLU811  SER814 

> <Gold.Protein.RotatedAtoms>
  150.7139  134.5051  159.5579 H   0  0  0  0  0  0  0  0  0  0  0  0  # atno 6907 bound_to 6896
  152.2640  134.8001  160.0435 H   0  0  0  0  0  0  0  0  0  0  0  0  # atno 6908 bound_to 6896
  151.8704  133.3439  159.3770 H   0  0  0  0  0  0  0  0  0  0  0  0  # atno 6909 bound_to 6896
  145.3218  139.2511  143.3708 H   0  0  0  0  0  0  0  0  0  0  0  0  # atno 7974 bound_to 7965
  154.6022  140.2454  155.7778 H   0  0  0  0  0  0  0  0  0  0  0  0  # atno 8008 bound_to 7997
  156.2318  140.2964  156.0160 H   0  0  0  0  0  0  0  0  0  0  0  0  # atno 8009 bound_to 7997
  155.2192  140.0400  157.2936 H   0  0  0  0  0  0  0  0  0  0  0  0  # atno 8010 bound_to 7997
  139.9716  143.5840  152.2411 H   0  0  0  0  0  0  0  0  0  0  0  0  # atno 10167 bound_to 10162
  157.4197  130.7962  149.7504 H   0  0  0  0  0  0  0  0  0  0  0  0  # atno 10718 bound_to 10713
  154.8596  135.4264  154.2184 H   0  0  0  0  0  0  0  0  0  0  0  0  # atno 10763 bound_to 10752
  153.3194  135.6981  153.7050 H   0  0  0  0  0  0  0  0  0  0  0  0  # atno 10764 bound_to 10752
  153.6111  135.3519  155.2952 H   0  0  0  0  0  0  0  0  0  0  0  0  # atno 10765 bound_to 10752
  140.2581  134.3224  155.7867 H   0  0  0  0  0  0  0  0  0  0  0  0  # atno 11005 bound_to 11000
  146.3079  140.3777  142.8680 LP  0  0  0  0  0  0  0  0  0  0  0  0  # atno 17320 bound_to 7965
  144.8933  140.7552  143.5913 LP  0  0  0  0  0  0  0  0  0  0  0  0  # atno 17321 bound_to 7965
  139.6477  144.7659  151.2210 LP  0  0  0  0  0  0  0  0  0  0  0  0  # atno 17342 bound_to 10162
  140.7520  143.6212  150.8512 LP  0  0  0  0  0  0  0  0  0  0  0  0  # atno 17343 bound_to 10162
  155.9876  130.3965  150.3155 LP  0  0  0  0  0  0  0  0  0  0  0  0  # atno 17370 bound_to 10713
  157.1302  131.0270  151.2972 LP  0  0  0  0  0  0  0  0  0  0  0  0  # atno 17371 bound_to 10713
  141.2193  133.7393  156.9144 LP  0  0  0  0  0  0  0  0  0  0  0  0  # atno 17394 bound_to 11000
  140.1491  134.9242  157.2569 LP  0  0  0  0  0  0  0  0  0  0  0  0  # atno 17395 bound_to 11000

$$$$
