AV-unprocessed.smi:2872|AV-procd|sdf|11035|dock3
  -GOLD-   2272015503D 1   1.00000     0.00000
 Structure written by MMmdl.
 40 42  0  0  0  0  0  0  0  0  2 V2000
  153.3167  138.8068  156.5709 O   0  0  0  0  0  0  0  0  0  0  0  0
  152.6491  137.7933  156.7702 C   0  0  0  0  0  0  0  0  0  0  0  0
  151.8284  137.2401  155.8658 N   0  0  0  0  0  0  0  0  0  0  0  0
  151.6443  137.7213  154.4997 C   0  0  0  0  0  0  0  0  0  0  0  0
  150.5107  138.6890  154.3304 C   0  0  0  0  0  0  0  0  0  0  0  0
  149.4219  138.5484  153.5190 N   0  3  0  0  0  0  0  0  0  0  0  0
  148.5937  139.6650  153.6358 C   0  0  0  0  0  0  0  0  0  0  0  0
  147.3882  139.9763  153.0144 C   0  0  0  0  0  0  0  0  0  0  0  0
  146.8002  141.2119  153.3573 C   0  0  0  0  0  0  0  0  0  0  0  0
  147.4098  142.0832  154.2837 C   0  0  0  0  0  0  0  0  0  0  0  0
  148.6311  141.7553  154.9087 C   0  0  0  0  0  0  0  0  0  0  0  0
  149.2039  140.5312  154.5650 C   0  0  0  0  0  0  0  0  0  0  0  0
  150.3768  139.8858  154.9708 N   0  0  0  0  0  0  0  0  0  0  0  0
  151.2480  140.5362  155.9575 C   0  0  0  0  0  0  0  0  0  0  0  0
  150.5677  140.6674  157.3252 C   0  0  0  0  0  0  0  0  0  0  0  0
  151.5716  140.8881  158.3050 O   0  0  0  0  0  0  0  0  0  0  0  0
  151.8293  142.1850  158.6938 C   0  0  0  0  0  0  0  0  0  0  0  0
  151.5666  143.1994  157.7498 C   0  0  0  0  0  0  0  0  0  0  0  0
  151.8000  144.5527  158.0614 C   0  0  0  0  0  0  0  0  0  0  0  0
  152.3015  144.9063  159.3276 C   0  0  0  0  0  0  0  0  0  0  0  0
  152.5691  143.9048  160.2792 C   0  0  0  0  0  0  0  0  0  0  0  0
  152.3352  142.5509  159.9673 C   0  0  0  0  0  0  0  0  0  0  0  0
  152.6413  137.2217  157.7110 H   0  0  0  0  0  0  0  0  0  0  0  0
  151.3205  136.4083  156.1305 H   0  0  0  0  0  0  0  0  0  0  0  0
  152.5635  138.1824  154.1345 H   0  0  0  0  0  0  0  0  0  0  0  0
  151.4595  136.8556  153.8632 H   0  0  0  0  0  0  0  0  0  0  0  0
  146.9202  139.3107  152.3040 H   0  0  0  0  0  0  0  0  0  0  0  0
  145.8638  141.4974  152.9001 H   0  0  0  0  0  0  0  0  0  0  0  0
  146.9313  143.0225  154.5202 H   0  0  0  0  0  0  0  0  0  0  0  0
  149.0908  142.4296  155.6162 H   0  0  0  0  0  0  0  0  0  0  0  0
  152.1792  139.9735  156.0325 H   0  0  0  0  0  0  0  0  0  0  0  0
  151.5124  141.5217  155.5727 H   0  0  0  0  0  0  0  0  0  0  0  0
  149.8655  141.5026  157.3093 H   0  0  0  0  0  0  0  0  0  0  0  0
  150.0118  139.7568  157.5534 H   0  0  0  0  0  0  0  0  0  0  0  0
  151.1819  142.9366  156.7753 H   0  0  0  0  0  0  0  0  0  0  0  0
  151.5939  145.3189  157.3286 H   0  0  0  0  0  0  0  0  0  0  0  0
  152.4810  145.9437  159.5684 H   0  0  0  0  0  0  0  0  0  0  0  0
  152.9544  144.1751  161.2513 H   0  0  0  0  0  0  0  0  0  0  0  0
  152.5526  141.8123  160.7236 H   0  0  0  0  0  0  0  0  0  0  0  0
  149.2598  137.7404  152.9316 H   0  0  0  0  0  0  0  0  0  0  0  0
  1  2  2  0  0  0  0
  2  3  1  0  0  0  0
  2 23  1  0  0  0  0
  3  4  1  0  0  0  0
  3 24  1  0  0  0  0
  4  5  1  0  0  0  0
  4 25  1  0  0  0  0
  4 26  1  0  0  0  0
  5 13  1  0  0  0  0
  5  6  2  0  0  0  0
  6  7  1  0  0  0  0
  6 40  1  0  0  0  0
  7 12  2  0  0  0  0
  7  8  1  0  0  0  0
  8  9  2  0  0  0  0
  8 27  1  0  0  0  0
  9 10  1  0  0  0  0
  9 28  1  0  0  0  0
 10 11  2  0  0  0  0
 10 29  1  0  0  0  0
 11 12  1  0  0  0  0
 11 30  1  0  0  0  0
 12 13  1  0  0  0  0
 13 14  1  0  0  0  0
 14 15  1  0  0  0  0
 14 31  1  0  0  0  0
 14 32  1  0  0  0  0
 15 16  1  0  0  0  0
 15 33  1  0  0  0  0
 15 34  1  0  0  0  0
 16 17  1  0  0  0  0
 17 22  1  0  0  0  0
 17 18  2  0  0  0  0
 18 19  1  0  0  0  0
 18 35  1  0  0  0  0
 19 20  2  0  0  0  0
 19 36  1  0  0  0  0
 20 21  1  0  0  0  0
 20 37  1  0  0  0  0
 21 22  2  0  0  0  0
 21 38  1  0  0  0  0
 22 39  1  0  0  0  0
M  CHG  1   6   1
M  END
> <s_m_source_file>
AV-unprocessed.smi

> <i_m_source_file_index>
2872

> <i_lp_mmshare_version>
43012

> <i_f3d_flags>
0

> <s_epik_input>
Tz1bQ0hdW05IXVtDSDJdYyhuMSluKGMoYzEyKVtjSF1bY0hdW2NIXVtjSF0yKVtDSDJdW0NIMl1PYzNbY0hdW2NIXVtjSF1bY0hdW2NIXTM=

> <s_epik_cmdline>
J2VwaWtfcHl0aG9uJywgJy1waCcsICc3LjAnLCAnLXRuJywgJzgnLCAnLW1hJywgJzIwMCcsICctbWV0YWxfYmluZGluZycsICctaW1hZScsICc8aW5maWxlLm1hZT4nLCAnLW9tYWUnLCAnPG91dGZpbGUubWFlPic=

> <r_lp_tautomer_probability>
1

> <r_epik_Ionization_Penalty>
1.33318

> <r_epik_Ionization_Penalty_Charging>
1.33318

> <r_epik_Ionization_Penalty_Neutral>
7.38905e-08

> <r_epik_State_Penalty>
1.40978

> <r_epik_Charging_Adjusted_Penalty>
2.74296

> <i_epik_Tot_Q>
1

> <i_epik_Tot_abs_Q>
1

> <r_epik_Metal_State_Penalty>
1.46995

> <b_epik_Metal_Only>
0

> <s_lp_Force_Field>
OPLS_2005

> <r_lp_Energy>
15.6009

> <b_lp_Chiralities_Consistent>
1

> <s_lp_Variant>
AV-unprocessed.smi:2872-2

> <Gold.Version>
5.8.1

> <Gold.Id.Protein>
6NUR|6NUR_protein|mol2

> <Gold.PLP.Fitness>
58.2448

> <Gold.PLP.PLP>
-50.9503

> <Gold.PLP.part.hbond>
-2.8207

> <Gold.PLP.part.metal>
0.0000

> <Gold.PLP.part.buried>
0.2681

> <Gold.PLP.part.nonpolar>
-48.5422

> <Gold.PLP.part.repulsive>
0.1853

> <Gold.PLP.ligand.clash>
0.0000

> <Gold.PLP.ligand.torsion>
0.9183

> <Gold.PLP.Chemscore.Hbond>
3.0000

> <Gold.PLP.Chemscore.CHOScore>
0.0000

> <Gold.PLP.Chemscore.Metal>
0.0000

> <Gold.Chemscore.Hbonds>
donor molecule, donor type, donor heavy atom, donor atom, acceptor molecule, acceptor atom, score
      L1  H     6    40       P1  7948  2.00
      P1  H  7997  8008       L1     1  1.00

> <Gold.PLP.Chemscore.Internal.Correction>
0.1311

> <Gold.Rescore>
     Score         DG    S(hbond)    S(metal)    S(lipo)     H(rot)  DE(clash)    DE(int)     intcor
     19.40     -20.64       1.92        0.00     129.25       2.49       0.34       0.90       ----

> <Gold.Chemscore.Fitness>
19.3996

> <Gold.Chemscore.DG>
-20.6379

> <Gold.Chemscore.ZeroCoef>
-5.4800

> <Gold.Chemscore.Hbond>
1.9155

> <Gold.Chemscore.Metal>
0.0000

> <Gold.Chemscore.Lipo>
129.2548

> <Gold.Chemscore.Internal_Hbond>
0.0000

> <Gold.Chemscore.DEClash>
0.3396

> <Gold.Chemscore.DEInternal>
0.8987

> <Gold.Chemscore.Rot>
2.4854

> <Gold.Chemscore.Internal.Correction>
   9.000000E+99

> <Gold.Chemscore.Hbonds>
donor molecule, donor type, donor heavy atom, donor atom, acceptor molecule, acceptor atom, score
      L1  H     6    40       P1  7948  0.97
      P1  H  7997  8008       L1     1  0.95

> <Gold.Chemscore.Hbond.Weighted>
-6.3977

> <Gold.Chemscore.Metal.Weighted>
-0.0000

> <Gold.Chemscore.Lipo.Weighted>
-15.1228

> <Gold.Chemscore.Internal_Hbond.Weighted>
0.0000

> <Gold.Chemscore.DEClash.Weighted>
0.3396

> <Gold.Chemscore.DEInternal.Weighted>
0.8987

> <Gold.Chemscore.Rot.Weighted>
6.3627

> <Gold.Chemscore.Internal.Correction.Weighted>
   9.000000E+99

> <Gold.Protein.RotatedTorsions>
[ 6907 6896 6895 6894 ] final -167.96 input  -60.11 | X-H torsion
[ 7974 7965 7964 7962 ] final   59.34 input  175.53 | X-H torsion
[ 8008 7997 7996 7995 ] final  -63.42 input   59.86 | X-H torsion
[ 10167 10162 10161 10158 ] final  -49.79 input  -65.29 | X-H torsion
[ 10718 10713 10712 10709 ] final  168.16 input   66.30 | X-H torsion
[ 10763 10752 10751 10750 ] final -133.62 input  -60.55 | X-H torsion
[ 11005 11000 10999 10996 ] final   58.90 input  -57.11 | X-H torsion

> <Gold.Protein.ActiveResidues>
 VAL166  LYS551  ARG553  GLY616  TRP617  ASP618  TYR619  PRO620  LYS621  CYS622 
 ASP623  PHE694  ASN695  SER759  ASP760  ASP761  ALA762  ILE779  LEU786  VAL792 
 PHE793  MET794  SER795  GLU796  ALA797  LYS798  CYS799  TRP800  GLU811  SER814 

> <Gold.Protein.RotatedAtoms>
  151.4679  133.3576  159.2818 H   0  0  0  0  0  0  0  0  0  0  0  0  # atno 6907 bound_to 6896
  150.8980  134.8392  159.7351 H   0  0  0  0  0  0  0  0  0  0  0  0  # atno 6908 bound_to 6896
  152.4863  134.4597  159.9653 H   0  0  0  0  0  0  0  0  0  0  0  0  # atno 6909 bound_to 6896
  145.9083  139.3634  143.0551 H   0  0  0  0  0  0  0  0  0  0  0  0  # atno 7974 bound_to 7965
  154.4554  140.0975  156.6740 H   0  0  0  0  0  0  0  0  0  0  0  0  # atno 8008 bound_to 7997
  155.5156  140.3477  155.4378 H   0  0  0  0  0  0  0  0  0  0  0  0  # atno 8009 bound_to 7997
  156.0766  140.1362  156.9753 H   0  0  0  0  0  0  0  0  0  0  0  0  # atno 8010 bound_to 7997
  140.6668  143.2683  151.4266 H   0  0  0  0  0  0  0  0  0  0  0  0  # atno 10167 bound_to 10162
  157.0411  131.0287  151.2713 H   0  0  0  0  0  0  0  0  0  0  0  0  # atno 10718 bound_to 10713
  154.8730  135.3760  154.4603 H   0  0  0  0  0  0  0  0  0  0  0  0  # atno 10763 bound_to 10752
  153.5271  135.7028  153.5707 H   0  0  0  0  0  0  0  0  0  0  0  0  # atno 10764 bound_to 10752
  153.3928  135.3968  155.1900 H   0  0  0  0  0  0  0  0  0  0  0  0  # atno 10765 bound_to 10752
  140.0344  134.5965  155.9464 H   0  0  0  0  0  0  0  0  0  0  0  0  # atno 11005 bound_to 11000
  145.8704  140.9423  143.0653 LP  0  0  0  0  0  0  0  0  0  0  0  0  # atno 17320 bound_to 7965
  144.6741  140.0647  143.7475 LP  0  0  0  0  0  0  0  0  0  0  0  0  # atno 17321 bound_to 7965
  139.5920  144.1478  152.2100 LP  0  0  0  0  0  0  0  0  0  0  0  0  # atno 17342 bound_to 10162
  140.0836  144.5680  150.7105 LP  0  0  0  0  0  0  0  0  0  0  0  0  # atno 17343 bound_to 10162
  157.5104  130.7935  149.7699 LP  0  0  0  0  0  0  0  0  0  0  0  0  # atno 17370 bound_to 10713
  156.0038  130.3866  150.2507 LP  0  0  0  0  0  0  0  0  0  0  0  0  # atno 17371 bound_to 10713
  141.1849  133.6554  156.5175 LP  0  0  0  0  0  0  0  0  0  0  0  0  # atno 17394 bound_to 11000
  140.4173  134.7219  157.4870 LP  0  0  0  0  0  0  0  0  0  0  0  0  # atno 17395 bound_to 11000

$$$$
