AV-unprocessed.smi:1492|AV-procd|sdf|6040|dock10
  -GOLD-   22720 6153D 1   1.00000     0.00000
 Structure written by MMmdl.
 52 53  0  0  0  0  0  0  0  0  1 V2000
  142.6781  137.4644  153.6210 C   0  0  0  0  0  0  0  0  0  0  0  0
  143.4744  136.1610  153.4259 C   0  0  0  0  0  0  0  0  0  0  0  0
  144.9905  136.3107  153.0819 C   0  0  1  0  0  0  0  0  0  0  0  0
  145.1502  137.4105  151.9975 C   0  0  0  0  0  0  0  0  0  0  0  0
  145.7483  136.8298  154.3433 C   0  0  0  0  0  0  0  0  0  0  0  0
  147.0444  137.4026  153.9894 N   0  0  0  0  0  0  0  0  0  0  0  0
  147.5520  138.5546  154.4499 C   0  0  0  0  0  0  0  0  0  0  0  0
  146.9139  139.3710  155.1135 O   0  0  0  0  0  0  0  0  0  0  0  0
  149.0306  138.7919  154.1480 C   0  0  0  0  0  0  0  0  0  0  0  0
  149.6335  139.9926  154.8757 C   0  0  0  0  0  0  0  0  0  0  0  0
  149.1482  141.2535  154.7467 C   0  0  0  0  0  0  0  0  0  0  0  0
  147.9693  141.6328  153.8683 C   0  0  0  0  0  0  0  0  0  0  0  0
  149.7048  142.3099  155.4457 N   0  0  0  0  0  0  0  0  0  0  0  0
  150.7620  142.0383  156.2977 C   0  0  0  0  0  0  0  0  0  0  0  0
  151.2745  143.2549  157.0368 C   0  0  0  0  0  0  0  0  0  0  0  0
  151.2949  140.8703  156.4892 N   0  0  0  0  0  0  0  0  0  0  0  0
  150.7756  139.7670  155.7938 C   0  0  0  0  0  0  0  0  0  0  0  0
  151.2564  138.6466  155.9593 O   0  0  0  0  0  0  0  0  0  0  0  0
  145.5878  135.0295  152.6006 N   0  0  0  0  0  0  0  0  0  0  0  0
  145.7847  134.0043  153.6325 C   0  0  0  0  0  0  0  0  0  0  0  0
  146.5559  132.7886  153.0935 C   0  0  0  0  0  0  0  0  0  0  0  0
  145.8679  132.2420  151.9750 O   0  0  0  0  0  0  0  0  0  0  0  0
  145.6934  133.1880  150.9271 C   0  0  0  0  0  0  0  0  0  0  0  0
  144.9194  134.4105  151.4502 C   0  0  0  0  0  0  0  0  0  0  0  0
  149.3080  143.2309  155.3259 H   0  0  0  0  0  0  0  0  0  0  0  0
  141.6353  137.2381  153.8436 H   0  0  0  0  0  0  0  0  0  0  0  0
  142.6847  138.0864  152.7265 H   0  0  0  0  0  0  0  0  0  0  0  0
  143.0586  138.0568  154.4523 H   0  0  0  0  0  0  0  0  0  0  0  0
  143.3578  135.5749  154.3371 H   0  0  0  0  0  0  0  0  0  0  0  0
  142.9721  135.5930  152.6435 H   0  0  0  0  0  0  0  0  0  0  0  0
  144.9626  138.4083  152.3944 H   0  0  0  0  0  0  0  0  0  0  0  0
  144.4554  137.2722  151.1687 H   0  0  0  0  0  0  0  0  0  0  0  0
  146.1589  137.4214  151.5822 H   0  0  0  0  0  0  0  0  0  0  0  0
  145.1844  137.6197  154.8390 H   0  0  0  0  0  0  0  0  0  0  0  0
  145.8490  136.0415  155.0904 H   0  0  0  0  0  0  0  0  0  0  0  0
  147.6564  136.8121  153.4451 H   0  0  0  0  0  0  0  0  0  0  0  0
  149.5930  137.8852  154.3747 H   0  0  0  0  0  0  0  0  0  0  0  0
  149.1453  138.9266  153.0724 H   0  0  0  0  0  0  0  0  0  0  0  0
  147.0782  141.0823  154.1700 H   0  0  0  0  0  0  0  0  0  0  0  0
  148.1815  141.4043  152.8237 H   0  0  0  0  0  0  0  0  0  0  0  0
  147.7426  142.6973  153.9377 H   0  0  0  0  0  0  0  0  0  0  0  0
  152.1309  142.9990  157.6618 H   0  0  0  0  0  0  0  0  0  0  0  0
  150.4940  143.6640  157.6791 H   0  0  0  0  0  0  0  0  0  0  0  0
  151.5853  144.0265  156.3318 H   0  0  0  0  0  0  0  0  0  0  0  0
  146.3366  134.4013  154.4818 H   0  0  0  0  0  0  0  0  0  0  0  0
  144.8223  133.6632  154.0143 H   0  0  0  0  0  0  0  0  0  0  0  0
  147.5677  133.0719  152.8045 H   0  0  0  0  0  0  0  0  0  0  0  0
  146.6464  132.0239  153.8650 H   0  0  0  0  0  0  0  0  0  0  0  0
  146.6648  133.4882  150.5330 H   0  0  0  0  0  0  0  0  0  0  0  0
  145.1492  132.7163  150.1090 H   0  0  0  0  0  0  0  0  0  0  0  0
  143.9107  134.0985  151.7202 H   0  0  0  0  0  0  0  0  0  0  0  0
  144.8236  135.1163  150.6271 H   0  0  0  0  0  0  0  0  0  0  0  0
  1  2  1  0  0  0  0
  1 26  1  0  0  0  0
  1 27  1  0  0  0  0
  1 28  1  0  0  0  0
  2  3  1  0  0  0  0
  2 29  1  0  0  0  0
  2 30  1  0  0  0  0
  3  4  1  0  0  0  0
  3  5  1  0  0  0  0
  3 19  1  0  0  0  0
  4 31  1  0  0  0  0
  4 32  1  0  0  0  0
  4 33  1  0  0  0  0
  5  6  1  0  0  0  0
  5 34  1  0  0  0  0
  5 35  1  0  0  0  0
  6  7  1  0  0  0  0
  6 36  1  0  0  0  0
  7  8  2  0  0  0  0
  7  9  1  0  0  0  0
  9 37  1  0  0  0  0
  9 38  1  0  0  0  0
  9 10  1  0  0  0  0
 10 17  1  0  0  0  0
 10 11  2  0  0  0  0
 11 12  1  0  0  0  0
 11 13  1  0  0  0  0
 12 39  1  0  0  0  0
 12 40  1  0  0  0  0
 12 41  1  0  0  0  0
 13 25  1  0  0  0  0
 13 14  1  0  0  0  0
 14 15  1  0  0  0  0
 14 16  2  0  0  0  0
 15 42  1  0  0  0  0
 15 43  1  0  0  0  0
 15 44  1  0  0  0  0
 16 17  1  0  0  0  0
 17 18  2  0  0  0  0
 19 24  1  0  0  0  0
 19 20  1  0  0  0  0
 20 21  1  0  0  0  0
 20 45  1  0  0  0  0
 20 46  1  0  0  0  0
 21 22  1  0  0  0  0
 21 47  1  0  0  0  0
 21 48  1  0  0  0  0
 22 23  1  0  0  0  0
 23 24  1  0  0  0  0
 23 49  1  0  0  0  0
 23 50  1  0  0  0  0
 24 51  1  0  0  0  0
 24 52  1  0  0  0  0
M  END
> <s_m_source_file>
AV-unprocessed.smi

> <i_m_source_file_index>
1492

> <i_lp_mmshare_version>
43012

> <i_f3d_flags>
0

> <s_epik_input>
W0NIMl0xW0NIMl1PW0NIMl1bQ0gyXU4xW0NAQF0oW0NIM10pKFtDSDJdW0NIM10pW0NIMl1bTkhdQyg9TylbQ0gyXWMyYyhbQ0gzXSluYyhbQ0gzXSlbbkhdYzI9Tw==

> <s_epik_cmdline>
J2VwaWtfcHl0aG9uJywgJy1waCcsICc3LjAnLCAnLXRuJywgJzgnLCAnLW1hJywgJzIwMCcsICctbWV0YWxfYmluZGluZycsICctaW1hZScsICc8aW5maWxlLm1hZT4nLCAnLW9tYWUnLCAnPG91dGZpbGUubWFlPic=

> <r_lp_tautomer_probability>
0.156392

> <r_epik_Ionization_Penalty>
0.342516

> <r_epik_Ionization_Penalty_Charging>
0.0141408

> <r_epik_Ionization_Penalty_Neutral>
0.328375

> <r_epik_State_Penalty>
1.47662

> <r_epik_Charging_Adjusted_Penalty>
1.49076

> <i_epik_Tot_Q>
0

> <i_epik_Tot_abs_Q>
0

> <r_epik_Metal_State_Penalty>
1.65506

> <b_epik_Metal_Only>
0

> <s_lp_Force_Field>
OPLS_2005

> <r_lp_Energy>
46.8903

> <b_lp_Chiralities_Consistent>
1

> <s_lp_Variant>
AV-unprocessed.smi:1492-5

> <Gold.Version>
5.8.1

> <Gold.Id.Protein>
6NUR|6NUR_protein|mol2

> <Gold.PLP.Fitness>
40.7471

> <Gold.PLP.PLP>
-35.9430

> <Gold.PLP.part.hbond>
-2.0000

> <Gold.PLP.part.metal>
0.0000

> <Gold.PLP.part.buried>
-3.3836

> <Gold.PLP.part.nonpolar>
-32.4891

> <Gold.PLP.part.repulsive>
1.9690

> <Gold.PLP.ligand.clash>
0.0443

> <Gold.PLP.ligand.torsion>
0.6256

> <Gold.PLP.Chemscore.Hbond>
2.0000

> <Gold.PLP.Chemscore.CHOScore>
0.0000

> <Gold.PLP.Chemscore.Metal>
0.0000

> <Gold.Chemscore.Hbonds>
donor molecule, donor type, donor heavy atom, donor atom, acceptor molecule, acceptor atom, score
      L1  H     6    36       P1  7948  0.76
      L1  H    13    25       P1  8028  1.00

> <Gold.PLP.Chemscore.Internal.Correction>
0.0996

> <Gold.Rescore>
     Score         DG    S(hbond)    S(metal)    S(lipo)     H(rot)  DE(clash)    DE(int)     intcor
     14.54     -15.74       2.00        0.00      76.89       2.12       0.36       0.83       ----

> <Gold.Chemscore.Fitness>
14.5412

> <Gold.Chemscore.DG>
-15.7351

> <Gold.Chemscore.ZeroCoef>
-5.4800

> <Gold.Chemscore.Hbond>
1.9985

> <Gold.Chemscore.Metal>
0.0000

> <Gold.Chemscore.Lipo>
76.8883

> <Gold.Chemscore.Internal_Hbond>
0.0000

> <Gold.Chemscore.DEClash>
0.3595

> <Gold.Chemscore.DEInternal>
0.8344

> <Gold.Chemscore.Rot>
2.1155

> <Gold.Chemscore.Internal.Correction>
   9.000000E+99

> <Gold.Chemscore.Hbonds>
donor molecule, donor type, donor heavy atom, donor atom, acceptor molecule, acceptor atom, score
      L1  H     6    36       P1  7948  0.74
      L1  H    13    25       P1  8028  0.97

> <Gold.Chemscore.Hbond.Weighted>
-6.6749

> <Gold.Chemscore.Metal.Weighted>
-0.0000

> <Gold.Chemscore.Lipo.Weighted>
-8.9959

> <Gold.Chemscore.Internal_Hbond.Weighted>
0.0000

> <Gold.Chemscore.DEClash.Weighted>
0.3595

> <Gold.Chemscore.DEInternal.Weighted>
0.8344

> <Gold.Chemscore.Rot.Weighted>
5.4157

> <Gold.Chemscore.Internal.Correction.Weighted>
   9.000000E+99

> <Gold.Protein.RotatedTorsions>
[ 6907 6896 6895 6894 ] final -134.86 input  -60.11 | X-H torsion
[ 7974 7965 7964 7962 ] final -119.64 input  175.53 | X-H torsion
[ 8008 7997 7996 7995 ] final   69.66 input   59.86 | X-H torsion
[ 10167 10162 10161 10158 ] final   77.98 input  -65.29 | X-H torsion
[ 10718 10713 10712 10709 ] final   84.34 input   66.30 | X-H torsion
[ 10763 10752 10751 10750 ] final  -97.23 input  -60.55 | X-H torsion
[ 11005 11000 10999 10996 ] final    2.63 input  -57.11 | X-H torsion

> <Gold.Protein.ActiveResidues>
 VAL166  LYS551  ARG553  GLY616  TRP617  ASP618  TYR619  PRO620  LYS621  CYS622 
 ASP623  PHE694  ASN695  SER759  ASP760  ASP761  ALA762  ILE779  LEU786  VAL792 
 PHE793  MET794  SER795  GLU796  ALA797  LYS798  CYS799  TRP800  GLU811  SER814 

> <Gold.Protein.RotatedAtoms>
  150.9909  133.6150  159.2708 H   0  0  0  0  0  0  0  0  0  0  0  0  # atno 6907 bound_to 6896
  151.3371  135.0854  159.9368 H   0  0  0  0  0  0  0  0  0  0  0  0  # atno 6908 bound_to 6896
  152.5245  133.9527  159.7734 H   0  0  0  0  0  0  0  0  0  0  0  0  # atno 6909 bound_to 6896
  145.0603  140.8285  143.4156 H   0  0  0  0  0  0  0  0  0  0  0  0  # atno 7974 bound_to 7965
  155.7270  140.3492  155.5042 H   0  0  0  0  0  0  0  0  0  0  0  0  # atno 8008 bound_to 7997
  155.9217  140.1068  157.1223 H   0  0  0  0  0  0  0  0  0  0  0  0  # atno 8009 bound_to 7997
  154.4071  140.1248  156.4675 H   0  0  0  0  0  0  0  0  0  0  0  0  # atno 8010 bound_to 7997
  139.9757  144.5862  150.7945 H   0  0  0  0  0  0  0  0  0  0  0  0  # atno 10167 bound_to 10162
  157.6896  131.0129  150.2659 H   0  0  0  0  0  0  0  0  0  0  0  0  # atno 10718 bound_to 10713
  154.7310  135.5054  153.8963 H   0  0  0  0  0  0  0  0  0  0  0  0  # atno 10763 bound_to 10752
  153.0949  135.6669  153.9790 H   0  0  0  0  0  0  0  0  0  0  0  0  # atno 10764 bound_to 10752
  153.9591  135.3050  155.3414 H   0  0  0  0  0  0  0  0  0  0  0  0  # atno 10765 bound_to 10752
  140.6022  133.9826  155.8137 H   0  0  0  0  0  0  0  0  0  0  0  0  # atno 11005 bound_to 11000
  145.1417  139.2568  143.5487 LP  0  0  0  0  0  0  0  0  0  0  0  0  # atno 17320 bound_to 7965
  146.3524  140.1096  142.8604 LP  0  0  0  0  0  0  0  0  0  0  0  0  # atno 17321 bound_to 7965
  140.7506  143.2959  151.3207 LP  0  0  0  0  0  0  0  0  0  0  0  0  # atno 17342 bound_to 10162
  139.6447  144.0473  152.2581 LP  0  0  0  0  0  0  0  0  0  0  0  0  # atno 17343 bound_to 10162
  156.3230  130.3788  149.7558 LP  0  0  0  0  0  0  0  0  0  0  0  0  # atno 17370 bound_to 10713
  156.5122  130.8177  151.3173 LP  0  0  0  0  0  0  0  0  0  0  0  0  # atno 17371 bound_to 10713
  141.0865  133.9983  157.3305 LP  0  0  0  0  0  0  0  0  0  0  0  0  # atno 17394 bound_to 11000
  139.9228  135.0201  156.8125 LP  0  0  0  0  0  0  0  0  0  0  0  0  # atno 17395 bound_to 11000

$$$$
