AV-unprocessed.smi:995|AV-procd|sdf|4346|dock2
  -GOLD-   22720 2243D 1   1.00000     0.00000
 Structure written by MMmdl.
 37 38  0  0  0  0  0  0  0  0  1 V2000
  151.2100  135.2651  156.0857 O   0  0  0  0  0  0  0  0  0  0  0  0
  150.4942  135.4026  155.0935 C   0  0  0  0  0  0  0  0  0  0  0  0
  150.1624  136.5928  154.5580 N   0  0  0  0  0  0  0  0  0  0  0  0
  150.4891  137.8981  155.0157 C   0  0  0  0  0  0  0  0  0  0  0  0
  151.3242  138.0117  156.1454 C   0  0  0  0  0  0  0  0  0  0  0  0
  151.6804  139.2914  156.6107 C   0  0  0  0  0  0  0  0  0  0  0  0
  151.1964  140.4224  155.9240 C   0  0  0  0  0  0  0  0  0  0  0  0
  151.5464  141.6743  156.3860 O   0  0  0  0  0  0  0  0  0  0  0  0
  151.9849  141.8042  157.7360 C   0  0  0  0  0  0  0  0  0  0  0  0
  151.5743  143.1842  158.2709 C   0  0  0  0  0  0  0  0  0  0  0  0
  152.0883  144.1324  157.4862 F   0  0  0  0  0  0  0  0  0  0  0  0
  150.2430  143.2604  158.2477 F   0  0  0  0  0  0  0  0  0  0  0  0
  152.0436  143.4164  159.7160 C   0  0  0  0  0  0  0  0  0  0  0  0
  153.3657  143.2798  159.8214 F   0  0  0  0  0  0  0  0  0  0  0  0
  151.6879  144.6297  160.1386 F   0  0  0  0  0  0  0  0  0  0  0  0
  150.4058  140.3245  154.8270 N   0  0  0  0  0  0  0  0  0  0  0  0
  150.0666  139.0944  154.3861 C   0  0  0  0  0  0  0  0  0  0  0  0
  149.9657  134.1644  154.3529 C   0  0  1  0  0  0  0  0  0  0  0  0
  150.2236  132.8481  155.1228 C   0  0  0  0  0  0  0  0  0  0  0  0
  149.6730  131.7594  154.3926 O   0  0  0  0  0  0  0  0  0  0  0  0
  148.2729  131.9139  154.2090 C   0  0  0  0  0  0  0  0  0  0  0  0
  148.0137  133.2137  153.4311 C   0  0  0  0  0  0  0  0  0  0  0  0
  148.5597  134.3053  154.1594 O   0  0  0  0  0  0  0  0  0  0  0  0
  149.6467  136.5532  153.6906 H   0  0  0  0  0  0  0  0  0  0  0  0
  151.6863  137.1305  156.6545 H   0  0  0  0  0  0  0  0  0  0  0  0
  152.3138  139.4038  157.4783 H   0  0  0  0  0  0  0  0  0  0  0  0
  151.5374  141.0240  158.3542 H   0  0  0  0  0  0  0  0  0  0  0  0
  153.0694  141.6936  157.7896 H   0  0  0  0  0  0  0  0  0  0  0  0
  151.5940  142.6940  160.3978 H   0  0  0  0  0  0  0  0  0  0  0  0
  149.4597  139.0889  153.4944 H   0  0  0  0  0  0  0  0  0  0  0  0
  150.4602  134.1259  153.3805 H   0  0  0  0  0  0  0  0  0  0  0  0
  151.2931  132.6720  155.2427 H   0  0  0  0  0  0  0  0  0  0  0  0
  149.7893  132.8834  156.1236 H   0  0  0  0  0  0  0  0  0  0  0  0
  147.8887  131.0572  153.6554 H   0  0  0  0  0  0  0  0  0  0  0  0
  147.7642  131.9292  155.1742 H   0  0  0  0  0  0  0  0  0  0  0  0
  148.4539  133.1670  152.4338 H   0  0  0  0  0  0  0  0  0  0  0  0
  146.9426  133.3715  153.3035 H   0  0  0  0  0  0  0  0  0  0  0  0
  1  2  2  0  0  0  0
  2  3  1  0  0  0  0
  2 18  1  0  0  0  0
  3  4  1  0  0  0  0
  3 24  1  0  0  0  0
  4 17  1  0  0  0  0
  4  5  2  0  0  0  0
  5  6  1  0  0  0  0
  5 25  1  0  0  0  0
  6  7  2  0  0  0  0
  6 26  1  0  0  0  0
  7  8  1  0  0  0  0
  7 16  1  0  0  0  0
  8  9  1  0  0  0  0
  9 10  1  0  0  0  0
  9 27  1  0  0  0  0
  9 28  1  0  0  0  0
 10 11  1  0  0  0  0
 10 12  1  0  0  0  0
 10 13  1  0  0  0  0
 13 14  1  0  0  0  0
 13 15  1  0  0  0  0
 13 29  1  0  0  0  0
 16 17  2  0  0  0  0
 17 30  1  0  0  0  0
 18 23  1  0  0  0  0
 18 19  1  0  0  0  0
 18 31  1  0  0  0  0
 19 20  1  0  0  0  0
 19 32  1  0  0  0  0
 19 33  1  0  0  0  0
 20 21  1  0  0  0  0
 21 22  1  0  0  0  0
 21 34  1  0  0  0  0
 21 35  1  0  0  0  0
 22 23  1  0  0  0  0
 22 36  1  0  0  0  0
 22 37  1  0  0  0  0
M  END
> <s_m_source_file>
AV-unprocessed.smi

> <i_m_source_file_index>
995

> <i_lp_mmshare_version>
43012

> <i_f3d_flags>
0

> <s_epik_input>
TzFbQ0gyXVtDSDJdT1tDSDJdW0NASF0xQyg9TylbTkhdYzJbY0hdW2NIXWMobltjSF0yKU9bQ0gyXUMoRikoRilbQ0hdKEYpRg==

> <s_epik_cmdline>
J2VwaWtfcHl0aG9uJywgJy1waCcsICc3LjAnLCAnLXRuJywgJzgnLCAnLW1hJywgJzIwMCcsICctbWV0YWxfYmluZGluZycsICctaW1hZScsICc8aW5maWxlLm1hZT4nLCAnLW9tYWUnLCAnPG91dGZpbGUubWFlPic=

> <r_lp_tautomer_probability>
1

> <r_epik_Ionization_Penalty>
2.54436e-06

> <r_epik_Ionization_Penalty_Charging>
0

> <r_epik_Ionization_Penalty_Neutral>
2.54436e-06

> <r_epik_State_Penalty>
-0

> <r_epik_Charging_Adjusted_Penalty>
0

> <i_epik_Tot_Q>
0

> <i_epik_Tot_abs_Q>
0

> <r_epik_Metal_State_Penalty>
-0

> <b_epik_Metal_Only>
0

> <s_lp_Force_Field>
OPLS_2005

> <r_lp_Energy>
9.88959

> <b_lp_Chiralities_Consistent>
1

> <s_lp_Variant>
AV-unprocessed.smi:995-2

> <Gold.Version>
5.8.1

> <Gold.Id.Protein>
6NUR|6NUR_protein|mol2

> <Gold.PLP.Fitness>
50.6622

> <Gold.PLP.PLP>
-40.4225

> <Gold.PLP.part.hbond>
-3.3620

> <Gold.PLP.part.metal>
0.0000

> <Gold.PLP.part.buried>
-4.4579

> <Gold.PLP.part.nonpolar>
-32.6173

> <Gold.PLP.part.repulsive>
1.5442

> <Gold.PLP.ligand.clash>
0.0130

> <Gold.PLP.ligand.torsion>
0.6663

> <Gold.PLP.Chemscore.Hbond>
2.8125

> <Gold.PLP.Chemscore.CHOScore>
0.9981

> <Gold.PLP.Chemscore.Metal>
0.0000

> <Gold.Chemscore.Hbonds>
donor molecule, donor type, donor heavy atom, donor atom, acceptor molecule, acceptor atom, score
      L1  H     3    24       P1  7948  1.00
      P1  H  7989  7998       L1    16  1.00
      P1  H 10752 10763       L1     1  0.51
      L1  C    17    30       P1  7957  1.00

> <Gold.PLP.Chemscore.Internal.Correction>
0.1536

> <Gold.Rescore>
     Score         DG    S(hbond)    S(metal)    S(lipo)     H(rot)  DE(clash)    DE(int)     intcor
      9.50     -12.74       1.50        0.00      65.55       2.12       1.32       1.92       ----

> <Gold.Chemscore.Fitness>
9.5040

> <Gold.Chemscore.DG>
-12.7408

> <Gold.Chemscore.ZeroCoef>
-5.4800

> <Gold.Chemscore.Hbond>
1.5005

> <Gold.Chemscore.Metal>
0.0000

> <Gold.Chemscore.Lipo>
65.5491

> <Gold.Chemscore.Internal_Hbond>
0.0000

> <Gold.Chemscore.DEClash>
1.3152

> <Gold.Chemscore.DEInternal>
1.9216

> <Gold.Chemscore.Rot>
2.1172

> <Gold.Chemscore.Internal.Correction>
   9.000000E+99

> <Gold.Chemscore.Hbonds>
donor molecule, donor type, donor heavy atom, donor atom, acceptor molecule, acceptor atom, score
      L1  H     3    24       P1  7948  0.60
      P1  H  7989  7998       L1    16  0.09
      P1  H 10752 10763       L1     1  0.10

> <Gold.Chemscore.Hbond.Weighted>
-5.0116

> <Gold.Chemscore.Metal.Weighted>
-0.0000

> <Gold.Chemscore.Lipo.Weighted>
-7.6692

> <Gold.Chemscore.Internal_Hbond.Weighted>
0.0000

> <Gold.Chemscore.DEClash.Weighted>
1.3152

> <Gold.Chemscore.DEInternal.Weighted>
1.9216

> <Gold.Chemscore.Rot.Weighted>
5.4200

> <Gold.Chemscore.Internal.Correction.Weighted>
   9.000000E+99

> <Gold.Protein.RotatedTorsions>
[ 6907 6896 6895 6894 ] final  141.95 input  -60.11 | X-H torsion
[ 7974 7965 7964 7962 ] final  147.26 input  175.53 | X-H torsion
[ 8008 7997 7996 7995 ] final    5.98 input   59.86 | X-H torsion
[ 10167 10162 10161 10158 ] final -164.89 input  -65.29 | X-H torsion
[ 10718 10713 10712 10709 ] final  171.27 input   66.30 | X-H torsion
[ 10763 10752 10751 10750 ] final   93.40 input  -60.55 | X-H torsion
[ 11005 11000 10999 10996 ] final  123.11 input  -57.11 | X-H torsion

> <Gold.Protein.ActiveResidues>
 VAL166  LYS551  ARG553  GLY616  TRP617  ASP618  TYR619  PRO620  LYS621  CYS622 
 ASP623  PHE694  ASN695  SER759  ASP760  ASP761  ALA762  ILE779  LEU786  VAL792 
 PHE793  MET794  SER795  GLU796  ALA797  LYS798  CYS799  TRP800  GLU811  SER814 

> <Gold.Protein.RotatedAtoms>
  152.2247  133.5011  159.5181 H   0  0  0  0  0  0  0  0  0  0  0  0  # atno 6907 bound_to 6896
  150.7022  134.1295  159.4073 H   0  0  0  0  0  0  0  0  0  0  0  0  # atno 6908 bound_to 6896
  151.9216  135.0295  160.0573 H   0  0  0  0  0  0  0  0  0  0  0  0  # atno 6909 bound_to 6896
  144.8606  139.6006  143.5932 H   0  0  0  0  0  0  0  0  0  0  0  0  # atno 7974 bound_to 7965
  154.7353  140.2738  155.6420 H   0  0  0  0  0  0  0  0  0  0  0  0  # atno 8008 bound_to 7997
  156.2860  140.2708  156.1990 H   0  0  0  0  0  0  0  0  0  0  0  0  # atno 8009 bound_to 7997
  155.0329  140.0371  157.2470 H   0  0  0  0  0  0  0  0  0  0  0  0  # atno 8010 bound_to 7997
  139.6220  144.0607  152.1941 H   0  0  0  0  0  0  0  0  0  0  0  0  # atno 10167 bound_to 10162
  156.9960  131.0162  151.2844 H   0  0  0  0  0  0  0  0  0  0  0  0  # atno 10718 bound_to 10713
  153.2299  135.4326  155.0584 H   0  0  0  0  0  0  0  0  0  0  0  0  # atno 10763 bound_to 10752
  154.8292  135.3377  154.6802 H   0  0  0  0  0  0  0  0  0  0  0  0  # atno 10764 bound_to 10752
  153.7230  135.7016  153.5064 H   0  0  0  0  0  0  0  0  0  0  0  0  # atno 10765 bound_to 10752
  139.9298  134.9641  156.8210 H   0  0  0  0  0  0  0  0  0  0  0  0  # atno 11005 bound_to 11000
  146.2857  139.6998  142.9197 LP  0  0  0  0  0  0  0  0  0  0  0  0  # atno 17320 bound_to 7965
  145.4320  141.0416  143.2905 LP  0  0  0  0  0  0  0  0  0  0  0  0  # atno 17321 bound_to 7965
  140.0251  144.6124  150.7534 LP  0  0  0  0  0  0  0  0  0  0  0  0  # atno 17342 bound_to 10162
  140.7387  143.2782  151.3677 LP  0  0  0  0  0  0  0  0  0  0  0  0  # atno 17343 bound_to 10162
  157.5425  130.8129  149.8046 LP  0  0  0  0  0  0  0  0  0  0  0  0  # atno 17370 bound_to 10713
  156.0189  130.3803  150.2023 LP  0  0  0  0  0  0  0  0  0  0  0  0  # atno 17371 bound_to 10713
  140.6234  133.9973  155.7628 LP  0  0  0  0  0  0  0  0  0  0  0  0  # atno 17394 bound_to 11000
  141.0879  133.9961  157.3283 LP  0  0  0  0  0  0  0  0  0  0  0  0  # atno 17395 bound_to 11000

$$$$
