#       Name:                AV-unprocessed.smi:3033
#       Creating user name   scv26
#       Creation time:       Fri Mar 27 16:54:11 2020


#       File generated by GOLD software.
#

@<TRIPOS>MOLECULE
AV-unprocessed.smi:3033
    41    42     1
SMALL
NO_CHARGES


@<TRIPOS>ATOM
      1 ****        -5.2151   1.5837   0.4719 C.3            1 S1                 0.0000
      2 ****        -3.8053   1.6647   0.6229 O.3            1 S1                 0.0000
      3 ****        -3.0716   0.5052   0.4906 C.ar           1 S1                 0.0000
      4 ****        -3.6374  -0.7716   0.2473 C.ar           1 S1                 0.0000
      5 ****        -2.8098  -1.9035   0.1182 C.ar           1 S1                 0.0000
      6 ****        -1.4135  -1.7764   0.2315 C.ar           1 S1                 0.0000
      7 ****        -0.8361  -0.5146   0.4802 C.ar           1 S1                 0.0000
      8 ****         0.6754  -0.3812   0.5896 C.3            1 S1                 0.0000
      9 ****         1.0441   0.3821   1.7219 O.3            1 S1                 0.0000
     10 ****         1.2640   0.2876  -0.6709 C.3            1 S1                 0.0000
     11 ****         2.7032   0.0251  -0.8141 N.am           1 S1                 0.0000
     12 ****         3.5900   1.0316  -0.3971 C.2            1 S1                 0.0000
     13 ****         4.9268   0.8863  -0.4806 C.2            1 S1                 0.0000
     14 ****         5.9935   2.1405   0.0429 Cl             1 S1                 0.0000
     15 ****         5.4478  -0.3663  -1.0249 C.2            1 S1                 0.0000
     16 ****         6.6632  -0.5310  -1.1185 O.2            1 S1                 0.0000
     17 ****         4.5442  -1.3144  -1.4111 N.pl3          1 S1                -1.0000
     18 ****         3.1888  -1.1495  -1.3153 C.2            1 S1                 0.0000
     19 ****         2.3930  -2.0235  -1.6614 O.2            1 S1                 0.0000
     20 ****        -1.6709   0.6173   0.6060 C.ar           1 S1                 0.0000
     21 ****        -5.6463   2.5785   0.5835 H              1 S1                 0.0000
     22 ****        -5.6616   0.9430   1.2334 H              1 S1                 0.0000
     23 ****        -5.4897   1.2146  -0.5172 H              1 S1                 0.0000
     24 ****        -4.7038  -0.9096   0.1532 H              1 S1                 0.0000
     25 ****        -3.2481  -2.8723  -0.0709 H              1 S1                 0.0000
     26 ****        -0.7876  -2.6504   0.1236 H              1 S1                 0.0000
     27 ****         1.0966  -1.3794   0.7164 H              1 S1                 0.0000
     28 ****         0.7712  -0.0848   2.4967 H              1 S1                 0.0000
     29 ****         0.7577  -0.0977  -1.5580 H              1 S1                 0.0000
     30 ****         1.0500   1.3576  -0.6753 H              1 S1                 0.0000
     31 ****         3.1190   1.9203  -0.0028 H              1 S1                 0.0000
     32 ****        -1.2326   1.5879   0.7879 H              1 S1                 0.0000
     33 ****        -3.6247   2.0280   1.5369 LP             1 S1                 0.0000
     34 ****        -3.4693   2.3089  -0.0642 LP             1 S1                 0.0000
     35 ****         0.5943   1.2746   1.6891 LP             1 S1                 0.0000
     36 ****         2.0360   0.5091   1.7355 LP             1 S1                 0.0000
     37 ****         7.2898   0.1902  -0.8229 LP             1 S1                 0.0000
     38 ****         7.0248  -1.3861  -1.4902 LP             1 S1                 0.0000
     39 ****         4.8913  -2.1750  -1.7838 LP             1 S1                 0.0000
     40 ****         1.4093  -1.8672  -1.5734 LP             1 S1                 0.0000
     41 ****         2.7307  -2.8894  -2.0304 LP             1 S1                 0.0000
@<TRIPOS>BOND
    1    1    2 1     
    2    1   21 1     
    3    1   22 1     
    4    1   23 1     
    5    2    3 1     
    6    3   20 ar    
    7    3    4 ar    
    8    4    5 ar    
    9    4   24 1     
   10    5    6 ar    
   11    5   25 1     
   12    6    7 ar    
   13    6   26 1     
   14    7    8 1     
   15    7   20 ar    
   16    8    9 1     
   17    8   10 1     
   18    8   27 1     
   19    9   28 1     
   20   10   11 1     
   21   10   29 1     
   22   10   30 1     
   23   11   18 am    
   24   11   12 1     
   25   12   13 2     
   26   12   31 1     
   27   13   14 1     
   28   13   15 1     
   29   15   16 2     
   30   15   17 1     
   31   17   18 1     
   32   18   19 2     
   33   20   32 1     
   34    2   33 1     
   35    2   34 1     
   36    9   35 1     
   37    9   36 1     
   38   16   37 1     
   39   16   38 1     
   40   17   39 1     
   41   19   40 1     
   42   19   41 1     
@<TRIPOS>SUBSTRUCTURE
      1 S1             1
@<TRIPOS>SET
LONE_PAIRS      STATIC     ATOMS    <user>   **** ""
9 33 34 35 36 37 38 39 40 41
DONOR_HYDROGENS      STATIC     ATOMS    <user>   **** ""
1 28
ATOM$BLUE        STATIC     ATOMS    COLORGROUP SYSTEM
9 33 34 35 36 37 38 39 40 41
ATOM$RED        STATIC     ATOMS    COLORGROUP SYSTEM
1 28
