AV-unprocessed.smi:3295|AV-procd|sdf|12635|dock10
  -GOLD-   2272018573D 1   1.00000     0.00000
 Structure written by MMmdl.
 37 38  0  0  0  0  0  0  0  0  1 V2000
  150.7234  137.6670  154.6420 C   0  0  0  0  0  0  0  0  0  0  0  0
  150.0729  139.0390  154.6796 C   0  0  0  0  0  0  0  0  0  0  0  0
  150.7349  140.1136  155.3115 C   0  0  0  0  0  0  0  0  0  0  0  0
  150.2298  141.3620  155.3852 N   0  0  0  0  0  0  0  0  0  0  0  0
  149.0278  141.5875  154.8167 C   0  0  0  0  0  0  0  0  0  0  0  0
  148.2800  140.5900  154.1613 C   0  0  0  0  0  0  0  0  0  0  0  0
  148.8034  139.2756  154.0973 C   0  0  0  0  0  0  0  0  0  0  0  0
  148.1397  138.1971  153.4452 N   0  0  0  0  0  0  0  0  0  0  0  0
  146.8212  137.9605  153.3291 C   0  0  0  0  0  0  0  0  0  0  0  0
  145.9248  138.6692  153.7862 O   0  0  0  0  0  0  0  0  0  0  0  0
  146.5950  136.8242  152.6551 N   0  0  0  0  0  0  0  0  0  0  0  0
  145.2776  136.2806  152.3356 C   0  0  0  0  0  0  0  0  0  0  0  0
  145.2369  135.5427  150.9724 C   0  0  0  0  0  0  0  0  0  0  0  0
  145.4800  136.4859  149.9469 O   0  0  0  0  0  0  0  0  0  0  0  0
  146.1863  134.3386  150.8618 C   0  0  0  0  0  0  0  0  0  0  0  0
  145.4357  133.1853  151.5350 C   0  0  0  0  0  0  0  0  0  0  0  0
  143.9410  133.5096  151.3858 C   0  0  0  0  0  0  0  0  0  0  0  0
  143.8632  134.8985  150.7356 C   0  0  0  0  0  0  0  0  0  0  0  0
  151.6880  137.6718  155.1502 H   0  0  0  0  0  0  0  0  0  0  0  0
  150.8871  137.3511  153.6114 H   0  0  0  0  0  0  0  0  0  0  0  0
  150.0871  136.9303  155.1332 H   0  0  0  0  0  0  0  0  0  0  0  0
  151.7013  139.9703  155.7723 H   0  0  0  0  0  0  0  0  0  0  0  0
  148.6517  142.5979  154.8803 H   0  0  0  0  0  0  0  0  0  0  0  0
  147.3350  140.8568  153.7146 H   0  0  0  0  0  0  0  0  0  0  0  0
  148.7479  137.4808  153.0772 H   0  0  0  0  0  0  0  0  0  0  0  0
  147.3919  136.3019  152.3227 H   0  0  0  0  0  0  0  0  0  0  0  0
  145.0388  135.5811  153.1372 H   0  0  0  0  0  0  0  0  0  0  0  0
  144.5077  137.0530  152.3827 H   0  0  0  0  0  0  0  0  0  0  0  0
  144.7942  137.1355  149.9661 H   0  0  0  0  0  0  0  0  0  0  0  0
  146.3374  134.0873  149.8106 H   0  0  0  0  0  0  0  0  0  0  0  0
  147.1748  134.5056  151.2897 H   0  0  0  0  0  0  0  0  0  0  0  0
  145.6947  132.2221  151.0947 H   0  0  0  0  0  0  0  0  0  0  0  0
  145.6969  133.1415  152.5930 H   0  0  0  0  0  0  0  0  0  0  0  0
  143.4247  132.7648  150.7791 H   0  0  0  0  0  0  0  0  0  0  0  0
  143.4626  133.5185  152.3657 H   0  0  0  0  0  0  0  0  0  0  0  0
  143.0386  135.4983  151.1231 H   0  0  0  0  0  0  0  0  0  0  0  0
  143.6903  134.7697  149.6657 H   0  0  0  0  0  0  0  0  0  0  0  0
  1  2  1  0  0  0  0
  1 19  1  0  0  0  0
  1 20  1  0  0  0  0
  1 21  1  0  0  0  0
  2  7  1  0  0  0  0
  2  3  2  0  0  0  0
  3  4  1  0  0  0  0
  3 22  1  0  0  0  0
  4  5  2  0  0  0  0
  5  6  1  0  0  0  0
  5 23  1  0  0  0  0
  6  7  2  0  0  0  0
  6 24  1  0  0  0  0
  7  8  1  0  0  0  0
  8  9  1  0  0  0  0
  8 25  1  0  0  0  0
  9 10  2  0  0  0  0
  9 11  1  0  0  0  0
 11 12  1  0  0  0  0
 11 26  1  0  0  0  0
 12 13  1  0  0  0  0
 12 27  1  0  0  0  0
 12 28  1  0  0  0  0
 13 18  1  0  0  0  0
 13 14  1  0  0  0  0
 13 15  1  0  0  0  0
 14 29  1  0  0  0  0
 15 16  1  0  0  0  0
 15 30  1  0  0  0  0
 15 31  1  0  0  0  0
 16 17  1  0  0  0  0
 16 32  1  0  0  0  0
 16 33  1  0  0  0  0
 17 18  1  0  0  0  0
 17 34  1  0  0  0  0
 17 35  1  0  0  0  0
 18 36  1  0  0  0  0
 18 37  1  0  0  0  0
M  END
> <s_m_source_file>
AV-unprocessed.smi

> <i_m_source_file_index>
3295

> <i_lp_mmshare_version>
43012

> <i_f3d_flags>
0

> <s_epik_input>
W0NIM11jMVtjSF1uW2NIXVtjSF1jMVtOSF1DKD1PKVtOSF1bQ0gyXUMyKFtPSF0pW0NIMl1bQ0gyXVtDSDJdW0NIMl0y

> <s_epik_cmdline>
J2VwaWtfcHl0aG9uJywgJy1waCcsICc3LjAnLCAnLXRuJywgJzgnLCAnLW1hJywgJzIwMCcsICctbWV0YWxfYmluZGluZycsICctaW1hZScsICc8aW5maWxlLm1hZT4nLCAnLW9tYWUnLCAnPG91dGZpbGUubWFlPic=

> <r_epik_Ionization_Penalty>
0.224243

> <r_epik_Ionization_Penalty_Charging>
0

> <r_epik_Ionization_Penalty_Neutral>
0.224243

> <r_epik_State_Penalty>
0.214648

> <r_epik_Charging_Adjusted_Penalty>
0.214648

> <i_epik_Tot_Q>
0

> <i_epik_Tot_abs_Q>
0

> <r_epik_Metal_State_Penalty>
0.155078

> <b_epik_Metal_Only>
0

> <s_lp_Force_Field>
OPLS_2005

> <r_lp_Energy>
30.8814

> <b_lp_Chiralities_Consistent>
1

> <s_lp_Variant>
AV-unprocessed.smi:3295-1

> <Gold.Version>
5.8.1

> <Gold.Id.Protein>
6NUR|6NUR_protein|mol2

> <Gold.PLP.Fitness>
43.4011

> <Gold.PLP.PLP>
-32.4144

> <Gold.PLP.part.hbond>
-5.1187

> <Gold.PLP.part.metal>
0.0000

> <Gold.PLP.part.buried>
-1.0957

> <Gold.PLP.part.nonpolar>
-27.1239

> <Gold.PLP.part.repulsive>
0.3373

> <Gold.PLP.ligand.clash>
0.0000

> <Gold.PLP.ligand.torsion>
0.4035

> <Gold.PLP.Chemscore.Hbond>
2.9280

> <Gold.PLP.Chemscore.CHOScore>
1.0000

> <Gold.PLP.Chemscore.Metal>
0.0000

> <Gold.Chemscore.Hbonds>
donor molecule, donor type, donor heavy atom, donor atom, acceptor molecule, acceptor atom, score
      L1  H     8    25       P1  7948  0.93
      L1  H    11    26       P1  7948  1.00
      L1  H    14    29       P1 10171  1.00
      L1  C     5    23       P1  8028  1.00

> <Gold.PLP.Chemscore.Internal.Correction>
0.0097

> <Gold.Rescore>
     Score         DG    S(hbond)    S(metal)    S(lipo)     H(rot)  DE(clash)    DE(int)     intcor
     18.70     -19.34       2.87        0.00      74.04       1.71       0.19       0.44       ----

> <Gold.Chemscore.Fitness>
18.6992

> <Gold.Chemscore.DG>
-19.3374

> <Gold.Chemscore.ZeroCoef>
-5.4800

> <Gold.Chemscore.Hbond>
2.8661

> <Gold.Chemscore.Metal>
0.0000

> <Gold.Chemscore.Lipo>
74.0424

> <Gold.Chemscore.Internal_Hbond>
0.0000

> <Gold.Chemscore.DEClash>
0.1943

> <Gold.Chemscore.DEInternal>
0.4439

> <Gold.Chemscore.Rot>
1.7103

> <Gold.Chemscore.Internal.Correction>
   9.000000E+99

> <Gold.Chemscore.Hbonds>
donor molecule, donor type, donor heavy atom, donor atom, acceptor molecule, acceptor atom, score
      L1  H     8    25       P1  7948  0.91
      L1  H    11    26       P1  7948  0.95
      L1  H    14    29       P1 10171  1.00

> <Gold.Chemscore.Hbond.Weighted>
-9.5729

> <Gold.Chemscore.Metal.Weighted>
-0.0000

> <Gold.Chemscore.Lipo.Weighted>
-8.6630

> <Gold.Chemscore.Internal_Hbond.Weighted>
0.0000

> <Gold.Chemscore.DEClash.Weighted>
0.1943

> <Gold.Chemscore.DEInternal.Weighted>
0.4439

> <Gold.Chemscore.Rot.Weighted>
4.3785

> <Gold.Chemscore.Internal.Correction.Weighted>
   9.000000E+99

> <Gold.Protein.RotatedTorsions>
[ 6907 6896 6895 6894 ] final   72.32 input  -60.11 | X-H torsion
[ 7974 7965 7964 7962 ] final   45.66 input  175.53 | X-H torsion
[ 8008 7997 7996 7995 ] final   56.58 input   59.86 | X-H torsion
[ 10167 10162 10161 10158 ] final  -78.24 input  -65.29 | X-H torsion
[ 10718 10713 10712 10709 ] final  158.66 input   66.30 | X-H torsion
[ 10763 10752 10751 10750 ] final -125.98 input  -60.55 | X-H torsion
[ 11005 11000 10999 10996 ] final   17.32 input  -57.11 | X-H torsion

> <Gold.Protein.ActiveResidues>
 VAL166  LYS551  ARG553  GLY616  TRP617  ASP618  TYR619  PRO620  LYS621  CYS622 
 ASP623  PHE694  ASN695  SER759  ASP760  ASP761  ALA762  ILE779  LEU786  VAL792 
 PHE793  MET794  SER795  GLU796  ALA797  LYS798  CYS799  TRP800  GLU811  SER814 

> <Gold.Protein.RotatedAtoms>
  152.4861  134.4589  159.9598 H   0  0  0  0  0  0  0  0  0  0  0  0  # atno 6907 bound_to 6896
  151.4585  133.3593  159.2813 H   0  0  0  0  0  0  0  0  0  0  0  0  # atno 6908 bound_to 6896
  150.8973  134.8407  159.7396 H   0  0  0  0  0  0  0  0  0  0  0  0  # atno 6909 bound_to 6896
  146.0460  139.4940  142.9748 H   0  0  0  0  0  0  0  0  0  0  0  0  # atno 7974 bound_to 7965
  155.5197  140.3479  155.4404 H   0  0  0  0  0  0  0  0  0  0  0  0  # atno 8008 bound_to 7997
  156.0793  140.1382  156.9760 H   0  0  0  0  0  0  0  0  0  0  0  0  # atno 8009 bound_to 7997
  154.4570  140.0949  156.6763 H   0  0  0  0  0  0  0  0  0  0  0  0  # atno 8010 bound_to 7997
  140.4700  143.2429  151.8220 H   0  0  0  0  0  0  0  0  0  0  0  0  # atno 10167 bound_to 10162
  157.1748  131.0618  151.2163 H   0  0  0  0  0  0  0  0  0  0  0  0  # atno 10718 bound_to 10713
  154.8741  135.4011  154.3357 H   0  0  0  0  0  0  0  0  0  0  0  0  # atno 10763 bound_to 10752
  153.4163  135.7022  153.6329 H   0  0  0  0  0  0  0  0  0  0  0  0  # atno 10764 bound_to 10752
  153.5010  135.3727  155.2510 H   0  0  0  0  0  0  0  0  0  0  0  0  # atno 10765 bound_to 10752
  140.4372  134.1359  155.7686 H   0  0  0  0  0  0  0  0  0  0  0  0  # atno 11005 bound_to 11000
  145.6805  141.0192  143.1609 LP  0  0  0  0  0  0  0  0  0  0  0  0  # atno 17320 bound_to 7965
  144.7098  139.8415  143.7418 LP  0  0  0  0  0  0  0  0  0  0  0  0  # atno 17321 bound_to 7965
  139.4817  144.4904  151.9192 LP  0  0  0  0  0  0  0  0  0  0  0  0  # atno 17342 bound_to 10162
  140.3989  144.2519  150.5894 LP  0  0  0  0  0  0  0  0  0  0  0  0  # atno 17343 bound_to 10162
  157.4009  130.7333  149.6766 LP  0  0  0  0  0  0  0  0  0  0  0  0  # atno 17370 bound_to 10713
  155.9733  130.4121  150.4015 LP  0  0  0  0  0  0  0  0  0  0  0  0  # atno 17371 bound_to 10713
  141.1721  133.8588  157.1539 LP  0  0  0  0  0  0  0  0  0  0  0  0  # atno 17394 bound_to 11000
  140.0094  134.9994  157.0363 LP  0  0  0  0  0  0  0  0  0  0  0  0  # atno 17395 bound_to 11000

$$$$
