#       Name:                AV-unprocessed.smi:497
#       Creating user name   scv26
#       Creation time:       Thu Mar 26 23:17:14 2020


#       File generated by GOLD software.
#

@<TRIPOS>MOLECULE
AV-unprocessed.smi:497
    46    48     1
SMALL
NO_CHARGES


@<TRIPOS>ATOM
      1 ****        -1.5863   4.5168   0.0039 C.3            1 S1                 0.0000
      2 ****        -1.3639   3.1179  -0.0083 O.3            1 S1                 0.0000
      3 ****        -1.8528   2.4995  -1.1878 C.3            1 S1                 0.0000
      4 ****        -1.5827   0.9897  -1.1268 C.3            1 S1                 0.0000
      5 ****        -0.1578   0.6874  -0.9231 N.pl3          1 S1                 0.0000
      6 ****         0.5459   0.4462   0.2219 C.2            1 S1                 0.0000
      7 ****         0.0215   0.4244   1.6242 C.3            1 S1                 0.0000
      8 ****         0.0470  -0.9067   2.2177 N.am           1 S1                 0.0000
      9 ****        -0.7777  -1.9140   1.8907 C.2            1 S1                 0.0000
     10 ****        -1.6559  -1.8199   1.0336 O.2            1 S1                 0.0000
     11 ****        -0.5825  -3.1720   2.6360 C.2            1 S1                 0.0000
     12 ****         0.3578  -3.5409   3.5624 C.2            1 S1                 0.0000
     13 ****         0.0572  -4.8798   3.9369 C.2            1 S1                 0.0000
     14 ****        -1.0437  -5.2346   3.2114 C.2            1 S1                 0.0000
     15 ****        -1.4432  -4.2078   2.4128 O.3            1 S1                 0.0000
     16 ****         1.8411   0.2245  -0.1415 N.pl3          1 S1                 1.0000
     17 ****         1.9695   0.3319  -1.5264 C.ar           1 S1                 0.0000
     18 ****         3.0811   0.1947  -2.3521 C.ar           1 S1                 0.0000
     19 ****         2.8684   0.3752  -3.7347 C.ar           1 S1                 0.0000
     20 ****         1.5905   0.6794  -4.2474 C.ar           1 S1                 0.0000
     21 ****         0.4708   0.8145  -3.4001 C.ar           1 S1                 0.0000
     22 ****         0.6896   0.6327  -2.0349 C.ar           1 S1                 0.0000
     23 ****        -1.1892   4.9425   0.9255 H              1 S1                 0.0000
     24 ****        -2.6516   4.7469  -0.0417 H              1 S1                 0.0000
     25 ****        -1.0861   5.0033  -0.8345 H              1 S1                 0.0000
     26 ****        -2.9243   2.6785  -1.2895 H              1 S1                 0.0000
     27 ****        -1.3658   2.9320  -2.0633 H              1 S1                 0.0000
     28 ****        -2.1435   0.5424  -0.3068 H              1 S1                 0.0000
     29 ****        -1.9264   0.4922  -2.0340 H              1 S1                 0.0000
     30 ****         0.6369   1.0844   2.2357 H              1 S1                 0.0000
     31 ****        -0.9896   0.8308   1.6600 H              1 S1                 0.0000
     32 ****         0.7329  -1.0730   2.9398 H              1 S1                 0.0000
     33 ****         1.1657  -2.9246   3.9288 H              1 S1                 0.0000
     34 ****         0.5800  -5.5040   4.6465 H              1 S1                 0.0000
     35 ****        -1.6405  -6.1323   3.1427 H              1 S1                 0.0000
     36 ****         4.0612  -0.0369  -1.9614 H              1 S1                 0.0000
     37 ****         3.7021   0.2796  -4.4154 H              1 S1                 0.0000
     38 ****         1.4662   0.8122  -5.3124 H              1 S1                 0.0000
     39 ****        -0.5033   1.0494  -3.8027 H              1 S1                 0.0000
     40 ****         2.5827   0.0169   0.5146 H              1 S1                 0.0000
     41 ****        -1.8257   2.7130   0.7809 LP             1 S1                 0.0000
     42 ****        -0.3805   2.9491   0.0581 LP             1 S1                 0.0000
     43 ****        -1.7829  -0.9594   0.5402 LP             1 S1                 0.0000
     44 ****        -2.2425  -2.6039   0.8305 LP             1 S1                 0.0000
     45 ****        -1.4060  -4.4847   1.4526 LP             1 S1                 0.0000
     46 ****        -2.3768  -3.9350   2.6451 LP             1 S1                 0.0000
@<TRIPOS>BOND
    1    1    2 1     
    2    1   23 1     
    3    1   24 1     
    4    1   25 1     
    5    2    3 1     
    6    3    4 1     
    7    3   26 1     
    8    3   27 1     
    9    4    5 1     
   10    4   28 1     
   11    4   29 1     
   12    5   22 1     
   13    5    6 1     
   14    6    7 1     
   15    6   16 2     
   16    7    8 1     
   17    7   30 1     
   18    7   31 1     
   19    8    9 am    
   20    8   32 1     
   21    9   10 2     
   22    9   11 1     
   23   11   15 1     
   24   11   12 2     
   25   12   13 1     
   26   12   33 1     
   27   13   14 2     
   28   13   34 1     
   29   14   15 1     
   30   14   35 1     
   31   16   17 1     
   32   16   40 1     
   33   17   22 ar    
   34   17   18 ar    
   35   18   19 ar    
   36   18   36 1     
   37   19   20 ar    
   38   19   37 1     
   39   20   21 ar    
   40   20   38 1     
   41   21   22 ar    
   42   21   39 1     
   43    2   41 1     
   44    2   42 1     
   45   10   43 1     
   46   10   44 1     
   47   15   45 1     
   48   15   46 1     
@<TRIPOS>SUBSTRUCTURE
      1 S1             1
@<TRIPOS>SET
LONE_PAIRS      STATIC     ATOMS    <user>   **** ""
6 41 42 43 44 45 46
DONOR_HYDROGENS      STATIC     ATOMS    <user>   **** ""
2 32 40
ATOM$BLUE        STATIC     ATOMS    COLORGROUP SYSTEM
6 41 42 43 44 45 46
ATOM$RED        STATIC     ATOMS    COLORGROUP SYSTEM
2 32 40
