#       Name:                AV-unprocessed.smi:2520
#       Creating user name   scv26
#       Creation time:       Fri Mar 27 13:54:39 2020


#       File generated by GOLD software.
#

@<TRIPOS>MOLECULE
AV-unprocessed.smi:2520
    47    50     1
SMALL
NO_CHARGES


@<TRIPOS>ATOM
      1 ****        -2.1639  -1.9384  -0.4815 O.2            1 S1                 0.0000
      2 ****        -0.9472  -1.8306  -0.6221 C.2            1 S1                 0.0000
      3 ****        -0.1434  -2.9143  -0.5809 N.am           1 S1                 0.0000
      4 ****        -0.4352  -4.2963  -0.3876 C.ar           1 S1                 0.0000
      5 ****         0.6975  -5.1356  -0.3175 C.ar           1 S1                 0.0000
      6 ****         0.4993  -6.5149  -0.1351 C.ar           1 S1                 0.0000
      7 ****        -0.8276  -6.9669  -0.0376 C.ar           1 S1                 0.0000
      8 ****        -1.8846  -6.1301  -0.1144 N.ar           1 S1                 0.0000
      9 ****        -1.6867  -4.8192  -0.2882 N.ar           1 S1                 0.0000
     10 ****        -0.3423  -0.6503  -0.8252 N.am           1 S1                 0.0000
     11 ****        -1.0129   0.6435  -0.8407 C.3            1 S1                 0.0000
     12 ****        -0.0517   1.7933  -1.1404 C.3            1 S1                 0.0000
     13 ****         0.1181   2.7371  -2.2769 C.3            1 S1                 0.0000
     14 ****         0.2396   4.0462  -1.4530 C.3            1 S1                 0.0000
     15 ****        -0.1352   3.6994  -0.0980 O.3            1 S1                 0.0000
     16 ****        -0.9917   2.5859  -0.2545 C.3            1 S1                 0.0000
     17 ****        -1.1522   1.3019   0.5849 C.3            1 S1                 0.0000
     18 ****        -2.4942   1.1054   1.3035 C.3            1 S1                 0.0000
     19 ****        -2.2161   0.7843   2.7733 C.3            1 S1                 0.0000
     20 ****        -0.7989   0.2306   2.7832 C.3            1 S1                 0.0000
     21 ****        -0.0995   1.0125   1.6758 C.3            1 S1                 0.0000
     22 ****         0.8310  -2.7161  -0.7553 H              1 S1                 0.0000
     23 ****         1.6972  -4.7347  -0.4002 H              1 S1                 0.0000
     24 ****         1.3318  -7.1997  -0.0729 H              1 S1                 0.0000
     25 ****        -1.0456  -8.0151   0.1030 H              1 S1                 0.0000
     26 ****         0.6618  -0.6460  -0.9370 H              1 S1                 0.0000
     27 ****        -1.9253   0.6704  -1.4440 H              1 S1                 0.0000
     28 ****         0.9182   1.6131  -0.6664 H              1 S1                 0.0000
     29 ****         1.0083   2.5303  -2.8712 H              1 S1                 0.0000
     30 ****        -0.7541   2.7466  -2.9320 H              1 S1                 0.0000
     31 ****         1.2574   4.4373  -1.4586 H              1 S1                 0.0000
     32 ****        -0.4225   4.8180  -1.8471 H              1 S1                 0.0000
     33 ****        -1.9256   2.8815  -0.7463 H              1 S1                 0.0000
     34 ****        -3.1372   1.9820   1.2187 H              1 S1                 0.0000
     35 ****        -3.0427   0.2777   0.8536 H              1 S1                 0.0000
     36 ****        -2.2507   1.7035   3.3595 H              1 S1                 0.0000
     37 ****        -2.9430   0.0914   3.1982 H              1 S1                 0.0000
     38 ****        -0.3091   0.3354   3.7516 H              1 S1                 0.0000
     39 ****        -0.8171  -0.8296   2.5274 H              1 S1                 0.0000
     40 ****         0.7708   0.4661   1.3118 H              1 S1                 0.0000
     41 ****         0.2744   1.9521   2.0844 H              1 S1                 0.0000
     42 ****        -2.5723  -2.8392  -0.3339 LP             1 S1                 0.0000
     43 ****        -2.7451  -1.1253  -0.5147 LP             1 S1                 0.0000
     44 ****        -2.8145  -6.4905  -0.0414 LP             1 S1                 0.0000
     45 ****        -2.4770  -4.2092  -0.3465 LP             1 S1                 0.0000
     46 ****        -0.6151   4.4577   0.3432 LP             1 S1                 0.0000
     47 ****         0.6701   3.4552   0.4421 LP             1 S1                 0.0000
@<TRIPOS>BOND
    1    1    2 2     
    2    2    3 am    
    3    2   10 am    
    4    3    4 1     
    5    3   22 1     
    6    4    9 ar    
    7    4    5 ar    
    8    5    6 ar    
    9    5   23 1     
   10    6    7 ar    
   11    6   24 1     
   12    7    8 ar    
   13    7   25 1     
   14    8    9 ar    
   15   10   11 1     
   16   10   26 1     
   17   11   17 1     
   18   11   12 1     
   19   11   27 1     
   20   12   16 1     
   21   12   13 1     
   22   12   28 1     
   23   13   14 1     
   24   13   29 1     
   25   13   30 1     
   26   14   15 1     
   27   14   31 1     
   28   14   32 1     
   29   15   16 1     
   30   16   17 1     
   31   16   33 1     
   32   17   21 1     
   33   17   18 1     
   34   18   19 1     
   35   18   34 1     
   36   18   35 1     
   37   19   20 1     
   38   19   36 1     
   39   19   37 1     
   40   20   21 1     
   41   20   38 1     
   42   20   39 1     
   43   21   40 1     
   44   21   41 1     
   45    1   42 1     
   46    1   43 1     
   47    8   44 1     
   48    9   45 1     
   49   15   46 1     
   50   15   47 1     
@<TRIPOS>SUBSTRUCTURE
      1 S1             1
@<TRIPOS>SET
LONE_PAIRS      STATIC     ATOMS    <user>   **** ""
6 42 43 44 45 46 47
DONOR_HYDROGENS      STATIC     ATOMS    <user>   **** ""
2 22 26
ATOM$BLUE        STATIC     ATOMS    COLORGROUP SYSTEM
6 42 43 44 45 46 47
ATOM$RED        STATIC     ATOMS    COLORGROUP SYSTEM
2 22 26
