AV-unprocessed.smi:1978|AV-procd|sdf|8009|dock6
  -GOLD-   2272010193D 1   1.00000     0.00000
 Structure written by MMmdl.
 44 45  0  0  0  0  0  0  0  0  3 V2000
  153.1066  141.4101  159.9887 C   0  0  0  0  0  0  0  0  0  0  0  0
  152.4133  140.6422  158.9160 C   0  0  0  0  0  0  0  0  0  0  0  0
  151.1665  140.7341  158.3649 C   0  0  0  0  0  0  0  0  0  0  0  0
  151.1647  139.6934  157.3979 C   0  0  0  0  0  0  0  0  0  0  0  0
  150.0176  139.4533  156.5960 N   0  0  0  0  0  0  0  0  0  0  0  0
  149.9504  139.1855  155.2790 C   0  0  0  0  0  0  0  0  0  0  0  0
  150.9805  139.1482  154.5957 O   0  0  0  0  0  0  0  0  0  0  0  0
  148.6713  138.9811  154.8610 N   0  5  0  0  0  0  0  0  0  0  0  0
  148.1279  137.6853  154.4550 C   0  0  0  0  0  0  0  0  0  0  0  0
  146.8517  137.8803  153.5768 C   0  0  1  0  0  0  0  0  0  0  0  0
  147.0599  139.1071  152.6358 C   0  0  0  0  0  0  0  0  0  0  0  0
  146.4963  136.6017  152.8573 N   0  3  1  0  0  0  0  0  0  0  0  0
  146.3146  135.4069  153.7453 C   0  0  0  0  0  0  0  0  0  0  0  0
  146.3569  134.1067  152.9249 C   0  0  0  0  0  0  0  0  0  0  0  0
  145.2987  134.1082  151.8159 C   0  0  0  0  0  0  0  0  0  0  0  0
  145.4177  135.3847  150.9691 C   0  0  0  0  0  0  0  0  0  0  0  0
  145.4030  136.6658  151.8313 C   0  0  1  0  0  0  0  0  0  0  0  0
  144.0004  136.9316  152.4312 C   0  0  0  0  0  0  0  0  0  0  0  0
  152.3090  139.0268  157.3632 N   0  0  0  0  0  0  0  0  0  0  0  0
  153.1146  139.6313  158.3355 O   0  0  0  0  0  0  0  0  0  0  0  0
  152.6097  142.3636  160.1678 H   0  0  0  0  0  0  0  0  0  0  0  0
  154.1412  141.6153  159.7129 H   0  0  0  0  0  0  0  0  0  0  0  0
  153.1098  140.8493  160.9232 H   0  0  0  0  0  0  0  0  0  0  0  0
  150.3824  141.4326  158.6157 H   0  0  0  0  0  0  0  0  0  0  0  0
  149.1340  139.4776  157.0826 H   0  0  0  0  0  0  0  0  0  0  0  0
  148.8551  137.0914  153.9000 H   0  0  0  0  0  0  0  0  0  0  0  0
  147.8815  137.0835  155.3290 H   0  0  0  0  0  0  0  0  0  0  0  0
  146.0057  138.1125  154.2264 H   0  0  0  0  0  0  0  0  0  0  0  0
  147.3108  140.0179  153.1840 H   0  0  0  0  0  0  0  0  0  0  0  0
  146.1640  139.3658  152.0767 H   0  0  0  0  0  0  0  0  0  0  0  0
  147.8567  138.9409  151.9079 H   0  0  0  0  0  0  0  0  0  0  0  0
  147.0897  135.3368  154.5065 H   0  0  0  0  0  0  0  0  0  0  0  0
  145.3791  135.4842  154.2988 H   0  0  0  0  0  0  0  0  0  0  0  0
  147.3475  133.9903  152.4833 H   0  0  0  0  0  0  0  0  0  0  0  0
  146.2082  133.2471  153.5791 H   0  0  0  0  0  0  0  0  0  0  0  0
  145.4179  133.2276  151.1840 H   0  0  0  0  0  0  0  0  0  0  0  0
  144.3033  134.0353  152.2542 H   0  0  0  0  0  0  0  0  0  0  0  0
  146.3489  135.3476  150.4019 H   0  0  0  0  0  0  0  0  0  0  0  0
  144.6160  135.4168  150.2304 H   0  0  0  0  0  0  0  0  0  0  0  0
  145.6246  137.4723  151.1339 H   0  0  0  0  0  0  0  0  0  0  0  0
  143.2762  137.1173  151.6378 H   0  0  0  0  0  0  0  0  0  0  0  0
  143.9820  137.7958  153.0925 H   0  0  0  0  0  0  0  0  0  0  0  0
  143.6249  136.0891  153.0098 H   0  0  0  0  0  0  0  0  0  0  0  0
  147.3271  136.4041  152.3180 H   0  0  0  0  0  0  0  0  0  0  0  0
  1  2  1  0  0  0  0
  1 21  1  0  0  0  0
  1 22  1  0  0  0  0
  1 23  1  0  0  0  0
  2 20  1  0  0  0  0
  2  3  2  0  0  0  0
  3  4  1  0  0  0  0
  3 24  1  0  0  0  0
  4  5  1  0  0  0  0
  4 19  2  0  0  0  0
  5  6  1  0  0  0  0
  5 25  1  0  0  0  0
  6  7  2  0  0  0  0
  6  8  1  0  0  0  0
  8  9  1  0  0  0  0
  9 10  1  0  0  0  0
  9 26  1  0  0  0  0
  9 27  1  0  0  0  0
 10 11  1  0  0  0  0
 10 12  1  0  0  0  0
 10 28  1  0  0  0  0
 11 29  1  0  0  0  0
 11 30  1  0  0  0  0
 11 31  1  0  0  0  0
 12 17  1  0  0  0  0
 12 13  1  0  0  0  0
 12 44  1  0  0  0  0
 13 14  1  0  0  0  0
 13 32  1  0  0  0  0
 13 33  1  0  0  0  0
 14 15  1  0  0  0  0
 14 34  1  0  0  0  0
 14 35  1  0  0  0  0
 15 16  1  0  0  0  0
 15 36  1  0  0  0  0
 15 37  1  0  0  0  0
 16 17  1  0  0  0  0
 16 38  1  0  0  0  0
 16 39  1  0  0  0  0
 17 18  1  0  0  0  0
 17 40  1  0  0  0  0
 18 41  1  0  0  0  0
 18 42  1  0  0  0  0
 18 43  1  0  0  0  0
 19 20  1  0  0  0  0
M  CHG  1   8  -1
M  CHG  1  12   1
M  END
> <s_m_source_file>
AV-unprocessed.smi

> <i_m_source_file_index>
1978

> <i_lp_mmshare_version>
43012

> <i_f3d_flags>
0

> <s_epik_input>
W0NIM11jMVtjSF1jKG5vMSlbTkhdQyg9TylbTkhdW0NIMl1bQ0BIXShbQ0gzXSlOMltDSDJdW0NIMl1bQ0gyXVtDSDJdW0NASF0yW0NIM10=

> <s_epik_cmdline>
J2VwaWtfcHl0aG9uJywgJy1waCcsICc3LjAnLCAnLXRuJywgJzgnLCAnLW1hJywgJzIwMCcsICctbWV0YWxfYmluZGluZycsICctaW1hZScsICc8aW5maWxlLm1hZT4nLCAnLW9tYWUnLCAnPG91dGZpbGUubWFlPic=

> <r_epik_Ionization_Penalty>
6.7666

> <r_epik_Ionization_Penalty_Charging>
6.7666

> <r_epik_Ionization_Penalty_Neutral>
5.77131e-06

> <r_epik_State_Penalty>
6.79217

> <r_epik_Charging_Adjusted_Penalty>
13.5588

> <i_epik_Tot_Q>
0

> <i_epik_Tot_abs_Q>
2

> <r_epik_Metal_State_Penalty>
2.72569

> <b_epik_Metal_Only>
1

> <s_lp_Force_Field>
OPLS_2005

> <r_lp_Energy>
25.8375

> <b_lp_Chiralities_Consistent>
1

> <s_lp_Variant>
AV-unprocessed.smi:1978-18

> <Gold.Version>
5.8.1

> <Gold.Id.Protein>
6NUR|6NUR_protein|mol2

> <Gold.PLP.Fitness>
36.9996

> <Gold.PLP.PLP>
-27.6408

> <Gold.PLP.part.hbond>
-3.3232

> <Gold.PLP.part.metal>
0.0000

> <Gold.PLP.part.buried>
-1.8149

> <Gold.PLP.part.nonpolar>
-22.7135

> <Gold.PLP.part.repulsive>
0.2724

> <Gold.PLP.ligand.clash>
0.0000

> <Gold.PLP.ligand.torsion>
1.3744

> <Gold.PLP.Chemscore.Hbond>
3.9920

> <Gold.PLP.Chemscore.CHOScore>
0.0000

> <Gold.PLP.Chemscore.Metal>
0.0000

> <Gold.Chemscore.Hbonds>
donor molecule, donor type, donor heavy atom, donor atom, acceptor molecule, acceptor atom, score
      L1  H    12    44       P1  7948  2.00
      P1  H  7989  7998       L1     7  0.73
      P1  H  7997  8009       L1    20  0.80

> <Gold.PLP.Chemscore.Internal.Correction>
0.1315

> <Gold.Rescore>
     Score         DG    S(hbond)    S(metal)    S(lipo)     H(rot)  DE(clash)    DE(int)     intcor
     16.34     -17.96       2.81        0.00      59.73       1.52       0.12       1.50       ----

> <Gold.Chemscore.Fitness>
16.3442

> <Gold.Chemscore.DG>
-17.9632

> <Gold.Chemscore.ZeroCoef>
-5.4800

> <Gold.Chemscore.Hbond>
2.8096

> <Gold.Chemscore.Metal>
0.0000

> <Gold.Chemscore.Lipo>
59.7252

> <Gold.Chemscore.Internal_Hbond>
0.0000

> <Gold.Chemscore.DEClash>
0.1226

> <Gold.Chemscore.DEInternal>
1.4965

> <Gold.Chemscore.Rot>
1.5190

> <Gold.Chemscore.Internal.Correction>
   9.000000E+99

> <Gold.Chemscore.Hbonds>
donor molecule, donor type, donor heavy atom, donor atom, acceptor molecule, acceptor atom, score
      L1  H    12    44       P1  7948  1.00
      P1  H  7989  7998       L1     7  0.72
      P1  H  7997  8009       L1    20  0.11

> <Gold.Chemscore.Hbond.Weighted>
-9.3840

> <Gold.Chemscore.Metal.Weighted>
-0.0000

> <Gold.Chemscore.Lipo.Weighted>
-6.9879

> <Gold.Chemscore.Internal_Hbond.Weighted>
0.0000

> <Gold.Chemscore.DEClash.Weighted>
0.1226

> <Gold.Chemscore.DEInternal.Weighted>
1.4965

> <Gold.Chemscore.Rot.Weighted>
3.8886

> <Gold.Chemscore.Internal.Correction.Weighted>
   9.000000E+99

> <Gold.Protein.RotatedTorsions>
[ 6907 6896 6895 6894 ] final  119.73 input  -60.11 | X-H torsion
[ 7974 7965 7964 7962 ] final  -67.32 input  175.53 | X-H torsion
[ 8008 7997 7996 7995 ] final  147.70 input   59.86 | X-H torsion
[ 10167 10162 10161 10158 ] final  -26.06 input  -65.29 | X-H torsion
[ 10718 10713 10712 10709 ] final  -25.81 input   66.30 | X-H torsion
[ 10763 10752 10751 10750 ] final   36.41 input  -60.55 | X-H torsion
[ 11005 11000 10999 10996 ] final -131.36 input  -57.11 | X-H torsion

> <Gold.Protein.ActiveResidues>
 VAL166  LYS551  ARG553  GLY616  TRP617  ASP618  TYR619  PRO620  LYS621  CYS622 
 ASP623  PHE694  ASN695  SER759  ASP760  ASP761  ALA762  ILE779  LEU786  VAL792 
 PHE793  MET794  SER795  GLU796  ALA797  LYS798  CYS799  TRP800  GLU811  SER814 

> <Gold.Protein.RotatedAtoms>
  152.4450  133.7520  159.6698 H   0  0  0  0  0  0  0  0  0  0  0  0  # atno 6907 bound_to 6896
  150.8348  133.8021  159.3090 H   0  0  0  0  0  0  0  0  0  0  0  0  # atno 6908 bound_to 6896
  151.5663  135.1066  160.0036 H   0  0  0  0  0  0  0  0  0  0  0  0  # atno 6909 bound_to 6896
  145.7306  140.8998  143.0582 H   0  0  0  0  0  0  0  0  0  0  0  0  # atno 7974 bound_to 7965
  156.2816  140.2148  156.5579 H   0  0  0  0  0  0  0  0  0  0  0  0  # atno 8008 bound_to 7997
  154.7237  140.0501  157.0686 H   0  0  0  0  0  0  0  0  0  0  0  0  # atno 8009 bound_to 7997
  155.0445  140.3149  155.4716 H   0  0  0  0  0  0  0  0  0  0  0  0  # atno 8010 bound_to 7997
  140.7284  143.4211  151.0950 H   0  0  0  0  0  0  0  0  0  0  0  0  # atno 10167 bound_to 10162
  156.4595  130.4501  149.6938 H   0  0  0  0  0  0  0  0  0  0  0  0  # atno 10718 bound_to 10713
  153.0078  135.6306  154.1980 H   0  0  0  0  0  0  0  0  0  0  0  0  # atno 10763 bound_to 10752
  154.1723  135.2817  155.3079 H   0  0  0  0  0  0  0  0  0  0  0  0  # atno 10764 bound_to 10752
  154.5899  135.5621  153.7328 H   0  0  0  0  0  0  0  0  0  0  0  0  # atno 10765 bound_to 10752
  140.9265  134.1375  157.4270 H   0  0  0  0  0  0  0  0  0  0  0  0  # atno 11005 bound_to 11000
  144.6894  139.9326  143.7472 LP  0  0  0  0  0  0  0  0  0  0  0  0  # atno 17320 bound_to 7965
  146.0541  139.3539  143.0621 LP  0  0  0  0  0  0  0  0  0  0  0  0  # atno 17321 bound_to 7965
  139.7857  143.8291  152.3144 LP  0  0  0  0  0  0  0  0  0  0  0  0  # atno 17342 bound_to 10162
  139.8257  144.7276  150.9514 LP  0  0  0  0  0  0  0  0  0  0  0  0  # atno 17343 bound_to 10162
  156.3731  130.7541  151.2526 LP  0  0  0  0  0  0  0  0  0  0  0  0  # atno 17370 bound_to 10713
  157.7498  131.0317  150.4194 LP  0  0  0  0  0  0  0  0  0  0  0  0  # atno 17371 bound_to 10713
  139.8786  134.9990  156.5931 LP  0  0  0  0  0  0  0  0  0  0  0  0  # atno 17394 bound_to 11000
  140.7919  133.8575  155.8653 LP  0  0  0  0  0  0  0  0  0  0  0  0  # atno 17395 bound_to 11000

$$$$
