AV-unprocessed.smi:37|AV-procd|sdf|331|dock5
  -GOLD-   2262016163D 1   1.00000     0.00000
 Structure written by MMmdl.
 43 44  0  0  0  0  0  0  0  0  2 V2000
  146.4302  134.2602  162.4373 C   0  0  0  0  0  0  0  0  0  0  0  0
  147.4855  135.3731  162.3907 C   0  0  0  0  0  0  0  0  0  0  0  0
  147.4863  136.1092  161.0529 C   0  0  0  0  0  0  0  0  0  0  0  0
  147.3687  137.3336  160.9947 O   0  0  0  0  0  0  0  0  0  0  0  0
  147.6293  135.2805  160.0061 O   0  0  0  0  0  0  0  0  0  0  0  0
  148.0209  135.8037  158.7477 C   0  0  0  0  0  0  0  0  0  0  0  0
  148.2276  134.6467  157.7555 C   0  0  2  0  0  0  0  0  0  0  0  0
  149.5969  134.2381  157.8561 O   0  0  0  0  0  0  0  0  0  0  0  0
  150.2193  134.2302  156.6046 C   0  0  1  0  0  0  0  0  0  0  0  0
  150.1740  132.8354  156.0016 N   0  0  0  0  0  0  0  0  0  0  0  0
  149.3052  132.5096  154.9711 C   0  0  0  0  0  0  0  0  0  0  0  0
  149.2710  131.2666  154.4488 C   0  0  0  0  0  0  0  0  0  0  0  0
  148.4181  130.9845  153.4487 F   0  0  0  0  0  0  0  0  0  0  0  0
  150.1584  130.2339  154.9785 C   0  0  0  0  0  0  0  0  0  0  0  0
  150.1326  129.1061  154.4885 O   0  0  0  0  0  0  0  0  0  0  0  0
  150.9847  130.5728  156.0096 N   0  5  0  0  0  0  0  0  0  0  0  0
  151.0194  131.8280  156.5451 C   0  0  0  0  0  0  0  0  0  0  0  0
  151.7533  132.1365  157.4844 O   0  0  0  0  0  0  0  0  0  0  0  0
  149.4306  135.2199  155.7466 C   0  0  2  0  0  0  0  0  0  0  0  0
  150.0862  137.0687  156.1148 Br  0  0  0  0  0  0  0  0  0  0  0  0
  148.0177  135.0173  156.2754 C   0  0  2  0  0  0  0  0  0  0  0  0
  147.1801  136.1501  156.0765 O   0  0  0  0  0  0  0  0  0  0  0  0
  146.6295  136.3881  154.8725 C   0  0  0  0  0  0  0  0  0  0  0  0
  146.5230  135.5770  153.9526 O   0  0  0  0  0  0  0  0  0  0  0  0
  146.1210  137.8208  154.7333 C   0  0  0  0  0  0  0  0  0  0  0  0
  146.7628  138.5486  153.5439 C   0  0  0  0  0  0  0  0  0  0  0  0
  146.4372  133.7658  163.4088 H   0  0  0  0  0  0  0  0  0  0  0  0
  146.6171  133.4989  161.6790 H   0  0  0  0  0  0  0  0  0  0  0  0
  145.4276  134.6581  162.2763 H   0  0  0  0  0  0  0  0  0  0  0  0
  147.3022  136.0924  163.1894 H   0  0  0  0  0  0  0  0  0  0  0  0
  148.4773  134.9547  162.5634 H   0  0  0  0  0  0  0  0  0  0  0  0
  147.2307  136.4680  158.3960 H   0  0  0  0  0  0  0  0  0  0  0  0
  148.9311  136.3962  158.8458 H   0  0  0  0  0  0  0  0  0  0  0  0
  147.5625  133.8231  158.0169 H   0  0  0  0  0  0  0  0  0  0  0  0
  151.2816  134.4613  156.6997 H   0  0  0  0  0  0  0  0  0  0  0  0
  148.6307  133.2470  154.5660 H   0  0  0  0  0  0  0  0  0  0  0  0
  149.5288  135.0321  154.6775 H   0  0  0  0  0  0  0  0  0  0  0  0
  147.5867  134.1439  155.7829 H   0  0  0  0  0  0  0  0  0  0  0  0
  145.0374  137.7996  154.6127 H   0  0  0  0  0  0  0  0  0  0  0  0
  146.3267  138.3603  155.6582 H   0  0  0  0  0  0  0  0  0  0  0  0
  146.3469  139.5505  153.4375 H   0  0  0  0  0  0  0  0  0  0  0  0
  146.5851  138.0149  152.6093 H   0  0  0  0  0  0  0  0  0  0  0  0
  147.8411  138.6518  153.6720 H   0  0  0  0  0  0  0  0  0  0  0  0
  1  2  1  0  0  0  0
  1 27  1  0  0  0  0
  1 28  1  0  0  0  0
  1 29  1  0  0  0  0
  2  3  1  0  0  0  0
  2 30  1  0  0  0  0
  2 31  1  0  0  0  0
  3  4  2  0  0  0  0
  3  5  1  0  0  0  0
  5  6  1  0  0  0  0
  6  7  1  0  0  0  0
  6 32  1  0  0  0  0
  6 33  1  0  0  0  0
  7 21  1  0  0  0  0
  7  8  1  0  0  0  0
  7 34  1  0  0  0  0
  8  9  1  0  0  0  0
  9 10  1  0  0  0  0
  9 19  1  0  0  0  0
  9 35  1  0  0  0  0
 10 17  1  0  0  0  0
 10 11  1  0  0  0  0
 11 12  2  0  0  0  0
 11 36  1  0  0  0  0
 12 13  1  0  0  0  0
 12 14  1  0  0  0  0
 14 15  2  0  0  0  0
 14 16  1  0  0  0  0
 16 17  1  0  0  0  0
 17 18  2  0  0  0  0
 19 20  1  0  0  0  0
 19 21  1  0  0  0  0
 19 37  1  0  0  0  0
 21 22  1  0  0  0  0
 21 38  1  0  0  0  0
 22 23  1  0  0  0  0
 23 24  2  0  0  0  0
 23 25  1  0  0  0  0
 25 26  1  0  0  0  0
 25 39  1  0  0  0  0
 25 40  1  0  0  0  0
 26 41  1  0  0  0  0
 26 42  1  0  0  0  0
 26 43  1  0  0  0  0
M  CHG  1  16  -1
M  END
> <s_m_source_file>
AV-unprocessed.smi

> <i_m_source_file_index>
37

> <i_lp_mmshare_version>
43012

> <i_f3d_flags>
0

> <s_epik_input>
W0NIM11bQ0gyXUMoPU8pT1tDSDJdW0NAQEhdMU9bQ0BASF0objJbY0hdYyhGKWMoPU8pW25IXWMyPU8pW0NAQEhdKEJyKVtDQEhdMU9DKD1PKVtDSDJdW0NIM10=

> <s_epik_cmdline>
J2VwaWtfcHl0aG9uJywgJy1waCcsICc3LjAnLCAnLXRuJywgJzgnLCAnLW1hJywgJzIwMCcsICctbWV0YWxfYmluZGluZycsICctaW1hZScsICc8aW5maWxlLm1hZT4nLCAnLW9tYWUnLCAnPG91dGZpbGUubWFlPic=

> <r_epik_Ionization_Penalty>
1.08158

> <r_epik_Ionization_Penalty_Charging>
9.05154e-09

> <r_epik_Ionization_Penalty_Neutral>
1.08158

> <r_epik_State_Penalty>
1.13706

> <r_epik_Charging_Adjusted_Penalty>
1.13706

> <i_epik_Tot_Q>
-1

> <i_epik_Tot_abs_Q>
1

> <r_epik_Metal_State_Penalty>
0.00343535

> <b_epik_Metal_Only>
0

> <s_epik_Chemistry_Notes>
This compound has an ester and may undergo hydrolysis at high or low pH. This compound contains an acetal/aminal-like group ( X-CH(R)-Y where X, Y are N, S, or O) that may be acid/base labile, releasing an aldehyde.

> <s_lp_Force_Field>
OPLS_2005

> <r_lp_Energy>
34.8108

> <b_lp_Chiralities_Consistent>
1

> <s_lp_Variant>
AV-unprocessed.smi:37-29

> <Gold.Version>
5.8.1

> <Gold.Id.Protein>
6NUR|6NUR_protein|mol2

> <Gold.PLP.Fitness>
42.2822

> <Gold.PLP.PLP>
-34.0625

> <Gold.PLP.part.hbond>
-4.0000

> <Gold.PLP.part.metal>
0.0000

> <Gold.PLP.part.buried>
-4.7351

> <Gold.PLP.part.nonpolar>
-25.1999

> <Gold.PLP.part.repulsive>
0.2042

> <Gold.PLP.ligand.clash>
0.0000

> <Gold.PLP.ligand.torsion>
1.2741

> <Gold.PLP.Chemscore.Hbond>
3.5600

> <Gold.PLP.Chemscore.CHOScore>
0.0000

> <Gold.PLP.Chemscore.Metal>
0.0000

> <Gold.Chemscore.Hbonds>
donor molecule, donor type, donor heavy atom, donor atom, acceptor molecule, acceptor atom, score
      P1  H  6896  6907       L1     8  0.90
      P1  H  6896  6909       L1    18  0.41
      P1  H  6931  6943       L1     4  0.64
      P1  H  6934  6947       L1     4  1.00

> <Gold.PLP.Chemscore.Internal.Correction>
0.0879

> <Gold.Rescore>
     Score         DG    S(hbond)    S(metal)    S(lipo)     H(rot)  DE(clash)    DE(int)     intcor
     12.19     -14.38       3.56        0.00      46.06       3.27       0.00       2.19       ----

> <Gold.Chemscore.Fitness>
12.1902

> <Gold.Chemscore.DG>
-14.3850

> <Gold.Chemscore.ZeroCoef>
-5.4800

> <Gold.Chemscore.Hbond>
3.5565

> <Gold.Chemscore.Metal>
0.0000

> <Gold.Chemscore.Lipo>
46.0638

> <Gold.Chemscore.Internal_Hbond>
0.0000

> <Gold.Chemscore.DEClash>
0.0048

> <Gold.Chemscore.DEInternal>
2.1900

> <Gold.Chemscore.Rot>
3.2669

> <Gold.Chemscore.Internal.Correction>
   9.000000E+99

> <Gold.Chemscore.Hbonds>
donor molecule, donor type, donor heavy atom, donor atom, acceptor molecule, acceptor atom, score
      P1  H  6896  6907       L1     8  0.85
      P1  H  6896  6909       L1    18  0.41
      P1  H  6931  6943       L1     4  0.45
      P1  H  6934  6947       L1     4  0.97

> <Gold.Chemscore.Hbond.Weighted>
-11.8789

> <Gold.Chemscore.Metal.Weighted>
-0.0000

> <Gold.Chemscore.Lipo.Weighted>
-5.3895

> <Gold.Chemscore.Internal_Hbond.Weighted>
0.0000

> <Gold.Chemscore.DEClash.Weighted>
0.0048

> <Gold.Chemscore.DEInternal.Weighted>
2.1900

> <Gold.Chemscore.Rot.Weighted>
8.3634

> <Gold.Chemscore.Internal.Correction.Weighted>
   9.000000E+99

> <Gold.Protein.RotatedTorsions>
[ 6907 6896 6895 6894 ] final  -80.75 input  -60.11 | X-H torsion
[ 7974 7965 7964 7962 ] final -178.10 input  175.53 | X-H torsion
[ 8008 7997 7996 7995 ] final -133.05 input   59.86 | X-H torsion
[ 10167 10162 10161 10158 ] final  -14.36 input  -65.29 | X-H torsion
[ 10718 10713 10712 10709 ] final -176.95 input   66.30 | X-H torsion
[ 10763 10752 10751 10750 ] final  155.60 input  -60.55 | X-H torsion
[ 11005 11000 10999 10996 ] final  162.65 input  -57.11 | X-H torsion

> <Gold.Protein.ActiveResidues>
 VAL166  LYS551  ARG553  GLY616  TRP617  ASP618  TYR619  PRO620  LYS621  CYS622 
 ASP623  PHE694  ASN695  SER759  ASP760  ASP761  ALA762  ILE779  LEU786  VAL792 
 PHE793  MET794  SER795  GLU796  ALA797  LYS798  CYS799  TRP800  GLU811  SER814 

> <Gold.Protein.RotatedAtoms>
  150.6924  134.3922  159.5081 H   0  0  0  0  0  0  0  0  0  0  0  0  # atno 6907 bound_to 6896
  152.1708  134.8833  160.0543 H   0  0  0  0  0  0  0  0  0  0  0  0  # atno 6908 bound_to 6896
  151.9859  133.3739  159.4162 H   0  0  0  0  0  0  0  0  0  0  0  0  # atno 6909 bound_to 6896
  144.7129  140.0920  143.6421 H   0  0  0  0  0  0  0  0  0  0  0  0  # atno 7974 bound_to 7965
  155.3391  140.0471  157.3044 H   0  0  0  0  0  0  0  0  0  0  0  0  # atno 8008 bound_to 7997
  154.5287  140.2249  155.8809 H   0  0  0  0  0  0  0  0  0  0  0  0  # atno 8009 bound_to 7997
  156.1766  140.3084  155.9076 H   0  0  0  0  0  0  0  0  0  0  0  0  # atno 8010 bound_to 7997
  140.7200  143.5329  150.9498 H   0  0  0  0  0  0  0  0  0  0  0  0  # atno 10167 bound_to 10162
  156.8223  130.9624  151.3111 H   0  0  0  0  0  0  0  0  0  0  0  0  # atno 10718 bound_to 10713
  154.1710  135.2804  155.3081 H   0  0  0  0  0  0  0  0  0  0  0  0  # atno 10763 bound_to 10752
  154.6075  135.5509  153.7441 H   0  0  0  0  0  0  0  0  0  0  0  0  # atno 10764 bound_to 10752
  153.0164  135.6407  154.1851 H   0  0  0  0  0  0  0  0  0  0  0  0  # atno 10765 bound_to 10752
  140.2279  134.8146  157.3287 H   0  0  0  0  0  0  0  0  0  0  0  0  # atno 11005 bound_to 11000
  145.9612  139.2802  143.1154 LP  0  0  0  0  0  0  0  0  0  0  0  0  # atno 17320 bound_to 7965
  145.9219  140.9109  143.0401 LP  0  0  0  0  0  0  0  0  0  0  0  0  # atno 17321 bound_to 7965
  139.9050  143.6789  152.3125 LP  0  0  0  0  0  0  0  0  0  0  0  0  # atno 17342 bound_to 10162
  139.7152  144.7613  151.1046 LP  0  0  0  0  0  0  0  0  0  0  0  0  # atno 17343 bound_to 10162
  157.6450  130.8837  149.9522 LP  0  0  0  0  0  0  0  0  0  0  0  0  # atno 17370 bound_to 10713
  156.0982  130.3658  150.0267 LP  0  0  0  0  0  0  0  0  0  0  0  0  # atno 17371 bound_to 10713
  140.1781  134.4524  155.7789 LP  0  0  0  0  0  0  0  0  0  0  0  0  # atno 17394 bound_to 11000
  141.2219  133.6971  156.7821 LP  0  0  0  0  0  0  0  0  0  0  0  0  # atno 17395 bound_to 11000

$$$$
