AV-unprocessed.smi:3226|AV-procd|sdf|12313|dock3
  -GOLD-   2272018163D 1   1.00000     0.00000
 Structure written by MMmdl.
 41 43  0  0  0  0  0  0  0  0  2 V2000
  149.4121  136.7082  154.9964 C   0  0  0  0  0  0  0  0  0  0  0  0
  150.5854  136.8284  155.9754 C   0  0  0  0  0  0  0  0  0  0  0  0
  151.5012  137.9645  155.6385 C   0  0  0  0  0  0  0  0  0  0  0  0
  152.8229  137.8214  155.4844 N   0  0  0  0  0  0  0  0  0  0  0  0
  153.2984  139.0745  155.1544 N   0  0  0  0  0  0  0  0  0  0  0  0
  152.2149  139.8483  155.1321 C   0  0  0  0  0  0  0  0  0  0  0  0
  151.0637  139.2242  155.4276 N   0  0  0  0  0  0  0  0  0  0  0  0
  149.7243  139.7851  155.4891 C   0  0  0  0  0  0  0  0  0  0  0  0
  149.7215  141.3097  155.2914 C   0  0  0  0  0  0  0  0  0  0  0  0
  149.8631  142.0250  156.5754 N   0  3  0  0  0  0  0  0  0  0  0  0
  151.2209  141.9689  157.1509 C   0  0  0  0  0  0  0  0  0  0  0  0
  151.2717  142.6653  158.5234 C   0  0  2  0  0  0  0  0  0  0  0  0
  150.4463  143.9889  158.5717 C   0  0  0  0  0  0  0  0  0  0  0  0
  151.4765  145.0308  159.0660 C   0  0  1  0  0  0  0  0  0  0  0  0
  151.8831  144.6607  160.4768 C   0  0  0  0  0  0  0  0  0  0  0  0
  152.6117  143.5454  160.3997 C   0  0  0  0  0  0  0  0  0  0  0  0
  152.6856  143.1559  158.9377 C   0  0  2  0  0  0  0  0  0  0  0  0
  152.7116  144.5511  158.2992 C   0  0  0  0  0  0  0  0  0  0  0  0
  148.7676  135.8703  155.2627 H   0  0  0  0  0  0  0  0  0  0  0  0
  149.7652  136.5460  153.9775 H   0  0  0  0  0  0  0  0  0  0  0  0
  148.8020  137.6119  154.9990 H   0  0  0  0  0  0  0  0  0  0  0  0
  150.2140  136.9423  156.9934 H   0  0  0  0  0  0  0  0  0  0  0  0
  151.1631  135.9035  155.9660 H   0  0  0  0  0  0  0  0  0  0  0  0
  152.2634  140.9014  154.8969 H   0  0  0  0  0  0  0  0  0  0  0  0
  149.1059  139.3003  154.7324 H   0  0  0  0  0  0  0  0  0  0  0  0
  149.2850  139.5307  156.4539 H   0  0  0  0  0  0  0  0  0  0  0  0
  150.5488  141.5926  154.6393 H   0  0  0  0  0  0  0  0  0  0  0  0
  148.8034  141.6274  154.7956 H   0  0  0  0  0  0  0  0  0  0  0  0
  149.6174  142.9943  156.4326 H   0  0  0  0  0  0  0  0  0  0  0  0
  151.5424  140.9300  157.2275 H   0  0  0  0  0  0  0  0  0  0  0  0
  151.9087  142.4646  156.4647 H   0  0  0  0  0  0  0  0  0  0  0  0
  150.8880  141.9707  159.2735 H   0  0  0  0  0  0  0  0  0  0  0  0
  150.0723  144.2628  157.5841 H   0  0  0  0  0  0  0  0  0  0  0  0
  149.5875  143.9145  159.2402 H   0  0  0  0  0  0  0  0  0  0  0  0
  151.2130  146.0791  158.9233 H   0  0  0  0  0  0  0  0  0  0  0  0
  151.5949  145.2038  161.3646 H   0  0  0  0  0  0  0  0  0  0  0  0
  153.0443  142.9808  161.2124 H   0  0  0  0  0  0  0  0  0  0  0  0
  153.5255  142.5078  158.6862 H   0  0  0  0  0  0  0  0  0  0  0  0
  152.5876  144.5549  157.2152 H   0  0  0  0  0  0  0  0  0  0  0  0
  153.6124  145.1162  158.5482 H   0  0  0  0  0  0  0  0  0  0  0  0
  149.2178  141.6225  157.2400 H   0  0  0  0  0  0  0  0  0  0  0  0
  1  2  1  0  0  0  0
  1 19  1  0  0  0  0
  1 20  1  0  0  0  0
  1 21  1  0  0  0  0
  2  3  1  0  0  0  0
  2 22  1  0  0  0  0
  2 23  1  0  0  0  0
  3  7  1  0  0  0  0
  3  4  2  0  0  0  0
  4  5  1  0  0  0  0
  5  6  2  0  0  0  0
  6  7  1  0  0  0  0
  6 24  1  0  0  0  0
  7  8  1  0  0  0  0
  8  9  1  0  0  0  0
  8 25  1  0  0  0  0
  8 26  1  0  0  0  0
  9 10  1  0  0  0  0
  9 27  1  0  0  0  0
  9 28  1  0  0  0  0
 10 11  1  0  0  0  0
 10 29  1  0  0  0  0
 10 41  1  0  0  0  0
 11 12  1  0  0  0  0
 11 30  1  0  0  0  0
 11 31  1  0  0  0  0
 12 17  1  0  0  0  0
 12 13  1  0  0  0  0
 12 32  1  0  0  0  0
 13 14  1  0  0  0  0
 13 33  1  0  0  0  0
 13 34  1  0  0  0  0
 14 18  1  0  0  0  0
 14 15  1  0  0  0  0
 14 35  1  0  0  0  0
 15 16  2  0  0  0  0
 15 36  1  0  0  0  0
 16 17  1  0  0  0  0
 16 37  1  0  0  0  0
 17 18  1  0  0  0  0
 17 38  1  0  0  0  0
 18 39  1  0  0  0  0
 18 40  1  0  0  0  0
M  CHG  1  10   1
M  END
> <s_m_source_file>
AV-unprocessed.smi

> <i_m_source_file_index>
3226

> <i_lp_mmshare_version>
43012

> <i_f3d_flags>
0

> <s_epik_input>
W0NIM11bQ0gyXWMxbm5bY0hdbjFbQ0gyXVtDSDJdW05IXVtDSDJdW0NASF0oW0NIMl1bQ0BASF0yMylbQ0BASF0oW0NIMl0zKVtDSF09W0NIXTI=

> <s_epik_cmdline>
J2VwaWtfcHl0aG9uJywgJy1waCcsICc3LjAnLCAnLXRuJywgJzgnLCAnLW1hJywgJzIwMCcsICctbWV0YWxfYmluZGluZycsICctaW1hZScsICc8aW5maWxlLm1hZT4nLCAnLW9tYWUnLCAnPG91dGZpbGUubWFlPic=

> <r_lp_tautomer_probability>
1

> <r_epik_Ionization_Penalty>
0.00175008

> <r_epik_Ionization_Penalty_Charging>
0.00173932

> <r_epik_Ionization_Penalty_Neutral>
1.07546e-05

> <r_epik_State_Penalty>
-0

> <r_epik_Charging_Adjusted_Penalty>
0.00173932

> <i_epik_Tot_Q>
1

> <i_epik_Tot_abs_Q>
1

> <r_epik_Metal_State_Penalty>
-0

> <b_epik_Metal_Only>
0

> <s_lp_Force_Field>
OPLS_2005

> <r_lp_Energy>
64.8147

> <b_lp_Chiralities_Consistent>
1

> <s_lp_Variant>
AV-unprocessed.smi:3226-1

> <Gold.Version>
5.8.1

> <Gold.Id.Protein>
6NUR|6NUR_protein|mol2

> <Gold.PLP.Fitness>
50.0272

> <Gold.PLP.PLP>
-41.7833

> <Gold.PLP.part.hbond>
-3.0000

> <Gold.PLP.part.metal>
0.0000

> <Gold.PLP.part.buried>
-3.5888

> <Gold.PLP.part.nonpolar>
-36.2628

> <Gold.PLP.part.repulsive>
0.0616

> <Gold.PLP.ligand.clash>
0.0000

> <Gold.PLP.ligand.torsion>
0.5251

> <Gold.PLP.Chemscore.Hbond>
3.0874

> <Gold.PLP.Chemscore.CHOScore>
0.0000

> <Gold.PLP.Chemscore.Metal>
0.0000

> <Gold.Chemscore.Hbonds>
donor molecule, donor type, donor heavy atom, donor atom, acceptor molecule, acceptor atom, score
      L1  H    10    29       P1  8028  2.00
      P1  H  7997  8008       L1     5  1.00
      P1  H 10752 10763       L1     4  0.08

> <Gold.PLP.Chemscore.Internal.Correction>
0.0321

> <Gold.Rescore>
     Score         DG    S(hbond)    S(metal)    S(lipo)     H(rot)  DE(clash)    DE(int)     intcor
     17.80     -18.47       1.61        0.00     110.20       2.06       0.05       0.62       ----

> <Gold.Chemscore.Fitness>
17.8028

> <Gold.Chemscore.DG>
-18.4655

> <Gold.Chemscore.ZeroCoef>
-5.4800

> <Gold.Chemscore.Hbond>
1.6083

> <Gold.Chemscore.Metal>
0.0000

> <Gold.Chemscore.Lipo>
110.2000

> <Gold.Chemscore.Internal_Hbond>
0.0000

> <Gold.Chemscore.DEClash>
0.0467

> <Gold.Chemscore.DEInternal>
0.6160

> <Gold.Chemscore.Rot>
2.0623

> <Gold.Chemscore.Internal.Correction>
   9.000000E+99

> <Gold.Chemscore.Hbonds>
donor molecule, donor type, donor heavy atom, donor atom, acceptor molecule, acceptor atom, score
      L1  H    10    29       P1  8028  0.93
      P1  H  7997  8008       L1     5  0.25
      P1  H 10752 10763       L1     4  0.03

> <Gold.Chemscore.Hbond.Weighted>
-5.3717

> <Gold.Chemscore.Metal.Weighted>
-0.0000

> <Gold.Chemscore.Lipo.Weighted>
-12.8934

> <Gold.Chemscore.Internal_Hbond.Weighted>
0.0000

> <Gold.Chemscore.DEClash.Weighted>
0.0467

> <Gold.Chemscore.DEInternal.Weighted>
0.6160

> <Gold.Chemscore.Rot.Weighted>
5.2796

> <Gold.Chemscore.Internal.Correction.Weighted>
   9.000000E+99

> <Gold.Protein.RotatedTorsions>
[ 6907 6896 6895 6894 ] final -139.73 input  -60.11 | X-H torsion
[ 7974 7965 7964 7962 ] final -167.07 input  175.53 | X-H torsion
[ 8008 7997 7996 7995 ] final  -21.79 input   59.86 | X-H torsion
[ 10167 10162 10161 10158 ] final   55.56 input  -65.29 | X-H torsion
[ 10718 10713 10712 10709 ] final -162.27 input   66.30 | X-H torsion
[ 10763 10752 10751 10750 ] final   73.67 input  -60.55 | X-H torsion
[ 11005 11000 10999 10996 ] final  135.10 input  -57.11 | X-H torsion

> <Gold.Protein.ActiveResidues>
 VAL166  LYS551  ARG553  GLY616  TRP617  ASP618  TYR619  PRO620  LYS621  CYS622 
 ASP623  PHE694  ASN695  SER759  ASP760  ASP761  ALA762  ILE779  LEU786  VAL792 
 PHE793  MET794  SER795  GLU796  ALA797  LYS798  CYS799  TRP800  GLU811  SER814 

> <Gold.Protein.RotatedAtoms>
  151.0515  133.5620  159.2641 H   0  0  0  0  0  0  0  0  0  0  0  0  # atno 6907 bound_to 6896
  151.2629  135.0659  159.9115 H   0  0  0  0  0  0  0  0  0  0  0  0  # atno 6908 bound_to 6896
  152.5382  134.0258  159.8056 H   0  0  0  0  0  0  0  0  0  0  0  0  # atno 6909 bound_to 6896
  144.7231  140.2572  143.6270 H   0  0  0  0  0  0  0  0  0  0  0  0  # atno 7974 bound_to 7965
  154.4683  140.2025  156.0059 H   0  0  0  0  0  0  0  0  0  0  0  0  # atno 8008 bound_to 7997
  156.0967  140.3250  155.7858 H   0  0  0  0  0  0  0  0  0  0  0  0  # atno 8009 bound_to 7997
  155.4866  140.0543  157.2950 H   0  0  0  0  0  0  0  0  0  0  0  0  # atno 8010 bound_to 7997
  140.2182  144.3817  150.6461 H   0  0  0  0  0  0  0  0  0  0  0  0  # atno 10167 bound_to 10162
  156.6080  130.8838  151.2930 H   0  0  0  0  0  0  0  0  0  0  0  0  # atno 10718 bound_to 10713
  153.0537  135.5054  154.7929 H   0  0  0  0  0  0  0  0  0  0  0  0  # atno 10763 bound_to 10752
  154.6771  135.2962  154.9666 H   0  0  0  0  0  0  0  0  0  0  0  0  # atno 10764 bound_to 10752
  154.0464  135.6710  153.4848 H   0  0  0  0  0  0  0  0  0  0  0  0  # atno 10765 bound_to 10752
  139.9958  134.9498  156.9960 H   0  0  0  0  0  0  0  0  0  0  0  0  # atno 11005 bound_to 11000
  145.8171  139.2027  143.1959 LP  0  0  0  0  0  0  0  0  0  0  0  0  # atno 17320 bound_to 7965
  146.0546  140.8034  142.9764 LP  0  0  0  0  0  0  0  0  0  0  0  0  # atno 17321 bound_to 7965
  140.6274  143.2183  151.6567 LP  0  0  0  0  0  0  0  0  0  0  0  0  # atno 17342 bound_to 10162
  139.5154  144.3379  152.0767 LP  0  0  0  0  0  0  0  0  0  0  0  0  # atno 17343 bound_to 10162
  157.7262  130.9626  150.1645 LP  0  0  0  0  0  0  0  0  0  0  0  0  # atno 17370 bound_to 10713
  156.2413  130.3691  149.8333 LP  0  0  0  0  0  0  0  0  0  0  0  0  # atno 17371 bound_to 10713
  140.4821  134.1279  155.7218 LP  0  0  0  0  0  0  0  0  0  0  0  0  # atno 17394 bound_to 11000
  141.1603  133.8805  157.1866 LP  0  0  0  0  0  0  0  0  0  0  0  0  # atno 17395 bound_to 11000

$$$$
