AV-unprocessed.smi:2504|AV-procd|sdf|9850|dock9
  -GOLD-   2272013483D 1   1.00000     0.00000
 Structure written by MMmdl.
 47 49  0  0  0  0  0  0  0  0  2 V2000
  152.7583  140.6223  157.3499 O   0  0  0  0  0  0  0  0  0  0  0  0
  151.7965  141.2999  156.9860 C   0  0  0  0  0  0  0  0  0  0  0  0
  151.1784  142.3605  157.9210 C   0  0  0  0  0  0  0  0  0  0  0  0
  151.2811  143.7853  157.3505 C   0  0  0  0  0  0  0  0  0  0  0  0
  152.5727  144.3992  157.9138 C   0  0  0  0  0  0  0  0  0  0  0  0
  153.0586  143.4609  159.0269 C   0  0  0  0  0  0  0  0  0  0  0  0
  151.9247  142.4581  159.2595 C   0  0  0  0  0  0  0  0  0  0  0  0
  151.1771  141.0794  155.7522 N   0  0  0  0  0  0  0  0  0  0  0  0
  151.2837  139.7942  155.0778 C   0  0  0  0  0  0  0  0  0  0  0  0
  149.9220  140.1329  154.4609 C   0  0  0  0  0  0  0  0  0  0  0  0
  148.7436  138.7107  154.5021 S   0  0  0  0  0  0  0  0  0  0  0  0
  149.5156  137.4768  154.7144 O   0  0  0  0  0  0  0  0  0  0  0  0
  147.6077  139.0231  155.3824 O   0  0  0  0  0  0  0  0  0  0  0  0
  148.1459  138.6861  152.8827 N   0  0  0  0  0  0  0  0  0  0  0  0
  146.7249  138.9512  152.6443 C   0  0  0  0  0  0  0  0  0  0  0  0
  145.8406  137.8410  153.2380 C   0  0  0  0  0  0  0  0  0  0  0  0
  145.9501  136.5226  152.4944 C   0  0  0  0  0  0  0  0  0  0  0  0
  146.4375  135.3695  153.1485 C   0  0  0  0  0  0  0  0  0  0  0  0
  146.5474  134.1610  152.4299 C   0  0  0  0  0  0  0  0  0  0  0  0
  146.1680  134.1329  151.0725 C   0  0  0  0  0  0  0  0  0  0  0  0
  145.7043  135.2554  150.4804 N   0  3  0  0  0  0  0  0  0  0  0  0
  145.5814  136.4312  151.1345 C   0  0  0  0  0  0  0  0  0  0  0  0
  149.7329  141.1559  155.5891 C   0  0  0  0  0  0  0  0  0  0  0  0
  150.1286  142.1149  158.0862 H   0  0  0  0  0  0  0  0  0  0  0  0
  151.2634  143.8103  156.2599 H   0  0  0  0  0  0  0  0  0  0  0  0
  150.4250  144.3695  157.6902 H   0  0  0  0  0  0  0  0  0  0  0  0
  153.3326  144.4886  157.1367 H   0  0  0  0  0  0  0  0  0  0  0  0
  152.3824  145.4018  158.2980 H   0  0  0  0  0  0  0  0  0  0  0  0
  153.9525  142.9326  158.6930 H   0  0  0  0  0  0  0  0  0  0  0  0
  153.3211  143.9995  159.9379 H   0  0  0  0  0  0  0  0  0  0  0  0
  151.2459  142.8414  160.0226 H   0  0  0  0  0  0  0  0  0  0  0  0
  152.3011  141.4988  159.6171 H   0  0  0  0  0  0  0  0  0  0  0  0
  152.1051  139.7348  154.3633 H   0  0  0  0  0  0  0  0  0  0  0  0
  151.2556  138.9416  155.7598 H   0  0  0  0  0  0  0  0  0  0  0  0
  150.0004  140.5689  153.4637 H   0  0  0  0  0  0  0  0  0  0  0  0
  148.7340  139.2461  152.2651 H   0  0  0  0  0  0  0  0  0  0  0  0
  146.4523  139.9251  153.0534 H   0  0  0  0  0  0  0  0  0  0  0  0
  146.5655  139.0099  151.5673 H   0  0  0  0  0  0  0  0  0  0  0  0
  146.1192  137.6747  154.2793 H   0  0  0  0  0  0  0  0  0  0  0  0
  144.7980  138.1619  153.2531 H   0  0  0  0  0  0  0  0  0  0  0  0
  146.7306  135.4109  154.1876 H   0  0  0  0  0  0  0  0  0  0  0  0
  146.9208  133.2697  152.9126 H   0  0  0  0  0  0  0  0  0  0  0  0
  146.2219  133.2538  150.4471 H   0  0  0  0  0  0  0  0  0  0  0  0
  145.2066  137.2594  150.5511 H   0  0  0  0  0  0  0  0  0  0  0  0
  149.1792  140.7818  156.4508 H   0  0  0  0  0  0  0  0  0  0  0  0
  149.3772  142.1312  155.2561 H   0  0  0  0  0  0  0  0  0  0  0  0
  145.4369  135.2133  149.4968 H   0  0  0  0  0  0  0  0  0  0  0  0
  1  2  2  0  0  0  0
  2  3  1  0  0  0  0
  2  8  1  0  0  0  0
  3  7  1  0  0  0  0
  3  4  1  0  0  0  0
  3 24  1  0  0  0  0
  4  5  1  0  0  0  0
  4 25  1  0  0  0  0
  4 26  1  0  0  0  0
  5  6  1  0  0  0  0
  5 27  1  0  0  0  0
  5 28  1  0  0  0  0
  6  7  1  0  0  0  0
  6 29  1  0  0  0  0
  6 30  1  0  0  0  0
  7 31  1  0  0  0  0
  7 32  1  0  0  0  0
  8 23  1  0  0  0  0
  8  9  1  0  0  0  0
  9 10  1  0  0  0  0
  9 33  1  0  0  0  0
  9 34  1  0  0  0  0
 10 11  1  0  0  0  0
 10 23  1  0  0  0  0
 10 35  1  0  0  0  0
 11 12  2  0  0  0  0
 11 13  2  0  0  0  0
 11 14  1  0  0  0  0
 14 15  1  0  0  0  0
 14 36  1  0  0  0  0
 15 16  1  0  0  0  0
 15 37  1  0  0  0  0
 15 38  1  0  0  0  0
 16 17  1  0  0  0  0
 16 39  1  0  0  0  0
 16 40  1  0  0  0  0
 17 22  1  0  0  0  0
 17 18  2  0  0  0  0
 18 19  1  0  0  0  0
 18 41  1  0  0  0  0
 19 20  2  0  0  0  0
 19 42  1  0  0  0  0
 20 21  1  0  0  0  0
 20 43  1  0  0  0  0
 21 22  2  0  0  0  0
 21 47  1  0  0  0  0
 22 44  1  0  0  0  0
 23 45  1  0  0  0  0
 23 46  1  0  0  0  0
M  CHG  1  21   1
M  END
> <s_m_source_file>
AV-unprocessed.smi

> <i_m_source_file_index>
2504

> <i_lp_mmshare_version>
43012

> <i_f3d_flags>
0

> <s_epik_input>
W0NIMl0xW0NIMl1bQ0gyXVtDSDJdW0NIXTFDKD1PKU4yW0NIMl1bQ0hdKFtDSDJdMilTKD1PKSg9TylbTkhdW0NIMl1bQ0gyXWMzW2NIXVtjSF1bY0hdbltjSF0z

> <s_epik_cmdline>
J2VwaWtfcHl0aG9uJywgJy1waCcsICc3LjAnLCAnLXRuJywgJzgnLCAnLW1hJywgJzIwMCcsICctbWV0YWxfYmluZGluZycsICctaW1hZScsICc8aW5maWxlLm1hZT4nLCAnLW9tYWUnLCAnPG91dGZpbGUubWFlPic=

> <r_epik_Ionization_Penalty>
2.38216

> <r_epik_Ionization_Penalty_Charging>
2.38209

> <r_epik_Ionization_Penalty_Neutral>
6.7549e-05

> <r_epik_State_Penalty>
2.53866

> <r_epik_Charging_Adjusted_Penalty>
4.92075

> <i_epik_Tot_Q>
1

> <i_epik_Tot_abs_Q>
1

> <r_epik_Metal_State_Penalty>
2.64273

> <b_epik_Metal_Only>
0

> <s_lp_Force_Field>
OPLS_2005

> <r_lp_Energy>
40.9078

> <b_lp_Chiralities_Consistent>
1

> <s_lp_Variant>
AV-unprocessed.smi:2504-2

> <Gold.Version>
5.8.1

> <Gold.Id.Protein>
6NUR|6NUR_protein|mol2

> <Gold.PLP.Fitness>
51.7594

> <Gold.PLP.PLP>
-43.0622

> <Gold.PLP.part.hbond>
-4.0000

> <Gold.PLP.part.metal>
0.0000

> <Gold.PLP.part.buried>
0.0233

> <Gold.PLP.part.nonpolar>
-38.0680

> <Gold.PLP.part.repulsive>
0.2779

> <Gold.PLP.ligand.clash>
0.0000

> <Gold.PLP.ligand.torsion>
0.8844

> <Gold.PLP.Chemscore.Hbond>
2.9357

> <Gold.PLP.Chemscore.CHOScore>
0.0000

> <Gold.PLP.Chemscore.Metal>
0.0000

> <Gold.Chemscore.Hbonds>
donor molecule, donor type, donor heavy atom, donor atom, acceptor molecule, acceptor atom, score
      L1  H    14    36       P1  7957  1.00
      L1  H    21    47       P1  7921  0.86
      P1  H  7997  8008       L1     1  0.75

> <Gold.PLP.Chemscore.Internal.Correction>
1.6588

> <Gold.Rescore>
     Score         DG    S(hbond)    S(metal)    S(lipo)     H(rot)  DE(clash)    DE(int)     intcor
     19.60     -22.64       2.60        0.00     115.50       1.97       1.99       1.05       ----

> <Gold.Chemscore.Fitness>
19.5959

> <Gold.Chemscore.DG>
-22.6357

> <Gold.Chemscore.ZeroCoef>
-5.4800

> <Gold.Chemscore.Hbond>
2.6043

> <Gold.Chemscore.Metal>
0.0000

> <Gold.Chemscore.Lipo>
115.4973

> <Gold.Chemscore.Internal_Hbond>
0.0000

> <Gold.Chemscore.DEClash>
1.9865

> <Gold.Chemscore.DEInternal>
1.0534

> <Gold.Chemscore.Rot>
1.9749

> <Gold.Chemscore.Internal.Correction>
   9.000000E+99

> <Gold.Chemscore.Hbonds>
donor molecule, donor type, donor heavy atom, donor atom, acceptor molecule, acceptor atom, score
      L1  H    14    36       P1  7957  0.99
      L1  H    21    47       P1  7921  0.79
      P1  H  7997  8008       L1     1  0.74

> <Gold.Chemscore.Hbond.Weighted>
-8.6982

> <Gold.Chemscore.Metal.Weighted>
-0.0000

> <Gold.Chemscore.Lipo.Weighted>
-13.5132

> <Gold.Chemscore.Internal_Hbond.Weighted>
0.0000

> <Gold.Chemscore.DEClash.Weighted>
1.9865

> <Gold.Chemscore.DEInternal.Weighted>
1.0534

> <Gold.Chemscore.Rot.Weighted>
5.0556

> <Gold.Chemscore.Internal.Correction.Weighted>
   9.000000E+99

> <Gold.Protein.RotatedTorsions>
[ 6907 6896 6895 6894 ] final  177.14 input  -60.11 | X-H torsion
[ 7974 7965 7964 7962 ] final   31.38 input  175.53 | X-H torsion
[ 8008 7997 7996 7995 ] final  -69.84 input   59.86 | X-H torsion
[ 10167 10162 10161 10158 ] final   -7.24 input  -65.29 | X-H torsion
[ 10718 10713 10712 10709 ] final   64.23 input   66.30 | X-H torsion
[ 10763 10752 10751 10750 ] final  -45.63 input  -60.55 | X-H torsion
[ 11005 11000 10999 10996 ] final   93.27 input  -57.11 | X-H torsion

> <Gold.Protein.ActiveResidues>
 VAL166  LYS551  ARG553  GLY616  TRP617  ASP618  TYR619  PRO620  LYS621  CYS622 
 ASP623  PHE694  ASN695  SER759  ASP760  ASP761  ALA762  ILE779  LEU786  VAL792 
 PHE793  MET794  SER795  GLU796  ALA797  LYS798  CYS799  TRP800  GLU811  SER814 

> <Gold.Protein.RotatedAtoms>
  151.7088  133.3312  159.3285 H   0  0  0  0  0  0  0  0  0  0  0  0  # atno 6907 bound_to 6896
  150.7703  134.6551  159.6318 H   0  0  0  0  0  0  0  0  0  0  0  0  # atno 6908 bound_to 6896
  152.3724  134.6716  160.0223 H   0  0  0  0  0  0  0  0  0  0  0  0  # atno 6909 bound_to 6896
  146.1553  139.6664  142.9070 H   0  0  0  0  0  0  0  0  0  0  0  0  # atno 7974 bound_to 7965
  154.4968  140.0846  156.7713 H   0  0  0  0  0  0  0  0  0  0  0  0  # atno 8008 bound_to 7997
  155.4098  140.3441  155.4244 H   0  0  0  0  0  0  0  0  0  0  0  0  # atno 8009 bound_to 7997
  156.1404  140.1527  156.8917 H   0  0  0  0  0  0  0  0  0  0  0  0  # atno 8010 bound_to 7997
  140.7022  143.6103  150.8710 H   0  0  0  0  0  0  0  0  0  0  0  0  # atno 10167 bound_to 10162
  157.6025  130.9148  149.9818 H   0  0  0  0  0  0  0  0  0  0  0  0  # atno 10718 bound_to 10713
  154.0317  135.6656  153.4781 H   0  0  0  0  0  0  0  0  0  0  0  0  # atno 10763 bound_to 10752
  153.0538  135.5068  154.7927 H   0  0  0  0  0  0  0  0  0  0  0  0  # atno 10764 bound_to 10752
  154.6874  135.3055  154.9493 H   0  0  0  0  0  0  0  0  0  0  0  0  # atno 10765 bound_to 10752
  139.8812  134.8780  156.3694 H   0  0  0  0  0  0  0  0  0  0  0  0  # atno 11005 bound_to 11000
  145.4723  141.0436  143.2692 LP  0  0  0  0  0  0  0  0  0  0  0  0  # atno 17320 bound_to 7965
  144.7956  139.6241  143.7094 LP  0  0  0  0  0  0  0  0  0  0  0  0  # atno 17321 bound_to 7965
  139.9826  143.5934  152.2938 LP  0  0  0  0  0  0  0  0  0  0  0  0  # atno 17342 bound_to 10162
  139.6561  144.7662  151.2053 LP  0  0  0  0  0  0  0  0  0  0  0  0  # atno 17343 bound_to 10162
  156.1102  130.3650  150.0062 LP  0  0  0  0  0  0  0  0  0  0  0  0  # atno 17370 bound_to 10713
  156.8161  130.9342  151.3643 LP  0  0  0  0  0  0  0  0  0  0  0  0  # atno 17371 bound_to 10713
  140.9475  133.7473  156.0227 LP  0  0  0  0  0  0  0  0  0  0  0  0  # atno 17394 bound_to 11000
  140.8146  134.3360  157.5401 LP  0  0  0  0  0  0  0  0  0  0  0  0  # atno 17395 bound_to 11000

$$$$
