AV-unprocessed.smi:79|AV-procd|sdf|782|dock5
  -GOLD-   2262017143D 1   1.00000     0.00000
 Structure written by MMmdl.
 56 59  0  0  0  0  0  0  0  0  2 V2000
  152.4926  143.0381  158.5903 C   0  0  0  0  0  0  0  0  0  0  0  0
  151.1925  143.3071  157.8219 C   0  0  1  0  0  0  0  0  0  0  0  0
  151.4281  144.3615  156.9109 O   0  0  0  0  0  0  0  0  0  0  0  0
  150.7112  142.0662  157.0447 C   0  0  0  0  0  0  0  0  0  0  0  0
  149.3262  142.2169  156.5289 N   0  3  2  0  0  0  0  0  0  0  0  0
  148.2825  142.0101  157.5695 C   0  0  0  0  0  0  0  0  0  0  0  0
  146.8694  142.2309  156.9975 C   0  0  0  0  0  0  0  0  0  0  0  0
  146.6463  141.3907  155.8256 N   0  0  0  0  0  0  0  0  0  0  0  0
  146.1976  140.1497  156.1476 C   0  0  0  0  0  0  0  0  0  0  0  0
  144.9220  139.7767  155.8637 N   0  0  0  0  0  0  0  0  0  0  0  0
  144.4987  138.5441  156.1590 C   0  0  0  0  0  0  0  0  0  0  0  0
  145.1770  137.5420  156.7213 N   0  0  0  0  0  0  0  0  0  0  0  0
  146.4608  137.9080  156.9998 C   0  0  0  0  0  0  0  0  0  0  0  0
  147.0469  139.1792  156.7454 C   0  0  0  0  0  0  0  0  0  0  0  0
  148.3732  139.1824  157.1578 N   0  0  0  0  0  0  0  0  0  0  0  0
  148.5611  137.9803  157.6307 C   0  0  0  0  0  0  0  0  0  0  0  0
  147.4627  137.1508  157.5824 N   0  0  0  0  0  0  0  0  0  0  0  0
  147.3905  135.7693  158.0337 C   0  0  0  0  0  0  0  0  0  0  0  0
  147.4338  135.6101  159.5650 C   0  0  0  0  0  0  0  0  0  0  0  0
  147.3359  134.1094  159.9068 C   0  0  0  0  0  0  0  0  0  0  0  0
  147.4088  133.8649  161.2974 O   0  0  0  0  0  0  0  0  0  0  0  0
  148.5532  136.3945  160.2646 C   0  0  0  0  0  0  0  0  0  0  0  0
  147.6228  137.0361  161.1644 O   0  0  0  0  0  0  0  0  0  0  0  0
  146.5206  136.5461  160.3695 C   0  0  0  0  0  0  0  0  0  0  0  0
  147.6523  141.5876  154.7748 C   0  0  2  0  0  0  0  0  0  0  0  0
  147.3721  140.8007  153.4799 C   0  0  0  0  0  0  0  0  0  0  0  0
  149.0860  141.3911  155.3158 C   0  0  0  0  0  0  0  0  0  0  0  0
  152.3573  142.2372  159.3178 H   0  0  0  0  0  0  0  0  0  0  0  0
  152.8172  143.9247  159.1361 H   0  0  0  0  0  0  0  0  0  0  0  0
  153.3009  142.7443  157.9196 H   0  0  0  0  0  0  0  0  0  0  0  0
  150.4366  143.6342  158.5350 H   0  0  0  0  0  0  0  0  0  0  0  0
  150.6001  144.6432  156.5515 H   0  0  0  0  0  0  0  0  0  0  0  0
  151.3978  141.8900  156.2148 H   0  0  0  0  0  0  0  0  0  0  0  0
  150.7638  141.1757  157.6734 H   0  0  0  0  0  0  0  0  0  0  0  0
  148.3673  140.9992  157.9715 H   0  0  0  0  0  0  0  0  0  0  0  0
  148.4347  142.6927  158.4044 H   0  0  0  0  0  0  0  0  0  0  0  0
  146.1204  142.0415  157.7676 H   0  0  0  0  0  0  0  0  0  0  0  0
  146.7462  143.2739  156.7037 H   0  0  0  0  0  0  0  0  0  0  0  0
  143.4707  138.3291  155.9065 H   0  0  0  0  0  0  0  0  0  0  0  0
  149.5141  137.6655  158.0293 H   0  0  0  0  0  0  0  0  0  0  0  0
  146.4827  135.3200  157.6294 H   0  0  0  0  0  0  0  0  0  0  0  0
  148.2166  135.2289  157.5698 H   0  0  0  0  0  0  0  0  0  0  0  0
  146.3948  133.6860  159.5557 H   0  0  0  0  0  0  0  0  0  0  0  0
  148.1357  133.5484  159.4227 H   0  0  0  0  0  0  0  0  0  0  0  0
  147.4440  134.6953  161.7474 H   0  0  0  0  0  0  0  0  0  0  0  0
  149.2827  135.7739  160.7862 H   0  0  0  0  0  0  0  0  0  0  0  0
  149.0556  137.1191  159.6220 H   0  0  0  0  0  0  0  0  0  0  0  0
  146.0691  137.3449  159.7803 H   0  0  0  0  0  0  0  0  0  0  0  0
  145.7669  136.0323  160.9668 H   0  0  0  0  0  0  0  0  0  0  0  0
  147.5656  142.6398  154.4999 H   0  0  0  0  0  0  0  0  0  0  0  0
  148.0495  141.1153  152.6858 H   0  0  0  0  0  0  0  0  0  0  0  0
  146.3547  140.9751  153.1286 H   0  0  0  0  0  0  0  0  0  0  0  0
  147.5041  139.7265  153.6045 H   0  0  0  0  0  0  0  0  0  0  0  0
  149.8025  141.6740  154.5434 H   0  0  0  0  0  0  0  0  0  0  0  0
  149.2784  140.3433  155.5473 H   0  0  0  0  0  0  0  0  0  0  0  0
  149.2431  143.1772  156.2263 H   0  0  0  0  0  0  0  0  0  0  0  0
  1  2  1  0  0  0  0
  1 28  1  0  0  0  0
  1 29  1  0  0  0  0
  1 30  1  0  0  0  0
  2  3  1  0  0  0  0
  2  4  1  0  0  0  0
  2 31  1  0  0  0  0
  3 32  1  0  0  0  0
  4  5  1  0  0  0  0
  4 33  1  0  0  0  0
  4 34  1  0  0  0  0
  5 27  1  0  0  0  0
  5  6  1  0  0  0  0
  5 56  1  0  0  0  0
  6  7  1  0  0  0  0
  6 35  1  0  0  0  0
  6 36  1  0  0  0  0
  7  8  1  0  0  0  0
  7 37  1  0  0  0  0
  7 38  1  0  0  0  0
  8  9  1  0  0  0  0
  8 25  1  0  0  0  0
  9 14  1  0  0  0  0
  9 10  2  0  0  0  0
 10 11  1  0  0  0  0
 11 12  2  0  0  0  0
 11 39  1  0  0  0  0
 12 13  1  0  0  0  0
 13 17  1  0  0  0  0
 13 14  2  0  0  0  0
 14 15  1  0  0  0  0
 15 16  2  0  0  0  0
 16 17  1  0  0  0  0
 16 40  1  0  0  0  0
 17 18  1  0  0  0  0
 18 19  1  0  0  0  0
 18 41  1  0  0  0  0
 18 42  1  0  0  0  0
 19 24  1  0  0  0  0
 19 20  1  0  0  0  0
 19 22  1  0  0  0  0
 20 21  1  0  0  0  0
 20 43  1  0  0  0  0
 20 44  1  0  0  0  0
 21 45  1  0  0  0  0
 22 23  1  0  0  0  0
 22 46  1  0  0  0  0
 22 47  1  0  0  0  0
 23 24  1  0  0  0  0
 24 48  1  0  0  0  0
 24 49  1  0  0  0  0
 25 26  1  0  0  0  0
 25 27  1  0  0  0  0
 25 50  1  0  0  0  0
 26 51  1  0  0  0  0
 26 52  1  0  0  0  0
 26 53  1  0  0  0  0
 27 54  1  0  0  0  0
 27 55  1  0  0  0  0
M  CHG  1   5   1
M  END
> <s_m_source_file>
AV-unprocessed.smi

> <i_m_source_file_index>
79

> <i_lp_mmshare_version>
43012

> <i_f3d_flags>
0

> <s_epik_input>
W0NIM11bQ0BIXShbT0hdKVtDSDJdTjFbQ0gyXVtDSDJdTihbQ0BASF0oW0NIM10pW0NIMl0xKWMobltjSF1uMiljKGMyMyluW2NIXW4zW0NIMl1DNChbQ0gyXVtPSF0pW0NIMl1PW0NIMl00

> <s_epik_cmdline>
J2VwaWtfcHl0aG9uJywgJy1waCcsICc3LjAnLCAnLXRuJywgJzgnLCAnLW1hJywgJzIwMCcsICctbWV0YWxfYmluZGluZycsICctaW1hZScsICc8aW5maWxlLm1hZT4nLCAnLW9tYWUnLCAnPG91dGZpbGUubWFlPic=

> <r_lp_tautomer_probability>
1

> <r_epik_Ionization_Penalty>
0.00515943

> <r_epik_Ionization_Penalty_Charging>
0.00509693

> <r_epik_Ionization_Penalty_Neutral>
6.25007e-05

> <r_epik_State_Penalty>
-0

> <r_epik_Charging_Adjusted_Penalty>
0.00509693

> <i_epik_Tot_Q>
1

> <i_epik_Tot_abs_Q>
1

> <r_epik_Metal_State_Penalty>
-0

> <b_epik_Metal_Only>
0

> <s_lp_Force_Field>
OPLS_2005

> <r_lp_Energy>
48.9332

> <b_lp_Chiralities_Consistent>
1

> <s_lp_Variant>
AV-unprocessed.smi:79-6

> <Gold.Version>
5.8.1

> <Gold.Id.Protein>
6NUR|6NUR_protein|mol2

> <Gold.PLP.Fitness>
42.2905

> <Gold.PLP.PLP>
-29.7551

> <Gold.PLP.part.hbond>
-4.0000

> <Gold.PLP.part.metal>
0.0000

> <Gold.PLP.part.buried>
-5.8633

> <Gold.PLP.part.nonpolar>
-21.3028

> <Gold.PLP.part.repulsive>
0.1801

> <Gold.PLP.ligand.clash>
0.0000

> <Gold.PLP.ligand.torsion>
0.7302

> <Gold.PLP.Chemscore.Hbond>
4.4011

> <Gold.PLP.Chemscore.CHOScore>
0.0000

> <Gold.PLP.Chemscore.Metal>
0.0000

> <Gold.Chemscore.Hbonds>
donor molecule, donor type, donor heavy atom, donor atom, acceptor molecule, acceptor atom, score
      L1  H     3    32       P1  8028  1.00
      L1  H     5    56       P1  8028  2.00
      P1  H  6931  6943       L1    23  0.64
      P1  H  6934  6947       L1    23  0.70

> <Gold.PLP.Chemscore.Internal.Correction>
0.7926

> <Gold.Rescore>
     Score         DG    S(hbond)    S(metal)    S(lipo)     H(rot)  DE(clash)    DE(int)     intcor
      9.62     -13.01       2.55        0.00      73.13       3.72       0.05       3.34       ----

> <Gold.Chemscore.Fitness>
9.6232

> <Gold.Chemscore.DG>
-13.0070

> <Gold.Chemscore.ZeroCoef>
-5.4800

> <Gold.Chemscore.Hbond>
2.5450

> <Gold.Chemscore.Metal>
0.0000

> <Gold.Chemscore.Lipo>
73.1323

> <Gold.Chemscore.Internal_Hbond>
0.0000

> <Gold.Chemscore.DEClash>
0.0453

> <Gold.Chemscore.DEInternal>
3.3385

> <Gold.Chemscore.Rot>
3.7226

> <Gold.Chemscore.Internal.Correction>
   9.000000E+99

> <Gold.Chemscore.Hbonds>
donor molecule, donor type, donor heavy atom, donor atom, acceptor molecule, acceptor atom, score
      L1  H     3    32       P1  8028  0.96
      L1  H     5    56       P1  8028  1.00
      P1  H  6931  6943       L1    23  0.05
      P1  H  6934  6947       L1    23  0.09

> <Gold.Chemscore.Hbond.Weighted>
-8.5003

> <Gold.Chemscore.Metal.Weighted>
-0.0000

> <Gold.Chemscore.Lipo.Weighted>
-8.5565

> <Gold.Chemscore.Internal_Hbond.Weighted>
0.0000

> <Gold.Chemscore.DEClash.Weighted>
0.0453

> <Gold.Chemscore.DEInternal.Weighted>
3.3385

> <Gold.Chemscore.Rot.Weighted>
9.5298

> <Gold.Chemscore.Internal.Correction.Weighted>
   9.000000E+99

> <Gold.Protein.RotatedTorsions>
[ 6907 6896 6895 6894 ] final  -80.63 input  -60.11 | X-H torsion
[ 7974 7965 7964 7962 ] final  -71.16 input  175.53 | X-H torsion
[ 8008 7997 7996 7995 ] final  -45.99 input   59.86 | X-H torsion
[ 10167 10162 10161 10158 ] final  -79.85 input  -65.29 | X-H torsion
[ 10718 10713 10712 10709 ] final -178.74 input   66.30 | X-H torsion
[ 10763 10752 10751 10750 ] final -123.07 input  -60.55 | X-H torsion
[ 11005 11000 10999 10996 ] final   25.78 input  -57.11 | X-H torsion

> <Gold.Protein.ActiveResidues>
 VAL166  LYS551  ARG553  GLY616  TRP617  ASP618  TYR619  PRO620  LYS621  CYS622 
 ASP623  PHE694  ASN695  SER759  ASP760  ASP761  ALA762  ILE779  LEU786  VAL792 
 PHE793  MET794  SER795  GLU796  ALA797  LYS798  CYS799  TRP800  GLU811  SER814 

> <Gold.Protein.RotatedAtoms>
  150.6926  134.3941  159.5089 H   0  0  0  0  0  0  0  0  0  0  0  0  # atno 6907 bound_to 6896
  152.1724  134.8820  160.0542 H   0  0  0  0  0  0  0  0  0  0  0  0  # atno 6908 bound_to 6896
  151.9841  133.3733  159.4156 H   0  0  0  0  0  0  0  0  0  0  0  0  # atno 6909 bound_to 6896
  145.6816  140.9185  143.0829 H   0  0  0  0  0  0  0  0  0  0  0  0  # atno 7974 bound_to 7965
  154.4004  140.1383  156.3938 H   0  0  0  0  0  0  0  0  0  0  0  0  # atno 8008 bound_to 7997
  155.7889  140.3479  155.5318 H   0  0  0  0  0  0  0  0  0  0  0  0  # atno 8009 bound_to 7997
  155.8599  140.0955  157.1610 H   0  0  0  0  0  0  0  0  0  0  0  0  # atno 8010 bound_to 7997
  140.4556  143.2469  151.8425 H   0  0  0  0  0  0  0  0  0  0  0  0  # atno 10167 bound_to 10162
  156.8488  130.9712  151.3094 H   0  0  0  0  0  0  0  0  0  0  0  0  # atno 10718 bound_to 10713
  154.8701  135.4111  154.2884 H   0  0  0  0  0  0  0  0  0  0  0  0  # atno 10763 bound_to 10752
  153.3764  135.7009  153.6604 H   0  0  0  0  0  0  0  0  0  0  0  0  # atno 10764 bound_to 10752
  153.5444  135.3641  155.2704 H   0  0  0  0  0  0  0  0  0  0  0  0  # atno 10765 bound_to 10752
  140.3442  134.2300  155.7686 H   0  0  0  0  0  0  0  0  0  0  0  0  # atno 11005 bound_to 11000
  144.7024  139.8704  143.7440 LP  0  0  0  0  0  0  0  0  0  0  0  0  # atno 17320 bound_to 7965
  146.0959  139.3951  143.0377 LP  0  0  0  0  0  0  0  0  0  0  0  0  # atno 17321 bound_to 7965
  139.4801  144.5069  151.8985 LP  0  0  0  0  0  0  0  0  0  0  0  0  # atno 17342 bound_to 10162
  140.4155  144.2312  150.5888 LP  0  0  0  0  0  0  0  0  0  0  0  0  # atno 17343 bound_to 10162
  157.6315  130.8733  149.9282 LP  0  0  0  0  0  0  0  0  0  0  0  0  # atno 17370 bound_to 10713
  156.0839  130.3670  150.0525 LP  0  0  0  0  0  0  0  0  0  0  0  0  # atno 17371 bound_to 10713
  141.2030  133.7923  157.0361 LP  0  0  0  0  0  0  0  0  0  0  0  0  # atno 17394 bound_to 11000
  140.0756  134.9677  157.1540 LP  0  0  0  0  0  0  0  0  0  0  0  0  # atno 17395 bound_to 11000

$$$$
