AV-unprocessed.smi:165|AV-procd|sdf|1386|dock4
  -GOLD-   2262019123D 1   1.00000     0.00000
 Structure written by MMmdl.
 55 59  0  0  0  0  0  0  0  0  1 V2000
  146.3840  131.0397  150.8290 O   0  0  0  0  0  0  0  0  0  0  0  0
  145.9587  132.1818  150.1118 C   0  0  0  0  0  0  0  0  0  0  0  0
  144.7973  132.9220  150.8015 C   0  0  0  0  0  0  0  0  0  0  0  0
  143.5406  132.0854  150.4813 C   0  0  0  0  0  0  0  0  0  0  0  0
  143.2523  132.0099  149.0996 O   0  0  0  0  0  0  0  0  0  0  0  0
  145.0095  133.2949  152.2865 C   0  0  0  0  0  0  0  0  0  0  0  0
  144.4524  134.6991  152.0239 C   0  0  0  0  0  0  0  0  0  0  0  0
  145.0104  135.8475  152.6772 N   0  0  0  0  0  0  0  0  0  0  0  0
  144.6431  137.1612  152.4912 C   0  0  0  0  0  0  0  0  0  0  0  0
  145.2749  138.0272  153.2355 N   0  0  0  0  0  0  0  0  0  0  0  0
  146.1109  137.2487  154.0272 C   0  0  0  0  0  0  0  0  0  0  0  0
  147.0585  137.5368  155.0499 C   0  0  0  0  0  0  0  0  0  0  0  0
  147.3199  138.8001  155.4706 N   0  0  0  0  0  0  0  0  0  0  0  0
  146.1462  139.6370  155.6816 C   0  0  0  0  0  0  0  0  0  0  0  0
  146.5674  141.1092  155.7851 C   0  0  0  0  0  0  0  0  0  0  0  0
  147.5641  141.2627  156.7940 O   0  0  0  0  0  0  0  0  0  0  0  0
  148.7494  140.4796  156.6094 C   0  0  2  0  0  0  0  0  0  0  0  0
  149.5865  140.7291  157.8796 C   0  0  0  0  0  0  0  0  0  0  0  0
  151.0064  140.1689  157.7379 C   0  0  0  0  0  0  0  0  0  0  0  0
  151.6597  140.7044  156.4571 C   0  0  0  0  0  0  0  0  0  0  0  0
  150.8490  140.3781  155.3356 O   0  0  0  0  0  0  0  0  0  0  0  0
  149.5557  140.9749  155.3794 C   0  0  0  0  0  0  0  0  0  0  0  0
  148.3484  138.9886  156.4904 C   0  0  0  0  0  0  0  0  0  0  0  0
  147.7127  136.4842  155.6102 N   0  0  0  0  0  0  0  0  0  0  0  0
  147.4523  135.2365  155.2091 C   0  0  0  0  0  0  0  0  0  0  0  0
  146.5966  134.8223  154.2734 N   0  0  0  0  0  0  0  0  0  0  0  0
  145.9470  135.8735  153.6964 C   0  0  0  0  0  0  0  0  0  0  0  0
  144.6943  134.4409  150.5315 C   0  0  0  0  0  0  0  0  0  0  0  0
  147.3104  130.9211  150.6853 H   0  0  0  0  0  0  0  0  0  0  0  0
  146.8212  132.8384  149.9921 H   0  0  0  0  0  0  0  0  0  0  0  0
  145.6705  131.8565  149.1116 H   0  0  0  0  0  0  0  0  0  0  0  0
  143.6522  131.0653  150.8505 H   0  0  0  0  0  0  0  0  0  0  0  0
  142.6634  132.5022  150.9774 H   0  0  0  0  0  0  0  0  0  0  0  0
  143.9267  132.4718  148.6257 H   0  0  0  0  0  0  0  0  0  0  0  0
  144.4225  132.7083  152.9939 H   0  0  0  0  0  0  0  0  0  0  0  0
  146.0579  133.3182  152.5869 H   0  0  0  0  0  0  0  0  0  0  0  0
  143.3835  134.7304  152.2369 H   0  0  0  0  0  0  0  0  0  0  0  0
  143.8932  137.4629  151.7745 H   0  0  0  0  0  0  0  0  0  0  0  0
  145.4180  139.5220  154.8796 H   0  0  0  0  0  0  0  0  0  0  0  0
  145.6532  139.3259  156.6035 H   0  0  0  0  0  0  0  0  0  0  0  0
  146.9273  141.4797  154.8253 H   0  0  0  0  0  0  0  0  0  0  0  0
  145.7070  141.7240  156.0493 H   0  0  0  0  0  0  0  0  0  0  0  0
  149.6534  141.8028  158.0618 H   0  0  0  0  0  0  0  0  0  0  0  0
  149.0967  140.3032  158.7559 H   0  0  0  0  0  0  0  0  0  0  0  0
  151.6050  140.4412  158.6072 H   0  0  0  0  0  0  0  0  0  0  0  0
  150.9784  139.0793  157.7091 H   0  0  0  0  0  0  0  0  0  0  0  0
  151.8042  141.7844  156.5139 H   0  0  0  0  0  0  0  0  0  0  0  0
  152.6447  140.2571  156.3229 H   0  0  0  0  0  0  0  0  0  0  0  0
  149.0464  140.7331  154.4468 H   0  0  0  0  0  0  0  0  0  0  0  0
  149.6618  142.0606  155.4039 H   0  0  0  0  0  0  0  0  0  0  0  0
  147.9614  138.6303  157.4455 H   0  0  0  0  0  0  0  0  0  0  0  0
  149.2240  138.3833  156.2518 H   0  0  0  0  0  0  0  0  0  0  0  0
  148.0113  134.4586  155.7080 H   0  0  0  0  0  0  0  0  0  0  0  0
  145.6267  134.8841  150.1800 H   0  0  0  0  0  0  0  0  0  0  0  0
  143.8643  134.7354  149.8887 H   0  0  0  0  0  0  0  0  0  0  0  0
  1  2  1  0  0  0  0
  1 29  1  0  0  0  0
  2  3  1  0  0  0  0
  2 30  1  0  0  0  0
  2 31  1  0  0  0  0
  3 28  1  0  0  0  0
  3  4  1  0  0  0  0
  3  6  1  0  0  0  0
  4  5  1  0  0  0  0
  4 32  1  0  0  0  0
  4 33  1  0  0  0  0
  5 34  1  0  0  0  0
  6  7  1  0  0  0  0
  6 35  1  0  0  0  0
  6 36  1  0  0  0  0
  7  8  1  0  0  0  0
  7 28  1  0  0  0  0
  7 37  1  0  0  0  0
  8 27  1  0  0  0  0
  8  9  1  0  0  0  0
  9 10  2  0  0  0  0
  9 38  1  0  0  0  0
 10 11  1  0  0  0  0
 11 27  2  0  0  0  0
 11 12  1  0  0  0  0
 12 13  1  0  0  0  0
 12 24  2  0  0  0  0
 13 23  1  0  0  0  0
 13 14  1  0  0  0  0
 14 15  1  0  0  0  0
 14 39  1  0  0  0  0
 14 40  1  0  0  0  0
 15 16  1  0  0  0  0
 15 41  1  0  0  0  0
 15 42  1  0  0  0  0
 16 17  1  0  0  0  0
 17 22  1  0  0  0  0
 17 18  1  0  0  0  0
 17 23  1  0  0  0  0
 18 19  1  0  0  0  0
 18 43  1  0  0  0  0
 18 44  1  0  0  0  0
 19 20  1  0  0  0  0
 19 45  1  0  0  0  0
 19 46  1  0  0  0  0
 20 21  1  0  0  0  0
 20 47  1  0  0  0  0
 20 48  1  0  0  0  0
 21 22  1  0  0  0  0
 22 49  1  0  0  0  0
 22 50  1  0  0  0  0
 23 51  1  0  0  0  0
 23 52  1  0  0  0  0
 24 25  1  0  0  0  0
 25 26  2  0  0  0  0
 25 53  1  0  0  0  0
 26 27  1  0  0  0  0
 28 54  1  0  0  0  0
 28 55  1  0  0  0  0
M  END
> <s_m_source_file>
AV-unprocessed.smi

> <i_m_source_file_index>
165

> <i_lp_mmshare_version>
43012

> <i_f3d_flags>
0

> <s_epik_input>
W09IXVtDSDJdQzEoW0NIMl1bT0hdKVtDSDJdW0NIXShbQ0gyXTEpbihbY0hdbjIpYyhjMjMpbltjSF1uYzNOKFtDSDJdNClbQ0gyXVtDSDJdT1tDQEBdNDVbQ0gyXVtDSDJdW0NIMl1PW0NIMl01

> <s_epik_cmdline>
J2VwaWtfcHl0aG9uJywgJy1waCcsICc3LjAnLCAnLXRuJywgJzgnLCAnLW1hJywgJzIwMCcsICctbWV0YWxfYmluZGluZycsICctaW1hZScsICc8aW5maWxlLm1hZT4nLCAnLW9tYWUnLCAnPG91dGZpbGUubWFlPic=

> <r_lp_tautomer_probability>
1

> <r_epik_Ionization_Penalty>
0.00466923

> <r_epik_Ionization_Penalty_Charging>
0

> <r_epik_Ionization_Penalty_Neutral>
0.00466923

> <r_epik_State_Penalty>
0.0032353

> <r_epik_Charging_Adjusted_Penalty>
0.0032353

> <i_epik_Tot_Q>
0

> <i_epik_Tot_abs_Q>
0

> <r_epik_Metal_State_Penalty>
-0

> <b_epik_Metal_Only>
0

> <s_lp_Force_Field>
OPLS_2005

> <r_lp_Energy>
54.9184

> <b_lp_Chiralities_Consistent>
1

> <s_lp_Variant>
AV-unprocessed.smi:165-1

> <Gold.Version>
5.8.1

> <Gold.Id.Protein>
6NUR|6NUR_protein|mol2

> <Gold.PLP.Fitness>
44.7847

> <Gold.PLP.PLP>
-33.4041

> <Gold.PLP.part.hbond>
-4.5123

> <Gold.PLP.part.metal>
0.0000

> <Gold.PLP.part.buried>
-7.9372

> <Gold.PLP.part.nonpolar>
-22.1519

> <Gold.PLP.part.repulsive>
1.1390

> <Gold.PLP.ligand.clash>
0.0000

> <Gold.PLP.ligand.torsion>
0.6079

> <Gold.PLP.Chemscore.Hbond>
3.0000

> <Gold.PLP.Chemscore.CHOScore>
0.9638

> <Gold.PLP.Chemscore.Metal>
0.0000

> <Gold.Chemscore.Hbonds>
donor molecule, donor type, donor heavy atom, donor atom, acceptor molecule, acceptor atom, score
      L1  H     1    29       P1 10747  1.00
      P1  H  7989  7998       L1    21  0.94
      P1  H 10785 10796       L1     5  1.00
      L1  C     9    38       P1 10171  1.00

> <Gold.PLP.Chemscore.Internal.Correction>
0.7048

> <Gold.Rescore>
     Score         DG    S(hbond)    S(metal)    S(lipo)     H(rot)  DE(clash)    DE(int)     intcor
     11.01     -13.87       2.43        0.00      70.99       3.14       0.07       2.79       ----

> <Gold.Chemscore.Fitness>
11.0127

> <Gold.Chemscore.DG>
-13.8723

> <Gold.Chemscore.ZeroCoef>
-5.4800

> <Gold.Chemscore.Hbond>
2.4290

> <Gold.Chemscore.Metal>
0.0000

> <Gold.Chemscore.Lipo>
70.9867

> <Gold.Chemscore.Internal_Hbond>
0.0000

> <Gold.Chemscore.DEClash>
0.0712

> <Gold.Chemscore.DEInternal>
2.7884

> <Gold.Chemscore.Rot>
3.1351

> <Gold.Chemscore.Internal.Correction>
   9.000000E+99

> <Gold.Chemscore.Hbonds>
donor molecule, donor type, donor heavy atom, donor atom, acceptor molecule, acceptor atom, score
      L1  H     1    29       P1 10747  1.00
      P1  H  7989  7998       L1    21  0.43
      P1  H 10785 10796       L1     5  0.38

> <Gold.Chemscore.Hbond.Weighted>
-8.1129

> <Gold.Chemscore.Metal.Weighted>
-0.0000

> <Gold.Chemscore.Lipo.Weighted>
-8.3054

> <Gold.Chemscore.Internal_Hbond.Weighted>
0.0000

> <Gold.Chemscore.DEClash.Weighted>
0.0712

> <Gold.Chemscore.DEInternal.Weighted>
2.7884

> <Gold.Chemscore.Rot.Weighted>
8.0260

> <Gold.Chemscore.Internal.Correction.Weighted>
   9.000000E+99

> <Gold.Protein.RotatedTorsions>
[ 6907 6896 6895 6894 ] final  139.93 input  -60.11 | X-H torsion
[ 7974 7965 7964 7962 ] final -134.70 input  175.53 | X-H torsion
[ 8008 7997 7996 7995 ] final   36.81 input   59.86 | X-H torsion
[ 10167 10162 10161 10158 ] final   61.97 input  -65.29 | X-H torsion
[ 10718 10713 10712 10709 ] final  -49.85 input   66.30 | X-H torsion
[ 10763 10752 10751 10750 ] final  159.40 input  -60.55 | X-H torsion
[ 11005 11000 10999 10996 ] final  104.89 input  -57.11 | X-H torsion

> <Gold.Protein.ActiveResidues>
 VAL166  LYS551  ARG553  GLY616  TRP617  ASP618  TYR619  PRO620  LYS621  CYS622 
 ASP623  PHE694  ASN695  SER759  ASP760  ASP761  ALA762  ILE779  LEU786  VAL792 
 PHE793  MET794  SER795  GLU796  ALA797  LYS798  CYS799  TRP800  GLU811  SER814 

> <Gold.Protein.RotatedAtoms>
  152.2491  133.5200  159.5314 H   0  0  0  0  0  0  0  0  0  0  0  0  # atno 6907 bound_to 6896
  150.7088  134.0985  159.3966 H   0  0  0  0  0  0  0  0  0  0  0  0  # atno 6908 bound_to 6896
  151.8904  135.0418  160.0548 H   0  0  0  0  0  0  0  0  0  0  0  0  # atno 6909 bound_to 6896
  144.9080  140.6858  143.5043 H   0  0  0  0  0  0  0  0  0  0  0  0  # atno 7974 bound_to 7965
  155.1934  140.3310  155.4355 H   0  0  0  0  0  0  0  0  0  0  0  0  # atno 8008 bound_to 7997
  156.2434  140.1906  156.6976 H   0  0  0  0  0  0  0  0  0  0  0  0  # atno 8009 bound_to 7997
  154.6190  140.0598  156.9577 H   0  0  0  0  0  0  0  0  0  0  0  0  # atno 8010 bound_to 7997
  140.1490  144.4480  150.6769 H   0  0  0  0  0  0  0  0  0  0  0  0  # atno 10167 bound_to 10162
  156.1855  130.4151  149.9446 H   0  0  0  0  0  0  0  0  0  0  0  0  # atno 10718 bound_to 10713
  154.2311  135.2778  155.2889 H   0  0  0  0  0  0  0  0  0  0  0  0  # atno 10763 bound_to 10752
  154.5623  135.5643  153.7022 H   0  0  0  0  0  0  0  0  0  0  0  0  # atno 10764 bound_to 10752
  153.0020  135.6301  154.2453 H   0  0  0  0  0  0  0  0  0  0  0  0  # atno 10765 bound_to 10752
  139.8796  134.9316  156.5431 H   0  0  0  0  0  0  0  0  0  0  0  0  # atno 11005 bound_to 11000
  145.3503  139.1708  143.4438 LP  0  0  0  0  0  0  0  0  0  0  0  0  # atno 17320 bound_to 7965
  146.3143  140.3554  142.8660 LP  0  0  0  0  0  0  0  0  0  0  0  0  # atno 17321 bound_to 7965
  140.6714  143.2287  151.5616 LP  0  0  0  0  0  0  0  0  0  0  0  0  # atno 17342 bound_to 10162
  139.5435  144.2584  152.1397 LP  0  0  0  0  0  0  0  0  0  0  0  0  # atno 17343 bound_to 10162
  156.7203  130.9004  151.3617 LP  0  0  0  0  0  0  0  0  0  0  0  0  # atno 17370 bound_to 10713
  157.6896  130.9220  150.0477 LP  0  0  0  0  0  0  0  0  0  0  0  0  # atno 17371 bound_to 10713
  140.8296  133.8289  155.8971 LP  0  0  0  0  0  0  0  0  0  0  0  0  # atno 17394 bound_to 11000
  140.9341  134.1984  157.4843 LP  0  0  0  0  0  0  0  0  0  0  0  0  # atno 17395 bound_to 11000

$$$$
