AV-unprocessed.smi:437|AV-procd|sdf|2562|dock4
  -GOLD-   2262022533D 1   1.00000     0.00000
 Structure written by MMmdl.
 48 49  0  0  0  0  0  0  0  0  1 V2000
  150.8555  142.5940  156.7129 C   0  0  0  0  0  0  0  0  0  0  0  0
  150.5465  141.1213  156.7382 C   0  0  0  0  0  0  0  0  0  0  0  0
  149.9781  140.6299  155.6866 N   0  0  0  0  0  0  0  0  0  0  0  0
  149.6450  139.2915  155.6075 N   0  0  0  0  0  0  0  0  0  0  0  0
  148.9978  138.9101  154.3433 C   0  0  0  0  0  0  0  0  0  0  0  0
  147.6796  138.1453  154.5403 C   0  0  0  0  0  0  0  0  0  0  0  0
  146.8287  138.5625  155.3307 O   0  0  0  0  0  0  0  0  0  0  0  0
  147.5545  137.0332  153.7883 N   0  0  0  0  0  0  0  0  0  0  0  0
  146.5154  136.1772  153.7534 C   0  0  0  0  0  0  0  0  0  0  0  0
  145.6028  136.1180  154.5805 O   0  0  0  0  0  0  0  0  0  0  0  0
  146.5910  135.3759  152.6806 N   0  0  0  0  0  0  0  0  0  0  0  0
  145.8386  134.1369  152.4926 C   0  0  1  0  0  0  0  0  0  0  0  0
  144.6974  134.3624  151.4771 C   0  0  0  0  0  0  0  0  0  0  0  0
  143.9175  133.0685  151.2037 C   0  0  0  0  0  0  0  0  0  0  0  0
  144.8556  131.9514  150.7278 C   0  0  0  0  0  0  0  0  0  0  0  0
  145.9844  131.7116  151.7415 C   0  0  0  0  0  0  0  0  0  0  0  0
  146.7832  132.9992  152.0294 C   0  0  2  0  0  0  0  0  0  0  0  0
  147.9108  132.7195  153.0392 C   0  0  0  0  0  0  0  0  0  0  0  0
  149.8750  138.3744  156.5908 C   0  0  0  0  0  0  0  0  0  0  0  0
  149.5613  137.1885  156.4770 O   0  0  0  0  0  0  0  0  0  0  0  0
  150.5212  138.9375  157.7785 C   0  0  0  0  0  0  0  0  0  0  0  0
  150.7753  138.0123  158.8353 C   0  0  0  0  0  0  0  0  0  0  0  0
  151.0009  137.2596  159.6854 N   0  0  0  0  0  0  0  0  0  0  0  0
  150.8540  140.2496  157.8675 C   0  0  0  0  0  0  0  0  0  0  0  0
  151.5266  140.8828  159.0780 C   0  0  0  0  0  0  0  0  0  0  0  0
  151.9325  142.7625  156.7280 H   0  0  0  0  0  0  0  0  0  0  0  0
  150.4216  143.0967  157.5776 H   0  0  0  0  0  0  0  0  0  0  0  0
  150.4581  143.0780  155.8192 H   0  0  0  0  0  0  0  0  0  0  0  0
  148.7872  139.8009  153.7486 H   0  0  0  0  0  0  0  0  0  0  0  0
  149.6779  138.3096  153.7360 H   0  0  0  0  0  0  0  0  0  0  0  0
  148.3300  136.8194  153.1788 H   0  0  0  0  0  0  0  0  0  0  0  0
  147.2235  135.6351  151.9378 H   0  0  0  0  0  0  0  0  0  0  0  0
  145.4002  133.8437  153.4488 H   0  0  0  0  0  0  0  0  0  0  0  0
  144.0106  135.1264  151.8434 H   0  0  0  0  0  0  0  0  0  0  0  0
  145.1066  134.7417  150.5395 H   0  0  0  0  0  0  0  0  0  0  0  0
  143.4019  132.7530  152.1115 H   0  0  0  0  0  0  0  0  0  0  0  0
  143.1453  133.2501  150.4555 H   0  0  0  0  0  0  0  0  0  0  0  0
  144.2908  131.0313  150.5759 H   0  0  0  0  0  0  0  0  0  0  0  0
  145.2816  132.2171  149.7596 H   0  0  0  0  0  0  0  0  0  0  0  0
  145.5611  131.3258  152.6698 H   0  0  0  0  0  0  0  0  0  0  0  0
  146.6512  130.9362  151.3626 H   0  0  0  0  0  0  0  0  0  0  0  0
  147.2523  133.3099  151.0942 H   0  0  0  0  0  0  0  0  0  0  0  0
  147.5082  132.4339  154.0115 H   0  0  0  0  0  0  0  0  0  0  0  0
  148.5475  133.5921  153.1860 H   0  0  0  0  0  0  0  0  0  0  0  0
  148.5519  131.9077  152.6946 H   0  0  0  0  0  0  0  0  0  0  0  0
  151.8176  140.1416  159.8218 H   0  0  0  0  0  0  0  0  0  0  0  0
  150.8515  141.5899  159.5611 H   0  0  0  0  0  0  0  0  0  0  0  0
  152.4303  141.4169  158.7827 H   0  0  0  0  0  0  0  0  0  0  0  0
  1  2  1  0  0  0  0
  1 26  1  0  0  0  0
  1 27  1  0  0  0  0
  1 28  1  0  0  0  0
  2 24  1  0  0  0  0
  2  3  2  0  0  0  0
  3  4  1  0  0  0  0
  4  5  1  0  0  0  0
  4 19  1  0  0  0  0
  5  6  1  0  0  0  0
  5 29  1  0  0  0  0
  5 30  1  0  0  0  0
  6  7  2  0  0  0  0
  6  8  1  0  0  0  0
  8  9  1  0  0  0  0
  8 31  1  0  0  0  0
  9 10  2  0  0  0  0
  9 11  1  0  0  0  0
 11 12  1  0  0  0  0
 11 32  1  0  0  0  0
 12 17  1  0  0  0  0
 12 13  1  0  0  0  0
 12 33  1  0  0  0  0
 13 14  1  0  0  0  0
 13 34  1  0  0  0  0
 13 35  1  0  0  0  0
 14 15  1  0  0  0  0
 14 36  1  0  0  0  0
 14 37  1  0  0  0  0
 15 16  1  0  0  0  0
 15 38  1  0  0  0  0
 15 39  1  0  0  0  0
 16 17  1  0  0  0  0
 16 40  1  0  0  0  0
 16 41  1  0  0  0  0
 17 18  1  0  0  0  0
 17 42  1  0  0  0  0
 18 43  1  0  0  0  0
 18 44  1  0  0  0  0
 18 45  1  0  0  0  0
 19 20  2  0  0  0  0
 19 21  1  0  0  0  0
 21 22  1  0  0  0  0
 21 24  2  0  0  0  0
 22 23  3  0  0  0  0
 24 25  1  0  0  0  0
 25 46  1  0  0  0  0
 25 47  1  0  0  0  0
 25 48  1  0  0  0  0
M  END
> <s_m_source_file>
AV-unprocessed.smi

> <i_m_source_file_index>
437

> <i_lp_mmshare_version>
43012

> <i_f3d_flags>
0

> <s_epik_input>
TiNDYyhjMVtDSDNdKWMoPU8pbihuYzFbQ0gzXSlbQ0gyXUMoPU8pW05IXUMoPU8pW05IXVtDQEBIXTJbQ0gyXVtDSDJdW0NIMl1bQ0gyXVtDQEhdMltDSDNd

> <s_epik_cmdline>
J2VwaWtfcHl0aG9uJywgJy1waCcsICc3LjAnLCAnLXRuJywgJzgnLCAnLW1hJywgJzIwMCcsICctbWV0YWxfYmluZGluZycsICctaW1hZScsICc8aW5maWxlLm1hZT4nLCAnLW9tYWUnLCAnPG91dGZpbGUubWFlPic=

> <r_lp_tautomer_probability>
1

> <r_epik_Ionization_Penalty>
3.27035e-05

> <r_epik_Ionization_Penalty_Charging>
1.6965e-11

> <r_epik_Ionization_Penalty_Neutral>
3.27035e-05

> <r_epik_State_Penalty>
-0

> <r_epik_Charging_Adjusted_Penalty>
1.6965e-11

> <i_epik_Tot_Q>
0

> <i_epik_Tot_abs_Q>
0

> <r_epik_Metal_State_Penalty>
-0

> <b_epik_Metal_Only>
0

> <s_lp_Force_Field>
OPLS_2005

> <r_lp_Energy>
26.7465

> <b_lp_Chiralities_Consistent>
1

> <s_lp_Variant>
AV-unprocessed.smi:437-4

> <Gold.Version>
5.8.1

> <Gold.Id.Protein>
6NUR|6NUR_protein|mol2

> <Gold.PLP.Fitness>
41.1962

> <Gold.PLP.PLP>
-34.0064

> <Gold.PLP.part.hbond>
-2.8650

> <Gold.PLP.part.metal>
0.0000

> <Gold.PLP.part.buried>
-5.6192

> <Gold.PLP.part.nonpolar>
-26.2993

> <Gold.PLP.part.repulsive>
0.1341

> <Gold.PLP.ligand.clash>
0.0000

> <Gold.PLP.ligand.torsion>
0.4730

> <Gold.PLP.Chemscore.Hbond>
2.7040

> <Gold.PLP.Chemscore.CHOScore>
0.0000

> <Gold.PLP.Chemscore.Metal>
0.0000

> <Gold.Chemscore.Hbonds>
donor molecule, donor type, donor heavy atom, donor atom, acceptor molecule, acceptor atom, score
      L1  H     8    31       P1  7948  1.00
      L1  H    11    32       P1  7948  0.74
      P1  H  6896  6909       L1    23  0.63

> <Gold.PLP.Chemscore.Internal.Correction>
0.0237

> <Gold.Rescore>
     Score         DG    S(hbond)    S(metal)    S(lipo)     H(rot)  DE(clash)    DE(int)     intcor
     16.73     -19.64       2.85        0.00      73.95       1.57       0.00       2.90       ----

> <Gold.Chemscore.Fitness>
16.7288

> <Gold.Chemscore.DG>
-19.6367

> <Gold.Chemscore.ZeroCoef>
-5.4800

> <Gold.Chemscore.Hbond>
2.8480

> <Gold.Chemscore.Metal>
0.0000

> <Gold.Chemscore.Lipo>
73.9515

> <Gold.Chemscore.Internal_Hbond>
0.0000

> <Gold.Chemscore.DEClash>
0.0048

> <Gold.Chemscore.DEInternal>
2.9031

> <Gold.Chemscore.Rot>
1.5656

> <Gold.Chemscore.Internal.Correction>
   9.000000E+99

> <Gold.Chemscore.Hbonds>
donor molecule, donor type, donor heavy atom, donor atom, acceptor molecule, acceptor atom, score
      L1  H     8    31       P1  7948  0.94
      L1  H    11    32       P1  7948  0.72
      P1  H  6896  6909       L1    23  0.65

> <Gold.Chemscore.Hbond.Weighted>
-9.5122

> <Gold.Chemscore.Metal.Weighted>
-0.0000

> <Gold.Chemscore.Lipo.Weighted>
-8.6523

> <Gold.Chemscore.Internal_Hbond.Weighted>
0.0000

> <Gold.Chemscore.DEClash.Weighted>
0.0048

> <Gold.Chemscore.DEInternal.Weighted>
2.9031

> <Gold.Chemscore.Rot.Weighted>
4.0079

> <Gold.Chemscore.Internal.Correction.Weighted>
   9.000000E+99

> <Gold.Protein.RotatedTorsions>
[ 6907 6896 6895 6894 ] final   93.91 input  -60.11 | X-H torsion
[ 7974 7965 7964 7962 ] final -121.05 input  175.53 | X-H torsion
[ 8008 7997 7996 7995 ] final   89.57 input   59.86 | X-H torsion
[ 10167 10162 10161 10158 ] final   42.44 input  -65.29 | X-H torsion
[ 10718 10713 10712 10709 ] final -166.73 input   66.30 | X-H torsion
[ 10763 10752 10751 10750 ] final   -7.84 input  -60.55 | X-H torsion
[ 11005 11000 10999 10996 ] final   49.48 input  -57.11 | X-H torsion

> <Gold.Protein.ActiveResidues>
 VAL166  LYS551  ARG553  GLY616  TRP617  ASP618  TYR619  PRO620  LYS621  CYS622 
 ASP623  PHE694  ASN695  SER759  ASP760  ASP761  ALA762  ILE779  LEU786  VAL792 
 PHE793  MET794  SER795  GLU796  ALA797  LYS798  CYS799  TRP800  GLU811  SER814 

> <Gold.Protein.RotatedAtoms>
  152.5451  134.1275  159.8424 H   0  0  0  0  0  0  0  0  0  0  0  0  # atno 6907 bound_to 6896
  151.1325  133.5020  159.2606 H   0  0  0  0  0  0  0  0  0  0  0  0  # atno 6908 bound_to 6896
  151.1660  135.0306  159.8786 H   0  0  0  0  0  0  0  0  0  0  0  0  # atno 6909 bound_to 6896
  145.0446  140.8171  143.4246 H   0  0  0  0  0  0  0  0  0  0  0  0  # atno 7974 bound_to 7965
  156.0016  140.3359  155.6851 H   0  0  0  0  0  0  0  0  0  0  0  0  # atno 8008 bound_to 7997
  155.6283  140.0682  157.2675 H   0  0  0  0  0  0  0  0  0  0  0  0  # atno 8009 bound_to 7997
  154.4251  140.1764  156.1432 H   0  0  0  0  0  0  0  0  0  0  0  0  # atno 8010 bound_to 7997
  140.3543  144.2310  150.6143 H   0  0  0  0  0  0  0  0  0  0  0  0  # atno 10167 bound_to 10162
  156.6721  130.9088  151.3045 H   0  0  0  0  0  0  0  0  0  0  0  0  # atno 10718 bound_to 10713
  153.4320  135.7012  153.6224 H   0  0  0  0  0  0  0  0  0  0  0  0  # atno 10763 bound_to 10752
  153.4635  135.3731  155.2352 H   0  0  0  0  0  0  0  0  0  0  0  0  # atno 10764 bound_to 10752
  154.8726  135.4026  154.3705 H   0  0  0  0  0  0  0  0  0  0  0  0  # atno 10765 bound_to 10752
  140.1100  134.4968  155.8686 H   0  0  0  0  0  0  0  0  0  0  0  0  # atno 11005 bound_to 11000
  145.1604  139.2462  143.5394 LP  0  0  0  0  0  0  0  0  0  0  0  0  # atno 17320 bound_to 7965
  146.3512  140.1329  142.8596 LP  0  0  0  0  0  0  0  0  0  0  0  0  # atno 17321 bound_to 7965
  140.5189  143.2271  151.8420 LP  0  0  0  0  0  0  0  0  0  0  0  0  # atno 17342 bound_to 10162
  139.4822  144.4861  151.9245 LP  0  0  0  0  0  0  0  0  0  0  0  0  # atno 17343 bound_to 10162
  157.7073  130.9400  150.0974 LP  0  0  0  0  0  0  0  0  0  0  0  0  # atno 17370 bound_to 10713
  156.1931  130.3656  149.8884 LP  0  0  0  0  0  0  0  0  0  0  0  0  # atno 17371 bound_to 10713
  141.2128  133.6724  156.6686 LP  0  0  0  0  0  0  0  0  0  0  0  0  # atno 17394 bound_to 11000
  140.3104  134.8090  157.4172 LP  0  0  0  0  0  0  0  0  0  0  0  0  # atno 17395 bound_to 11000

$$$$
