AV-unprocessed.smi:2524|AV-procd|sdf|9923|dock7
  -GOLD-   2272013563D 1   1.00000     0.00000
 Structure written by MMmdl.
 37 38  0  0  0  0  0  0  0  0  2 V2000
  160.7918  141.1919  158.4283 C   0  0  0  0  0  0  0  0  0  0  0  0
  159.5399  141.6149  158.1976 C   0  0  0  0  0  0  0  0  0  0  0  0
  158.2958  140.7846  158.4337 C   0  0  0  0  0  0  0  0  0  0  0  0
  158.3030  140.1233  159.8170 C   0  0  0  0  0  0  0  0  0  0  0  0
  156.6813  139.3288  160.1732 S   0  0  0  0  0  0  0  0  0  0  0  0
  156.1573  138.7581  158.9229 O   0  0  0  0  0  0  0  0  0  0  0  0
  156.8140  138.4778  161.3650 O   0  0  0  0  0  0  0  0  0  0  0  0
  155.6909  140.6749  160.6035 N   0  0  0  0  0  0  0  0  0  0  0  0
  154.8267  141.2763  159.5840 C   0  0  0  0  0  0  0  0  0  0  0  0
  153.4868  141.7147  160.1641 C   0  0  0  0  0  0  0  0  0  0  0  0
  152.6097  142.3554  159.1248 C   0  0  0  0  0  0  0  0  0  0  0  0
  152.7793  143.7120  158.7645 C   0  0  0  0  0  0  0  0  0  0  0  0
  151.9557  144.2759  157.7692 C   0  0  0  0  0  0  0  0  0  0  0  0
  151.0103  143.5193  157.1715 N   0  3  0  0  0  0  0  0  0  0  0  0
  150.8080  142.2217  157.4852 C   0  0  0  0  0  0  0  0  0  0  0  0
  151.6041  141.6066  158.4725 C   0  0  0  0  0  0  0  0  0  0  0  0
  152.8293  140.8451  161.2163 C   0  0  0  0  0  0  0  0  0  0  0  0
  153.4065  142.1822  161.6031 C   0  0  0  0  0  0  0  0  0  0  0  0
  160.9894  140.2001  158.8080 H   0  0  0  0  0  0  0  0  0  0  0  0
  161.6379  141.8362  158.2394 H   0  0  0  0  0  0  0  0  0  0  0  0
  159.3835  142.6146  157.8189 H   0  0  0  0  0  0  0  0  0  0  0  0
  157.4093  141.4104  158.3241 H   0  0  0  0  0  0  0  0  0  0  0  0
  158.2410  140.0213  157.6570 H   0  0  0  0  0  0  0  0  0  0  0  0
  159.0764  139.3572  159.8754 H   0  0  0  0  0  0  0  0  0  0  0  0
  158.5011  140.8585  160.5972 H   0  0  0  0  0  0  0  0  0  0  0  0
  155.1758  140.4952  161.4653 H   0  0  0  0  0  0  0  0  0  0  0  0
  155.3255  142.1306  159.1242 H   0  0  0  0  0  0  0  0  0  0  0  0
  154.6627  140.5431  158.7939 H   0  0  0  0  0  0  0  0  0  0  0  0
  153.5432  144.3114  159.2381 H   0  0  0  0  0  0  0  0  0  0  0  0
  152.0267  145.3002  157.4335 H   0  0  0  0  0  0  0  0  0  0  0  0
  150.0239  141.7177  156.9394 H   0  0  0  0  0  0  0  0  0  0  0  0
  151.4497  140.5666  158.7211 H   0  0  0  0  0  0  0  0  0  0  0  0
  151.7446  140.7569  161.2052 H   0  0  0  0  0  0  0  0  0  0  0  0
  153.3641  139.9635  161.5644 H   0  0  0  0  0  0  0  0  0  0  0  0
  154.3173  142.1672  162.1986 H   0  0  0  0  0  0  0  0  0  0  0  0
  152.7044  142.9771  161.8464 H   0  0  0  0  0  0  0  0  0  0  0  0
  150.4256  143.9450  156.4517 H   0  0  0  0  0  0  0  0  0  0  0  0
  1  2  2  0  0  0  0
  1 19  1  0  0  0  0
  1 20  1  0  0  0  0
  2  3  1  0  0  0  0
  2 21  1  0  0  0  0
  3  4  1  0  0  0  0
  3 22  1  0  0  0  0
  3 23  1  0  0  0  0
  4  5  1  0  0  0  0
  4 24  1  0  0  0  0
  4 25  1  0  0  0  0
  5  6  2  0  0  0  0
  5  7  2  0  0  0  0
  5  8  1  0  0  0  0
  8  9  1  0  0  0  0
  8 26  1  0  0  0  0
  9 10  1  0  0  0  0
  9 27  1  0  0  0  0
  9 28  1  0  0  0  0
 10 18  1  0  0  0  0
 10 11  1  0  0  0  0
 10 17  1  0  0  0  0
 11 16  1  0  0  0  0
 11 12  2  0  0  0  0
 12 13  1  0  0  0  0
 12 29  1  0  0  0  0
 13 14  2  0  0  0  0
 13 30  1  0  0  0  0
 14 15  1  0  0  0  0
 14 37  1  0  0  0  0
 15 16  2  0  0  0  0
 15 31  1  0  0  0  0
 16 32  1  0  0  0  0
 17 18  1  0  0  0  0
 17 33  1  0  0  0  0
 17 34  1  0  0  0  0
 18 35  1  0  0  0  0
 18 36  1  0  0  0  0
M  CHG  1  14   1
M  END
> <s_m_source_file>
AV-unprocessed.smi

> <i_m_source_file_index>
2524

> <i_lp_mmshare_version>
43012

> <i_f3d_flags>
0

> <s_epik_input>
W0NIMl09W0NIXVtDSDJdW0NIMl1TKD1PKSg9TylbTkhdW0NIMl1DMShbQ0gyXVtDSDJdMSljMltjSF1bY0hdbltjSF1bY0hdMg==

> <s_epik_cmdline>
J2VwaWtfcHl0aG9uJywgJy1waCcsICc3LjAnLCAnLXRuJywgJzgnLCAnLW1hJywgJzIwMCcsICctbWV0YWxfYmluZGluZycsICctaW1hZScsICc8aW5maWxlLm1hZT4nLCAnLW9tYWUnLCAnPG91dGZpbGUubWFlPic=

> <r_epik_Ionization_Penalty>
1.70311

> <r_epik_Ionization_Penalty_Charging>
1.7031

> <r_epik_Ionization_Penalty_Neutral>
1.31612e-05

> <r_epik_State_Penalty>
1.80925

> <r_epik_Charging_Adjusted_Penalty>
3.51235

> <i_epik_Tot_Q>
1

> <i_epik_Tot_abs_Q>
1

> <r_epik_Metal_State_Penalty>
1.86078

> <b_epik_Metal_Only>
0

> <s_lp_Force_Field>
OPLS_2005

> <r_lp_Energy>
15.9515

> <b_lp_Chiralities_Consistent>
1

> <s_lp_Variant>
AV-unprocessed.smi:2524-2

> <Gold.Version>
5.8.1

> <Gold.Id.Protein>
6NUR|6NUR_protein|mol2

> <Gold.PLP.Fitness>
46.8160

> <Gold.PLP.PLP>
-40.1735

> <Gold.PLP.part.hbond>
-3.0000

> <Gold.PLP.part.metal>
0.0000

> <Gold.PLP.part.buried>
-4.2950

> <Gold.PLP.part.nonpolar>
-33.2677

> <Gold.PLP.part.repulsive>
0.0749

> <Gold.PLP.ligand.clash>
0.0000

> <Gold.PLP.ligand.torsion>
1.9652

> <Gold.PLP.Chemscore.Hbond>
3.0000

> <Gold.PLP.Chemscore.CHOScore>
0.0000

> <Gold.PLP.Chemscore.Metal>
0.0000

> <Gold.Chemscore.Hbonds>
donor molecule, donor type, donor heavy atom, donor atom, acceptor molecule, acceptor atom, score
      L1  H    14    37       P1  8028  2.00
      P1  H  7997  8010       L1     6  0.37

> <Gold.PLP.Chemscore.Internal.Correction>
1.5728

> <Gold.Rescore>
     Score         DG    S(hbond)    S(metal)    S(lipo)     H(rot)  DE(clash)    DE(int)     intcor
     17.85     -21.83       1.97        0.00     126.86       1.97       2.19       1.80       ----

> <Gold.Chemscore.Fitness>
17.8497

> <Gold.Chemscore.DG>
-21.8319

> <Gold.Chemscore.ZeroCoef>
-5.4800

> <Gold.Chemscore.Hbond>
1.9654

> <Gold.Chemscore.Metal>
0.0000

> <Gold.Chemscore.Lipo>
126.8559

> <Gold.Chemscore.Internal_Hbond>
0.0000

> <Gold.Chemscore.DEClash>
2.1854

> <Gold.Chemscore.DEInternal>
1.7967

> <Gold.Chemscore.Rot>
1.9744

> <Gold.Chemscore.Internal.Correction>
   9.000000E+99

> <Gold.Chemscore.Hbonds>
donor molecule, donor type, donor heavy atom, donor atom, acceptor molecule, acceptor atom, score
      L1  H    14    37       P1  8028  0.99
      P1  H  7997  8010       L1     6  0.35

> <Gold.Chemscore.Hbond.Weighted>
-6.5643

> <Gold.Chemscore.Metal.Weighted>
-0.0000

> <Gold.Chemscore.Lipo.Weighted>
-14.8421

> <Gold.Chemscore.Internal_Hbond.Weighted>
0.0000

> <Gold.Chemscore.DEClash.Weighted>
2.1854

> <Gold.Chemscore.DEInternal.Weighted>
1.7967

> <Gold.Chemscore.Rot.Weighted>
5.0546

> <Gold.Chemscore.Internal.Correction.Weighted>
   9.000000E+99

> <Gold.Protein.RotatedTorsions>
[ 6907 6896 6895 6894 ] final    6.65 input  -60.11 | X-H torsion
[ 7974 7965 7964 7962 ] final -106.05 input  175.53 | X-H torsion
[ 8008 7997 7996 7995 ] final  -57.37 input   59.86 | X-H torsion
[ 10167 10162 10161 10158 ] final -139.12 input  -65.29 | X-H torsion
[ 10718 10713 10712 10709 ] final -125.17 input   66.30 | X-H torsion
[ 10763 10752 10751 10750 ] final  156.52 input  -60.55 | X-H torsion
[ 11005 11000 10999 10996 ] final  136.88 input  -57.11 | X-H torsion

> <Gold.Protein.ActiveResidues>
 VAL166  LYS551  ARG553  GLY616  TRP617  ASP618  TYR619  PRO620  LYS621  CYS622 
 ASP623  PHE694  ASN695  SER759  ASP760  ASP761  ALA762  ILE779  LEU786  VAL792 
 PHE793  MET794  SER795  GLU796  ALA797  LYS798  CYS799  TRP800  GLU811  SER814 

> <Gold.Protein.RotatedAtoms>
  151.6771  135.0967  160.0208 H   0  0  0  0  0  0  0  0  0  0  0  0  # atno 6907 bound_to 6896
  152.3857  133.6604  159.6205 H   0  0  0  0  0  0  0  0  0  0  0  0  # atno 6908 bound_to 6896
  150.7783  133.8955  159.3367 H   0  0  0  0  0  0  0  0  0  0  0  0  # atno 6909 bound_to 6896
  145.2228  140.9141  143.3250 H   0  0  0  0  0  0  0  0  0  0  0  0  # atno 7974 bound_to 7965
  154.4265  140.1108  156.5787 H   0  0  0  0  0  0  0  0  0  0  0  0  # atno 8008 bound_to 7997
  155.6136  140.3494  155.4611 H   0  0  0  0  0  0  0  0  0  0  0  0  # atno 8009 bound_to 7997
  156.0080  140.1213  157.0472 H   0  0  0  0  0  0  0  0  0  0  0  0  # atno 8010 bound_to 7997
  139.8411  143.7321  152.2663 H   0  0  0  0  0  0  0  0  0  0  0  0  # atno 10167 bound_to 10162
  156.1652  130.6629  151.0104 H   0  0  0  0  0  0  0  0  0  0  0  0  # atno 10718 bound_to 10713
  154.1856  135.2797  155.3038 H   0  0  0  0  0  0  0  0  0  0  0  0  # atno 10763 bound_to 10752
  154.5968  135.5542  153.7337 H   0  0  0  0  0  0  0  0  0  0  0  0  # atno 10764 bound_to 10752
  153.0126  135.6382  154.1995 H   0  0  0  0  0  0  0  0  0  0  0  0  # atno 10765 bound_to 10752
  140.0076  134.9453  157.0208 H   0  0  0  0  0  0  0  0  0  0  0  0  # atno 11005 bound_to 11000
  144.9750  139.3841  143.6290 LP  0  0  0  0  0  0  0  0  0  0  0  0  # atno 17320 bound_to 7965
  146.3372  139.8864  142.8816 LP  0  0  0  0  0  0  0  0  0  0  0  0  # atno 17321 bound_to 7965
  139.7558  144.7521  151.0437 LP  0  0  0  0  0  0  0  0  0  0  0  0  # atno 17342 bound_to 10162
  140.7798  143.4807  151.0022 LP  0  0  0  0  0  0  0  0  0  0  0  0  # atno 17343 bound_to 10162
  157.6762  131.0849  150.7488 LP  0  0  0  0  0  0  0  0  0  0  0  0  # atno 17370 bound_to 10713
  156.7549  130.4780  149.5449 LP  0  0  0  0  0  0  0  0  0  0  0  0  # atno 17371 bound_to 10713
  140.4613  134.1481  155.7191 LP  0  0  0  0  0  0  0  0  0  0  0  0  # atno 17394 bound_to 11000
  141.1688  133.8650  157.1634 LP  0  0  0  0  0  0  0  0  0  0  0  0  # atno 17395 bound_to 11000

$$$$
