#       Name:                AV-unprocessed.smi:798
#       Creating user name   scv26
#       Creation time:       Fri Mar 27 01:21:10 2020


#       File generated by GOLD software.
#

@<TRIPOS>MOLECULE
AV-unprocessed.smi:798
    40    42     1
SMALL
NO_CHARGES


@<TRIPOS>ATOM
      1 ****        -1.0119   2.0603   0.8733 O.2            1 S1                 0.0000
      2 ****        -1.5490   0.9690   0.6705 C.2            1 S1                 0.0000
      3 ****        -2.8772   0.7362   0.5679 N.pl3          1 S1                -1.0000
      4 ****        -3.7474   1.7532   0.6789 C.2            1 S1                 0.0000
      5 ****        -4.2752   2.3669  -0.3925 N.2            1 S1                 0.0000
      6 ****        -5.1543   3.3883  -0.0587 N.2            1 S1                 0.0000
      7 ****        -5.2742   3.5133   1.2629 C.2            1 S1                 0.0000
      8 ****        -4.3264   2.3941   2.2191 S.3            1 S1                 0.0000
      9 ****        -0.7969  -0.1305   0.5191 N.am           1 S1                 0.0000
     10 ****         0.6649  -0.1940   0.5768 C.3            1 S1                 0.0000
     11 ****         1.1184  -1.5989   1.0295 C.3            1 S1                 0.0000
     12 ****         2.5955  -1.5373   1.4587 C.3            1 S1                 0.0000
     13 ****         3.3265  -1.3649   0.1134 C.3            1 S1                 0.0000
     14 ****         2.1707  -1.3550  -0.9073 C.3            1 S1                 0.0000
     15 ****         1.2104  -2.3614  -0.2866 C.3            1 S1                 0.0000
     16 ****         1.3926  -0.0207  -0.7918 C.3            1 S1                 0.0000
     17 ****         0.4901   0.2681  -2.0135 C.3            1 S1                 0.0000
     18 ****         1.2728   0.4753  -3.1708 O.3            1 S1                 0.0000
     19 ****        -5.9272   4.2671   1.6769 H              1 S1                 0.0000
     20 ****        -1.2818  -1.0001   0.3535 H              1 S1                 0.0000
     21 ****         1.0212   0.5489   1.2930 H              1 S1                 0.0000
     22 ****         0.4721  -2.0532   1.7817 H              1 S1                 0.0000
     23 ****         2.7957  -0.7198   2.1522 H              1 S1                 0.0000
     24 ****         2.8980  -2.4669   1.9422 H              1 S1                 0.0000
     25 ****         3.9224  -0.4522   0.0759 H              1 S1                 0.0000
     26 ****         3.9957  -2.2069  -0.0680 H              1 S1                 0.0000
     27 ****         2.4949  -1.5972  -1.9197 H              1 S1                 0.0000
     28 ****         1.6388  -3.3595  -0.1794 H              1 S1                 0.0000
     29 ****         0.2575  -2.4392  -0.8118 H              1 S1                 0.0000
     30 ****         2.0989   0.8071  -0.7107 H              1 S1                 0.0000
     31 ****        -0.2108  -0.5464  -2.1968 H              1 S1                 0.0000
     32 ****        -0.0971   1.1717  -1.8496 H              1 S1                 0.0000
     33 ****         0.6939   0.6840  -3.8878 H              1 S1                 0.0000
     34 ****        -1.5726   2.8816   0.9787 LP             1 S1                 0.0000
     35 ****        -0.0157   2.1240   0.9323 LP             1 S1                 0.0000
     36 ****        -3.2114  -0.1929   0.4094 LP             1 S1                 0.0000
     37 ****        -4.0572   2.1139  -1.3351 LP             1 S1                 0.0000
     38 ****        -5.6362   3.9576  -0.7249 LP             1 S1                 0.0000
     39 ****         1.7883  -0.3548  -3.3833 LP             1 S1                 0.0000
     40 ****         1.9081   1.2323  -3.0181 LP             1 S1                 0.0000
@<TRIPOS>BOND
    1    1    2 2     
    2    2    3 1     
    3    2    9 am    
    4    3    4 1     
    5    4    8 1     
    6    4    5 2     
    7    5    6 1     
    8    6    7 2     
    9    7    8 1     
   10    7   19 1     
   11    9   10 1     
   12    9   20 1     
   13   10   16 1     
   14   10   11 1     
   15   10   21 1     
   16   11   15 1     
   17   11   12 1     
   18   11   22 1     
   19   12   13 1     
   20   12   23 1     
   21   12   24 1     
   22   13   14 1     
   23   13   25 1     
   24   13   26 1     
   25   14   15 1     
   26   14   16 1     
   27   14   27 1     
   28   15   28 1     
   29   15   29 1     
   30   16   17 1     
   31   16   30 1     
   32   17   18 1     
   33   17   31 1     
   34   17   32 1     
   35   18   33 1     
   36    1   34 1     
   37    1   35 1     
   38    3   36 1     
   39    5   37 1     
   40    6   38 1     
   41   18   39 1     
   42   18   40 1     
@<TRIPOS>SUBSTRUCTURE
      1 S1             1
@<TRIPOS>SET
LONE_PAIRS      STATIC     ATOMS    <user>   **** ""
7 34 35 36 37 38 39 40
DONOR_HYDROGENS      STATIC     ATOMS    <user>   **** ""
2 20 33
ATOM$BLUE        STATIC     ATOMS    COLORGROUP SYSTEM
7 34 35 36 37 38 39 40
ATOM$RED        STATIC     ATOMS    COLORGROUP SYSTEM
2 20 33
