AV-unprocessed.smi:2039|AV-procd|sdf|8283|dock3
  -GOLD-   2272010553D 1   1.00000     0.00000
 Structure written by MMmdl.
 33 34  0  0  0  0  0  0  0  0  1 V2000
  146.8234  141.6795  155.6541 C   0  0  0  0  0  0  0  0  0  0  0  0
  146.6859  140.2682  155.1941 C   0  0  0  0  0  0  0  0  0  0  0  0
  146.0522  139.3302  155.9086 N   0  0  0  0  0  0  0  0  0  0  0  0
  146.0545  138.0953  155.2752 N   0  0  0  0  0  0  0  0  0  0  0  0
  146.6920  138.1389  154.0971 C   0  0  0  0  0  0  0  0  0  0  0  0
  146.8455  137.0169  153.2404 N   0  0  0  0  0  0  0  0  0  0  0  0
  146.0006  135.9869  153.0564 C   0  0  0  0  0  0  0  0  0  0  0  0
  144.9129  135.8489  153.6170 O   0  0  0  0  0  0  0  0  0  0  0  0
  146.4915  135.1098  152.1686 N   0  0  0  0  0  0  0  0  0  0  0  0
  145.8285  133.8806  151.7427 C   0  0  2  0  0  0  0  0  0  0  0  0
  146.5023  133.3464  150.4659 C   0  0  0  0  0  0  0  0  0  0  0  0
  145.8090  132.0718  149.9535 C   0  0  0  0  0  0  0  0  0  0  0  0
  144.2981  132.2774  149.7357 C   0  0  2  0  0  0  0  0  0  0  0  0
  144.0803  133.1265  148.6262 O   0  0  0  0  0  0  0  0  0  0  0  0
  143.6187  132.8603  150.9895 C   0  0  0  0  0  0  0  0  0  0  0  0
  144.3253  134.1275  151.5027 C   0  0  0  0  0  0  0  0  0  0  0  0
  147.3475  139.7087  153.6628 S   0  0  0  0  0  0  0  0  0  0  0  0
  146.3954  141.8043  156.6494 H   0  0  0  0  0  0  0  0  0  0  0  0
  146.3061  142.3473  154.9651 H   0  0  0  0  0  0  0  0  0  0  0  0
  147.8764  141.9588  155.6898 H   0  0  0  0  0  0  0  0  0  0  0  0
  147.7009  136.9954  152.7053 H   0  0  0  0  0  0  0  0  0  0  0  0
  147.3922  135.3040  151.7561 H   0  0  0  0  0  0  0  0  0  0  0  0
  145.9424  133.1273  152.5248 H   0  0  0  0  0  0  0  0  0  0  0  0
  146.4801  134.1104  149.6874 H   0  0  0  0  0  0  0  0  0  0  0  0
  147.5547  133.1357  150.6591 H   0  0  0  0  0  0  0  0  0  0  0  0
  146.2815  131.7321  149.0311 H   0  0  0  0  0  0  0  0  0  0  0  0
  145.9571  131.2733  150.6817 H   0  0  0  0  0  0  0  0  0  0  0  0
  143.8394  131.3176  149.4953 H   0  0  0  0  0  0  0  0  0  0  0  0
  144.7726  133.7692  148.5993 H   0  0  0  0  0  0  0  0  0  0  0  0
  142.5681  133.0723  150.7876 H   0  0  0  0  0  0  0  0  0  0  0  0
  143.6289  132.1084  151.7796 H   0  0  0  0  0  0  0  0  0  0  0  0
  143.8466  134.4594  152.4249 H   0  0  0  0  0  0  0  0  0  0  0  0
  144.1942  134.9356  150.7815 H   0  0  0  0  0  0  0  0  0  0  0  0
  1  2  1  0  0  0  0
  1 18  1  0  0  0  0
  1 19  1  0  0  0  0
  1 20  1  0  0  0  0
  2 17  1  0  0  0  0
  2  3  2  0  0  0  0
  3  4  1  0  0  0  0
  4  5  2  0  0  0  0
  5  6  1  0  0  0  0
  5 17  1  0  0  0  0
  6  7  1  0  0  0  0
  6 21  1  0  0  0  0
  7  8  2  0  0  0  0
  7  9  1  0  0  0  0
  9 10  1  0  0  0  0
  9 22  1  0  0  0  0
 10 16  1  0  0  0  0
 10 11  1  0  0  0  0
 10 23  1  0  0  0  0
 11 12  1  0  0  0  0
 11 24  1  0  0  0  0
 11 25  1  0  0  0  0
 12 13  1  0  0  0  0
 12 26  1  0  0  0  0
 12 27  1  0  0  0  0
 13 14  1  0  0  0  0
 13 15  1  0  0  0  0
 13 28  1  0  0  0  0
 14 29  1  0  0  0  0
 15 16  1  0  0  0  0
 15 30  1  0  0  0  0
 15 31  1  0  0  0  0
 16 32  1  0  0  0  0
 16 33  1  0  0  0  0
M  END
> <s_m_source_file>
AV-unprocessed.smi

> <i_m_source_file_index>
2039

> <i_lp_mmshare_version>
43012

> <i_f3d_flags>
0

> <s_epik_input>
W0NIM11jMW5uYyhzMSlbTkhdQyg9TylbTkhdW0NAQEhdMltDSDJdW0NIMl1bQ0BASF0oW09IXSlbQ0gyXVtDSDJdMg==

> <s_epik_cmdline>
J2VwaWtfcHl0aG9uJywgJy1waCcsICc3LjAnLCAnLXRuJywgJzgnLCAnLW1hJywgJzIwMCcsICctbWV0YWxfYmluZGluZycsICctaW1hZScsICc8aW5maWxlLm1hZT4nLCAnLW9tYWUnLCAnPG91dGZpbGUubWFlPic=

> <r_lp_tautomer_probability>
1

> <r_epik_Ionization_Penalty>
0.000385244

> <r_epik_Ionization_Penalty_Charging>
0

> <r_epik_Ionization_Penalty_Neutral>
0.000385244

> <r_epik_State_Penalty>
-0

> <r_epik_Charging_Adjusted_Penalty>
0

> <i_epik_Tot_Q>
0

> <i_epik_Tot_abs_Q>
0

> <r_epik_Metal_State_Penalty>
0.189642

> <b_epik_Metal_Only>
0

> <s_lp_Force_Field>
OPLS_2005

> <r_lp_Energy>
9.23932

> <b_lp_Chiralities_Consistent>
1

> <s_lp_Variant>
AV-unprocessed.smi:2039-2

> <Gold.Version>
5.8.1

> <Gold.Id.Protein>
6NUR|6NUR_protein|mol2

> <Gold.PLP.Fitness>
36.5671

> <Gold.PLP.PLP>
-28.4497

> <Gold.PLP.part.hbond>
-3.4264

> <Gold.PLP.part.metal>
0.0000

> <Gold.PLP.part.buried>
-3.1093

> <Gold.PLP.part.nonpolar>
-22.5519

> <Gold.PLP.part.repulsive>
0.3255

> <Gold.PLP.ligand.clash>
0.0000

> <Gold.PLP.ligand.torsion>
0.4308

> <Gold.PLP.Chemscore.Hbond>
2.9920

> <Gold.PLP.Chemscore.CHOScore>
0.0000

> <Gold.PLP.Chemscore.Metal>
0.0000

> <Gold.Chemscore.Hbonds>
donor molecule, donor type, donor heavy atom, donor atom, acceptor molecule, acceptor atom, score
      L1  H     6    21       P1  7948  1.00
      L1  H     9    22       P1  7948  0.98
      L1  H    14    29       P1  7921  1.00

> <Gold.PLP.Chemscore.Internal.Correction>
0.0030

> <Gold.Rescore>
     Score         DG    S(hbond)    S(metal)    S(lipo)     H(rot)  DE(clash)    DE(int)     intcor
     15.97     -18.74       2.85        0.00      64.85       1.50       0.00       2.77       ----

> <Gold.Chemscore.Fitness>
15.9728

> <Gold.Chemscore.DG>
-18.7445

> <Gold.Chemscore.ZeroCoef>
-5.4800

> <Gold.Chemscore.Hbond>
2.8498

> <Gold.Chemscore.Metal>
0.0000

> <Gold.Chemscore.Lipo>
64.8467

> <Gold.Chemscore.Internal_Hbond>
0.0000

> <Gold.Chemscore.DEClash>
0.0029

> <Gold.Chemscore.DEInternal>
2.7688

> <Gold.Chemscore.Rot>
1.5004

> <Gold.Chemscore.Internal.Correction>
   9.000000E+99

> <Gold.Chemscore.Hbonds>
donor molecule, donor type, donor heavy atom, donor atom, acceptor molecule, acceptor atom, score
      L1  H     6    21       P1  7948  0.98
      L1  H     9    22       P1  7948  0.90
      L1  H    14    29       P1  7921  0.93

> <Gold.Chemscore.Hbond.Weighted>
-9.5183

> <Gold.Chemscore.Metal.Weighted>
-0.0000

> <Gold.Chemscore.Lipo.Weighted>
-7.5871

> <Gold.Chemscore.Internal_Hbond.Weighted>
0.0000

> <Gold.Chemscore.DEClash.Weighted>
0.0029

> <Gold.Chemscore.DEInternal.Weighted>
2.7688

> <Gold.Chemscore.Rot.Weighted>
3.8409

> <Gold.Chemscore.Internal.Correction.Weighted>
   9.000000E+99

> <Gold.Protein.RotatedTorsions>
[ 6907 6896 6895 6894 ] final  109.20 input  -60.11 | X-H torsion
[ 7974 7965 7964 7962 ] final -135.41 input  175.53 | X-H torsion
[ 8008 7997 7996 7995 ] final   60.27 input   59.86 | X-H torsion
[ 10167 10162 10161 10158 ] final   82.07 input  -65.29 | X-H torsion
[ 10718 10713 10712 10709 ] final   12.50 input   66.30 | X-H torsion
[ 10763 10752 10751 10750 ] final  -55.28 input  -60.55 | X-H torsion
[ 11005 11000 10999 10996 ] final  100.10 input  -57.11 | X-H torsion

> <Gold.Protein.ActiveResidues>
 VAL166  LYS551  ARG553  GLY616  TRP617  ASP618  TYR619  PRO620  LYS621  CYS622 
 ASP623  PHE694  ASN695  SER759  ASP760  ASP761  ALA762  ILE779  LEU786  VAL792 
 PHE793  MET794  SER795  GLU796  ALA797  LYS798  CYS799  TRP800  GLU811  SER814 

> <Gold.Protein.RotatedAtoms>
  152.5078  133.8978  159.7425 H   0  0  0  0  0  0  0  0  0  0  0  0  # atno 6907 bound_to 6896
  150.9401  133.6658  159.2799 H   0  0  0  0  0  0  0  0  0  0  0  0  # atno 6908 bound_to 6896
  151.3972  135.0970  159.9597 H   0  0  0  0  0  0  0  0  0  0  0  0  # atno 6909 bound_to 6896
  144.9016  140.6779  143.5081 H   0  0  0  0  0  0  0  0  0  0  0  0  # atno 7974 bound_to 7965
  155.5797  140.3491  155.4537 H   0  0  0  0  0  0  0  0  0  0  0  0  # atno 8008 bound_to 7997
  156.0383  140.1290  157.0209 H   0  0  0  0  0  0  0  0  0  0  0  0  # atno 8009 bound_to 7997
  154.4381  140.1029  156.6185 H   0  0  0  0  0  0  0  0  0  0  0  0  # atno 8010 bound_to 7997
  139.9326  144.6142  150.8329 H   0  0  0  0  0  0  0  0  0  0  0  0  # atno 10167 bound_to 10162
  157.0110  130.6117  149.5708 H   0  0  0  0  0  0  0  0  0  0  0  0  # atno 10718 bound_to 10713
  154.1882  135.6432  153.5053 H   0  0  0  0  0  0  0  0  0  0  0  0  # atno 10763 bound_to 10752
  153.0041  135.5422  154.6443 H   0  0  0  0  0  0  0  0  0  0  0  0  # atno 10764 bound_to 10752
  154.5825  135.2926  155.0691 H   0  0  0  0  0  0  0  0  0  0  0  0  # atno 10765 bound_to 10752
  139.8771  134.9125  156.4705 H   0  0  0  0  0  0  0  0  0  0  0  0  # atno 11005 bound_to 11000
  145.3606  139.1682  143.4385 LP  0  0  0  0  0  0  0  0  0  0  0  0  # atno 17320 bound_to 7965
  146.3111  140.3668  142.8670 LP  0  0  0  0  0  0  0  0  0  0  0  0  # atno 17321 bound_to 7965
  140.7633  143.3220  151.2601 LP  0  0  0  0  0  0  0  0  0  0  0  0  # atno 17342 bound_to 10162
  139.6769  143.9921  152.2786 LP  0  0  0  0  0  0  0  0  0  0  0  0  # atno 17343 bound_to 10162
  156.0136  130.5229  150.8065 LP  0  0  0  0  0  0  0  0  0  0  0  0  # atno 17370 bound_to 10713
  157.5320  131.0937  150.9942 LP  0  0  0  0  0  0  0  0  0  0  0  0  # atno 17371 bound_to 10713
  140.8799  133.7925  155.9455 LP  0  0  0  0  0  0  0  0  0  0  0  0  # atno 17394 bound_to 11000
  140.8865  134.2548  157.5117 LP  0  0  0  0  0  0  0  0  0  0  0  0  # atno 17395 bound_to 11000

$$$$
