AV-unprocessed.smi:1639|AV-procd|sdf|6548|dock4
  -GOLD-   22720 7233D 1   1.00000     0.00000
 Structure written by MMmdl.
 37 38  0  0  0  0  0  0  0  0  1 V2000
  150.8258  145.2747  160.0647 C   0  0  0  0  0  0  0  0  0  0  0  0
  152.1718  145.2878  159.3373 C   0  0  0  0  0  0  0  0  0  0  0  0
  152.0381  144.5728  158.1178 O   0  0  0  0  0  0  0  0  0  0  0  0
  151.5813  143.2340  158.2642 C   0  0  2  0  0  0  0  0  0  0  0  0
  152.7130  142.4312  158.9254 C   0  0  0  0  0  0  0  0  0  0  0  0
  152.3167  140.9529  159.0410 C   0  0  0  0  0  0  0  0  0  0  0  0
  151.9348  140.3767  157.6679 C   0  0  0  0  0  0  0  0  0  0  0  0
  150.9012  141.1889  157.0235 N   0  0  0  0  0  0  0  0  0  0  0  0
  150.2278  140.5705  155.9476 C   0  0  0  0  0  0  0  0  0  0  0  0
  149.1239  141.1999  155.3230 C   0  0  0  0  0  0  0  0  0  0  0  0
  148.5122  140.5060  154.2576 C   0  0  0  0  0  0  0  0  0  0  0  0
  147.3250  141.0849  153.5180 C   0  0  0  0  0  0  0  0  0  0  0  0
  148.9518  139.2966  153.8486 N   0  0  0  0  0  0  0  0  0  0  0  0
  150.0008  138.7937  154.4999 C   0  0  0  0  0  0  0  0  0  0  0  0
  150.4516  137.5652  154.0833 N   0  0  0  0  0  0  0  0  0  0  0  0
  150.6577  139.3583  155.5146 N   0  0  0  0  0  0  0  0  0  0  0  0
  151.2112  142.6160  156.8986 C   0  0  0  0  0  0  0  0  0  0  0  0
  150.8872  145.8199  161.0067 H   0  0  0  0  0  0  0  0  0  0  0  0
  150.5116  144.2549  160.2881 H   0  0  0  0  0  0  0  0  0  0  0  0
  150.0488  145.7406  159.4582 H   0  0  0  0  0  0  0  0  0  0  0  0
  152.4729  146.3179  159.1409 H   0  0  0  0  0  0  0  0  0  0  0  0
  152.9338  144.8348  159.9714 H   0  0  0  0  0  0  0  0  0  0  0  0
  150.7134  143.2105  158.9260 H   0  0  0  0  0  0  0  0  0  0  0  0
  153.6257  142.5206  158.3347 H   0  0  0  0  0  0  0  0  0  0  0  0
  152.9373  142.8376  159.9120 H   0  0  0  0  0  0  0  0  0  0  0  0
  153.1372  140.3784  159.4711 H   0  0  0  0  0  0  0  0  0  0  0  0
  151.4745  140.8526  159.7268 H   0  0  0  0  0  0  0  0  0  0  0  0
  152.8115  140.3536  157.0192 H   0  0  0  0  0  0  0  0  0  0  0  0
  151.6163  139.3434  157.7977 H   0  0  0  0  0  0  0  0  0  0  0  0
  148.7663  142.1716  155.6288 H   0  0  0  0  0  0  0  0  0  0  0  0
  147.2796  142.1675  153.6411 H   0  0  0  0  0  0  0  0  0  0  0  0
  146.3987  140.6562  153.9007 H   0  0  0  0  0  0  0  0  0  0  0  0
  147.3904  140.8687  152.4511 H   0  0  0  0  0  0  0  0  0  0  0  0
  149.9957  137.0861  153.3205 H   0  0  0  0  0  0  0  0  0  0  0  0
  151.2694  137.1515  154.5064 H   0  0  0  0  0  0  0  0  0  0  0  0
  150.3503  143.1400  156.4835 H   0  0  0  0  0  0  0  0  0  0  0  0
  152.0361  142.7401  156.1958 H   0  0  0  0  0  0  0  0  0  0  0  0
  1  2  1  0  0  0  0
  1 18  1  0  0  0  0
  1 19  1  0  0  0  0
  1 20  1  0  0  0  0
  2  3  1  0  0  0  0
  2 21  1  0  0  0  0
  2 22  1  0  0  0  0
  3  4  1  0  0  0  0
  4 17  1  0  0  0  0
  4  5  1  0  0  0  0
  4 23  1  0  0  0  0
  5  6  1  0  0  0  0
  5 24  1  0  0  0  0
  5 25  1  0  0  0  0
  6  7  1  0  0  0  0
  6 26  1  0  0  0  0
  6 27  1  0  0  0  0
  7  8  1  0  0  0  0
  7 28  1  0  0  0  0
  7 29  1  0  0  0  0
  8  9  1  0  0  0  0
  8 17  1  0  0  0  0
  9 16  1  0  0  0  0
  9 10  2  0  0  0  0
 10 11  1  0  0  0  0
 10 30  1  0  0  0  0
 11 12  1  0  0  0  0
 11 13  2  0  0  0  0
 12 31  1  0  0  0  0
 12 32  1  0  0  0  0
 12 33  1  0  0  0  0
 13 14  1  0  0  0  0
 14 15  1  0  0  0  0
 14 16  2  0  0  0  0
 15 34  1  0  0  0  0
 15 35  1  0  0  0  0
 17 36  1  0  0  0  0
 17 37  1  0  0  0  0
M  END
> <s_m_source_file>
AV-unprocessed.smi

> <i_m_source_file_index>
1639

> <i_lp_mmshare_version>
43012

> <i_f3d_flags>
0

> <s_epik_input>
W0NIM11bQ0gyXU9bQ0BASF0xW0NIMl1bQ0gyXVtDSDJdTihbQ0gyXTEpYzJbY0hdYyhbQ0gzXSluYyhuMilbTkgyXQ==

> <s_epik_cmdline>
J2VwaWtfcHl0aG9uJywgJy1waCcsICc3LjAnLCAnLXRuJywgJzgnLCAnLW1hJywgJzIwMCcsICctbWV0YWxfYmluZGluZycsICctaW1hZScsICc8aW5maWxlLm1hZT4nLCAnLW9tYWUnLCAnPG91dGZpbGUubWFlPic=

> <r_lp_tautomer_probability>
1

> <r_epik_Ionization_Penalty>
0.383805

> <r_epik_Ionization_Penalty_Charging>
0

> <r_epik_Ionization_Penalty_Neutral>
0.383805

> <r_epik_State_Penalty>
0.0922942

> <r_epik_Charging_Adjusted_Penalty>
0.0922942

> <i_epik_Tot_Q>
0

> <i_epik_Tot_abs_Q>
0

> <r_epik_Metal_State_Penalty>
0.050432

> <b_epik_Metal_Only>
0

> <s_lp_Force_Field>
OPLS_2005

> <r_lp_Energy>
9.62656

> <b_lp_Chiralities_Consistent>
1

> <s_lp_Variant>
AV-unprocessed.smi:1639-1

> <Gold.Version>
5.8.1

> <Gold.Id.Protein>
6NUR|6NUR_protein|mol2

> <Gold.PLP.Fitness>
37.5125

> <Gold.PLP.PLP>
-34.6581

> <Gold.PLP.part.hbond>
-1.6670

> <Gold.PLP.part.metal>
0.0000

> <Gold.PLP.part.buried>
-8.3484

> <Gold.PLP.part.nonpolar>
-27.2951

> <Gold.PLP.part.repulsive>
2.0816

> <Gold.PLP.ligand.clash>
0.0000

> <Gold.PLP.ligand.torsion>
0.2870

> <Gold.PLP.Chemscore.Hbond>
1.0000

> <Gold.PLP.Chemscore.CHOScore>
0.0000

> <Gold.PLP.Chemscore.Metal>
0.0000

> <Gold.Chemscore.Hbonds>
donor molecule, donor type, donor heavy atom, donor atom, acceptor molecule, acceptor atom, score
      L1  H    15    34       P1  7948  0.95

> <Gold.PLP.Chemscore.Internal.Correction>
0.4284

> <Gold.Rescore>
     Score         DG    S(hbond)    S(metal)    S(lipo)     H(rot)  DE(clash)    DE(int)     intcor
     14.98     -15.45       0.97        0.00      88.76       1.43       0.16       0.31       ----

> <Gold.Chemscore.Fitness>
14.9781

> <Gold.Chemscore.DG>
-15.4549

> <Gold.Chemscore.ZeroCoef>
-5.4800

> <Gold.Chemscore.Hbond>
0.9727

> <Gold.Chemscore.Metal>
0.0000

> <Gold.Chemscore.Lipo>
88.7617

> <Gold.Chemscore.Internal_Hbond>
0.0000

> <Gold.Chemscore.DEClash>
0.1639

> <Gold.Chemscore.DEInternal>
0.3129

> <Gold.Chemscore.Rot>
1.4293

> <Gold.Chemscore.Internal.Correction>
   9.000000E+99

> <Gold.Chemscore.Hbonds>
donor molecule, donor type, donor heavy atom, donor atom, acceptor molecule, acceptor atom, score
      L1  H    15    34       P1  7948  0.21

> <Gold.Chemscore.Hbond.Weighted>
-3.2487

> <Gold.Chemscore.Metal.Weighted>
-0.0000

> <Gold.Chemscore.Lipo.Weighted>
-10.3851

> <Gold.Chemscore.Internal_Hbond.Weighted>
0.0000

> <Gold.Chemscore.DEClash.Weighted>
0.1639

> <Gold.Chemscore.DEInternal.Weighted>
0.3129

> <Gold.Chemscore.Rot.Weighted>
3.6589

> <Gold.Chemscore.Internal.Correction.Weighted>
   9.000000E+99

> <Gold.Protein.RotatedTorsions>
[ 6907 6896 6895 6894 ] final  -74.55 input  -60.11 | X-H torsion
[ 7974 7965 7964 7962 ] final  -87.64 input  175.53 | X-H torsion
[ 8008 7997 7996 7995 ] final -157.74 input   59.86 | X-H torsion
[ 10167 10162 10161 10158 ] final  110.73 input  -65.29 | X-H torsion
[ 10718 10713 10712 10709 ] final   49.65 input   66.30 | X-H torsion
[ 10763 10752 10751 10750 ] final -108.98 input  -60.55 | X-H torsion
[ 11005 11000 10999 10996 ] final  172.11 input  -57.11 | X-H torsion

> <Gold.Protein.ActiveResidues>
 VAL166  LYS551  ARG553  GLY616  TRP617  ASP618  TYR619  PRO620  LYS621  CYS622 
 ASP623  PHE694  ASN695  SER759  ASP760  ASP761  ALA762  ILE779  LEU786  VAL792 
 PHE793  MET794  SER795  GLU796  ALA797  LYS798  CYS799  TRP800  GLU811  SER814 

> <Gold.Protein.RotatedAtoms>
  150.7089  134.4852  159.5489 H   0  0  0  0  0  0  0  0  0  0  0  0  # atno 6907 bound_to 6896
  152.2481  134.8157  160.0459 H   0  0  0  0  0  0  0  0  0  0  0  0  # atno 6908 bound_to 6896
  151.8915  133.3482  159.3836 H   0  0  0  0  0  0  0  0  0  0  0  0  # atno 6909 bound_to 6896
  145.4639  140.9560  143.1954 H   0  0  0  0  0  0  0  0  0  0  0  0  # atno 7974 bound_to 7965
  155.7370  140.0809  157.2263 H   0  0  0  0  0  0  0  0  0  0  0  0  # atno 8008 bound_to 7997
  154.4026  140.1585  156.2628 H   0  0  0  0  0  0  0  0  0  0  0  0  # atno 8009 bound_to 7997
  155.9056  140.3407  155.6062 H   0  0  0  0  0  0  0  0  0  0  0  0  # atno 8010 bound_to 7997
  139.6666  144.7127  151.1766 H   0  0  0  0  0  0  0  0  0  0  0  0  # atno 10167 bound_to 10162
  157.4807  130.8313  149.8090 H   0  0  0  0  0  0  0  0  0  0  0  0  # atno 10718 bound_to 10713
  154.8167  135.4618  154.0662 H   0  0  0  0  0  0  0  0  0  0  0  0  # atno 10763 bound_to 10752
  153.2050  135.6874  153.8191 H   0  0  0  0  0  0  0  0  0  0  0  0  # atno 10764 bound_to 10752
  153.7662  135.3277  155.3322 H   0  0  0  0  0  0  0  0  0  0  0  0  # atno 10765 bound_to 10752
  140.3262  134.7396  157.4101 H   0  0  0  0  0  0  0  0  0  0  0  0  # atno 11005 bound_to 11000
  144.7986  139.6185  143.7081 LP  0  0  0  0  0  0  0  0  0  0  0  0  # atno 17320 bound_to 7965
  146.2436  139.6051  142.9475 LP  0  0  0  0  0  0  0  0  0  0  0  0  # atno 17321 bound_to 7965
  140.7601  143.5910  150.8796 LP  0  0  0  0  0  0  0  0  0  0  0  0  # atno 17342 bound_to 10162
  139.9572  143.6205  152.3012 LP  0  0  0  0  0  0  0  0  0  0  0  0  # atno 17343 bound_to 10162
  156.0120  130.3829  150.2233 LP  0  0  0  0  0  0  0  0  0  0  0  0  # atno 17370 bound_to 10713
  157.0419  131.0038  151.3281 LP  0  0  0  0  0  0  0  0  0  0  0  0  # atno 17371 bound_to 10713
  140.0899  134.5615  155.8454 LP  0  0  0  0  0  0  0  0  0  0  0  0  # atno 17394 bound_to 11000
  141.2074  133.6664  156.6307 LP  0  0  0  0  0  0  0  0  0  0  0  0  # atno 17395 bound_to 11000

$$$$
