AV-unprocessed.smi:3132|AV-procd|sdf|11935|dock10
  -GOLD-   2272017323D 1   1.00000     0.00000
 Structure written by MMmdl.
 33 34  0  0  0  0  0  0  0  0  1 V2000
  151.7057  140.1122  155.4715 C   0  0  0  0  0  0  0  0  0  0  0  0
  150.7814  141.0666  156.2430 C   0  0  2  0  0  0  0  0  0  0  0  0
  150.0538  142.0385  155.2950 C   0  0  0  0  0  0  0  0  0  0  0  0
  148.9918  141.3893  154.5478 N   0  0  0  0  0  0  0  0  0  0  0  0
  147.7959  141.9556  154.1255 C   0  0  0  0  0  0  0  0  0  0  0  0
  147.1056  140.9666  153.4622 C   0  0  0  0  0  0  0  0  0  0  0  0
  147.8543  139.7921  153.4611 N   0  0  0  0  0  0  0  0  0  0  0  0
  148.9578  140.1197  154.1208 C   0  0  0  0  0  0  0  0  0  0  0  0
  151.5544  141.8178  157.2295 N   0  0  0  0  0  0  0  0  0  0  0  0
  151.2850  141.8967  158.5422 C   0  0  0  0  0  0  0  0  0  0  0  0
  150.3404  141.3098  159.0704 O   0  0  0  0  0  0  0  0  0  0  0  0
  152.2046  142.7867  159.3909 C   0  0  1  0  0  0  0  0  0  0  0  0
  152.1667  144.2791  159.0092 C   0  0  0  0  0  0  0  0  0  0  0  0
  151.7684  144.9803  160.2966 C   0  0  0  0  0  0  0  0  0  0  0  0
  152.1628  143.9709  161.3652 C   0  0  0  0  0  0  0  0  0  0  0  0
  151.8123  142.7375  160.7624 O   0  0  0  0  0  0  0  0  0  0  0  0
  151.1440  139.5275  154.7424 H   0  0  0  0  0  0  0  0  0  0  0  0
  152.1988  139.4096  156.1442 H   0  0  0  0  0  0  0  0  0  0  0  0
  152.4810  140.6586  154.9333 H   0  0  0  0  0  0  0  0  0  0  0  0
  150.0269  140.4668  156.7556 H   0  0  0  0  0  0  0  0  0  0  0  0
  149.6309  142.8760  155.8517 H   0  0  0  0  0  0  0  0  0  0  0  0
  150.7580  142.4629  154.5782 H   0  0  0  0  0  0  0  0  0  0  0  0
  147.5406  142.9852  154.3290 H   0  0  0  0  0  0  0  0  0  0  0  0
  146.1357  141.0095  152.9889 H   0  0  0  0  0  0  0  0  0  0  0  0
  149.7594  139.4184  154.3012 H   0  0  0  0  0  0  0  0  0  0  0  0
  152.3505  142.3357  156.8858 H   0  0  0  0  0  0  0  0  0  0  0  0
  153.2264  142.4123  159.3109 H   0  0  0  0  0  0  0  0  0  0  0  0
  153.1571  144.6034  158.6879 H   0  0  0  0  0  0  0  0  0  0  0  0
  151.4686  144.5144  158.2045 H   0  0  0  0  0  0  0  0  0  0  0  0
  152.2529  145.9486  160.4246 H   0  0  0  0  0  0  0  0  0  0  0  0
  150.6888  145.1339  160.3163 H   0  0  0  0  0  0  0  0  0  0  0  0
  153.2367  143.9982  161.5564 H   0  0  0  0  0  0  0  0  0  0  0  0
  151.6364  144.1240  162.3073 H   0  0  0  0  0  0  0  0  0  0  0  0
  1  2  1  0  0  0  0
  1 17  1  0  0  0  0
  1 18  1  0  0  0  0
  1 19  1  0  0  0  0
  2  3  1  0  0  0  0
  2  9  1  0  0  0  0
  2 20  1  0  0  0  0
  3  4  1  0  0  0  0
  3 21  1  0  0  0  0
  3 22  1  0  0  0  0
  4  8  1  0  0  0  0
  4  5  1  0  0  0  0
  5  6  2  0  0  0  0
  5 23  1  0  0  0  0
  6  7  1  0  0  0  0
  6 24  1  0  0  0  0
  7  8  2  0  0  0  0
  8 25  1  0  0  0  0
  9 10  1  0  0  0  0
  9 26  1  0  0  0  0
 10 11  2  0  0  0  0
 10 12  1  0  0  0  0
 12 16  1  0  0  0  0
 12 13  1  0  0  0  0
 12 27  1  0  0  0  0
 13 14  1  0  0  0  0
 13 28  1  0  0  0  0
 13 29  1  0  0  0  0
 14 15  1  0  0  0  0
 14 30  1  0  0  0  0
 14 31  1  0  0  0  0
 15 16  1  0  0  0  0
 15 32  1  0  0  0  0
 15 33  1  0  0  0  0
M  END
> <s_m_source_file>
AV-unprocessed.smi

> <i_m_source_file_index>
3132

> <i_lp_mmshare_version>
43012

> <i_f3d_flags>
0

> <s_epik_input>
W2NIXTFuW2NIXVtjSF1uMVtDSDJdW0NAQEhdKFtDSDNdKVtOSF1DKD1PKVtDQEBIXTJbQ0gyXVtDSDJdW0NIMl1PMg==

> <s_epik_cmdline>
J2VwaWtfcHl0aG9uJywgJy1waCcsICc3LjAnLCAnLXRuJywgJzgnLCAnLW1hJywgJzIwMCcsICctbWV0YWxfYmluZGluZycsICctaW1hZScsICc8aW5maWxlLm1hZT4nLCAnLW9tYWUnLCAnPG91dGZpbGUubWFlPic=

> <r_lp_tautomer_probability>
1

> <r_epik_Ionization_Penalty>
0.630322

> <r_epik_Ionization_Penalty_Charging>
0.630322

> <r_epik_Ionization_Penalty_Neutral>
3.82652e-08

> <r_epik_State_Penalty>
0.647117

> <r_epik_Charging_Adjusted_Penalty>
1.27744

> <i_epik_Tot_Q>
0

> <i_epik_Tot_abs_Q>
0

> <r_epik_Metal_State_Penalty>
0.309095

> <b_epik_Metal_Only>
0

> <s_lp_Force_Field>
OPLS_2005

> <r_lp_Energy>
19.804

> <b_lp_Chiralities_Consistent>
1

> <s_lp_Variant>
AV-unprocessed.smi:3132-7

> <Gold.Version>
5.8.1

> <Gold.Id.Protein>
6NUR|6NUR_protein|mol2

> <Gold.PLP.Fitness>
41.1502

> <Gold.PLP.PLP>
-36.2469

> <Gold.PLP.part.hbond>
-1.8266

> <Gold.PLP.part.metal>
0.0000

> <Gold.PLP.part.buried>
0.3854

> <Gold.PLP.part.nonpolar>
-34.0260

> <Gold.PLP.part.repulsive>
0.7006

> <Gold.PLP.ligand.clash>
0.0000

> <Gold.PLP.ligand.torsion>
0.5568

> <Gold.PLP.Chemscore.Hbond>
0.0000

> <Gold.PLP.Chemscore.CHOScore>
2.0000

> <Gold.PLP.Chemscore.Metal>
0.0000

> <Gold.Chemscore.Hbonds>
donor molecule, donor type, donor heavy atom, donor atom, acceptor molecule, acceptor atom, score
      L1  C     5    23       P1  8028  0.99
      L1  C     6    24       P1 10175  0.95

> <Gold.PLP.Chemscore.Internal.Correction>
0.0169

> <Gold.Rescore>
     Score         DG    S(hbond)    S(metal)    S(lipo)     H(rot)  DE(clash)    DE(int)     intcor
      9.91     -10.76       0.00        0.00      85.89       1.86       0.33       0.52       ----

> <Gold.Chemscore.Fitness>
9.9139

> <Gold.Chemscore.DG>
-10.7582

> <Gold.Chemscore.ZeroCoef>
-5.4800

> <Gold.Chemscore.Hbond>
0.0000

> <Gold.Chemscore.Metal>
0.0000

> <Gold.Chemscore.Lipo>
85.8892

> <Gold.Chemscore.Internal_Hbond>
0.0000

> <Gold.Chemscore.DEClash>
0.3260

> <Gold.Chemscore.DEInternal>
0.5183

> <Gold.Chemscore.Rot>
1.8636

> <Gold.Chemscore.Internal.Correction>
   9.000000E+99

> <Gold.Chemscore.Hbond.Weighted>
-0.0000

> <Gold.Chemscore.Metal.Weighted>
-0.0000

> <Gold.Chemscore.Lipo.Weighted>
-10.0490

> <Gold.Chemscore.Internal_Hbond.Weighted>
0.0000

> <Gold.Chemscore.DEClash.Weighted>
0.3260

> <Gold.Chemscore.DEInternal.Weighted>
0.5183

> <Gold.Chemscore.Rot.Weighted>
4.7709

> <Gold.Chemscore.Internal.Correction.Weighted>
   9.000000E+99

> <Gold.Protein.RotatedTorsions>
[ 6907 6896 6895 6894 ] final   42.05 input  -60.11 | X-H torsion
[ 7974 7965 7964 7962 ] final  141.48 input  175.53 | X-H torsion
[ 8008 7997 7996 7995 ] final  105.83 input   59.86 | X-H torsion
[ 10167 10162 10161 10158 ] final   73.11 input  -65.29 | X-H torsion
[ 10718 10713 10712 10709 ] final   37.92 input   66.30 | X-H torsion
[ 10763 10752 10751 10750 ] final -177.95 input  -60.55 | X-H torsion
[ 11005 11000 10999 10996 ] final   -1.02 input  -57.11 | X-H torsion

> <Gold.Protein.ActiveResidues>
 VAL166  LYS551  ARG553  GLY616  TRP617  ASP618  TYR619  PRO620  LYS621  CYS622 
 ASP623  PHE694  ASN695  SER759  ASP760  ASP761  ALA762  ILE779  LEU786  VAL792 
 PHE793  MET794  SER795  GLU796  ALA797  LYS798  CYS799  TRP800  GLU811  SER814 

> <Gold.Protein.RotatedAtoms>
  152.2030  134.8571  160.0505 H   0  0  0  0  0  0  0  0  0  0  0  0  # atno 6907 bound_to 6896
  151.9417  133.3635  159.3976 H   0  0  0  0  0  0  0  0  0  0  0  0  # atno 6908 bound_to 6896
  150.6959  134.4356  159.5312 H   0  0  0  0  0  0  0  0  0  0  0  0  # atno 6909 bound_to 6896
  144.9092  139.5316  143.5716 H   0  0  0  0  0  0  0  0  0  0  0  0  # atno 7974 bound_to 7965
  156.1692  140.3123  155.8943 H   0  0  0  0  0  0  0  0  0  0  0  0  # atno 8008 bound_to 7997
  155.3622  140.0477  157.3063 H   0  0  0  0  0  0  0  0  0  0  0  0  # atno 8009 bound_to 7997
  154.5224  140.2202  155.8963 H   0  0  0  0  0  0  0  0  0  0  0  0  # atno 8010 bound_to 7997
  140.0280  144.5488  150.7529 H   0  0  0  0  0  0  0  0  0  0  0  0  # atno 10167 bound_to 10162
  157.3527  130.7607  149.6990 H   0  0  0  0  0  0  0  0  0  0  0  0  # atno 10718 bound_to 10713
  154.5537  135.2815  155.0984 H   0  0  0  0  0  0  0  0  0  0  0  0  # atno 10763 bound_to 10752
  154.2420  135.6355  153.5214 H   0  0  0  0  0  0  0  0  0  0  0  0  # atno 10764 bound_to 10752
  153.0010  135.5562  154.6111 H   0  0  0  0  0  0  0  0  0  0  0  0  # atno 10765 bound_to 10752
  140.6428  133.9474  155.8335 H   0  0  0  0  0  0  0  0  0  0  0  0  # atno 11005 bound_to 11000
  146.3150  139.7885  142.8991 LP  0  0  0  0  0  0  0  0  0  0  0  0  # atno 17320 bound_to 7965
  145.3483  141.0302  143.3353 LP  0  0  0  0  0  0  0  0  0  0  0  0  # atno 17321 bound_to 7965
  140.7314  143.2694  151.3938 LP  0  0  0  0  0  0  0  0  0  0  0  0  # atno 17342 bound_to 10162
  139.6095  144.1128  152.2284 LP  0  0  0  0  0  0  0  0  0  0  0  0  # atno 17343 bound_to 10162
  155.9724  130.4136  150.4090 LP  0  0  0  0  0  0  0  0  0  0  0  0  # atno 17370 bound_to 10713
  157.2155  131.0470  151.2576 LP  0  0  0  0  0  0  0  0  0  0  0  0  # atno 17371 bound_to 10713
  141.0594  134.0368  157.3678 LP  0  0  0  0  0  0  0  0  0  0  0  0  # atno 17394 bound_to 11000
  139.9074  135.0183  156.7545 LP  0  0  0  0  0  0  0  0  0  0  0  0  # atno 17395 bound_to 11000

$$$$
