AV-unprocessed.smi:1389|AV-procd|sdf|5647|dock9
  -GOLD-   22720 5263D 1   1.00000     0.00000
 Structure written by MMmdl.
 51 53  0  0  0  0  0  0  0  0  1 V2000
  152.5179  144.7472  158.3037 C   0  0  0  0  0  0  0  0  0  0  0  0
  151.8380  143.9995  159.4735 C   0  0  1  0  0  0  0  0  0  0  0  0
  150.3923  144.5406  159.6239 C   0  0  0  0  0  0  0  0  0  0  0  0
  149.5026  144.0146  158.5908 N   0  0  0  0  0  0  0  0  0  0  0  0
  148.3026  143.4567  158.8025 C   0  0  0  0  0  0  0  0  0  0  0  0
  147.8205  143.2720  159.9201 O   0  0  0  0  0  0  0  0  0  0  0  0
  147.6960  143.1618  157.6413 N   0  0  0  0  0  0  0  0  0  0  0  0
  146.4044  142.5958  157.4478 C   0  0  0  0  0  0  0  0  0  0  0  0
  145.3548  142.7782  158.3804 C   0  0  0  0  0  0  0  0  0  0  0  0
  144.1065  142.1795  158.1347 C   0  0  0  0  0  0  0  0  0  0  0  0
  143.9541  141.4108  156.9677 C   0  0  0  0  0  0  0  0  0  0  0  0
  144.9487  141.2136  156.0788 N   0  0  0  0  0  0  0  0  0  0  0  0
  146.1549  141.7898  156.3043 C   0  0  0  0  0  0  0  0  0  0  0  0
  147.1841  141.5418  155.3723 N   0  0  0  0  0  0  0  0  0  0  0  0
  147.6835  140.1702  155.3991 C   0  0  0  0  0  0  0  0  0  0  0  0
  148.0591  139.8219  153.9583 C   0  0  0  0  0  0  0  0  0  0  0  0
  147.1110  140.6901  153.1402 C   0  0  0  0  0  0  0  0  0  0  0  0
  147.0134  141.9616  153.9818 C   0  0  0  0  0  0  0  0  0  0  0  0
  151.9201  142.5265  159.3588 N   0  0  0  0  0  0  0  0  0  0  0  0
  151.7045  142.0562  157.9872 C   0  0  0  0  0  0  0  0  0  0  0  0
  151.8045  140.5260  157.8646 C   0  0  0  0  0  0  0  0  0  0  0  0
  153.0714  140.0897  158.3393 O   0  0  0  0  0  0  0  0  0  0  0  0
  153.2975  140.4665  159.6912 C   0  0  0  0  0  0  0  0  0  0  0  0
  153.2048  141.9962  159.8254 C   0  0  0  0  0  0  0  0  0  0  0  0
  152.3228  145.8189  158.3526 H   0  0  0  0  0  0  0  0  0  0  0  0
  152.1574  144.3920  157.3377 H   0  0  0  0  0  0  0  0  0  0  0  0
  153.6014  144.6337  158.3205 H   0  0  0  0  0  0  0  0  0  0  0  0
  152.3710  144.2945  160.3786 H   0  0  0  0  0  0  0  0  0  0  0  0
  149.9747  144.2898  160.5980 H   0  0  0  0  0  0  0  0  0  0  0  0
  150.4041  145.6318  159.6103 H   0  0  0  0  0  0  0  0  0  0  0  0
  149.8079  144.1297  157.6356 H   0  0  0  0  0  0  0  0  0  0  0  0
  148.1628  143.4737  156.8024 H   0  0  0  0  0  0  0  0  0  0  0  0
  145.4916  143.3539  159.2832 H   0  0  0  0  0  0  0  0  0  0  0  0
  143.2875  142.3033  158.8276 H   0  0  0  0  0  0  0  0  0  0  0  0
  143.0109  140.9340  156.7458 H   0  0  0  0  0  0  0  0  0  0  0  0
  148.5408  140.0757  156.0657 H   0  0  0  0  0  0  0  0  0  0  0  0
  146.9043  139.4943  155.7562 H   0  0  0  0  0  0  0  0  0  0  0  0
  149.0911  140.1167  153.7623 H   0  0  0  0  0  0  0  0  0  0  0  0
  147.9631  138.7581  153.7399 H   0  0  0  0  0  0  0  0  0  0  0  0
  147.4676  140.8775  152.1270 H   0  0  0  0  0  0  0  0  0  0  0  0
  146.1325  140.2120  153.0745 H   0  0  0  0  0  0  0  0  0  0  0  0
  146.0915  142.5076  153.7820 H   0  0  0  0  0  0  0  0  0  0  0  0
  147.8369  142.6326  153.7362 H   0  0  0  0  0  0  0  0  0  0  0  0
  150.7167  142.3483  157.6337 H   0  0  0  0  0  0  0  0  0  0  0  0
  152.4302  142.5211  157.3179 H   0  0  0  0  0  0  0  0  0  0  0  0
  151.0082  140.0400  158.4307 H   0  0  0  0  0  0  0  0  0  0  0  0
  151.6900  140.2210  156.8244 H   0  0  0  0  0  0  0  0  0  0  0  0
  152.5700  139.9774  160.3408 H   0  0  0  0  0  0  0  0  0  0  0  0
  154.2842  140.1185  159.9969 H   0  0  0  0  0  0  0  0  0  0  0  0
  154.0204  142.4578  159.2665 H   0  0  0  0  0  0  0  0  0  0  0  0
  153.3630  142.2405  160.8743 H   0  0  0  0  0  0  0  0  0  0  0  0
  1  2  1  0  0  0  0
  1 25  1  0  0  0  0
  1 26  1  0  0  0  0
  1 27  1  0  0  0  0
  2  3  1  0  0  0  0
  2 19  1  0  0  0  0
  2 28  1  0  0  0  0
  3  4  1  0  0  0  0
  3 29  1  0  0  0  0
  3 30  1  0  0  0  0
  4  5  1  0  0  0  0
  4 31  1  0  0  0  0
  5  6  2  0  0  0  0
  5  7  1  0  0  0  0
  7  8  1  0  0  0  0
  7 32  1  0  0  0  0
  8 13  1  0  0  0  0
  8  9  2  0  0  0  0
  9 10  1  0  0  0  0
  9 33  1  0  0  0  0
 10 11  2  0  0  0  0
 10 34  1  0  0  0  0
 11 12  1  0  0  0  0
 11 35  1  0  0  0  0
 12 13  2  0  0  0  0
 13 14  1  0  0  0  0
 14 18  1  0  0  0  0
 14 15  1  0  0  0  0
 15 16  1  0  0  0  0
 15 36  1  0  0  0  0
 15 37  1  0  0  0  0
 16 17  1  0  0  0  0
 16 38  1  0  0  0  0
 16 39  1  0  0  0  0
 17 18  1  0  0  0  0
 17 40  1  0  0  0  0
 17 41  1  0  0  0  0
 18 42  1  0  0  0  0
 18 43  1  0  0  0  0
 19 24  1  0  0  0  0
 19 20  1  0  0  0  0
 20 21  1  0  0  0  0
 20 44  1  0  0  0  0
 20 45  1  0  0  0  0
 21 22  1  0  0  0  0
 21 46  1  0  0  0  0
 21 47  1  0  0  0  0
 22 23  1  0  0  0  0
 23 24  1  0  0  0  0
 23 48  1  0  0  0  0
 23 49  1  0  0  0  0
 24 50  1  0  0  0  0
 24 51  1  0  0  0  0
M  END
> <s_m_source_file>
AV-unprocessed.smi

> <i_m_source_file_index>
1389

> <i_lp_mmshare_version>
43012

> <i_f3d_flags>
0

> <s_epik_input>
W0NIMl0xW0NIMl1PW0NIMl1bQ0gyXU4xW0NASF0oW0NIM10pW0NIMl1bTkhdQyg9TylbTkhdYzJbY0hdW2NIXVtjSF1uYzJOM1tDSDJdW0NIMl1bQ0gyXVtDSDJdMw==

> <s_epik_cmdline>
J2VwaWtfcHl0aG9uJywgJy1waCcsICc3LjAnLCAnLXRuJywgJzgnLCAnLW1hJywgJzIwMCcsICctbWV0YWxfYmluZGluZycsICctaW1hZScsICc8aW5maWxlLm1hZT4nLCAnLW9tYWUnLCAnPG91dGZpbGUubWFlPic=

> <r_lp_tautomer_probability>
1

> <r_epik_Ionization_Penalty>
0.365229

> <r_epik_Ionization_Penalty_Charging>
0

> <r_epik_Ionization_Penalty_Neutral>
0.365229

> <r_epik_State_Penalty>
0.350519

> <r_epik_Charging_Adjusted_Penalty>
0.350519

> <i_epik_Tot_Q>
0

> <i_epik_Tot_abs_Q>
0

> <r_epik_Metal_State_Penalty>
0.33386

> <b_epik_Metal_Only>
0

> <s_lp_Force_Field>
OPLS_2005

> <r_lp_Energy>
61.7302

> <b_lp_Chiralities_Consistent>
1

> <s_lp_Variant>
AV-unprocessed.smi:1389-2

> <Gold.Version>
5.8.1

> <Gold.Id.Protein>
6NUR|6NUR_protein|mol2

> <Gold.PLP.Fitness>
44.7639

> <Gold.PLP.PLP>
-37.3354

> <Gold.PLP.part.hbond>
-5.9108

> <Gold.PLP.part.metal>
0.0000

> <Gold.PLP.part.buried>
-1.5984

> <Gold.PLP.part.nonpolar>
-29.3878

> <Gold.PLP.part.repulsive>
0.3609

> <Gold.PLP.ligand.clash>
0.0000

> <Gold.PLP.ligand.torsion>
0.8835

> <Gold.PLP.Chemscore.Hbond>
3.0088

> <Gold.PLP.Chemscore.CHOScore>
0.0000

> <Gold.PLP.Chemscore.Metal>
0.0000

> <Gold.Chemscore.Hbonds>
donor molecule, donor type, donor heavy atom, donor atom, acceptor molecule, acceptor atom, score
      L1  H     4    31       P1  8028  0.37
      L1  H     7    32       P1  8028  0.65
      P1  H  6933  6944       L1     6  0.91
      P1  H  7997  8008       L1    22  1.00

> <Gold.PLP.Chemscore.Internal.Correction>
0.1690

> <Gold.Rescore>
     Score         DG    S(hbond)    S(metal)    S(lipo)     H(rot)  DE(clash)    DE(int)     intcor
     16.72     -19.17       2.10        0.00      91.56       1.57       0.19       2.26       ----

> <Gold.Chemscore.Fitness>
16.7177

> <Gold.Chemscore.DG>
-19.1698

> <Gold.Chemscore.ZeroCoef>
-5.4800

> <Gold.Chemscore.Hbond>
2.0962

> <Gold.Chemscore.Metal>
0.0000

> <Gold.Chemscore.Lipo>
91.5573

> <Gold.Chemscore.Internal_Hbond>
0.0000

> <Gold.Chemscore.DEClash>
0.1896

> <Gold.Chemscore.DEInternal>
2.2625

> <Gold.Chemscore.Rot>
1.5718

> <Gold.Chemscore.Internal.Correction>
   9.000000E+99

> <Gold.Chemscore.Hbonds>
donor molecule, donor type, donor heavy atom, donor atom, acceptor molecule, acceptor atom, score
      L1  H     4    31       P1  8028  0.11
      L1  H     7    32       P1  8028  0.05
      P1  H  6933  6944       L1     6  0.89
      P1  H  7997  8008       L1    22  0.85

> <Gold.Chemscore.Hbond.Weighted>
-7.0015

> <Gold.Chemscore.Metal.Weighted>
-0.0000

> <Gold.Chemscore.Lipo.Weighted>
-10.7122

> <Gold.Chemscore.Internal_Hbond.Weighted>
0.0000

> <Gold.Chemscore.DEClash.Weighted>
0.1896

> <Gold.Chemscore.DEInternal.Weighted>
2.2625

> <Gold.Chemscore.Rot.Weighted>
4.0239

> <Gold.Chemscore.Internal.Correction.Weighted>
   9.000000E+99

> <Gold.Protein.RotatedTorsions>
[ 6907 6896 6895 6894 ] final  156.92 input  -60.11 | X-H torsion
[ 7974 7965 7964 7962 ] final   75.93 input  175.53 | X-H torsion
[ 8008 7997 7996 7995 ] final  -88.35 input   59.86 | X-H torsion
[ 10167 10162 10161 10158 ] final  -49.14 input  -65.29 | X-H torsion
[ 10718 10713 10712 10709 ] final   -8.93 input   66.30 | X-H torsion
[ 10763 10752 10751 10750 ] final  -70.43 input  -60.55 | X-H torsion
[ 11005 11000 10999 10996 ] final -119.44 input  -57.11 | X-H torsion

> <Gold.Protein.ActiveResidues>
 VAL166  LYS551  ARG553  GLY616  TRP617  ASP618  TYR619  PRO620  LYS621  CYS622 
 ASP623  PHE694  ASN695  SER759  ASP760  ASP761  ALA762  ILE779  LEU786  VAL792 
 PHE793  MET794  SER795  GLU796  ALA797  LYS798  CYS799  TRP800  GLU811  SER814 

> <Gold.Protein.RotatedAtoms>
  152.0227  133.3905  159.4264 H   0  0  0  0  0  0  0  0  0  0  0  0  # atno 6907 bound_to 6896
  150.6889  134.3608  159.4959 H   0  0  0  0  0  0  0  0  0  0  0  0  # atno 6908 bound_to 6896
  152.1384  134.9081  160.0606 H   0  0  0  0  0  0  0  0  0  0  0  0  # atno 6909 bound_to 6896
  145.7093  139.2609  143.1660 H   0  0  0  0  0  0  0  0  0  0  0  0  # atno 7974 bound_to 7965
  154.6738  140.0554  157.0194 H   0  0  0  0  0  0  0  0  0  0  0  0  # atno 8008 bound_to 7997
  155.1049  140.3232  155.4518 H   0  0  0  0  0  0  0  0  0  0  0  0  # atno 8009 bound_to 7997
  156.2668  140.2024  156.6175 H   0  0  0  0  0  0  0  0  0  0  0  0  # atno 8010 bound_to 7997
  140.6699  143.2710  151.4172 H   0  0  0  0  0  0  0  0  0  0  0  0  # atno 10167 bound_to 10162
  156.6954  130.5077  149.5932 H   0  0  0  0  0  0  0  0  0  0  0  0  # atno 10718 bound_to 10713
  154.4175  135.5994  153.5990 H   0  0  0  0  0  0  0  0  0  0  0  0  # atno 10763 bound_to 10752
  152.9792  135.5944  154.3995 H   0  0  0  0  0  0  0  0  0  0  0  0  # atno 10764 bound_to 10752
  154.3816  135.2841  155.2186 H   0  0  0  0  0  0  0  0  0  0  0  0  # atno 10765 bound_to 10752
  141.0215  134.0117  157.3275 H   0  0  0  0  0  0  0  0  0  0  0  0  # atno 11005 bound_to 11000
  146.0727  140.7852  142.9680 LP  0  0  0  0  0  0  0  0  0  0  0  0  # atno 17320 bound_to 7965
  144.6946  140.3366  143.7206 LP  0  0  0  0  0  0  0  0  0  0  0  0  # atno 17321 bound_to 7965
  139.5962  144.1392  152.2147 LP  0  0  0  0  0  0  0  0  0  0  0  0  # atno 17342 bound_to 10162
  140.0762  144.5739  150.7156 LP  0  0  0  0  0  0  0  0  0  0  0  0  # atno 17343 bound_to 10162
  156.1767  130.6472  151.0903 LP  0  0  0  0  0  0  0  0  0  0  0  0  # atno 17370 bound_to 10713
  157.6993  131.0782  150.6870 LP  0  0  0  0  0  0  0  0  0  0  0  0  # atno 17371 bound_to 10713
  139.9149  135.0195  156.7841 LP  0  0  0  0  0  0  0  0  0  0  0  0  # atno 17394 bound_to 11000
  140.6564  133.9684  155.7782 LP  0  0  0  0  0  0  0  0  0  0  0  0  # atno 17395 bound_to 11000

$$$$
