AV-unprocessed.smi:1525|AV-procd|sdf|6145|dock10
  -GOLD-   22720 6293D 1   1.00000     0.00000
 Structure written by MMmdl.
 49 51  0  0  0  0  0  0  0  0  4 V2000
  152.8199  137.9518  157.5472 O   0  0  0  0  0  0  0  0  0  0  0  0
  151.9065  137.7663  156.7349 C   0  0  0  0  0  0  0  0  0  0  0  0
  151.5754  136.6084  156.1039 N   0  5  0  0  0  0  0  0  0  0  0  0
  150.2413  136.2810  155.6042 C   0  0  0  0  0  0  0  0  0  0  0  0
  150.1848  134.7986  155.1818 C   0  0  0  0  0  0  0  0  0  0  0  0
  148.9629  134.4891  154.3936 N   0  3  0  0  0  0  0  0  0  0  0  0
  148.9999  133.1643  153.7199 C   0  0  0  0  0  0  0  0  0  0  0  0
  147.7304  132.9556  152.8783 C   0  0  0  0  0  0  0  0  0  0  0  0
  146.5816  133.0791  153.7080 O   0  0  0  0  0  0  0  0  0  0  0  0
  146.4863  134.3703  154.2965 C   0  0  0  0  0  0  0  0  0  0  0  0
  147.7155  134.6276  155.1838 C   0  0  0  0  0  0  0  0  0  0  0  0
  151.0903  138.7755  156.3898 N   0  0  0  0  0  0  0  0  0  0  0  0
  151.0699  140.1095  156.8814 C   0  0  0  0  0  0  0  0  0  0  0  0
  152.0347  140.5736  157.8103 C   0  0  0  0  0  0  0  0  0  0  0  0
  152.0020  141.9138  158.2424 C   0  0  0  0  0  0  0  0  0  0  0  0
  151.0132  142.7733  157.7293 C   0  0  0  0  0  0  0  0  0  0  0  0
  150.1191  142.3060  156.8329 N   0  3  0  0  0  0  0  0  0  0  0  0
  150.1027  141.0292  156.3878 C   0  0  0  0  0  0  0  0  0  0  0  0
  149.0957  140.7226  155.4565 N   0  0  0  0  0  0  0  0  0  0  0  0
  149.0770  141.5152  154.2305 C   0  0  0  0  0  0  0  0  0  0  0  0
  147.6475  142.0430  154.0752 C   0  0  0  0  0  0  0  0  0  0  0  0
  146.8134  141.0325  154.8550 C   0  0  0  0  0  0  0  0  0  0  0  0
  147.7453  140.6322  155.9981 C   0  0  0  0  0  0  0  0  0  0  0  0
  149.4618  136.4734  156.3430 H   0  0  0  0  0  0  0  0  0  0  0  0
  149.9846  136.9030  154.7466 H   0  0  0  0  0  0  0  0  0  0  0  0
  151.0764  134.5173  154.6188 H   0  0  0  0  0  0  0  0  0  0  0  0
  150.1970  134.1883  156.0864 H   0  0  0  0  0  0  0  0  0  0  0  0
  149.8787  133.0888  153.0786 H   0  0  0  0  0  0  0  0  0  0  0  0
  149.0830  132.3747  154.4684 H   0  0  0  0  0  0  0  0  0  0  0  0
  147.6832  133.6751  152.0591 H   0  0  0  0  0  0  0  0  0  0  0  0
  147.7368  131.9622  152.4298 H   0  0  0  0  0  0  0  0  0  0  0  0
  146.4007  135.1321  153.5198 H   0  0  0  0  0  0  0  0  0  0  0  0
  145.5755  134.4205  154.8932 H   0  0  0  0  0  0  0  0  0  0  0  0
  147.7307  133.9256  156.0190 H   0  0  0  0  0  0  0  0  0  0  0  0
  147.6551  135.6313  155.6067 H   0  0  0  0  0  0  0  0  0  0  0  0
  150.3149  138.5164  155.7974 H   0  0  0  0  0  0  0  0  0  0  0  0
  152.8094  139.9221  158.1858 H   0  0  0  0  0  0  0  0  0  0  0  0
  152.7302  142.2777  158.9523 H   0  0  0  0  0  0  0  0  0  0  0  0
  150.9148  143.8141  158.0011 H   0  0  0  0  0  0  0  0  0  0  0  0
  149.8078  142.3250  154.2312 H   0  0  0  0  0  0  0  0  0  0  0  0
  149.3255  140.8541  153.3999 H   0  0  0  0  0  0  0  0  0  0  0  0
  147.5610  143.0267  154.5382 H   0  0  0  0  0  0  0  0  0  0  0  0
  147.3413  142.1367  153.0330 H   0  0  0  0  0  0  0  0  0  0  0  0
  145.8636  141.4395  155.2033 H   0  0  0  0  0  0  0  0  0  0  0  0
  146.6018  140.1657  154.2275 H   0  0  0  0  0  0  0  0  0  0  0  0
  147.5341  139.6214  156.3476 H   0  0  0  0  0  0  0  0  0  0  0  0
  147.6184  141.3081  156.8444 H   0  0  0  0  0  0  0  0  0  0  0  0
  148.9152  135.1912  153.6688 H   0  0  0  0  0  0  0  0  0  0  0  0
  149.4154  142.9504  156.4719 H   0  0  0  0  0  0  0  0  0  0  0  0
  1  2  2  0  0  0  0
  2  3  1  0  0  0  0
  2 12  1  0  0  0  0
  3  4  1  0  0  0  0
  4  5  1  0  0  0  0
  4 24  1  0  0  0  0
  4 25  1  0  0  0  0
  5  6  1  0  0  0  0
  5 26  1  0  0  0  0
  5 27  1  0  0  0  0
  6 11  1  0  0  0  0
  6  7  1  0  0  0  0
  6 48  1  0  0  0  0
  7  8  1  0  0  0  0
  7 28  1  0  0  0  0
  7 29  1  0  0  0  0
  8  9  1  0  0  0  0
  8 30  1  0  0  0  0
  8 31  1  0  0  0  0
  9 10  1  0  0  0  0
 10 11  1  0  0  0  0
 10 32  1  0  0  0  0
 10 33  1  0  0  0  0
 11 34  1  0  0  0  0
 11 35  1  0  0  0  0
 12 13  1  0  0  0  0
 12 36  1  0  0  0  0
 13 18  1  0  0  0  0
 13 14  2  0  0  0  0
 14 15  1  0  0  0  0
 14 37  1  0  0  0  0
 15 16  2  0  0  0  0
 15 38  1  0  0  0  0
 16 17  1  0  0  0  0
 16 39  1  0  0  0  0
 17 18  2  0  0  0  0
 17 49  1  0  0  0  0
 18 19  1  0  0  0  0
 19 23  1  0  0  0  0
 19 20  1  0  0  0  0
 20 21  1  0  0  0  0
 20 40  1  0  0  0  0
 20 41  1  0  0  0  0
 21 22  1  0  0  0  0
 21 42  1  0  0  0  0
 21 43  1  0  0  0  0
 22 23  1  0  0  0  0
 22 44  1  0  0  0  0
 22 45  1  0  0  0  0
 23 46  1  0  0  0  0
 23 47  1  0  0  0  0
M  CHG  1   3  -1
M  CHG  1   6   1
M  CHG  1  17   1
M  END
> <s_m_source_file>
AV-unprocessed.smi

> <i_m_source_file_index>
1525

> <i_lp_mmshare_version>
43012

> <i_f3d_flags>
0

> <s_epik_input>
W0NIMl0xW0NIMl1PW0NIMl1bQ0gyXU4xW0NIMl1bQ0gyXVtOSF1DKD1PKVtOSF1jMltjSF1bY0hdW2NIXW5jMk4zW0NIMl1bQ0gyXVtDSDJdW0NIMl0z

> <s_epik_cmdline>
J2VwaWtfcHl0aG9uJywgJy1waCcsICc3LjAnLCAnLXRuJywgJzgnLCAnLW1hJywgJzIwMCcsICctbWV0YWxfYmluZGluZycsICctaW1hZScsICc8aW5maWxlLm1hZT4nLCAnLW9tYWUnLCAnPG91dGZpbGUubWFlPic=

> <r_lp_tautomer_probability>
0.999994

> <r_epik_Ionization_Penalty>
8.59159

> <r_epik_Ionization_Penalty_Charging>
8.59159

> <r_epik_Ionization_Penalty_Neutral>
3.55275e-06

> <r_epik_State_Penalty>
8.58545

> <r_epik_Charging_Adjusted_Penalty>
17.177

> <i_epik_Tot_Q>
1

> <i_epik_Tot_abs_Q>
3

> <r_epik_Metal_State_Penalty>
4.58086

> <b_epik_Metal_Only>
1

> <s_lp_Force_Field>
OPLS_2005

> <r_lp_Energy>
45.7376

> <b_lp_Chiralities_Consistent>
1

> <s_lp_Variant>
AV-unprocessed.smi:1525-5

> <Gold.Version>
5.8.1

> <Gold.Id.Protein>
6NUR|6NUR_protein|mol2

> <Gold.PLP.Fitness>
48.8616

> <Gold.PLP.PLP>
-31.6399

> <Gold.PLP.part.hbond>
-3.0000

> <Gold.PLP.part.metal>
0.0000

> <Gold.PLP.part.buried>
-3.5353

> <Gold.PLP.part.nonpolar>
-25.4079

> <Gold.PLP.part.repulsive>
0.3077

> <Gold.PLP.ligand.clash>
0.0324

> <Gold.PLP.ligand.torsion>
0.4367

> <Gold.PLP.Chemscore.Hbond>
5.9840

> <Gold.PLP.Chemscore.CHOScore>
0.0000

> <Gold.PLP.Chemscore.Metal>
0.0000

> <Gold.Chemscore.Hbonds>
donor molecule, donor type, donor heavy atom, donor atom, acceptor molecule, acceptor atom, score
      L1  H     6    48       P1  7948  1.89
      L1  H    17    49       P1  8028  2.00
      P1  H 10752 10764       L1     3  1.24

> <Gold.PLP.Chemscore.Internal.Correction>
0.1756

> <Gold.Rescore>
     Score         DG    S(hbond)    S(metal)    S(lipo)     H(rot)  DE(clash)    DE(int)     intcor
     15.61     -17.54       2.20        0.00      76.79       1.66       0.01       1.91       ----

> <Gold.Chemscore.Fitness>
15.6142

> <Gold.Chemscore.DG>
-17.5405

> <Gold.Chemscore.ZeroCoef>
-5.4800

> <Gold.Chemscore.Hbond>
2.1958

> <Gold.Chemscore.Metal>
0.0000

> <Gold.Chemscore.Lipo>
76.7901

> <Gold.Chemscore.Internal_Hbond>
0.0000

> <Gold.Chemscore.DEClash>
0.0133

> <Gold.Chemscore.DEInternal>
1.9131

> <Gold.Chemscore.Rot>
1.6632

> <Gold.Chemscore.Internal.Correction>
   9.000000E+99

> <Gold.Chemscore.Hbonds>
donor molecule, donor type, donor heavy atom, donor atom, acceptor molecule, acceptor atom, score
      L1  H     6    48       P1  7948  0.59
      L1  H    17    49       P1  8028  0.90
      P1  H 10752 10764       L1     3  0.39

> <Gold.Chemscore.Hbond.Weighted>
-7.3338

> <Gold.Chemscore.Metal.Weighted>
-0.0000

> <Gold.Chemscore.Lipo.Weighted>
-8.9844

> <Gold.Chemscore.Internal_Hbond.Weighted>
0.0000

> <Gold.Chemscore.DEClash.Weighted>
0.0133

> <Gold.Chemscore.DEInternal.Weighted>
1.9131

> <Gold.Chemscore.Rot.Weighted>
4.2577

> <Gold.Chemscore.Internal.Correction.Weighted>
   9.000000E+99

> <Gold.Protein.RotatedTorsions>
[ 6907 6896 6895 6894 ] final  -32.86 input  -60.11 | X-H torsion
[ 7974 7965 7964 7962 ] final  110.12 input  175.53 | X-H torsion
[ 8008 7997 7996 7995 ] final   58.97 input   59.86 | X-H torsion
[ 10167 10162 10161 10158 ] final -149.32 input  -65.29 | X-H torsion
[ 10718 10713 10712 10709 ] final  -39.19 input   66.30 | X-H torsion
[ 10763 10752 10751 10750 ] final  -40.49 input  -60.55 | X-H torsion
[ 11005 11000 10999 10996 ] final  -72.84 input  -57.11 | X-H torsion

> <Gold.Protein.ActiveResidues>
 VAL166  LYS551  ARG553  GLY616  TRP617  ASP618  TYR619  PRO620  LYS621  CYS622 
 ASP623  PHE694  ASN695  SER759  ASP760  ASP761  ALA762  ILE779  LEU786  VAL792 
 PHE793  MET794  SER795  GLU796  ALA797  LYS798  CYS799  TRP800  GLU811  SER814 

> <Gold.Protein.RotatedAtoms>
  151.0732  134.9811  159.8318 H   0  0  0  0  0  0  0  0  0  0  0  0  # atno 6907 bound_to 6896
  152.5411  134.2274  159.8821 H   0  0  0  0  0  0  0  0  0  0  0  0  # atno 6908 bound_to 6896
  151.2299  133.4412  159.2637 H   0  0  0  0  0  0  0  0  0  0  0  0  # atno 6909 bound_to 6896
  145.2590  139.2710  143.4027 H   0  0  0  0  0  0  0  0  0  0  0  0  # atno 7974 bound_to 7965
  155.5587  140.3488  155.4486 H   0  0  0  0  0  0  0  0  0  0  0  0  # atno 8008 bound_to 7997
  156.0530  140.1322  157.0054 H   0  0  0  0  0  0  0  0  0  0  0  0  # atno 8009 bound_to 7997
  154.4443  140.1001  156.6390 H   0  0  0  0  0  0  0  0  0  0  0  0  # atno 8010 bound_to 7997
  139.7453  143.8600  152.2573 H   0  0  0  0  0  0  0  0  0  0  0  0  # atno 10167 bound_to 10162
  156.2952  130.4233  149.8198 H   0  0  0  0  0  0  0  0  0  0  0  0  # atno 10718 bound_to 10713
  153.9468  135.6755  153.4744 H   0  0  0  0  0  0  0  0  0  0  0  0  # atno 10763 bound_to 10752
  153.0904  135.4877  154.8676 H   0  0  0  0  0  0  0  0  0  0  0  0  # atno 10764 bound_to 10752
  154.7347  135.3146  154.8790 H   0  0  0  0  0  0  0  0  0  0  0  0  # atno 10765 bound_to 10752
  141.1614  133.6859  156.7121 H   0  0  0  0  0  0  0  0  0  0  0  0  # atno 11005 bound_to 11000
  146.3281  140.3002  142.8620 LP  0  0  0  0  0  0  0  0  0  0  0  0  # atno 17320 bound_to 7965
  144.9435  140.8104  143.5616 LP  0  0  0  0  0  0  0  0  0  0  0  0  # atno 17321 bound_to 7965
  139.8563  144.7140  150.9153 LP  0  0  0  0  0  0  0  0  0  0  0  0  # atno 17342 bound_to 10162
  140.7791  143.3856  151.1400 LP  0  0  0  0  0  0  0  0  0  0  0  0  # atno 17343 bound_to 10162
  156.5596  130.8378  151.3325 LP  0  0  0  0  0  0  0  0  0  0  0  0  # atno 17370 bound_to 10713
  157.7353  130.9760  150.2076 LP  0  0  0  0  0  0  0  0  0  0  0  0  # atno 17371 bound_to 10713
  140.2879  134.8264  157.3991 LP  0  0  0  0  0  0  0  0  0  0  0  0  # atno 17394 bound_to 11000
  140.1373  134.5017  155.8058 LP  0  0  0  0  0  0  0  0  0  0  0  0  # atno 17395 bound_to 11000

$$$$
