#       Name:                AV-unprocessed.smi:240
#       Creating user name   scv26
#       Creation time:       Thu Mar 26 20:42:24 2020


#       File generated by GOLD software.
#

@<TRIPOS>MOLECULE
AV-unprocessed.smi:240
    67    71     1
SMALL
NO_CHARGES


@<TRIPOS>ATOM
      1 ****        -2.7576  -0.8786   4.6135 O.3            1 S1                 0.0000
      2 ****        -2.3930  -1.7151   3.5345 C.3            1 S1                 0.0000
      3 ****        -3.5304  -2.6184   3.0624 C.3            1 S1                 0.0000
      4 ****        -3.0474  -3.1012   1.6962 C.3            1 S1                 0.0000
      5 ****        -2.2598  -1.9260   1.0999 C.3            1 S1                 0.0000
      6 ****        -1.8911  -0.9831   2.2700 C.3            1 S1                 0.0000
      7 ****        -2.3804   0.4911   2.0716 C.3            1 S1                 0.0000
      8 ****        -3.9255   0.6298   2.0068 C.3            1 S1                 0.0000
      9 ****        -4.2990   1.9902   1.8207 O.3            1 S1                 0.0000
     10 ****        -3.7980   2.5142   0.5991 C.3            1 S1                 0.0000
     11 ****        -2.2656   2.4849   0.6437 C.3            1 S1                 0.0000
     12 ****        -1.7916   1.1261   0.8828 N.3            1 S1                 0.0000
     13 ****        -0.4456   1.0568   0.7736 C.ar           1 S1                 0.0000
     14 ****         0.3464   1.5849   1.7440 N.ar           1 S1                 0.0000
     15 ****         1.6757   1.4944   1.6391 C.ar           1 S1                 0.0000
     16 ****         2.4011   0.9278   0.6715 N.ar           1 S1                 0.0000
     17 ****         1.6046   0.4038  -0.3047 C.ar           1 S1                 0.0000
     18 ****         0.1830   0.4270  -0.3313 C.ar           1 S1                 0.0000
     19 ****        -0.2855  -0.2097  -1.4728 N.2            1 S1                 0.0000
     20 ****         0.8007  -0.5918  -2.0875 C.2            1 S1                 0.0000
     21 ****         1.9814  -0.2597  -1.4599 N.pl3          1 S1                 0.0000
     22 ****         3.3296  -0.5662  -1.9136 C.3            1 S1                 0.0000
     23 ****         3.9722   0.5528  -2.7696 C.3            1 S1                 0.0000
     24 ****         4.0462   1.7396  -2.0003 O.3            1 S1                 0.0000
     25 ****         5.3764   0.1794  -3.2483 C.3            1 S1                 0.0000
     26 ****         5.1760  -0.1357  -4.7251 C.3            1 S1                 0.0000
     27 ****         4.1954   0.8106  -5.1091 O.3            1 S1                 0.0000
     28 ****         3.2135   0.8393  -4.0824 C.3            1 S1                 0.0000
     29 ****        -1.9981  -0.3834   4.8804 H              1 S1                 0.0000
     30 ****        -1.5891  -2.3600   3.8935 H              1 S1                 0.0000
     31 ****        -3.7260  -3.4409   3.7510 H              1 S1                 0.0000
     32 ****        -4.4556  -2.0530   2.9500 H              1 S1                 0.0000
     33 ****        -2.3818  -3.9552   1.8281 H              1 S1                 0.0000
     34 ****        -3.8685  -3.4211   1.0544 H              1 S1                 0.0000
     35 ****        -1.3660  -2.2831   0.5870 H              1 S1                 0.0000
     36 ****        -2.8600  -1.4173   0.3461 H              1 S1                 0.0000
     37 ****        -0.8046  -0.9631   2.3608 H              1 S1                 0.0000
     38 ****        -2.0437   1.0700   2.9330 H              1 S1                 0.0000
     39 ****        -4.3552   0.0270   1.2066 H              1 S1                 0.0000
     40 ****        -4.3878   0.2937   2.9331 H              1 S1                 0.0000
     41 ****        -4.1781   1.9396  -0.2474 H              1 S1                 0.0000
     42 ****        -4.1523   3.5379   0.4780 H              1 S1                 0.0000
     43 ****        -1.8620   2.8603  -0.2978 H              1 S1                 0.0000
     44 ****        -1.9079   3.1456   1.4351 H              1 S1                 0.0000
     45 ****         2.2389   1.9381   2.4467 H              1 S1                 0.0000
     46 ****         0.7678  -1.1326  -3.0222 H              1 S1                 0.0000
     47 ****         3.9448  -0.7692  -1.0358 H              1 S1                 0.0000
     48 ****         3.2942  -1.4977  -2.4802 H              1 S1                 0.0000
     49 ****         4.5373   1.5584  -1.2134 H              1 S1                 0.0000
     50 ****         6.0577   1.0276  -3.1601 H              1 S1                 0.0000
     51 ****         5.8183  -0.6533  -2.7001 H              1 S1                 0.0000
     52 ****         6.0906  -0.0302  -5.3089 H              1 S1                 0.0000
     53 ****         4.7892  -1.1468  -4.8633 H              1 S1                 0.0000
     54 ****         2.4906   0.0533  -4.3007 H              1 S1                 0.0000
     55 ****         2.6757   1.7882  -4.0780 H              1 S1                 0.0000
     56 ****        -3.0820  -1.4362   5.3776 LP             1 S1                 0.0000
     57 ****        -3.4832  -0.2537   4.3253 LP             1 S1                 0.0000
     58 ****        -3.9351   2.5320   2.5784 LP             1 S1                 0.0000
     59 ****        -5.2970   2.0536   1.8147 LP             1 S1                 0.0000
     60 ****        -2.1428   0.5432   0.1501 LP             1 S1                 0.0000
     61 ****        -0.0644   2.0398   2.5341 LP             1 S1                 0.0000
     62 ****         3.4004   0.8921   0.6634 LP             1 S1                 0.0000
     63 ****        -1.2346  -0.3442  -1.7578 LP             1 S1                 0.0000
     64 ****         3.1243   2.0433  -1.7597 LP             1 S1                 0.0000
     65 ****         4.5058   2.4546  -2.5272 LP             1 S1                 0.0000
     66 ****         3.7771   0.5380  -5.9756 LP             1 S1                 0.0000
     67 ****         4.6121   1.7140  -5.2098 LP             1 S1                 0.0000
@<TRIPOS>BOND
    1    1    2 1     
    2    1   29 1     
    3    2    6 1     
    4    2    3 1     
    5    2   30 1     
    6    3    4 1     
    7    3   31 1     
    8    3   32 1     
    9    4    5 1     
   10    4   33 1     
   11    4   34 1     
   12    5    6 1     
   13    5   35 1     
   14    5   36 1     
   15    6    7 1     
   16    6   37 1     
   17    7   12 1     
   18    7    8 1     
   19    7   38 1     
   20    8    9 1     
   21    8   39 1     
   22    8   40 1     
   23    9   10 1     
   24   10   11 1     
   25   10   41 1     
   26   10   42 1     
   27   11   12 1     
   28   11   43 1     
   29   11   44 1     
   30   12   13 1     
   31   13   18 ar    
   32   13   14 ar    
   33   14   15 ar    
   34   15   16 ar    
   35   15   45 1     
   36   16   17 ar    
   37   17   21 1     
   38   17   18 ar    
   39   18   19 1     
   40   19   20 2     
   41   20   21 1     
   42   20   46 1     
   43   21   22 1     
   44   22   23 1     
   45   22   47 1     
   46   22   48 1     
   47   23   28 1     
   48   23   24 1     
   49   23   25 1     
   50   24   49 1     
   51   25   26 1     
   52   25   50 1     
   53   25   51 1     
   54   26   27 1     
   55   26   52 1     
   56   26   53 1     
   57   27   28 1     
   58   28   54 1     
   59   28   55 1     
   60    1   56 1     
   61    1   57 1     
   62    9   58 1     
   63    9   59 1     
   64   12   60 1     
   65   14   61 1     
   66   16   62 1     
   67   19   63 1     
   68   24   64 1     
   69   24   65 1     
   70   27   66 1     
   71   27   67 1     
@<TRIPOS>SUBSTRUCTURE
      1 S1             1
@<TRIPOS>SET
LONE_PAIRS      STATIC     ATOMS    <user>   **** ""
12 56 57 58 59 60 61 62 63 64 65 66 67
DONOR_HYDROGENS      STATIC     ATOMS    <user>   **** ""
2 29 49
ATOM$BLUE        STATIC     ATOMS    COLORGROUP SYSTEM
12 56 57 58 59 60 61 62 63 64 65 66 67
ATOM$RED        STATIC     ATOMS    COLORGROUP SYSTEM
2 29 49
