AV-unprocessed.smi:527|AV-procd|sdf|2821|dock8
  -GOLD-   2262023303D 1   1.00000     0.00000
 Structure written by MMmdl.
 42 43  0  0  0  0  0  0  0  0  1 V2000
  146.2299  142.4372  154.0108 C   0  0  0  0  0  0  0  0  0  0  0  0
  147.1190  141.2470  154.4078 C   0  0  2  0  0  0  0  0  0  0  0  0
  148.6161  141.6171  154.3845 C   0  0  0  0  0  0  0  0  0  0  0  0
  149.4909  140.4548  154.8801 C   0  0  0  0  0  0  0  0  0  0  0  0
  149.2157  139.1635  154.0947 C   0  0  0  0  0  0  0  0  0  0  0  0
  147.7188  138.7988  154.1251 C   0  0  2  0  0  0  0  0  0  0  0  0
  147.4988  137.5510  153.3971 N   0  0  0  0  0  0  0  0  0  0  0  0
  146.5466  136.6472  153.6725 C   0  0  0  0  0  0  0  0  0  0  0  0
  145.6020  136.8670  154.4336 O   0  0  0  0  0  0  0  0  0  0  0  0
  146.7677  135.4993  153.0047 N   0  0  0  0  0  0  0  0  0  0  0  0
  145.9961  134.3926  152.9889 C   0  0  0  0  0  0  0  0  0  0  0  0
  144.9463  134.2493  153.6181 O   0  0  0  0  0  0  0  0  0  0  0  0
  146.5029  133.2439  152.1128 C   0  0  0  0  0  0  0  0  0  0  0  0
  145.4523  132.7243  151.2555 N   0  0  0  0  0  0  0  0  0  0  0  0
  144.1068  133.0702  151.2731 C   0  0  0  0  0  0  0  0  0  0  0  0
  143.4952  132.3198  150.2943 C   0  0  0  0  0  0  0  0  0  0  0  0
  144.4391  131.5117  149.6648 N   0  0  0  0  0  0  0  0  0  0  0  0
  145.5738  131.8067  150.2855 C   0  0  0  0  0  0  0  0  0  0  0  0
  146.8356  139.9594  153.5886 C   0  0  2  0  0  0  0  0  0  0  0  0
  146.9564  140.1598  152.0600 C   0  0  0  0  0  0  0  0  0  0  0  0
  146.4764  142.8156  153.0188 H   0  0  0  0  0  0  0  0  0  0  0  0
  146.3531  143.2634  154.7116 H   0  0  0  0  0  0  0  0  0  0  0  0
  145.1755  142.1602  154.0138 H   0  0  0  0  0  0  0  0  0  0  0  0
  146.8668  141.0184  155.4446 H   0  0  0  0  0  0  0  0  0  0  0  0
  148.9184  141.9024  153.3765 H   0  0  0  0  0  0  0  0  0  0  0  0
  148.7913  142.4914  155.0124 H   0  0  0  0  0  0  0  0  0  0  0  0
  150.5449  140.7219  154.7995 H   0  0  0  0  0  0  0  0  0  0  0  0
  149.2976  140.2820  155.9396 H   0  0  0  0  0  0  0  0  0  0  0  0
  149.5564  139.2812  153.0655 H   0  0  0  0  0  0  0  0  0  0  0  0
  149.8057  138.3502  154.5194 H   0  0  0  0  0  0  0  0  0  0  0  0
  147.4532  138.6246  155.1699 H   0  0  0  0  0  0  0  0  0  0  0  0
  148.1102  137.3722  152.6141 H   0  0  0  0  0  0  0  0  0  0  0  0
  147.6011  135.4665  152.4362 H   0  0  0  0  0  0  0  0  0  0  0  0
  147.3320  133.5909  151.4951 H   0  0  0  0  0  0  0  0  0  0  0  0
  146.8812  132.4319  152.7356 H   0  0  0  0  0  0  0  0  0  0  0  0
  143.7060  133.7989  151.9622 H   0  0  0  0  0  0  0  0  0  0  0  0
  142.4569  132.2988  149.9978 H   0  0  0  0  0  0  0  0  0  0  0  0
  146.5150  131.3408  150.0325 H   0  0  0  0  0  0  0  0  0  0  0  0
  145.7962  139.6871  153.7778 H   0  0  0  0  0  0  0  0  0  0  0  0
  147.9606  140.4605  151.7636 H   0  0  0  0  0  0  0  0  0  0  0  0
  146.2655  140.9220  151.7016 H   0  0  0  0  0  0  0  0  0  0  0  0
  146.7134  139.2476  151.5153 H   0  0  0  0  0  0  0  0  0  0  0  0
  1  2  1  0  0  0  0
  1 21  1  0  0  0  0
  1 22  1  0  0  0  0
  1 23  1  0  0  0  0
  2 19  1  0  0  0  0
  2  3  1  0  0  0  0
  2 24  1  0  0  0  0
  3  4  1  0  0  0  0
  3 25  1  0  0  0  0
  3 26  1  0  0  0  0
  4  5  1  0  0  0  0
  4 27  1  0  0  0  0
  4 28  1  0  0  0  0
  5  6  1  0  0  0  0
  5 29  1  0  0  0  0
  5 30  1  0  0  0  0
  6  7  1  0  0  0  0
  6 19  1  0  0  0  0
  6 31  1  0  0  0  0
  7  8  1  0  0  0  0
  7 32  1  0  0  0  0
  8  9  2  0  0  0  0
  8 10  1  0  0  0  0
 10 11  1  0  0  0  0
 10 33  1  0  0  0  0
 11 12  2  0  0  0  0
 11 13  1  0  0  0  0
 13 14  1  0  0  0  0
 13 34  1  0  0  0  0
 13 35  1  0  0  0  0
 14 18  1  0  0  0  0
 14 15  1  0  0  0  0
 15 16  2  0  0  0  0
 15 36  1  0  0  0  0
 16 17  1  0  0  0  0
 16 37  1  0  0  0  0
 17 18  2  0  0  0  0
 18 38  1  0  0  0  0
 19 20  1  0  0  0  0
 19 39  1  0  0  0  0
 20 40  1  0  0  0  0
 20 41  1  0  0  0  0
 20 42  1  0  0  0  0
M  END
> <s_m_source_file>
AV-unprocessed.smi

> <i_m_source_file_index>
527

> <i_lp_mmshare_version>
43012

> <i_f3d_flags>
0

> <s_epik_input>
W0NIM11bQ0BASF0xW0NIMl1bQ0gyXVtDSDJdW0NASF0oW0NASF0xW0NIM10pW05IXUMoPU8pW05IXUMoPU8pW0NIMl1uMltjSF1bY0hdbltjSF0y

> <s_epik_cmdline>
J2VwaWtfcHl0aG9uJywgJy1waCcsICc3LjAnLCAnLXRuJywgJzgnLCAnLW1hJywgJzIwMCcsICctbWV0YWxfYmluZGluZycsICctaW1hZScsICc8aW5maWxlLm1hZT4nLCAnLW9tYWUnLCAnPG91dGZpbGUubWFlPic=

> <r_lp_tautomer_probability>
1

> <r_epik_Ionization_Penalty>
0.172132

> <r_epik_Ionization_Penalty_Charging>
0.172105

> <r_epik_Ionization_Penalty_Neutral>
2.71747e-05

> <r_epik_State_Penalty>
0.161503

> <r_epik_Charging_Adjusted_Penalty>
0.333607

> <i_epik_Tot_Q>
0

> <i_epik_Tot_abs_Q>
0

> <r_epik_Metal_State_Penalty>
0.124763

> <b_epik_Metal_Only>
0

> <s_lp_Force_Field>
OPLS_2005

> <r_lp_Energy>
16.867

> <b_lp_Chiralities_Consistent>
1

> <s_lp_Variant>
AV-unprocessed.smi:527-7

> <Gold.Version>
5.8.1

> <Gold.Id.Protein>
6NUR|6NUR_protein|mol2

> <Gold.PLP.Fitness>
47.1567

> <Gold.PLP.PLP>
-33.0306

> <Gold.PLP.part.hbond>
-2.8501

> <Gold.PLP.part.metal>
0.0000

> <Gold.PLP.part.buried>
1.4084

> <Gold.PLP.part.nonpolar>
-32.2579

> <Gold.PLP.part.repulsive>
0.3189

> <Gold.PLP.ligand.clash>
0.0000

> <Gold.PLP.ligand.torsion>
0.5645

> <Gold.PLP.Chemscore.Hbond>
2.3644

> <Gold.PLP.Chemscore.CHOScore>
2.7117

> <Gold.PLP.Chemscore.Metal>
0.0000

> <Gold.Chemscore.Hbonds>
donor molecule, donor type, donor heavy atom, donor atom, acceptor molecule, acceptor atom, score
      L1  H     7    32       P1  7948  0.90
      L1  H    10    33       P1  7948  1.00
      P1  H 10785 10796       L1    17  0.44
      L1  C    16    37       P1 10186  0.75
      L1  C    16    37       P1 10952  0.89
      L1  C    18    38       P1 10747  1.00

> <Gold.PLP.Chemscore.Internal.Correction>
0.0267

> <Gold.Rescore>
     Score         DG    S(hbond)    S(metal)    S(lipo)     H(rot)  DE(clash)    DE(int)     intcor
     14.29     -18.18       2.58        0.00      71.23       1.66       0.54       3.35       ----

> <Gold.Chemscore.Fitness>
14.2888

> <Gold.Chemscore.DG>
-18.1758

> <Gold.Chemscore.ZeroCoef>
-5.4800

> <Gold.Chemscore.Hbond>
2.5804

> <Gold.Chemscore.Metal>
0.0000

> <Gold.Chemscore.Lipo>
71.2338

> <Gold.Chemscore.Internal_Hbond>
0.0000

> <Gold.Chemscore.DEClash>
0.5359

> <Gold.Chemscore.DEInternal>
3.3512

> <Gold.Chemscore.Rot>
1.6629

> <Gold.Chemscore.Internal.Correction>
   9.000000E+99

> <Gold.Chemscore.Hbonds>
donor molecule, donor type, donor heavy atom, donor atom, acceptor molecule, acceptor atom, score
      L1  H     7    32       P1  7948  0.87
      L1  H    10    33       P1  7948  0.94
      P1  H 10785 10796       L1    17  0.12

> <Gold.Chemscore.Hbond.Weighted>
-8.6184

> <Gold.Chemscore.Metal.Weighted>
-0.0000

> <Gold.Chemscore.Lipo.Weighted>
-8.3344

> <Gold.Chemscore.Internal_Hbond.Weighted>
0.0000

> <Gold.Chemscore.DEClash.Weighted>
0.5359

> <Gold.Chemscore.DEInternal.Weighted>
3.3512

> <Gold.Chemscore.Rot.Weighted>
4.2569

> <Gold.Chemscore.Internal.Correction.Weighted>
   9.000000E+99

> <Gold.Protein.RotatedTorsions>
[ 6907 6896 6895 6894 ] final -106.69 input  -60.11 | X-H torsion
[ 7974 7965 7964 7962 ] final  123.09 input  175.53 | X-H torsion
[ 8008 7997 7996 7995 ] final -127.34 input   59.86 | X-H torsion
[ 10167 10162 10161 10158 ] final -176.81 input  -65.29 | X-H torsion
[ 10718 10713 10712 10709 ] final   74.84 input   66.30 | X-H torsion
[ 10763 10752 10751 10750 ] final  161.65 input  -60.55 | X-H torsion
[ 11005 11000 10999 10996 ] final   -5.79 input  -57.11 | X-H torsion

> <Gold.Protein.ActiveResidues>
 VAL166  LYS551  ARG553  GLY616  TRP617  ASP618  TYR619  PRO620  LYS621  CYS622 
 ASP623  PHE694  ASN695  SER759  ASP760  ASP761  ALA762  ILE779  LEU786  VAL792 
 PHE793  MET794  SER795  GLU796  ALA797  LYS798  CYS799  TRP800  GLU811  SER814 

> <Gold.Protein.RotatedAtoms>
  150.7403  133.9938  159.3615 H   0  0  0  0  0  0  0  0  0  0  0  0  # atno 6907 bound_to 6896
  151.7887  135.0739  160.0393 H   0  0  0  0  0  0  0  0  0  0  0  0  # atno 6908 bound_to 6896
  152.3223  133.5830  159.5789 H   0  0  0  0  0  0  0  0  0  0  0  0  # atno 6909 bound_to 6896
  145.1000  139.3525  143.4817 H   0  0  0  0  0  0  0  0  0  0  0  0  # atno 7974 bound_to 7965
  155.2445  140.0430  157.2979 H   0  0  0  0  0  0  0  0  0  0  0  0  # atno 8008 bound_to 7997
  154.5807  140.2400  155.8028 H   0  0  0  0  0  0  0  0  0  0  0  0  # atno 8009 bound_to 7997
  156.2191  140.2975  155.9917 H   0  0  0  0  0  0  0  0  0  0  0  0  # atno 8010 bound_to 7997
  139.5511  144.2108  152.1078 H   0  0  0  0  0  0  0  0  0  0  0  0  # atno 10167 bound_to 10162
  157.6609  130.9697  150.1269 H   0  0  0  0  0  0  0  0  0  0  0  0  # atno 10718 bound_to 10713
  154.2662  135.2767  155.2757 H   0  0  0  0  0  0  0  0  0  0  0  0  # atno 10763 bound_to 10752
  154.5341  135.5721  153.6787 H   0  0  0  0  0  0  0  0  0  0  0  0  # atno 10764 bound_to 10752
  152.9953  135.6235  154.2815 H   0  0  0  0  0  0  0  0  0  0  0  0  # atno 10765 bound_to 10752
  140.6950  133.9038  155.8644 H   0  0  0  0  0  0  0  0  0  0  0  0  # atno 11005 bound_to 11000
  146.3530  140.0873  142.8614 LP  0  0  0  0  0  0  0  0  0  0  0  0  # atno 17320 bound_to 7965
  145.0966  140.9319  143.4737 LP  0  0  0  0  0  0  0  0  0  0  0  0  # atno 17321 bound_to 7965
  140.1603  144.5032  150.6636 LP  0  0  0  0  0  0  0  0  0  0  0  0  # atno 17342 bound_to 10162
  140.6773  143.2311  151.5474 LP  0  0  0  0  0  0  0  0  0  0  0  0  # atno 17343 bound_to 10162
  156.2125  130.3668  149.8652 LP  0  0  0  0  0  0  0  0  0  0  0  0  # atno 17370 bound_to 10713
  156.6527  130.8750  151.3534 LP  0  0  0  0  0  0  0  0  0  0  0  0  # atno 17371 bound_to 10713
  141.0210  134.0888  157.4120 LP  0  0  0  0  0  0  0  0  0  0  0  0  # atno 17394 bound_to 11000
  139.8913  135.0117  156.6782 LP  0  0  0  0  0  0  0  0  0  0  0  0  # atno 17395 bound_to 11000

$$$$
