AV-unprocessed.smi:2880|AV-procd|sdf|11053|dock4
  -GOLD-   2272015523D 1   1.00000     0.00000
 Structure written by MMmdl.
 47 48  0  0  0  0  0  0  0  0  1 V2000
  146.8102  134.5887  162.9336 C   0  0  0  0  0  0  0  0  0  0  0  0
  146.9880  136.0470  162.4685 C   0  0  0  0  0  0  0  0  0  0  0  0
  145.6197  136.7633  162.5633 C   0  0  0  0  0  0  0  0  0  0  0  0
  147.9838  136.7717  163.3953 C   0  0  0  0  0  0  0  0  0  0  0  0
  147.5222  136.0479  161.0999 N   0  0  0  0  0  0  0  0  0  0  0  0
  147.8820  134.9557  160.3282 C   0  0  0  0  0  0  0  0  0  0  0  0
  148.3229  135.4156  159.1203 C   0  0  0  0  0  0  0  0  0  0  0  0
  148.1948  136.8246  159.2439 C   0  0  0  0  0  0  0  0  0  0  0  0
  148.5612  137.6817  158.1752 N   0  0  0  0  0  0  0  0  0  0  0  0
  149.0758  137.3332  156.9836 C   0  0  0  0  0  0  0  0  0  0  0  0
  149.3329  136.1813  156.6324 O   0  0  0  0  0  0  0  0  0  0  0  0
  149.2717  138.4116  156.2105 N   0  0  0  0  0  0  0  0  0  0  0  0
  149.7924  138.4125  154.8413 C   0  0  2  0  0  0  0  0  0  0  0  0
  150.9137  137.3627  154.7034 C   0  0  0  0  0  0  0  0  0  0  0  0
  152.1861  137.7657  155.4679 C   0  0  0  0  0  0  0  0  0  0  0  0
  152.6730  139.1576  155.0397 C   0  0  0  0  0  0  0  0  0  0  0  0
  151.5653  140.2114  155.1972 C   0  0  0  0  0  0  0  0  0  0  0  0
  150.2895  139.8221  154.4198 C   0  0  2  0  0  0  0  0  0  0  0  0
  149.2130  140.9221  154.5374 C   0  0  0  0  0  0  0  0  0  0  0  0
  148.2690  140.8167  153.4926 O   0  0  0  0  0  0  0  0  0  0  0  0
  147.7178  137.2035  160.4198 N   0  0  0  0  0  0  0  0  0  0  0  0
  146.4059  134.5418  163.9452 H   0  0  0  0  0  0  0  0  0  0  0  0
  147.7564  134.0468  162.9378 H   0  0  0  0  0  0  0  0  0  0  0  0
  146.1248  134.0471  162.2807 H   0  0  0  0  0  0  0  0  0  0  0  0
  144.8680  136.2810  161.9369 H   0  0  0  0  0  0  0  0  0  0  0  0
  145.6899  137.8078  162.2567 H   0  0  0  0  0  0  0  0  0  0  0  0
  145.2400  136.7534  163.5855 H   0  0  0  0  0  0  0  0  0  0  0  0
  147.6180  136.8033  164.4221 H   0  0  0  0  0  0  0  0  0  0  0  0
  148.1453  137.8010  163.0727 H   0  0  0  0  0  0  0  0  0  0  0  0
  148.9552  136.2767  163.4132 H   0  0  0  0  0  0  0  0  0  0  0  0
  147.7952  133.9456  160.7007 H   0  0  0  0  0  0  0  0  0  0  0  0
  148.6797  134.8343  158.2833 H   0  0  0  0  0  0  0  0  0  0  0  0
  148.4010  138.6660  158.3294 H   0  0  0  0  0  0  0  0  0  0  0  0
  149.0302  139.3130  156.5950 H   0  0  0  0  0  0  0  0  0  0  0  0
  148.9982  138.1181  154.1532 H   0  0  0  0  0  0  0  0  0  0  0  0
  150.5636  136.3887  155.0476 H   0  0  0  0  0  0  0  0  0  0  0  0
  151.1584  137.2393  153.6476 H   0  0  0  0  0  0  0  0  0  0  0  0
  151.9916  137.7589  156.5410 H   0  0  0  0  0  0  0  0  0  0  0  0
  152.9709  137.0292  155.2939 H   0  0  0  0  0  0  0  0  0  0  0  0
  153.5450  139.4436  155.6284 H   0  0  0  0  0  0  0  0  0  0  0  0
  153.0003  139.1256  153.9997 H   0  0  0  0  0  0  0  0  0  0  0  0
  151.3325  140.3423  156.2548 H   0  0  0  0  0  0  0  0  0  0  0  0
  151.9348  141.1750  154.8448 H   0  0  0  0  0  0  0  0  0  0  0  0
  150.5698  139.7634  153.3665 H   0  0  0  0  0  0  0  0  0  0  0  0
  148.6973  140.8767  155.4969 H   0  0  0  0  0  0  0  0  0  0  0  0
  149.6739  141.9082  154.4744 H   0  0  0  0  0  0  0  0  0  0  0  0
  148.6737  140.3703  152.7645 H   0  0  0  0  0  0  0  0  0  0  0  0
  1  2  1  0  0  0  0
  1 22  1  0  0  0  0
  1 23  1  0  0  0  0
  1 24  1  0  0  0  0
  2  3  1  0  0  0  0
  2  4  1  0  0  0  0
  2  5  1  0  0  0  0
  3 25  1  0  0  0  0
  3 26  1  0  0  0  0
  3 27  1  0  0  0  0
  4 28  1  0  0  0  0
  4 29  1  0  0  0  0
  4 30  1  0  0  0  0
  5 21  1  0  0  0  0
  5  6  1  0  0  0  0
  6  7  2  0  0  0  0
  6 31  1  0  0  0  0
  7  8  1  0  0  0  0
  7 32  1  0  0  0  0
  8  9  1  0  0  0  0
  8 21  2  0  0  0  0
  9 10  1  0  0  0  0
  9 33  1  0  0  0  0
 10 11  2  0  0  0  0
 10 12  1  0  0  0  0
 12 13  1  0  0  0  0
 12 34  1  0  0  0  0
 13 18  1  0  0  0  0
 13 14  1  0  0  0  0
 13 35  1  0  0  0  0
 14 15  1  0  0  0  0
 14 36  1  0  0  0  0
 14 37  1  0  0  0  0
 15 16  1  0  0  0  0
 15 38  1  0  0  0  0
 15 39  1  0  0  0  0
 16 17  1  0  0  0  0
 16 40  1  0  0  0  0
 16 41  1  0  0  0  0
 17 18  1  0  0  0  0
 17 42  1  0  0  0  0
 17 43  1  0  0  0  0
 18 19  1  0  0  0  0
 18 44  1  0  0  0  0
 19 20  1  0  0  0  0
 19 45  1  0  0  0  0
 19 46  1  0  0  0  0
 20 47  1  0  0  0  0
M  END
> <s_m_source_file>
AV-unprocessed.smi

> <i_m_source_file_index>
2880

> <i_lp_mmshare_version>
43012

> <i_f3d_flags>
0

> <s_epik_input>
W0NIM11DKFtDSDNdKShbQ0gzXSluMVtjSF1bY0hdYyhuMSlbTkhdQyg9TylbTkhdW0NAQEhdMltDSDJdW0NIMl1bQ0gyXVtDSDJdW0NASF0yW0NIMl1bT0hd

> <s_epik_cmdline>
J2VwaWtfcHl0aG9uJywgJy1waCcsICc3LjAnLCAnLXRuJywgJzgnLCAnLW1hJywgJzIwMCcsICctbWV0YWxfYmluZGluZycsICctaW1hZScsICc8aW5maWxlLm1hZT4nLCAnLW9tYWUnLCAnPG91dGZpbGUubWFlPic=

> <r_lp_tautomer_probability>
1

> <r_epik_Ionization_Penalty>
3.89283e-05

> <r_epik_Ionization_Penalty_Charging>
0

> <r_epik_Ionization_Penalty_Neutral>
3.89283e-05

> <r_epik_State_Penalty>
-0

> <r_epik_Charging_Adjusted_Penalty>
0

> <i_epik_Tot_Q>
0

> <i_epik_Tot_abs_Q>
0

> <r_epik_Metal_State_Penalty>
-0

> <b_epik_Metal_Only>
0

> <s_lp_Force_Field>
OPLS_2005

> <r_lp_Energy>
20.6401

> <b_lp_Chiralities_Consistent>
1

> <s_lp_Variant>
AV-unprocessed.smi:2880-3

> <Gold.Version>
5.8.1

> <Gold.Id.Protein>
6NUR|6NUR_protein|mol2

> <Gold.PLP.Fitness>
42.1894

> <Gold.PLP.PLP>
-36.2452

> <Gold.PLP.part.hbond>
-2.9450

> <Gold.PLP.part.metal>
0.0000

> <Gold.PLP.part.buried>
2.4876

> <Gold.PLP.part.nonpolar>
-36.2383

> <Gold.PLP.part.repulsive>
0.1137

> <Gold.PLP.ligand.clash>
0.0000

> <Gold.PLP.ligand.torsion>
0.4485

> <Gold.PLP.Chemscore.Hbond>
2.2708

> <Gold.PLP.Chemscore.CHOScore>
0.0000

> <Gold.PLP.Chemscore.Metal>
0.0000

> <Gold.Chemscore.Hbonds>
donor molecule, donor type, donor heavy atom, donor atom, acceptor molecule, acceptor atom, score
      L1  H    20    47       P1  7957  1.00
      P1  H  6931  6943       L1    21  0.33
      P1  H  6934  6947       L1    21  0.90

> <Gold.PLP.Chemscore.Internal.Correction>
0.0287

> <Gold.Rescore>
     Score         DG    S(hbond)    S(metal)    S(lipo)     H(rot)  DE(clash)    DE(int)     intcor
     13.51     -18.43       1.95        0.00      97.97       1.97       1.44       3.48       ----

> <Gold.Chemscore.Fitness>
13.5058

> <Gold.Chemscore.DG>
-18.4263

> <Gold.Chemscore.ZeroCoef>
-5.4800

> <Gold.Chemscore.Hbond>
1.9521

> <Gold.Chemscore.Metal>
0.0000

> <Gold.Chemscore.Lipo>
97.9684

> <Gold.Chemscore.Internal_Hbond>
0.0000

> <Gold.Chemscore.DEClash>
1.4430

> <Gold.Chemscore.DEInternal>
3.4774

> <Gold.Chemscore.Rot>
1.9672

> <Gold.Chemscore.Internal.Correction>
   9.000000E+99

> <Gold.Chemscore.Hbonds>
donor molecule, donor type, donor heavy atom, donor atom, acceptor molecule, acceptor atom, score
      L1  H    20    47       P1  7957  1.00
      P1  H  6931  6943       L1    21  0.07
      P1  H  6934  6947       L1    21  0.87

> <Gold.Chemscore.Hbond.Weighted>
-6.5200

> <Gold.Chemscore.Metal.Weighted>
-0.0000

> <Gold.Chemscore.Lipo.Weighted>
-11.4623

> <Gold.Chemscore.Internal_Hbond.Weighted>
0.0000

> <Gold.Chemscore.DEClash.Weighted>
1.4430

> <Gold.Chemscore.DEInternal.Weighted>
3.4774

> <Gold.Chemscore.Rot.Weighted>
5.0360

> <Gold.Chemscore.Internal.Correction.Weighted>
   9.000000E+99

> <Gold.Protein.RotatedTorsions>
[ 6907 6896 6895 6894 ] final -114.65 input  -60.11 | X-H torsion
[ 7974 7965 7964 7962 ] final    6.14 input  175.53 | X-H torsion
[ 8008 7997 7996 7995 ] final  152.26 input   59.86 | X-H torsion
[ 10167 10162 10161 10158 ] final   32.79 input  -65.29 | X-H torsion
[ 10718 10713 10712 10709 ] final  165.31 input   66.30 | X-H torsion
[ 10763 10752 10751 10750 ] final  130.42 input  -60.55 | X-H torsion
[ 11005 11000 10999 10996 ] final  -66.13 input  -57.11 | X-H torsion

> <Gold.Protein.ActiveResidues>
 VAL166  LYS551  ARG553  GLY616  TRP617  ASP618  TYR619  PRO620  LYS621  CYS622 
 ASP623  PHE694  ASN695  SER759  ASP760  ASP761  ALA762  ILE779  LEU786  VAL792 
 PHE793  MET794  SER795  GLU796  ALA797  LYS798  CYS799  TRP800  GLU811  SER814 

> <Gold.Protein.RotatedAtoms>
  150.7918  133.8770  159.3274 H   0  0  0  0  0  0  0  0  0  0  0  0  # atno 6907 bound_to 6896
  151.6606  135.0988  160.0188 H   0  0  0  0  0  0  0  0  0  0  0  0  # atno 6908 bound_to 6896
  152.3994  133.6756  159.6338 H   0  0  0  0  0  0  0  0  0  0  0  0  # atno 6909 bound_to 6896
  146.2436  140.0278  142.8392 H   0  0  0  0  0  0  0  0  0  0  0  0  # atno 7974 bound_to 7965
  156.2637  140.2025  156.6305 H   0  0  0  0  0  0  0  0  0  0  0  0  # atno 8008 bound_to 7997
  154.6687  140.0552  157.0166 H   0  0  0  0  0  0  0  0  0  0  0  0  # atno 8009 bound_to 7997
  155.1169  140.3221  155.4510 H   0  0  0  0  0  0  0  0  0  0  0  0  # atno 8010 bound_to 7997
  140.4466  144.1109  150.6183 H   0  0  0  0  0  0  0  0  0  0  0  0  # atno 10167 bound_to 10162
  157.0819  131.0394  151.2572 H   0  0  0  0  0  0  0  0  0  0  0  0  # atno 10718 bound_to 10713
  153.7578  135.3200  155.3332 H   0  0  0  0  0  0  0  0  0  0  0  0  # atno 10763 bound_to 10752
  154.8241  135.4582  154.0868 H   0  0  0  0  0  0  0  0  0  0  0  0  # atno 10764 bound_to 10752
  153.2090  135.6933  153.8220 H   0  0  0  0  0  0  0  0  0  0  0  0  # atno 10765 bound_to 10752
  141.1473  133.6693  156.6091 H   0  0  0  0  0  0  0  0  0  0  0  0  # atno 11005 bound_to 11000
  145.1182  140.9446  143.4616 LP  0  0  0  0  0  0  0  0  0  0  0  0  # atno 17320 bound_to 7965
  145.0507  139.3184  143.5930 LP  0  0  0  0  0  0  0  0  0  0  0  0  # atno 17321 bound_to 7965
  140.4256  143.2591  151.9660 LP  0  0  0  0  0  0  0  0  0  0  0  0  # atno 17342 bound_to 10162
  139.4793  144.5791  151.7962 LP  0  0  0  0  0  0  0  0  0  0  0  0  # atno 17343 bound_to 10162
  157.4793  130.7755  149.7398 LP  0  0  0  0  0  0  0  0  0  0  0  0  # atno 17370 bound_to 10713
  155.9921  130.3933  150.2955 LP  0  0  0  0  0  0  0  0  0  0  0  0  # atno 17371 bound_to 10713
  140.3628  134.7673  157.4545 LP  0  0  0  0  0  0  0  0  0  0  0  0  # atno 17394 bound_to 11000
  140.0771  134.5782  155.8579 LP  0  0  0  0  0  0  0  0  0  0  0  0  # atno 17395 bound_to 11000

$$$$
