AV-unprocessed.smi:1244|AV-procd|sdf|5227|dock8
  -GOLD-   22720 4323D 1   1.00000     0.00000
 Structure written by MMmdl.
 55 57  0  0  0  0  0  0  0  0  2 V2000
  149.1918  136.1356  155.3022 C   0  0  0  0  0  0  0  0  0  0  0  0
  149.9124  137.4274  154.9007 C   0  0  1  0  0  0  0  0  0  0  0  0
  148.9239  138.5541  154.5510 C   0  0  0  0  0  0  0  0  0  0  0  0
  149.6500  139.8105  154.2540 N   0  3  1  0  0  0  0  0  0  0  0  0
  148.7396  140.8965  153.8131 C   0  0  0  0  0  0  0  0  0  0  0  0
  147.6300  141.1895  154.8411 C   0  0  0  0  0  0  0  0  0  0  0  0
  148.1337  141.9798  155.9580 N   0  0  0  0  0  0  0  0  0  0  0  0
  147.4213  142.3067  157.0454 C   0  0  0  0  0  0  0  0  0  0  0  0
  146.2521  141.9621  157.2190 O   0  0  0  0  0  0  0  0  0  0  0  0
  148.1534  143.0261  157.9117 N   0  0  0  0  0  0  0  0  0  0  0  0
  147.7581  143.5199  159.1865 C   0  0  0  0  0  0  0  0  0  0  0  0
  146.3922  143.6150  159.5483 C   0  0  0  0  0  0  0  0  0  0  0  0
  146.0443  144.1759  160.7888 C   0  0  0  0  0  0  0  0  0  0  0  0
  147.0768  144.6397  161.6209 C   0  0  0  0  0  0  0  0  0  0  0  0
  148.3805  144.5688  161.2859 N   0  0  0  0  0  0  0  0  0  0  0  0
  148.7332  144.0162  160.0988 C   0  0  0  0  0  0  0  0  0  0  0  0
  150.1158  143.9499  159.8101 N   0  0  0  0  0  0  0  0  0  0  0  0
  150.6474  144.5556  158.5934 C   0  0  0  0  0  0  0  0  0  0  0  0
  152.1541  144.6404  158.8191 C   0  0  0  0  0  0  0  0  0  0  0  0
  152.2439  144.9346  160.3132 C   0  0  0  0  0  0  0  0  0  0  0  0
  151.0550  144.1711  160.9062 C   0  0  0  0  0  0  0  0  0  0  0  0
  150.5159  140.1876  155.3987 C   0  0  0  0  0  0  0  0  0  0  0  0
  151.4660  139.0357  155.7823 C   0  0  2  0  0  0  0  0  0  0  0  0
  152.6239  138.8365  154.7879 C   0  0  0  0  0  0  0  0  0  0  0  0
  150.7253  137.8347  155.9980 O   0  0  0  0  0  0  0  0  0  0  0  0
  148.5616  135.7685  154.4917 H   0  0  0  0  0  0  0  0  0  0  0  0
  148.5573  136.2920  156.1752 H   0  0  0  0  0  0  0  0  0  0  0  0
  149.9070  135.3501  155.5475 H   0  0  0  0  0  0  0  0  0  0  0  0
  150.5403  137.2087  154.0366 H   0  0  0  0  0  0  0  0  0  0  0  0
  148.3288  138.2588  153.6859 H   0  0  0  0  0  0  0  0  0  0  0  0
  148.2290  138.7212  155.3759 H   0  0  0  0  0  0  0  0  0  0  0  0
  149.3252  141.8056  153.6693 H   0  0  0  0  0  0  0  0  0  0  0  0
  148.3113  140.6499  152.8403 H   0  0  0  0  0  0  0  0  0  0  0  0
  146.8180  141.7555  154.3863 H   0  0  0  0  0  0  0  0  0  0  0  0
  147.1935  140.2594  155.2091 H   0  0  0  0  0  0  0  0  0  0  0  0
  149.0886  142.3031  155.8979 H   0  0  0  0  0  0  0  0  0  0  0  0
  149.1300  143.1461  157.6850 H   0  0  0  0  0  0  0  0  0  0  0  0
  145.6059  143.2885  158.8846 H   0  0  0  0  0  0  0  0  0  0  0  0
  145.0104  144.2607  161.0887 H   0  0  0  0  0  0  0  0  0  0  0  0
  146.8503  145.0852  162.5782 H   0  0  0  0  0  0  0  0  0  0  0  0
  150.4019  143.9602  157.7135 H   0  0  0  0  0  0  0  0  0  0  0  0
  150.2461  145.5601  158.4516 H   0  0  0  0  0  0  0  0  0  0  0  0
  152.6206  143.6789  158.5997 H   0  0  0  0  0  0  0  0  0  0  0  0
  152.6341  145.4011  158.2032 H   0  0  0  0  0  0  0  0  0  0  0  0
  153.1982  144.6384  160.7495 H   0  0  0  0  0  0  0  0  0  0  0  0
  152.1144  146.0044  160.4832 H   0  0  0  0  0  0  0  0  0  0  0  0
  150.6018  144.7205  161.7326 H   0  0  0  0  0  0  0  0  0  0  0  0
  151.3873  143.2041  161.2843 H   0  0  0  0  0  0  0  0  0  0  0  0
  151.1004  141.0777  155.1680 H   0  0  0  0  0  0  0  0  0  0  0  0
  149.8852  140.4392  156.2527 H   0  0  0  0  0  0  0  0  0  0  0  0
  151.9175  139.2861  156.7428 H   0  0  0  0  0  0  0  0  0  0  0  0
  153.2546  139.7248  154.7470 H   0  0  0  0  0  0  0  0  0  0  0  0
  152.2724  138.6429  153.7747 H   0  0  0  0  0  0  0  0  0  0  0  0
  153.2546  137.9999  155.0894 H   0  0  0  0  0  0  0  0  0  0  0  0
  150.2577  139.6083  153.4729 H   0  0  0  0  0  0  0  0  0  0  0  0
  1  2  1  0  0  0  0
  1 26  1  0  0  0  0
  1 27  1  0  0  0  0
  1 28  1  0  0  0  0
  2 25  1  0  0  0  0
  2  3  1  0  0  0  0
  2 29  1  0  0  0  0
  3  4  1  0  0  0  0
  3 30  1  0  0  0  0
  3 31  1  0  0  0  0
  4  5  1  0  0  0  0
  4 22  1  0  0  0  0
  4 55  1  0  0  0  0
  5  6  1  0  0  0  0
  5 32  1  0  0  0  0
  5 33  1  0  0  0  0
  6  7  1  0  0  0  0
  6 34  1  0  0  0  0
  6 35  1  0  0  0  0
  7  8  1  0  0  0  0
  7 36  1  0  0  0  0
  8  9  2  0  0  0  0
  8 10  1  0  0  0  0
 10 11  1  0  0  0  0
 10 37  1  0  0  0  0
 11 16  1  0  0  0  0
 11 12  2  0  0  0  0
 12 13  1  0  0  0  0
 12 38  1  0  0  0  0
 13 14  2  0  0  0  0
 13 39  1  0  0  0  0
 14 15  1  0  0  0  0
 14 40  1  0  0  0  0
 15 16  2  0  0  0  0
 16 17  1  0  0  0  0
 17 21  1  0  0  0  0
 17 18  1  0  0  0  0
 18 19  1  0  0  0  0
 18 41  1  0  0  0  0
 18 42  1  0  0  0  0
 19 20  1  0  0  0  0
 19 43  1  0  0  0  0
 19 44  1  0  0  0  0
 20 21  1  0  0  0  0
 20 45  1  0  0  0  0
 20 46  1  0  0  0  0
 21 47  1  0  0  0  0
 21 48  1  0  0  0  0
 22 23  1  0  0  0  0
 22 49  1  0  0  0  0
 22 50  1  0  0  0  0
 23 24  1  0  0  0  0
 23 25  1  0  0  0  0
 23 51  1  0  0  0  0
 24 52  1  0  0  0  0
 24 53  1  0  0  0  0
 24 54  1  0  0  0  0
M  CHG  1   4   1
M  END
> <s_m_source_file>
AV-unprocessed.smi

> <i_m_source_file_index>
1244

> <i_lp_mmshare_version>
43012

> <i_f3d_flags>
0

> <s_epik_input>
W0NIM11bQ0BASF0xW0NIMl1OKFtDSDJdW0NASF0oTzEpW0NIM10pW0NIMl1bQ0gyXVtOSF1DKD1PKVtOSF1jMltjSF1bY0hdW2NIXW5jMk4zW0NIMl1bQ0gyXVtDSDJdW0NIMl0z

> <s_epik_cmdline>
J2VwaWtfcHl0aG9uJywgJy1waCcsICc3LjAnLCAnLXRuJywgJzgnLCAnLW1hJywgJzIwMCcsICctbWV0YWxfYmluZGluZycsICctaW1hZScsICc8aW5maWxlLm1hZT4nLCAnLW9tYWUnLCAnPG91dGZpbGUubWFlPic=

> <r_lp_tautomer_probability>
1

> <r_epik_Ionization_Penalty>
0.684913

> <r_epik_Ionization_Penalty_Charging>
0.602531

> <r_epik_Ionization_Penalty_Neutral>
0.0823829

> <r_epik_State_Penalty>
0.678827

> <r_epik_Charging_Adjusted_Penalty>
1.28136

> <i_epik_Tot_Q>
1

> <i_epik_Tot_abs_Q>
1

> <r_epik_Metal_State_Penalty>
0.67806

> <b_epik_Metal_Only>
0

> <s_lp_Force_Field>
OPLS_2005

> <r_lp_Energy>
45.4089

> <b_lp_Chiralities_Consistent>
1

> <s_lp_Variant>
AV-unprocessed.smi:1244-7

> <Gold.Version>
5.8.1

> <Gold.Id.Protein>
6NUR|6NUR_protein|mol2

> <Gold.PLP.Fitness>
40.2295

> <Gold.PLP.PLP>
-40.3722

> <Gold.PLP.part.hbond>
-4.6356

> <Gold.PLP.part.metal>
0.0000

> <Gold.PLP.part.buried>
1.5301

> <Gold.PLP.part.nonpolar>
-37.5988

> <Gold.PLP.part.repulsive>
0.6931

> <Gold.PLP.ligand.clash>
0.0000

> <Gold.PLP.ligand.torsion>
0.3577

> <Gold.PLP.Chemscore.Hbond>
0.0811

> <Gold.PLP.Chemscore.CHOScore>
0.0000

> <Gold.PLP.Chemscore.Metal>
0.0000

> <Gold.PLP.Chemscore.Internal.Correction>
0.3294

> <Gold.Rescore>
     Score         DG    S(hbond)    S(metal)    S(lipo)     H(rot)  DE(clash)    DE(int)     intcor
     11.84     -15.93       0.48        0.00     110.68       1.60       1.30       2.79       ----

> <Gold.Chemscore.Fitness>
11.8416

> <Gold.Chemscore.DG>
-15.9296

> <Gold.Chemscore.ZeroCoef>
-5.4800

> <Gold.Chemscore.Hbond>
0.4763

> <Gold.Chemscore.Metal>
0.0000

> <Gold.Chemscore.Lipo>
110.6789

> <Gold.Chemscore.Internal_Hbond>
0.0000

> <Gold.Chemscore.DEClash>
1.3020

> <Gold.Chemscore.DEInternal>
2.7860

> <Gold.Chemscore.Rot>
1.5978

> <Gold.Chemscore.Internal.Correction>
   9.000000E+99

> <Gold.Chemscore.Hbonds>
donor molecule, donor type, donor heavy atom, donor atom, acceptor molecule, acceptor atom, score
      L1  H     4    55       P1  7957  0.03
      L1  H     7    36       P1  8028  0.01

> <Gold.Chemscore.Hbond.Weighted>
-1.5907

> <Gold.Chemscore.Metal.Weighted>
-0.0000

> <Gold.Chemscore.Lipo.Weighted>
-12.9494

> <Gold.Chemscore.Internal_Hbond.Weighted>
0.0000

> <Gold.Chemscore.DEClash.Weighted>
1.3020

> <Gold.Chemscore.DEInternal.Weighted>
2.7860

> <Gold.Chemscore.Rot.Weighted>
4.0905

> <Gold.Chemscore.Internal.Correction.Weighted>
   9.000000E+99

> <Gold.Protein.RotatedTorsions>
[ 6907 6896 6895 6894 ] final   32.39 input  -60.11 | X-H torsion
[ 7974 7965 7964 7962 ] final  170.86 input  175.53 | X-H torsion
[ 8008 7997 7996 7995 ] final   59.23 input   59.86 | X-H torsion
[ 10167 10162 10161 10158 ] final  112.11 input  -65.29 | X-H torsion
[ 10718 10713 10712 10709 ] final  152.66 input   66.30 | X-H torsion
[ 10763 10752 10751 10750 ] final  -55.37 input  -60.55 | X-H torsion
[ 11005 11000 10999 10996 ] final  -67.93 input  -57.11 | X-H torsion

> <Gold.Protein.ActiveResidues>
 VAL166  LYS551  ARG553  GLY616  TRP617  ASP618  TYR619  PRO620  LYS621  CYS622 
 ASP623  PHE694  ASN695  SER759  ASP760  ASP761  ALA762  ILE779  LEU786  VAL792 
 PHE793  MET794  SER795  GLU796  ALA797  LYS798  CYS799  TRP800  GLU811  SER814 

> <Gold.Protein.RotatedAtoms>
  152.0738  134.9516  160.0574 H   0  0  0  0  0  0  0  0  0  0  0  0  # atno 6907 bound_to 6896
  152.0832  133.4158  159.4518 H   0  0  0  0  0  0  0  0  0  0  0  0  # atno 6908 bound_to 6896
  150.6836  134.2878  159.4697 H   0  0  0  0  0  0  0  0  0  0  0  0  # atno 6909 bound_to 6896
  144.7311  139.9264  143.6422 H   0  0  0  0  0  0  0  0  0  0  0  0  # atno 7974 bound_to 7965
  155.5629  140.3488  155.4496 H   0  0  0  0  0  0  0  0  0  0  0  0  # atno 8008 bound_to 7997
  156.0501  140.1316  157.0085 H   0  0  0  0  0  0  0  0  0  0  0  0  # atno 8009 bound_to 7997
  154.4430  140.1006  156.6349 H   0  0  0  0  0  0  0  0  0  0  0  0  # atno 8010 bound_to 7997
  139.6560  144.7129  151.1956 H   0  0  0  0  0  0  0  0  0  0  0  0  # atno 10167 bound_to 10162
  157.2548  131.0786  151.1705 H   0  0  0  0  0  0  0  0  0  0  0  0  # atno 10718 bound_to 10713
  154.1897  135.6429  153.5056 H   0  0  0  0  0  0  0  0  0  0  0  0  # atno 10763 bound_to 10752
  153.0038  135.5426  154.6428 H   0  0  0  0  0  0  0  0  0  0  0  0  # atno 10764 bound_to 10752
  154.5813  135.2925  155.0702 H   0  0  0  0  0  0  0  0  0  0  0  0  # atno 10765 bound_to 10752
  141.1520  133.6729  156.6368 H   0  0  0  0  0  0  0  0  0  0  0  0  # atno 11005 bound_to 11000
  146.0890  139.3879  143.0417 LP  0  0  0  0  0  0  0  0  0  0  0  0  # atno 17320 bound_to 7965
  145.7737  140.9886  143.1136 LP  0  0  0  0  0  0  0  0  0  0  0  0  # atno 17321 bound_to 7965
  140.7559  143.6071  150.8642 LP  0  0  0  0  0  0  0  0  0  0  0  0  # atno 17342 bound_to 10162
  139.9724  143.6042  152.2969 LP  0  0  0  0  0  0  0  0  0  0  0  0  # atno 17343 bound_to 10162
  157.3239  130.6951  149.6285 LP  0  0  0  0  0  0  0  0  0  0  0  0  # atno 17370 bound_to 10713
  155.9665  130.4327  150.4976 LP  0  0  0  0  0  0  0  0  0  0  0  0  # atno 17371 bound_to 10713
  140.3424  134.7838  157.4407 LP  0  0  0  0  0  0  0  0  0  0  0  0  # atno 17394 bound_to 11000
  140.0927  134.5579  155.8428 LP  0  0  0  0  0  0  0  0  0  0  0  0  # atno 17395 bound_to 11000

$$$$
