AV-unprocessed.smi:1022|AV-procd|sdf|4458|dock2
  -GOLD-   22720 2433D 1   1.00000     0.00000
 Structure written by MMmdl.
 33 34  0  0  0  0  0  0  0  0  1 V2000
  151.0857  140.5397  155.7986 C   0  0  0  0  0  0  0  0  0  0  0  0
  150.3091  140.5179  154.6142 O   0  0  0  0  0  0  0  0  0  0  0  0
  148.9245  140.3475  154.8727 C   0  0  0  0  0  0  0  0  0  0  0  0
  148.1154  140.9082  153.6932 C   0  0  2  0  0  0  0  0  0  0  0  0
  146.9216  141.7484  154.1738 C   0  0  0  0  0  0  0  0  0  0  0  0
  147.6455  139.8071  152.8562 N   0  0  0  0  0  0  0  0  0  0  0  0
  146.7163  138.9068  153.2081 C   0  0  0  0  0  0  0  0  0  0  0  0
  146.1511  138.9054  154.3021 O   0  0  0  0  0  0  0  0  0  0  0  0
  146.4994  138.0220  152.2193 N   0  0  0  0  0  0  0  0  0  0  0  0
  145.5966  136.9263  152.2012 C   0  0  0  0  0  0  0  0  0  0  0  0
  144.5937  136.7724  153.0766 N   0  0  0  0  0  0  0  0  0  0  0  0
  143.8644  135.6175  152.8312 N   0  0  0  0  0  0  0  0  0  0  0  0
  144.3337  134.9336  151.7808 C   0  0  0  0  0  0  0  0  0  0  0  0
  143.7137  133.6556  151.3223 C   0  0  0  0  0  0  0  0  0  0  0  0
  144.4762  132.3488  151.3440 C   0  0  0  0  0  0  0  0  0  0  0  0
  144.1487  133.0076  150.0282 C   0  0  0  0  0  0  0  0  0  0  0  0
  145.7303  135.6609  150.9923 S   0  0  0  0  0  0  0  0  0  0  0  0
  152.1371  140.6753  155.5443 H   0  0  0  0  0  0  0  0  0  0  0  0
  150.9907  139.6030  156.3493 H   0  0  0  0  0  0  0  0  0  0  0  0
  150.7885  141.3618  156.4510 H   0  0  0  0  0  0  0  0  0  0  0  0
  148.6928  139.2922  155.0280 H   0  0  0  0  0  0  0  0  0  0  0  0
  148.6603  140.8779  155.7891 H   0  0  0  0  0  0  0  0  0  0  0  0
  148.7763  141.5530  153.1112 H   0  0  0  0  0  0  0  0  0  0  0  0
  147.2532  142.5811  154.7942 H   0  0  0  0  0  0  0  0  0  0  0  0
  146.2266  141.1499  154.7637 H   0  0  0  0  0  0  0  0  0  0  0  0
  146.3692  142.1678  153.3322 H   0  0  0  0  0  0  0  0  0  0  0  0
  148.0537  139.7339  151.9358 H   0  0  0  0  0  0  0  0  0  0  0  0
  147.0481  138.1444  151.3812 H   0  0  0  0  0  0  0  0  0  0  0  0
  142.6551  133.6306  151.5737 H   0  0  0  0  0  0  0  0  0  0  0  0
  145.5172  132.3631  151.6608 H   0  0  0  0  0  0  0  0  0  0  0  0
  143.9223  131.4500  151.6070 H   0  0  0  0  0  0  0  0  0  0  0  0
  143.3776  132.5485  149.4130 H   0  0  0  0  0  0  0  0  0  0  0  0
  144.9680  133.4704  149.4815 H   0  0  0  0  0  0  0  0  0  0  0  0
  1  2  1  0  0  0  0
  1 18  1  0  0  0  0
  1 19  1  0  0  0  0
  1 20  1  0  0  0  0
  2  3  1  0  0  0  0
  3  4  1  0  0  0  0
  3 21  1  0  0  0  0
  3 22  1  0  0  0  0
  4  5  1  0  0  0  0
  4  6  1  0  0  0  0
  4 23  1  0  0  0  0
  5 24  1  0  0  0  0
  5 25  1  0  0  0  0
  5 26  1  0  0  0  0
  6  7  1  0  0  0  0
  6 27  1  0  0  0  0
  7  8  2  0  0  0  0
  7  9  1  0  0  0  0
  9 10  1  0  0  0  0
  9 28  1  0  0  0  0
 10 17  1  0  0  0  0
 10 11  2  0  0  0  0
 11 12  1  0  0  0  0
 12 13  2  0  0  0  0
 13 14  1  0  0  0  0
 13 17  1  0  0  0  0
 14 16  1  0  0  0  0
 14 15  1  0  0  0  0
 14 29  1  0  0  0  0
 15 16  1  0  0  0  0
 15 30  1  0  0  0  0
 15 31  1  0  0  0  0
 16 32  1  0  0  0  0
 16 33  1  0  0  0  0
M  END
> <s_m_source_file>
AV-unprocessed.smi

> <i_m_source_file_index>
1022

> <i_lp_mmshare_version>
43012

> <i_f3d_flags>
0

> <s_epik_input>
W0NIM11PW0NIMl1bQ0BIXShbQ0gzXSlbTkhdQyg9TylbTkhdYzFubmMoczEpW0NIXTJbQ0gyXVtDSDJdMg==

> <s_epik_cmdline>
J2VwaWtfcHl0aG9uJywgJy1waCcsICc3LjAnLCAnLXRuJywgJzgnLCAnLW1hJywgJzIwMCcsICctbWV0YWxfYmluZGluZycsICctaW1hZScsICc8aW5maWxlLm1hZT4nLCAnLW9tYWUnLCAnPG91dGZpbGUubWFlPic=

> <r_lp_tautomer_probability>
1

> <r_epik_Ionization_Penalty>
0.00129266

> <r_epik_Ionization_Penalty_Charging>
0

> <r_epik_Ionization_Penalty_Neutral>
0.00129266

> <r_epik_State_Penalty>
-0

> <r_epik_Charging_Adjusted_Penalty>
0

> <i_epik_Tot_Q>
0

> <i_epik_Tot_abs_Q>
0

> <r_epik_Metal_State_Penalty>
0.30857

> <b_epik_Metal_Only>
0

> <s_lp_Force_Field>
OPLS_2005

> <r_lp_Energy>
1.45425

> <b_lp_Chiralities_Consistent>
1

> <s_lp_Variant>
AV-unprocessed.smi:1022-1

> <Gold.Version>
5.8.1

> <Gold.Id.Protein>
6NUR|6NUR_protein|mol2

> <Gold.PLP.Fitness>
35.0828

> <Gold.PLP.PLP>
-31.3468

> <Gold.PLP.part.hbond>
-3.0000

> <Gold.PLP.part.metal>
0.0000

> <Gold.PLP.part.buried>
-6.2386

> <Gold.PLP.part.nonpolar>
-24.7459

> <Gold.PLP.part.repulsive>
0.5967

> <Gold.PLP.ligand.clash>
0.0000

> <Gold.PLP.ligand.torsion>
0.9265

> <Gold.PLP.Chemscore.Hbond>
1.8080

> <Gold.PLP.Chemscore.CHOScore>
0.0000

> <Gold.PLP.Chemscore.Metal>
0.0000

> <Gold.Chemscore.Hbonds>
donor molecule, donor type, donor heavy atom, donor atom, acceptor molecule, acceptor atom, score
      L1  H     6    27       P1  7957  0.80
      P1  H  7989  7998       L1     2  0.82

> <Gold.PLP.Chemscore.Internal.Correction>
0.1651

> <Gold.Rescore>
     Score         DG    S(hbond)    S(metal)    S(lipo)     H(rot)  DE(clash)    DE(int)     intcor
     10.86     -14.29       1.86        0.00      59.95       1.73       0.04       3.39       ----

> <Gold.Chemscore.Fitness>
10.8566

> <Gold.Chemscore.DG>
-14.2876

> <Gold.Chemscore.ZeroCoef>
-5.4800

> <Gold.Chemscore.Hbond>
1.8642

> <Gold.Chemscore.Metal>
0.0000

> <Gold.Chemscore.Lipo>
59.9536

> <Gold.Chemscore.Internal_Hbond>
0.0000

> <Gold.Chemscore.DEClash>
0.0381

> <Gold.Chemscore.DEInternal>
3.3929

> <Gold.Chemscore.Rot>
1.7318

> <Gold.Chemscore.Internal.Correction>
   9.000000E+99

> <Gold.Chemscore.Hbonds>
donor molecule, donor type, donor heavy atom, donor atom, acceptor molecule, acceptor atom, score
      L1  H     6    27       P1  7957  0.80
      P1  H  7989  7998       L1     2  0.14

> <Gold.Chemscore.Hbond.Weighted>
-6.2265

> <Gold.Chemscore.Metal.Weighted>
-0.0000

> <Gold.Chemscore.Lipo.Weighted>
-7.0146

> <Gold.Chemscore.Internal_Hbond.Weighted>
0.0000

> <Gold.Chemscore.DEClash.Weighted>
0.0381

> <Gold.Chemscore.DEInternal.Weighted>
3.3929

> <Gold.Chemscore.Rot.Weighted>
4.4335

> <Gold.Chemscore.Internal.Correction.Weighted>
   9.000000E+99

> <Gold.Protein.RotatedTorsions>
[ 6907 6896 6895 6894 ] final   51.20 input  -60.11 | X-H torsion
[ 7974 7965 7964 7962 ] final -106.69 input  175.53 | X-H torsion
[ 8008 7997 7996 7995 ] final  -52.23 input   59.86 | X-H torsion
[ 10167 10162 10161 10158 ] final  130.18 input  -65.29 | X-H torsion
[ 10718 10713 10712 10709 ] final  116.06 input   66.30 | X-H torsion
[ 10763 10752 10751 10750 ] final   11.00 input  -60.55 | X-H torsion
[ 11005 11000 10999 10996 ] final  -62.51 input  -57.11 | X-H torsion

> <Gold.Protein.ActiveResidues>
 VAL166  LYS551  ARG553  GLY616  TRP617  ASP618  TYR619  PRO620  LYS621  CYS622 
 ASP623  PHE694  ASN695  SER759  ASP760  ASP761  ALA762  ILE779  LEU786  VAL792 
 PHE793  MET794  SER795  GLU796  ALA797  LYS798  CYS799  TRP800  GLU811  SER814 

> <Gold.Protein.RotatedAtoms>
  152.3101  134.7507  160.0338 H   0  0  0  0  0  0  0  0  0  0  0  0  # atno 6907 bound_to 6896
  151.7991  133.3362  159.3529 H   0  0  0  0  0  0  0  0  0  0  0  0  # atno 6908 bound_to 6896
  150.7316  134.5701  159.5930 H   0  0  0  0  0  0  0  0  0  0  0  0  # atno 6909 bound_to 6896
  145.2147  140.9110  143.3294 H   0  0  0  0  0  0  0  0  0  0  0  0  # atno 7974 bound_to 7965
  154.4101  140.1229  156.4958 H   0  0  0  0  0  0  0  0  0  0  0  0  # atno 8008 bound_to 7997
  155.6944  140.3495  155.4887 H   0  0  0  0  0  0  0  0  0  0  0  0  # atno 8009 bound_to 7997
  155.9440  140.1092  157.1022 H   0  0  0  0  0  0  0  0  0  0  0  0  # atno 8010 bound_to 7997
  139.5442  144.6758  151.4526 H   0  0  0  0  0  0  0  0  0  0  0  0  # atno 10167 bound_to 10162
  157.6183  131.1020  150.7419 H   0  0  0  0  0  0  0  0  0  0  0  0  # atno 10718 bound_to 10713
  153.1972  135.6851  153.8277 H   0  0  0  0  0  0  0  0  0  0  0  0  # atno 10763 bound_to 10752
  153.7556  135.3217  155.3329 H   0  0  0  0  0  0  0  0  0  0  0  0  # atno 10764 bound_to 10752
  154.8151  135.4691  154.0722 H   0  0  0  0  0  0  0  0  0  0  0  0  # atno 10765 bound_to 10752
  141.1362  133.6641  156.5538 H   0  0  0  0  0  0  0  0  0  0  0  0  # atno 11005 bound_to 11000
  144.9822  139.3772  143.6256 LP  0  0  0  0  0  0  0  0  0  0  0  0  # atno 17320 bound_to 7965
  146.3389  139.8968  142.8800 LP  0  0  0  0  0  0  0  0  0  0  0  0  # atno 17321 bound_to 7965
  140.6684  143.8348  150.6969 LP  0  0  0  0  0  0  0  0  0  0  0  0  # atno 17342 bound_to 10162
  140.1764  143.4151  152.1964 LP  0  0  0  0  0  0  0  0  0  0  0  0  # atno 17343 bound_to 10162
  156.7782  130.4850  149.5406 LP  0  0  0  0  0  0  0  0  0  0  0  0  # atno 17370 bound_to 10713
  156.1316  130.6182  151.0342 LP  0  0  0  0  0  0  0  0  0  0  0  0  # atno 17371 bound_to 10713
  140.4042  134.7329  157.4798 LP  0  0  0  0  0  0  0  0  0  0  0  0  # atno 17394 bound_to 11000
  140.0474  134.6180  155.8904 LP  0  0  0  0  0  0  0  0  0  0  0  0  # atno 17395 bound_to 11000

$$$$
