#       Name:                AV-unprocessed.smi:1447
#       Creating user name   scv26
#       Creation time:       Fri Mar 27 05:57:38 2020


#       File generated by GOLD software.
#

@<TRIPOS>MOLECULE
AV-unprocessed.smi:1447
    55    57     1
SMALL
NO_CHARGES


@<TRIPOS>ATOM
      1 ****        -4.5292  -1.8359   4.6799 C.3            1 S1                 0.0000
      2 ****        -3.9755  -2.4267   3.5174 O.3            1 S1                 0.0000
      3 ****        -2.5595  -2.4788   3.5565 C.3            1 S1                 0.0000
      4 ****        -2.0504  -3.1356   2.2644 C.3            1 S1                 0.0000
      5 ****        -0.5854  -3.1917   2.2302 N.am           1 S1                 0.0000
      6 ****         0.0039  -2.1473   1.5366 N.2            1 S1                 0.0000
      7 ****         1.2924  -2.0773   1.4391 C.2            1 S1                 0.0000
      8 ****         1.9655  -0.9705   0.7039 C.2            1 S1                 0.0000
      9 ****         3.1922  -0.9045   0.6067 O.2            1 S1                 0.0000
     10 ****         1.1430  -0.0568   0.1571 N.am           1 S1                 0.0000
     11 ****         1.5698   1.1139  -0.6028 C.3            1 S1                 0.0000
     12 ****         0.4643   2.1823  -0.5798 C.3            1 S1                 0.0000
     13 ****         0.8440   3.3971  -1.4483 C.3            1 S1                 0.0000
     14 ****         1.1763   3.0063  -2.8426 N.4            1 S1                 1.0000
     15 ****        -0.0138   2.6551  -3.6529 C.3            1 S1                 0.0000
     16 ****         0.1381   2.9713  -5.1225 C.3            1 S1                 0.0000
     17 ****        -0.7192   3.8540  -4.2427 C.3            1 S1                 0.0000
     18 ****         2.2479   1.9789  -2.8947 C.3            1 S1                 0.0000
     19 ****         1.8989   0.7333  -2.0588 C.3            1 S1                 0.0000
     20 ****         2.1410  -3.0863   2.0500 C.2            1 S1                 0.0000
     21 ****         1.5517  -4.0960   2.7270 C.2            1 S1                 0.0000
     22 ****         0.0974  -4.1965   2.8575 C.2            1 S1                 0.0000
     23 ****        -0.4619  -5.1001   3.4781 O.2            1 S1                 0.0000
     24 ****        -5.6161  -1.8185   4.6004 H              1 S1                 0.0000
     25 ****        -4.1845  -0.8083   4.8026 H              1 S1                 0.0000
     26 ****        -4.2665  -2.4026   5.5744 H              1 S1                 0.0000
     27 ****        -2.1525  -1.4707   3.6501 H              1 S1                 0.0000
     28 ****        -2.2327  -3.0483   4.4280 H              1 S1                 0.0000
     29 ****        -2.4731  -4.1367   2.1621 H              1 S1                 0.0000
     30 ****        -2.4207  -2.5758   1.4034 H              1 S1                 0.0000
     31 ****         0.1489  -0.1851   0.2832 H              1 S1                 0.0000
     32 ****         2.4614   1.5365  -0.1351 H              1 S1                 0.0000
     33 ****        -0.4756   1.7556  -0.9325 H              1 S1                 0.0000
     34 ****         0.2844   2.5091   0.4453 H              1 S1                 0.0000
     35 ****         0.0376   4.1314  -1.4490 H              1 S1                 0.0000
     36 ****         1.7120   3.8958  -1.0150 H              1 S1                 0.0000
     37 ****        -0.5840   1.7831  -3.3383 H              1 S1                 0.0000
     38 ****         1.0876   3.3765  -5.4678 H              1 S1                 0.0000
     39 ****        -0.3759   2.3242  -5.8305 H              1 S1                 0.0000
     40 ****        -1.7979   3.7891  -4.3721 H              1 S1                 0.0000
     41 ****        -0.3387   4.8461  -4.0054 H              1 S1                 0.0000
     42 ****         2.4472   1.6993  -3.9297 H              1 S1                 0.0000
     43 ****         3.1687   2.4239  -2.5151 H              1 S1                 0.0000
     44 ****         2.7362   0.0349  -2.0846 H              1 S1                 0.0000
     45 ****         1.0536   0.2103  -2.5082 H              1 S1                 0.0000
     46 ****         3.2173  -3.0377   1.9701 H              1 S1                 0.0000
     47 ****         2.1706  -4.8523   3.1869 H              1 S1                 0.0000
     48 ****         1.5601   3.8319  -3.2803 H              1 S1                 0.0000
     49 ****        -4.2547  -1.8903   2.7210 LP             1 S1                 0.0000
     50 ****        -4.3284  -3.3585   3.4320 LP             1 S1                 0.0000
     51 ****        -0.5676  -1.4460   1.1103 LP             1 S1                 0.0000
     52 ****         3.7657  -1.6069   1.0282 LP             1 S1                 0.0000
     53 ****         3.6142  -0.1485   0.1062 LP             1 S1                 0.0000
     54 ****        -1.4597  -5.1210   3.5398 LP             1 S1                 0.0000
     55 ****         0.0815  -5.8135   3.9206 LP             1 S1                 0.0000
@<TRIPOS>BOND
    1    1    2 1     
    2    1   24 1     
    3    1   25 1     
    4    1   26 1     
    5    2    3 1     
    6    3    4 1     
    7    3   27 1     
    8    3   28 1     
    9    4    5 1     
   10    4   29 1     
   11    4   30 1     
   12    5   22 am    
   13    5    6 1     
   14    6    7 2     
   15    7    8 1     
   16    7   20 1     
   17    8    9 2     
   18    8   10 am    
   19   10   11 1     
   20   10   31 1     
   21   11   19 1     
   22   11   12 1     
   23   11   32 1     
   24   12   13 1     
   25   12   33 1     
   26   12   34 1     
   27   13   14 1     
   28   13   35 1     
   29   13   36 1     
   30   14   15 1     
   31   14   18 1     
   32   14   48 1     
   33   15   17 1     
   34   15   16 1     
   35   15   37 1     
   36   16   17 1     
   37   16   38 1     
   38   16   39 1     
   39   17   40 1     
   40   17   41 1     
   41   18   19 1     
   42   18   42 1     
   43   18   43 1     
   44   19   44 1     
   45   19   45 1     
   46   20   21 2     
   47   20   46 1     
   48   21   22 1     
   49   21   47 1     
   50   22   23 2     
   51    2   49 1     
   52    2   50 1     
   53    6   51 1     
   54    9   52 1     
   55    9   53 1     
   56   23   54 1     
   57   23   55 1     
@<TRIPOS>SUBSTRUCTURE
      1 S1             1
@<TRIPOS>SET
LONE_PAIRS      STATIC     ATOMS    <user>   **** ""
7 49 50 51 52 53 54 55
DONOR_HYDROGENS      STATIC     ATOMS    <user>   **** ""
2 31 48
ATOM$BLUE        STATIC     ATOMS    COLORGROUP SYSTEM
7 49 50 51 52 53 54 55
ATOM$RED        STATIC     ATOMS    COLORGROUP SYSTEM
2 31 48
