AV-unprocessed.smi:3070|AV-procd|sdf|11712|dock10
  -GOLD-   2272017113D 1   1.00000     0.00000
 Structure written by MMmdl.
 21 22  0  0  0  0  0  0  0  0  2 V2000
  152.7503  138.4185  154.6311 C   0  0  0  0  0  0  0  0  0  0  0  0
  151.8801  137.3814  154.4507 N   0  0  0  0  0  0  0  0  0  0  0  0
  150.7378  138.0530  154.4172 C   0  0  0  0  0  0  0  0  0  0  0  0
  150.8814  139.3720  154.5601 N   0  0  0  0  0  0  0  0  0  0  0  0
  149.8797  140.4275  154.5742 C   0  0  1  0  0  0  0  0  0  0  0  0
  148.4401  139.9216  154.4860 C   0  0  0  0  0  0  0  0  0  0  0  0
  147.6336  141.1115  155.0085 C   0  0  0  0  0  0  0  0  0  0  0  0
  148.5035  141.8072  155.9790 N   0  3  0  0  0  0  0  0  0  0  0  0
  149.8707  141.2620  155.8609 C   0  0  0  0  0  0  0  0  0  0  0  0
  152.2039  139.6325  154.7027 N   0  0  0  0  0  0  0  0  0  0  0  0
  153.8178  138.2749  154.7114 H   0  0  0  0  0  0  0  0  0  0  0  0
  149.7790  137.5733  154.2845 H   0  0  0  0  0  0  0  0  0  0  0  0
  150.0682  141.0899  153.7274 H   0  0  0  0  0  0  0  0  0  0  0  0
  148.1542  139.6286  153.4753 H   0  0  0  0  0  0  0  0  0  0  0  0
  148.2867  139.0624  155.1405 H   0  0  0  0  0  0  0  0  0  0  0  0
  147.4107  141.7996  154.1922 H   0  0  0  0  0  0  0  0  0  0  0  0
  146.6887  140.8098  155.4611 H   0  0  0  0  0  0  0  0  0  0  0  0
  148.5060  142.7966  155.7760 H   0  0  0  0  0  0  0  0  0  0  0  0
  150.0578  140.6425  156.7388 H   0  0  0  0  0  0  0  0  0  0  0  0
  150.6179  142.0558  155.8473 H   0  0  0  0  0  0  0  0  0  0  0  0
  148.1655  141.6546  156.9186 H   0  0  0  0  0  0  0  0  0  0  0  0
  1 10  2  0  0  0  0
  1  2  1  0  0  0  0
  1 11  1  0  0  0  0
  2  3  2  0  0  0  0
  3  4  1  0  0  0  0
  3 12  1  0  0  0  0
  4  5  1  0  0  0  0
  4 10  1  0  0  0  0
  5  9  1  0  0  0  0
  5  6  1  0  0  0  0
  5 13  1  0  0  0  0
  6  7  1  0  0  0  0
  6 14  1  0  0  0  0
  6 15  1  0  0  0  0
  7  8  1  0  0  0  0
  7 16  1  0  0  0  0
  7 17  1  0  0  0  0
  8  9  1  0  0  0  0
  8 18  1  0  0  0  0
  8 21  1  0  0  0  0
  9 19  1  0  0  0  0
  9 20  1  0  0  0  0
M  CHG  1   8   1
M  END
> <s_m_source_file>
AV-unprocessed.smi

> <i_m_source_file_index>
3070

> <i_lp_mmshare_version>
43012

> <i_f3d_flags>
0

> <s_epik_input>
bjFbY0hdbltjSF1uMVtDQEBIXTJbQ0gyXVtDSDJdW05IXVtDSDJdMg==

> <s_epik_cmdline>
J2VwaWtfcHl0aG9uJywgJy1waCcsICc3LjAnLCAnLXRuJywgJzgnLCAnLW1hJywgJzIwMCcsICctbWV0YWxfYmluZGluZycsICctaW1hZScsICc8aW5maWxlLm1hZT4nLCAnLW9tYWUnLCAnPG91dGZpbGUubWFlPic=

> <r_lp_tautomer_probability>
1

> <r_epik_Ionization_Penalty>
0.000421274

> <r_epik_Ionization_Penalty_Charging>
0.000420295

> <r_epik_Ionization_Penalty_Neutral>
9.79543e-07

> <r_epik_State_Penalty>
0.000258452

> <r_epik_Charging_Adjusted_Penalty>
0.000678746

> <i_epik_Tot_Q>
1

> <i_epik_Tot_abs_Q>
1

> <r_epik_Metal_State_Penalty>
-0

> <b_epik_Metal_Only>
0

> <s_lp_Force_Field>
OPLS_2005

> <r_lp_Energy>
29.098

> <b_lp_Chiralities_Consistent>
1

> <s_lp_Variant>
AV-unprocessed.smi:3070-2

> <Gold.Version>
5.8.1

> <Gold.Id.Protein>
6NUR|6NUR_protein|mol2

> <Gold.PLP.Fitness>
31.8268

> <Gold.PLP.PLP>
-20.0929

> <Gold.PLP.part.hbond>
-3.0000

> <Gold.PLP.part.metal>
0.0000

> <Gold.PLP.part.buried>
1.6453

> <Gold.PLP.part.nonpolar>
-18.5691

> <Gold.PLP.part.repulsive>
0.2787

> <Gold.PLP.ligand.clash>
0.0000

> <Gold.PLP.ligand.torsion>
0.0159

> <Gold.PLP.Chemscore.Hbond>
2.9588

> <Gold.PLP.Chemscore.CHOScore>
0.9615

> <Gold.PLP.Chemscore.Metal>
0.0000

> <Gold.Chemscore.Hbonds>
donor molecule, donor type, donor heavy atom, donor atom, acceptor molecule, acceptor atom, score
      L1  H     8    18       P1  8028  2.00
      P1  H 10752 10765       L1     2  0.98
      L1  C     3    12       P1  7948  0.15

> <Gold.PLP.Chemscore.Internal.Correction>
0.0050

> <Gold.Rescore>
     Score         DG    S(hbond)    S(metal)    S(lipo)     H(rot)  DE(clash)    DE(int)     intcor
     10.09     -11.48       1.63        0.00      26.71       1.00       1.38       0.01       ----

> <Gold.Chemscore.Fitness>
10.0938

> <Gold.Chemscore.DG>
-11.4822

> <Gold.Chemscore.ZeroCoef>
-5.4800

> <Gold.Chemscore.Hbond>
1.6279

> <Gold.Chemscore.Metal>
0.0000

> <Gold.Chemscore.Lipo>
26.7111

> <Gold.Chemscore.Internal_Hbond>
0.0000

> <Gold.Chemscore.DEClash>
1.3828

> <Gold.Chemscore.DEInternal>
0.0056

> <Gold.Chemscore.Rot>
1.0000

> <Gold.Chemscore.Internal.Correction>
   9.000000E+99

> <Gold.Chemscore.Hbonds>
donor molecule, donor type, donor heavy atom, donor atom, acceptor molecule, acceptor atom, score
      L1  H     8    18       P1  8028  0.98
      P1  H 10752 10765       L1     2  0.57

> <Gold.Chemscore.Hbond.Weighted>
-5.4371

> <Gold.Chemscore.Metal.Weighted>
-0.0000

> <Gold.Chemscore.Lipo.Weighted>
-3.1252

> <Gold.Chemscore.Internal_Hbond.Weighted>
0.0000

> <Gold.Chemscore.DEClash.Weighted>
1.3828

> <Gold.Chemscore.DEInternal.Weighted>
0.0056

> <Gold.Chemscore.Rot.Weighted>
2.5600

> <Gold.Chemscore.Internal.Correction.Weighted>
   9.000000E+99

> <Gold.Protein.RotatedTorsions>
[ 6907 6896 6895 6894 ] final -119.53 input  -60.11 | X-H torsion
[ 7974 7965 7964 7962 ] final  129.92 input  175.53 | X-H torsion
[ 8008 7997 7996 7995 ] final  152.45 input   59.86 | X-H torsion
[ 10167 10162 10161 10158 ] final   33.52 input  -65.29 | X-H torsion
[ 10718 10713 10712 10709 ] final   17.16 input   66.30 | X-H torsion
[ 10763 10752 10751 10750 ] final  163.80 input  -60.55 | X-H torsion
[ 11005 11000 10999 10996 ] final  117.82 input  -57.11 | X-H torsion

> <Gold.Protein.ActiveResidues>
 VAL166  LYS551  ARG553  GLY616  TRP617  ASP618  TYR619  PRO620  LYS621  CYS622 
 ASP623  PHE694  ASN695  SER759  ASP760  ASP761  ALA762  ILE779  LEU786  VAL792 
 PHE793  MET794  SER795  GLU796  ALA797  LYS798  CYS799  TRP800  GLU811  SER814 

> <Gold.Protein.RotatedAtoms>
  150.8313  133.8086  159.3097 H   0  0  0  0  0  0  0  0  0  0  0  0  # atno 6907 bound_to 6896
  151.5815  135.1056  160.0028 H   0  0  0  0  0  0  0  0  0  0  0  0  # atno 6908 bound_to 6896
  152.4392  133.7375  159.6678 H   0  0  0  0  0  0  0  0  0  0  0  0  # atno 6909 bound_to 6896
  145.0235  139.4110  143.5185 H   0  0  0  0  0  0  0  0  0  0  0  0  # atno 7974 bound_to 7965
  156.2628  140.2020  156.6335 H   0  0  0  0  0  0  0  0  0  0  0  0  # atno 8008 bound_to 7997
  154.6664  140.0555  157.0143 H   0  0  0  0  0  0  0  0  0  0  0  0  # atno 8009 bound_to 7997
  155.1200  140.3224  155.4502 H   0  0  0  0  0  0  0  0  0  0  0  0  # atno 8010 bound_to 7997
  140.4400  144.1201  150.6172 H   0  0  0  0  0  0  0  0  0  0  0  0  # atno 10167 bound_to 10162
  157.0782  130.6376  149.5820 H   0  0  0  0  0  0  0  0  0  0  0  0  # atno 10718 bound_to 10713
  154.2992  135.2759  155.2619 H   0  0  0  0  0  0  0  0  0  0  0  0  # atno 10763 bound_to 10752
  154.5064  135.5794  153.6574 H   0  0  0  0  0  0  0  0  0  0  0  0  # atno 10764 bound_to 10752
  152.9903  135.6170  154.3161 H   0  0  0  0  0  0  0  0  0  0  0  0  # atno 10765 bound_to 10752
  139.9088  134.9614  156.7409 H   0  0  0  0  0  0  0  0  0  0  0  0  # atno 11005 bound_to 11000
  146.3489  139.9746  142.8702 LP  0  0  0  0  0  0  0  0  0  0  0  0  # atno 17320 bound_to 7965
  145.1864  140.9791  143.4236 LP  0  0  0  0  0  0  0  0  0  0  0  0  # atno 17321 bound_to 7965
  140.4329  143.2560  151.9572 LP  0  0  0  0  0  0  0  0  0  0  0  0  # atno 17342 bound_to 10162
  139.4789  144.5727  151.8063 LP  0  0  0  0  0  0  0  0  0  0  0  0  # atno 17343 bound_to 10162
  155.9931  130.4991  150.7367 LP  0  0  0  0  0  0  0  0  0  0  0  0  # atno 17370 bound_to 10713
  157.4822  131.0903  151.0523 LP  0  0  0  0  0  0  0  0  0  0  0  0  # atno 17371 bound_to 10713
  140.6850  133.9440  155.7933 LP  0  0  0  0  0  0  0  0  0  0  0  0  # atno 17394 bound_to 11000
  141.0483  134.0522  157.3816 LP  0  0  0  0  0  0  0  0  0  0  0  0  # atno 17395 bound_to 11000

$$$$
