AV-unprocessed.smi:2675|AV-procd|sdf|10360|dock6
  -GOLD-   2272014383D 1   1.00000     0.00000
 Structure written by MMmdl.
 37 38  0  0  0  0  0  0  0  0  2 V2000
  153.2000  142.8850  162.8948 C   0  0  0  0  0  0  0  0  0  0  0  0
  152.5914  143.3362  161.6093 C   0  0  0  0  0  0  0  0  0  0  0  0
  151.5624  144.2396  161.5783 N   0  3  0  0  0  0  0  0  0  0  0  0
  151.1892  144.4835  160.3216 C   0  0  0  0  0  0  0  0  0  0  0  0
  151.9731  143.7387  159.5340 N   0  0  0  0  0  0  0  0  0  0  0  0
  151.8243  143.7437  158.0717 C   0  0  0  0  0  0  0  0  0  0  0  0
  151.3012  142.3957  157.5774 C   0  0  0  0  0  0  0  0  0  0  0  0
  151.7118  141.3571  158.0919 O   0  0  0  0  0  0  0  0  0  0  0  0
  150.3703  142.4413  156.6088 N   0  0  0  0  0  0  0  0  0  0  0  0
  149.6182  141.3298  156.0122 C   0  0  1  0  0  0  0  0  0  0  0  0
  150.6604  140.2629  155.6389 C   0  0  0  0  0  0  0  0  0  0  0  0
  148.6773  140.7221  156.9739 C   0  0  0  0  0  0  0  0  0  0  0  0
  147.9418  140.2455  157.7298 N   0  0  0  0  0  0  0  0  0  0  0  0
  148.8249  141.6934  154.7547 C   0  0  0  0  0  0  0  0  0  0  0  0
  147.3348  141.9538  154.7870 C   0  0  0  0  0  0  0  0  0  0  0  0
  147.8757  140.7512  154.0461 C   0  0  0  0  0  0  0  0  0  0  0  0
  152.8593  143.0112  160.2983 C   0  0  0  0  0  0  0  0  0  0  0  0
  153.8672  142.0783  159.7075 C   0  0  0  0  0  0  0  0  0  0  0  0
  153.9773  142.1422  162.7176 H   0  0  0  0  0  0  0  0  0  0  0  0
  152.4388  142.4398  163.5358 H   0  0  0  0  0  0  0  0  0  0  0  0
  153.6447  143.7319  163.4179 H   0  0  0  0  0  0  0  0  0  0  0  0
  150.4034  145.1468  160.0064 H   0  0  0  0  0  0  0  0  0  0  0  0
  151.1468  144.5518  157.7907 H   0  0  0  0  0  0  0  0  0  0  0  0
  152.7909  143.9634  157.6178 H   0  0  0  0  0  0  0  0  0  0  0  0
  150.1288  143.3573  156.2597 H   0  0  0  0  0  0  0  0  0  0  0  0
  150.1870  139.3805  155.2064 H   0  0  0  0  0  0  0  0  0  0  0  0
  151.2223  139.9334  156.5139 H   0  0  0  0  0  0  0  0  0  0  0  0
  151.3764  140.6422  154.9085 H   0  0  0  0  0  0  0  0  0  0  0  0
  149.3905  142.3387  154.0842 H   0  0  0  0  0  0  0  0  0  0  0  0
  146.7965  141.7682  155.7139 H   0  0  0  0  0  0  0  0  0  0  0  0
  146.9598  142.7843  154.1923 H   0  0  0  0  0  0  0  0  0  0  0  0
  147.8605  140.7859  152.9586 H   0  0  0  0  0  0  0  0  0  0  0  0
  147.6744  139.7741  154.4753 H   0  0  0  0  0  0  0  0  0  0  0  0
  154.4902  141.6376  160.4851 H   0  0  0  0  0  0  0  0  0  0  0  0
  154.5166  142.6113  159.0132 H   0  0  0  0  0  0  0  0  0  0  0  0
  153.3677  141.2710  159.1716 H   0  0  0  0  0  0  0  0  0  0  0  0
  151.1401  144.6634  162.3948 H   0  0  0  0  0  0  0  0  0  0  0  0
  1  2  1  0  0  0  0
  1 19  1  0  0  0  0
  1 20  1  0  0  0  0
  1 21  1  0  0  0  0
  2 17  2  0  0  0  0
  2  3  1  0  0  0  0
  3  4  2  0  0  0  0
  3 37  1  0  0  0  0
  4  5  1  0  0  0  0
  4 22  1  0  0  0  0
  5  6  1  0  0  0  0
  5 17  1  0  0  0  0
  6  7  1  0  0  0  0
  6 23  1  0  0  0  0
  6 24  1  0  0  0  0
  7  8  2  0  0  0  0
  7  9  1  0  0  0  0
  9 10  1  0  0  0  0
  9 25  1  0  0  0  0
 10 11  1  0  0  0  0
 10 12  1  0  0  0  0
 10 14  1  0  0  0  0
 11 26  1  0  0  0  0
 11 27  1  0  0  0  0
 11 28  1  0  0  0  0
 12 13  3  0  0  0  0
 14 16  1  0  0  0  0
 14 15  1  0  0  0  0
 14 29  1  0  0  0  0
 15 16  1  0  0  0  0
 15 30  1  0  0  0  0
 15 31  1  0  0  0  0
 16 32  1  0  0  0  0
 16 33  1  0  0  0  0
 17 18  1  0  0  0  0
 18 34  1  0  0  0  0
 18 35  1  0  0  0  0
 18 36  1  0  0  0  0
M  CHG  1   3   1
M  END
> <s_m_source_file>
AV-unprocessed.smi

> <i_m_source_file_index>
2675

> <i_lp_mmshare_version>
43012

> <i_f3d_flags>
0

> <s_epik_input>
W0NIM11jMW5bY0hdbihjMVtDSDNdKVtDSDJdQyg9TylbTkhdW0NAQF0oW0NIM10pKEMjTilbQ0hdMltDSDJdW0NIMl0y

> <s_epik_cmdline>
J2VwaWtfcHl0aG9uJywgJy1waCcsICc3LjAnLCAnLXRuJywgJzgnLCAnLW1hJywgJzIwMCcsICctbWV0YWxfYmluZGluZycsICctaW1hZScsICc8aW5maWxlLm1hZT4nLCAnLW9tYWUnLCAnPG91dGZpbGUubWFlPic=

> <r_lp_tautomer_probability>
1

> <r_epik_Ionization_Penalty>
0.153253

> <r_epik_Ionization_Penalty_Charging>
0

> <r_epik_Ionization_Penalty_Neutral>
0.153253

> <r_epik_State_Penalty>
0.14254

> <r_epik_Charging_Adjusted_Penalty>
0.14254

> <i_epik_Tot_Q>
1

> <i_epik_Tot_abs_Q>
1

> <r_epik_Metal_State_Penalty>
0.466899

> <b_epik_Metal_Only>
0

> <s_lp_Force_Field>
OPLS_2005

> <r_lp_Energy>
18.2007

> <b_lp_Chiralities_Consistent>
1

> <s_lp_Variant>
AV-unprocessed.smi:2675-1

> <Gold.Version>
5.8.1

> <Gold.Id.Protein>
6NUR|6NUR_protein|mol2

> <Gold.PLP.Fitness>
48.8866

> <Gold.PLP.PLP>
-47.0216

> <Gold.PLP.part.hbond>
-2.2281

> <Gold.PLP.part.metal>
0.0000

> <Gold.PLP.part.buried>
-4.5657

> <Gold.PLP.part.nonpolar>
-40.3431

> <Gold.PLP.part.repulsive>
0.1506

> <Gold.PLP.ligand.clash>
0.0000

> <Gold.PLP.ligand.torsion>
1.3246

> <Gold.PLP.Chemscore.Hbond>
1.0000

> <Gold.PLP.Chemscore.CHOScore>
0.0000

> <Gold.PLP.Chemscore.Metal>
0.0000

> <Gold.Chemscore.Hbonds>
donor molecule, donor type, donor heavy atom, donor atom, acceptor molecule, acceptor atom, score
      L1  H     9    25       P1  8028  1.00

> <Gold.PLP.Chemscore.Internal.Correction>
1.5141

> <Gold.Rescore>
     Score         DG    S(hbond)    S(metal)    S(lipo)     H(rot)  DE(clash)    DE(int)     intcor
     10.53     -15.05       0.98        0.00      93.03       1.80       0.18       4.34       ----

> <Gold.Chemscore.Fitness>
10.5317

> <Gold.Chemscore.DG>
-15.0472

> <Gold.Chemscore.ZeroCoef>
-5.4800

> <Gold.Chemscore.Hbond>
0.9817

> <Gold.Chemscore.Metal>
0.0000

> <Gold.Chemscore.Lipo>
93.0338

> <Gold.Chemscore.Internal_Hbond>
0.0000

> <Gold.Chemscore.DEClash>
0.1768

> <Gold.Chemscore.DEInternal>
4.3388

> <Gold.Chemscore.Rot>
1.7955

> <Gold.Chemscore.Internal.Correction>
   9.000000E+99

> <Gold.Chemscore.Hbonds>
donor molecule, donor type, donor heavy atom, donor atom, acceptor molecule, acceptor atom, score
      L1  H     9    25       P1  8028  0.97

> <Gold.Chemscore.Hbond.Weighted>
-3.2788

> <Gold.Chemscore.Metal.Weighted>
-0.0000

> <Gold.Chemscore.Lipo.Weighted>
-10.8850

> <Gold.Chemscore.Internal_Hbond.Weighted>
0.0000

> <Gold.Chemscore.DEClash.Weighted>
0.1768

> <Gold.Chemscore.DEInternal.Weighted>
4.3388

> <Gold.Chemscore.Rot.Weighted>
4.5965

> <Gold.Chemscore.Internal.Correction.Weighted>
   9.000000E+99

> <Gold.Protein.RotatedTorsions>
[ 6907 6896 6895 6894 ] final -175.26 input  -60.11 | X-H torsion
[ 7974 7965 7964 7962 ] final   60.96 input  175.53 | X-H torsion
[ 8008 7997 7996 7995 ] final   37.96 input   59.86 | X-H torsion
[ 10167 10162 10161 10158 ] final  105.89 input  -65.29 | X-H torsion
[ 10718 10713 10712 10709 ] final  109.43 input   66.30 | X-H torsion
[ 10763 10752 10751 10750 ] final  131.09 input  -60.55 | X-H torsion
[ 11005 11000 10999 10996 ] final   70.17 input  -57.11 | X-H torsion

> <Gold.Protein.ActiveResidues>
 VAL166  LYS551  ARG553  GLY616  TRP617  ASP618  TYR619  PRO620  LYS621  CYS622 
 ASP623  PHE694  ASN695  SER759  ASP760  ASP761  ALA762  ILE779  LEU786  VAL792 
 PHE793  MET794  SER795  GLU796  ALA797  LYS798  CYS799  TRP800  GLU811  SER814 

> <Gold.Protein.RotatedAtoms>
  151.5856  133.3372  159.3017 H   0  0  0  0  0  0  0  0  0  0  0  0  # atno 6907 bound_to 6896
  150.8289  134.7536  159.6847 H   0  0  0  0  0  0  0  0  0  0  0  0  # atno 6908 bound_to 6896
  152.4375  134.5664  159.9960 H   0  0  0  0  0  0  0  0  0  0  0  0  # atno 6909 bound_to 6896
  145.8902  139.3505  143.0654 H   0  0  0  0  0  0  0  0  0  0  0  0  # atno 7974 bound_to 7965
  155.2124  140.3324  155.4327 H   0  0  0  0  0  0  0  0  0  0  0  0  # atno 8008 bound_to 7997
  156.2365  140.1875  156.7153 H   0  0  0  0  0  0  0  0  0  0  0  0  # atno 8009 bound_to 7997
  154.6069  140.0614  156.9429 H   0  0  0  0  0  0  0  0  0  0  0  0  # atno 8010 bound_to 7997
  139.7055  144.7087  151.1114 H   0  0  0  0  0  0  0  0  0  0  0  0  # atno 10167 bound_to 10162
  157.6542  131.0913  150.6452 H   0  0  0  0  0  0  0  0  0  0  0  0  # atno 10718 bound_to 10713
  153.7687  135.3185  155.3348 H   0  0  0  0  0  0  0  0  0  0  0  0  # atno 10763 bound_to 10752
  154.8204  135.4607  154.0765 H   0  0  0  0  0  0  0  0  0  0  0  0  # atno 10764 bound_to 10752
  153.2018  135.6923  153.8305 H   0  0  0  0  0  0  0  0  0  0  0  0  # atno 10765 bound_to 10752
  139.9613  134.7057  156.0641 H   0  0  0  0  0  0  0  0  0  0  0  0  # atno 11005 bound_to 11000
  145.8918  140.9299  143.0548 LP  0  0  0  0  0  0  0  0  0  0  0  0  # atno 17320 bound_to 7965
  144.6730  140.0915  143.7465 LP  0  0  0  0  0  0  0  0  0  0  0  0  # atno 17321 bound_to 7965
  140.7720  143.5364  150.9363 LP  0  0  0  0  0  0  0  0  0  0  0  0  # atno 17342 bound_to 10162
  139.9048  143.6792  152.3125 LP  0  0  0  0  0  0  0  0  0  0  0  0  # atno 17343 bound_to 10162
  156.6760  130.4553  149.5642 LP  0  0  0  0  0  0  0  0  0  0  0  0  # atno 17370 bound_to 10713
  156.1963  130.6591  151.1118 LP  0  0  0  0  0  0  0  0  0  0  0  0  # atno 17371 bound_to 10713
  141.1290  133.6591  156.3413 LP  0  0  0  0  0  0  0  0  0  0  0  0  # atno 17394 bound_to 11000
  140.5495  134.6042  157.5403 LP  0  0  0  0  0  0  0  0  0  0  0  0  # atno 17395 bound_to 11000

$$$$
