#       Name:                AV-unprocessed.smi:3034
#       Creating user name   scv26
#       Creation time:       Fri Mar 27 16:54:27 2020


#       File generated by GOLD software.
#

@<TRIPOS>MOLECULE
AV-unprocessed.smi:3034
    36    36     1
SMALL
NO_CHARGES


@<TRIPOS>ATOM
      1 ****        -4.0875   4.4049  -0.0031 C.3            1 S1                 0.0000
      2 ****        -3.7522   2.9282   0.2304 C.3            1 S1                 0.0000
      3 ****        -2.2707   2.6141  -0.0143 C.3            1 S1                 0.0000
      4 ****        -1.9082   0.8450   0.3432 S.o2           1 S1                 0.0000
      5 ****        -2.0193   0.6170   1.7919 O.2            1 S1                 0.0000
      6 ****        -2.6790   0.0106  -0.5913 O.2            1 S1                 0.0000
      7 ****        -0.2443   0.7074  -0.0783 N.3            1 S1                 0.0000
      8 ****         0.3053  -0.6390  -0.2395 C.3            1 S1                 0.0000
      9 ****         1.8358  -0.5941  -0.3926 C.3            1 S1                 0.0000
     10 ****         2.1485  -0.0485  -1.6608 O.3            1 S1                 0.0000
     11 ****         2.4422  -1.9793  -0.2119 C.ar           1 S1                 0.0000
     12 ****         3.0946  -2.3189   0.9933 C.ar           1 S1                 0.0000
     13 ****         3.6261  -3.6158   1.1297 C.ar           1 S1                 0.0000
     14 ****         3.4860  -4.5223   0.0618 C.ar           1 S1                 0.0000
     15 ****         2.8174  -4.0896  -1.1003 C.ar           1 S1                 0.0000
     16 ****         2.3037  -2.8488  -1.2406 N.ar           1 S1                 0.0000
     17 ****        -5.1491   4.5917   0.1606 H              1 S1                 0.0000
     18 ****        -3.8499   4.7070  -1.0235 H              1 S1                 0.0000
     19 ****        -3.5280   5.0477   0.6771 H              1 S1                 0.0000
     20 ****        -4.0187   2.6567   1.2523 H              1 S1                 0.0000
     21 ****        -4.3678   2.3101  -0.4239 H              1 S1                 0.0000
     22 ****        -2.0004   2.8135  -1.0515 H              1 S1                 0.0000
     23 ****        -1.6312   3.2272   0.6211 H              1 S1                 0.0000
     24 ****         0.3353   1.2627   0.5502 H              1 S1                 0.0000
     25 ****         0.0479  -1.2119   0.6525 H              1 S1                 0.0000
     26 ****        -0.1672  -1.1381  -1.0867 H              1 S1                 0.0000
     27 ****         2.2594   0.0666   0.3654 H              1 S1                 0.0000
     28 ****         3.0887  -0.0045  -1.7430 H              1 S1                 0.0000
     29 ****         3.1833  -1.6050   1.7990 H              1 S1                 0.0000
     30 ****         4.1301  -3.9105   2.0382 H              1 S1                 0.0000
     31 ****         3.8800  -5.5254   0.1319 H              1 S1                 0.0000
     32 ****         2.6906  -4.7585  -1.9387 H              1 S1                 0.0000
     33 ****        -0.2169   1.0735  -1.0084 LP             1 S1                 0.0000
     34 ****         1.7593   0.8694  -1.7388 LP             1 S1                 0.0000
     35 ****         1.7734  -0.6319  -2.3812 LP             1 S1                 0.0000
     36 ****         1.8338  -2.5794  -2.0812 LP             1 S1                 0.0000
@<TRIPOS>BOND
    1    1    2 1     
    2    1   17 1     
    3    1   18 1     
    4    1   19 1     
    5    2    3 1     
    6    2   20 1     
    7    2   21 1     
    8    3    4 1     
    9    3   22 1     
   10    3   23 1     
   11    4    5 2     
   12    4    6 2     
   13    4    7 1     
   14    7    8 1     
   15    7   24 1     
   16    8    9 1     
   17    8   25 1     
   18    8   26 1     
   19    9   10 1     
   20    9   11 1     
   21    9   27 1     
   22   10   28 1     
   23   11   16 ar    
   24   11   12 ar    
   25   12   13 ar    
   26   12   29 1     
   27   13   14 ar    
   28   13   30 1     
   29   14   15 ar    
   30   14   31 1     
   31   15   16 ar    
   32   15   32 1     
   33    7   33 1     
   34   10   34 1     
   35   10   35 1     
   36   16   36 1     
@<TRIPOS>SUBSTRUCTURE
      1 S1             1
@<TRIPOS>SET
LONE_PAIRS      STATIC     ATOMS    <user>   **** ""
6 5 6 33 34 35 36
DONOR_HYDROGENS      STATIC     ATOMS    <user>   **** ""
2 24 28
ATOM$BLUE        STATIC     ATOMS    COLORGROUP SYSTEM
6 5 6 33 34 35 36
ATOM$RED        STATIC     ATOMS    COLORGROUP SYSTEM
2 24 28
