AV-unprocessed.smi:334|AV-procd|sdf|2362|dock4
  -GOLD-   2262022273D 1   1.00000     0.00000
 Structure written by MMmdl.
 44 46  0  0  0  0  0  0  0  0  3 V2000
  149.3926  142.4309  156.6991 C   0  0  0  0  0  0  0  0  0  0  0  0
  150.7954  142.1224  157.2486 C   0  0  2  0  0  0  0  0  0  0  0  0
  150.9509  140.6695  157.3086 N   0  0  0  0  0  0  0  0  0  0  0  0
  150.9067  139.8258  156.2657 C   0  0  0  0  0  0  0  0  0  0  0  0
  150.7422  140.1938  155.1017 O   0  0  0  0  0  0  0  0  0  0  0  0
  151.1056  138.3409  156.6019 C   0  0  0  0  0  0  0  0  0  0  0  0
  149.8561  137.5622  156.5741 N   0  0  0  0  0  0  0  0  0  0  0  0
  148.9411  137.7833  157.6226 C   0  0  0  0  0  0  0  0  0  0  0  0
  147.7697  137.1222  157.7018 C   0  0  0  0  0  0  0  0  0  0  0  0
  146.8449  137.3575  158.7889 N   0  3  0  0  0  0  0  0  0  0  0  0
  145.7616  136.7818  158.7749 O   0  0  0  0  0  0  0  0  0  0  0  0
  147.1684  138.1243  159.6909 O   0  5  0  0  0  0  0  0  0  0  0  0
  147.4668  136.1599  156.6601 C   0  0  0  0  0  0  0  0  0  0  0  0
  148.3395  135.9411  155.6569 C   0  0  0  0  0  0  0  0  0  0  0  0
  149.6163  136.6579  155.5757 C   0  0  0  0  0  0  0  0  0  0  0  0
  150.4212  136.4568  154.6659 O   0  0  0  0  0  0  0  0  0  0  0  0
  151.0309  142.7507  158.6459 C   0  0  2  0  0  0  0  0  0  0  0  0
  150.9469  144.2972  158.6479 C   0  0  0  0  0  0  0  0  0  0  0  0
  152.2779  144.7265  159.2900 C   0  0  1  0  0  0  0  0  0  0  0  0
  152.2733  144.3560  160.7840 C   0  0  0  0  0  0  0  0  0  0  0  0
  152.4131  142.8229  160.7505 C   0  0  0  0  0  0  0  0  0  0  0  0
  152.4448  142.5165  159.2408 C   0  0  2  0  0  0  0  0  0  0  0  0
  153.2424  143.7018  158.7079 C   0  0  0  0  0  0  0  0  0  0  0  0
  149.2318  143.5024  156.5811 H   0  0  0  0  0  0  0  0  0  0  0  0
  148.6139  142.0503  157.3610 H   0  0  0  0  0  0  0  0  0  0  0  0
  149.2482  141.9737  155.7196 H   0  0  0  0  0  0  0  0  0  0  0  0
  151.5195  142.5441  156.5498 H   0  0  0  0  0  0  0  0  0  0  0  0
  151.1007  140.2721  158.2248 H   0  0  0  0  0  0  0  0  0  0  0  0
  151.8286  137.9268  155.8975 H   0  0  0  0  0  0  0  0  0  0  0  0
  151.5823  138.2551  157.5803 H   0  0  0  0  0  0  0  0  0  0  0  0
  149.2629  138.5135  158.3514 H   0  0  0  0  0  0  0  0  0  0  0  0
  146.5391  135.6075  156.6768 H   0  0  0  0  0  0  0  0  0  0  0  0
  148.0944  135.2192  154.8918 H   0  0  0  0  0  0  0  0  0  0  0  0
  150.2833  142.3416  159.3275 H   0  0  0  0  0  0  0  0  0  0  0  0
  150.8853  144.6969  157.6351 H   0  0  0  0  0  0  0  0  0  0  0  0
  150.0810  144.6650  159.1997 H   0  0  0  0  0  0  0  0  0  0  0  0
  152.5397  145.7673  159.0979 H   0  0  0  0  0  0  0  0  0  0  0  0
  153.1214  144.8074  161.3004 H   0  0  0  0  0  0  0  0  0  0  0  0
  151.3619  144.6807  161.2875 H   0  0  0  0  0  0  0  0  0  0  0  0
  153.3448  142.5144  161.2267 H   0  0  0  0  0  0  0  0  0  0  0  0
  151.5948  142.3169  161.2641 H   0  0  0  0  0  0  0  0  0  0  0  0
  152.8793  141.5415  159.0226 H   0  0  0  0  0  0  0  0  0  0  0  0
  153.3053  143.7319  157.6189 H   0  0  0  0  0  0  0  0  0  0  0  0
  154.2489  143.7689  159.1251 H   0  0  0  0  0  0  0  0  0  0  0  0
  1  2  1  0  0  0  0
  1 24  1  0  0  0  0
  1 25  1  0  0  0  0
  1 26  1  0  0  0  0
  2  3  1  0  0  0  0
  2 17  1  0  0  0  0
  2 27  1  0  0  0  0
  3  4  1  0  0  0  0
  3 28  1  0  0  0  0
  4  5  2  0  0  0  0
  4  6  1  0  0  0  0
  6  7  1  0  0  0  0
  6 29  1  0  0  0  0
  6 30  1  0  0  0  0
  7 15  1  0  0  0  0
  7  8  1  0  0  0  0
  8  9  2  0  0  0  0
  8 31  1  0  0  0  0
  9 10  1  0  0  0  0
  9 13  1  0  0  0  0
 10 11  2  0  0  0  0
 10 12  1  0  0  0  0
 13 14  2  0  0  0  0
 13 32  1  0  0  0  0
 14 15  1  0  0  0  0
 14 33  1  0  0  0  0
 15 16  2  0  0  0  0
 17 22  1  0  0  0  0
 17 18  1  0  0  0  0
 17 34  1  0  0  0  0
 18 19  1  0  0  0  0
 18 35  1  0  0  0  0
 18 36  1  0  0  0  0
 19 23  1  0  0  0  0
 19 20  1  0  0  0  0
 19 37  1  0  0  0  0
 20 21  1  0  0  0  0
 20 38  1  0  0  0  0
 20 39  1  0  0  0  0
 21 22  1  0  0  0  0
 21 40  1  0  0  0  0
 21 41  1  0  0  0  0
 22 23  1  0  0  0  0
 22 42  1  0  0  0  0
 23 43  1  0  0  0  0
 23 44  1  0  0  0  0
M  CHG  1  10   1
M  CHG  1  12  -1
M  END
> <s_m_source_file>
AV-unprocessed.smi

> <i_m_source_file_index>
334

> <i_lp_mmshare_version>
43012

> <i_f3d_flags>
0

> <s_epik_input>
W0NIMl0xW0NIMl1bQ0BIXShbQ0gyXTIpW0NAQEhdKFtDSDJdW0NAQEhdMTIpW0NASF0oW0NIM10pW05IXUMoPU8pW0NIMl1uM1tjSF1jKFtOK10oPU8pW08tXSlbY0hdW2NIXWMzPU8=

> <s_epik_cmdline>
J2VwaWtfcHl0aG9uJywgJy1waCcsICc3LjAnLCAnLXRuJywgJzgnLCAnLW1hJywgJzIwMCcsICctbWV0YWxfYmluZGluZycsICctaW1hZScsICc8aW5maWxlLm1hZT4nLCAnLW9tYWUnLCAnPG91dGZpbGUubWFlPic=

> <r_lp_tautomer_probability>
1

> <r_epik_Ionization_Penalty>
2.17081e-08

> <r_epik_Ionization_Penalty_Charging>
8.1195e-11

> <r_epik_Ionization_Penalty_Neutral>
2.16269e-08

> <r_epik_State_Penalty>
-0

> <r_epik_Charging_Adjusted_Penalty>
8.1195e-11

> <i_epik_Tot_Q>
0

> <i_epik_Tot_abs_Q>
2

> <r_epik_Metal_State_Penalty>
-0

> <b_epik_Metal_Only>
0

> <s_lp_Force_Field>
OPLS_2005

> <r_lp_Energy>
62.1866

> <b_lp_Chiralities_Consistent>
1

> <s_lp_Variant>
AV-unprocessed.smi:334-1

> <Gold.Version>
5.8.1

> <Gold.Id.Protein>
6NUR|6NUR_protein|mol2

> <Gold.PLP.Fitness>
49.6488

> <Gold.PLP.PLP>
-42.8596

> <Gold.PLP.part.hbond>
-3.0585

> <Gold.PLP.part.metal>
0.0000

> <Gold.PLP.part.buried>
-7.2769

> <Gold.PLP.part.nonpolar>
-34.1018

> <Gold.PLP.part.repulsive>
0.3790

> <Gold.PLP.ligand.clash>
0.0000

> <Gold.PLP.ligand.torsion>
0.3633

> <Gold.PLP.Chemscore.Hbond>
2.4960

> <Gold.PLP.Chemscore.CHOScore>
0.0000

> <Gold.PLP.Chemscore.Metal>
0.0000

> <Gold.Chemscore.Hbonds>
donor molecule, donor type, donor heavy atom, donor atom, acceptor molecule, acceptor atom, score
      P1  H  6934  6947       L1    12  0.62
      P1  H  7989  7998       L1     5  1.00

> <Gold.PLP.Chemscore.Internal.Correction>
0.0279

> <Gold.Rescore>
     Score         DG    S(hbond)    S(metal)    S(lipo)     H(rot)  DE(clash)    DE(int)     intcor
     21.57     -22.25       2.49        0.00     110.37       1.75       0.10       0.59       ----

> <Gold.Chemscore.Fitness>
21.5677

> <Gold.Chemscore.DG>
-22.2502

> <Gold.Chemscore.ZeroCoef>
-5.4800

> <Gold.Chemscore.Hbond>
2.4941

> <Gold.Chemscore.Metal>
0.0000

> <Gold.Chemscore.Lipo>
110.3695

> <Gold.Chemscore.Internal_Hbond>
0.0000

> <Gold.Chemscore.DEClash>
0.0963

> <Gold.Chemscore.DEInternal>
0.5862

> <Gold.Chemscore.Rot>
1.7474

> <Gold.Chemscore.Internal.Correction>
   9.000000E+99

> <Gold.Chemscore.Hbonds>
donor molecule, donor type, donor heavy atom, donor atom, acceptor molecule, acceptor atom, score
      P1  H  6934  6947       L1    12  0.59
      P1  H  7989  7998       L1     5  0.98

> <Gold.Chemscore.Hbond.Weighted>
-8.3303

> <Gold.Chemscore.Metal.Weighted>
-0.0000

> <Gold.Chemscore.Lipo.Weighted>
-12.9132

> <Gold.Chemscore.Internal_Hbond.Weighted>
0.0000

> <Gold.Chemscore.DEClash.Weighted>
0.0963

> <Gold.Chemscore.DEInternal.Weighted>
0.5862

> <Gold.Chemscore.Rot.Weighted>
4.4733

> <Gold.Chemscore.Internal.Correction.Weighted>
   9.000000E+99

> <Gold.Protein.RotatedTorsions>
[ 6907 6896 6895 6894 ] final -174.91 input  -60.11 | X-H torsion
[ 7974 7965 7964 7962 ] final -148.45 input  175.53 | X-H torsion
[ 8008 7997 7996 7995 ] final -177.62 input   59.86 | X-H torsion
[ 10167 10162 10161 10158 ] final  -64.12 input  -65.29 | X-H torsion
[ 10718 10713 10712 10709 ] final   20.75 input   66.30 | X-H torsion
[ 10763 10752 10751 10750 ] final  -74.36 input  -60.55 | X-H torsion
[ 11005 11000 10999 10996 ] final -129.50 input  -57.11 | X-H torsion

> <Gold.Protein.ActiveResidues>
 VAL166  LYS551  ARG553  GLY616  TRP617  ASP618  TYR619  PRO620  LYS621  CYS622 
 ASP623  PHE694  ASN695  SER759  ASP760  ASP761  ALA762  ILE779  LEU786  VAL792 
 PHE793  MET794  SER795  GLU796  ALA797  LYS798  CYS799  TRP800  GLU811  SER814 

> <Gold.Protein.RotatedAtoms>
  151.5800  133.3379  159.3006 H   0  0  0  0  0  0  0  0  0  0  0  0  # atno 6907 bound_to 6896
  150.8318  134.7578  159.6871 H   0  0  0  0  0  0  0  0  0  0  0  0  # atno 6908 bound_to 6896
  152.4401  134.5615  159.9947 H   0  0  0  0  0  0  0  0  0  0  0  0  # atno 6909 bound_to 6896
  144.8028  140.5194  143.5695 H   0  0  0  0  0  0  0  0  0  0  0  0  # atno 7974 bound_to 7965
  156.0091  140.1237  157.0472 H   0  0  0  0  0  0  0  0  0  0  0  0  # atno 8008 bound_to 7997
  154.4269  140.1091  156.5873 H   0  0  0  0  0  0  0  0  0  0  0  0  # atno 8009 bound_to 7997
  155.6105  140.3471  155.4623 H   0  0  0  0  0  0  0  0  0  0  0  0  # atno 8010 bound_to 7997
  140.5823  143.2329  151.6316 H   0  0  0  0  0  0  0  0  0  0  0  0  # atno 10167 bound_to 10162
  157.1288  130.6582  149.5945 H   0  0  0  0  0  0  0  0  0  0  0  0  # atno 10718 bound_to 10713
  154.4720  135.5867  153.6328 H   0  0  0  0  0  0  0  0  0  0  0  0  # atno 10763 bound_to 10752
  152.9836  135.6069  154.3355 H   0  0  0  0  0  0  0  0  0  0  0  0  # atno 10764 bound_to 10752
  154.3238  135.2843  155.2485 H   0  0  0  0  0  0  0  0  0  0  0  0  # atno 10765 bound_to 10752
  140.9426  134.1173  157.4137 H   0  0  0  0  0  0  0  0  0  0  0  0  # atno 11005 bound_to 11000
  145.5510  139.1477  143.3394 LP  0  0  0  0  0  0  0  0  0  0  0  0  # atno 17320 bound_to 7965
  146.2314  140.5648  142.8974 LP  0  0  0  0  0  0  0  0  0  0  0  0  # atno 17321 bound_to 7965
  139.5177  144.3307  152.0828 LP  0  0  0  0  0  0  0  0  0  0  0  0  # atno 17342 bound_to 10162
  140.2459  144.4220  150.6241 LP  0  0  0  0  0  0  0  0  0  0  0  0  # atno 17343 bound_to 10162
  155.9812  130.4818  150.6816 LP  0  0  0  0  0  0  0  0  0  0  0  0  # atno 17370 bound_to 10713
  157.4411  131.0861  151.0943 LP  0  0  0  0  0  0  0  0  0  0  0  0  # atno 17371 bound_to 10713
  139.8824  135.0041  156.6230 LP  0  0  0  0  0  0  0  0  0  0  0  0  # atno 17394 bound_to 11000
  140.7713  133.8736  155.8494 LP  0  0  0  0  0  0  0  0  0  0  0  0  # atno 17395 bound_to 11000

$$$$
