AV-unprocessed.smi:2183|AV-procd|sdf|8866|dock4
  -GOLD-   2272012 63D 1   1.00000     0.00000
 Structure written by MMmdl.
 40 42  0  0  0  0  0  0  0  0  1 V2000
  149.4588  140.9551  153.8959 O   0  0  0  0  0  0  0  0  0  0  0  0
  150.0373  140.1404  154.8957 C   0  0  0  0  0  0  0  0  0  0  0  0
  150.6785  140.9090  156.0168 C   0  0  0  0  0  0  0  0  0  0  0  0
  150.5997  142.2375  156.1287 N   0  0  0  0  0  0  0  0  0  0  0  0
  151.3087  142.4909  157.2860 C   0  0  0  0  0  0  0  0  0  0  0  0
  151.5881  143.7105  157.9436 C   0  0  0  0  0  0  0  0  0  0  0  0
  152.3426  143.7228  159.1349 C   0  0  0  0  0  0  0  0  0  0  0  0
  152.8286  142.5185  159.6838 C   0  0  0  0  0  0  0  0  0  0  0  0
  152.5622  141.2924  159.0441 C   0  0  0  0  0  0  0  0  0  0  0  0
  151.8073  141.2855  157.8556 C   0  0  0  0  0  0  0  0  0  0  0  0
  151.3755  140.2793  156.9961 N   0  0  0  0  0  0  0  0  0  0  0  0
  151.6271  138.8515  157.1418 C   0  0  0  0  0  0  0  0  0  0  0  0
  152.2354  138.2168  155.8739 C   0  0  1  0  0  0  0  0  0  0  0  0
  153.5188  137.6960  156.1578 O   0  0  0  0  0  0  0  0  0  0  0  0
  151.3668  137.0830  155.3098 C   0  0  0  0  0  0  0  0  0  0  0  0
  151.6912  135.8728  155.9816 O   0  0  0  0  0  0  0  0  0  0  0  0
  151.0002  134.7305  155.6385 C   0  0  0  0  0  0  0  0  0  0  0  0
  151.3073  133.5569  156.3579 C   0  0  0  0  0  0  0  0  0  0  0  0
  150.6482  132.3449  156.0761 C   0  0  0  0  0  0  0  0  0  0  0  0
  149.6690  132.2949  155.0666 C   0  0  0  0  0  0  0  0  0  0  0  0
  148.8570  130.8123  154.7212 Cl  0  0  0  0  0  0  0  0  0  0  0  0
  149.3535  133.4580  154.3397 C   0  0  0  0  0  0  0  0  0  0  0  0
  150.0137  134.6699  154.6215 C   0  0  0  0  0  0  0  0  0  0  0  0
  149.5880  140.5396  153.0574 H   0  0  0  0  0  0  0  0  0  0  0  0
  149.2612  139.4941  155.3060 H   0  0  0  0  0  0  0  0  0  0  0  0
  150.7817  139.4996  154.4242 H   0  0  0  0  0  0  0  0  0  0  0  0
  151.2208  144.6381  157.5303 H   0  0  0  0  0  0  0  0  0  0  0  0
  152.5498  144.6607  159.6294 H   0  0  0  0  0  0  0  0  0  0  0  0
  153.4066  142.5365  160.5962 H   0  0  0  0  0  0  0  0  0  0  0  0
  152.9348  140.3694  159.4618 H   0  0  0  0  0  0  0  0  0  0  0  0
  152.2912  138.7029  157.9940 H   0  0  0  0  0  0  0  0  0  0  0  0
  150.6923  138.3560  157.4046 H   0  0  0  0  0  0  0  0  0  0  0  0
  152.3602  138.9782  155.1041 H   0  0  0  0  0  0  0  0  0  0  0  0
  153.6969  136.9886  155.5573 H   0  0  0  0  0  0  0  0  0  0  0  0
  150.3132  137.3165  155.4732 H   0  0  0  0  0  0  0  0  0  0  0  0
  151.5296  136.9840  154.2350 H   0  0  0  0  0  0  0  0  0  0  0  0
  152.0567  133.5859  157.1353 H   0  0  0  0  0  0  0  0  0  0  0  0
  150.8943  131.4549  156.6364 H   0  0  0  0  0  0  0  0  0  0  0  0
  148.6024  133.4232  153.5642 H   0  0  0  0  0  0  0  0  0  0  0  0
  149.7424  135.5399  154.0432 H   0  0  0  0  0  0  0  0  0  0  0  0
  1  2  1  0  0  0  0
  1 24  1  0  0  0  0
  2  3  1  0  0  0  0
  2 25  1  0  0  0  0
  2 26  1  0  0  0  0
  3 11  1  0  0  0  0
  3  4  2  0  0  0  0
  4  5  1  0  0  0  0
  5 10  2  0  0  0  0
  5  6  1  0  0  0  0
  6  7  2  0  0  0  0
  6 27  1  0  0  0  0
  7  8  1  0  0  0  0
  7 28  1  0  0  0  0
  8  9  2  0  0  0  0
  8 29  1  0  0  0  0
  9 10  1  0  0  0  0
  9 30  1  0  0  0  0
 10 11  1  0  0  0  0
 11 12  1  0  0  0  0
 12 13  1  0  0  0  0
 12 31  1  0  0  0  0
 12 32  1  0  0  0  0
 13 14  1  0  0  0  0
 13 15  1  0  0  0  0
 13 33  1  0  0  0  0
 14 34  1  0  0  0  0
 15 16  1  0  0  0  0
 15 35  1  0  0  0  0
 15 36  1  0  0  0  0
 16 17  1  0  0  0  0
 17 23  1  0  0  0  0
 17 18  2  0  0  0  0
 18 19  1  0  0  0  0
 18 37  1  0  0  0  0
 19 20  2  0  0  0  0
 19 38  1  0  0  0  0
 20 21  1  0  0  0  0
 20 22  1  0  0  0  0
 22 23  2  0  0  0  0
 22 39  1  0  0  0  0
 23 40  1  0  0  0  0
M  END
> <s_m_source_file>
AV-unprocessed.smi

> <i_m_source_file_index>
2183

> <i_lp_mmshare_version>
43012

> <i_f3d_flags>
0

> <s_epik_input>
W2NIXTFbY0hdW2NIXVtjSF1jKGMxMiluKGMobjIpW0NIMl1bT0hdKVtDSDJdW0NASF0oW09IXSlbQ0gyXU9jM1tjSF1bY0hdYyhDbClbY0hdW2NIXTM=

> <s_epik_cmdline>
J2VwaWtfcHl0aG9uJywgJy1waCcsICc3LjAnLCAnLXRuJywgJzgnLCAnLW1hJywgJzIwMCcsICctbWV0YWxfYmluZGluZycsICctaW1hZScsICc8aW5maWxlLm1hZT4nLCAnLW9tYWUnLCAnPG91dGZpbGUubWFlPic=

> <r_lp_tautomer_probability>
1

> <r_epik_Ionization_Penalty>
0.0586933

> <r_epik_Ionization_Penalty_Charging>
0

> <r_epik_Ionization_Penalty_Neutral>
0.0586933

> <r_epik_State_Penalty>
0.0507031

> <r_epik_Charging_Adjusted_Penalty>
0.0507031

> <i_epik_Tot_Q>
0

> <i_epik_Tot_abs_Q>
0

> <r_epik_Metal_State_Penalty>
5.29335e-05

> <b_epik_Metal_Only>
0

> <s_lp_Force_Field>
OPLS_2005

> <r_lp_Energy>
14.4391

> <b_lp_Chiralities_Consistent>
1

> <s_lp_Variant>
AV-unprocessed.smi:2183-2

> <Gold.Version>
5.8.1

> <Gold.Id.Protein>
6NUR|6NUR_protein|mol2

> <Gold.PLP.Fitness>
50.0650

> <Gold.PLP.PLP>
-46.1612

> <Gold.PLP.part.hbond>
-5.0000

> <Gold.PLP.part.metal>
0.0000

> <Gold.PLP.part.buried>
-1.8886

> <Gold.PLP.part.nonpolar>
-39.1316

> <Gold.PLP.part.repulsive>
0.9642

> <Gold.PLP.ligand.clash>
0.0000

> <Gold.PLP.ligand.torsion>
1.1063

> <Gold.PLP.Chemscore.Hbond>
2.0000

> <Gold.PLP.Chemscore.CHOScore>
0.0000

> <Gold.PLP.Chemscore.Metal>
0.0000

> <Gold.Chemscore.Hbonds>
donor molecule, donor type, donor heavy atom, donor atom, acceptor molecule, acceptor atom, score
      L1  H     1    24       P1  7957  1.00
      P1  H 10752 10764       L1    16  0.68

> <Gold.PLP.Chemscore.Internal.Correction>
0.1163

> <Gold.Rescore>
     Score         DG    S(hbond)    S(metal)    S(lipo)     H(rot)  DE(clash)    DE(int)     intcor
     14.01     -15.30       1.09        0.00     119.39       3.04       0.04       1.25       ----

> <Gold.Chemscore.Fitness>
14.0089

> <Gold.Chemscore.DG>
-15.3026

> <Gold.Chemscore.ZeroCoef>
-5.4800

> <Gold.Chemscore.Hbond>
1.0855

> <Gold.Chemscore.Metal>
0.0000

> <Gold.Chemscore.Lipo>
119.3892

> <Gold.Chemscore.Internal_Hbond>
0.0000

> <Gold.Chemscore.DEClash>
0.0449

> <Gold.Chemscore.DEInternal>
1.2488

> <Gold.Chemscore.Rot>
3.0358

> <Gold.Chemscore.Internal.Correction>
   9.000000E+99

> <Gold.Chemscore.Hbonds>
donor molecule, donor type, donor heavy atom, donor atom, acceptor molecule, acceptor atom, score
      L1  H     1    24       P1  7957  0.99
      P1  H 10752 10764       L1    16  0.02

> <Gold.Chemscore.Hbond.Weighted>
-3.6257

> <Gold.Chemscore.Metal.Weighted>
-0.0000

> <Gold.Chemscore.Lipo.Weighted>
-13.9685

> <Gold.Chemscore.Internal_Hbond.Weighted>
0.0000

> <Gold.Chemscore.DEClash.Weighted>
0.0449

> <Gold.Chemscore.DEInternal.Weighted>
1.2488

> <Gold.Chemscore.Rot.Weighted>
7.7716

> <Gold.Chemscore.Internal.Correction.Weighted>
   9.000000E+99

> <Gold.Protein.RotatedTorsions>
[ 6907 6896 6895 6894 ] final -111.53 input  -60.11 | X-H torsion
[ 7974 7965 7964 7962 ] final  -69.18 input  175.53 | X-H torsion
[ 8008 7997 7996 7995 ] final  -10.22 input   59.86 | X-H torsion
[ 10167 10162 10161 10158 ] final  103.24 input  -65.29 | X-H torsion
[ 10718 10713 10712 10709 ] final   51.72 input   66.30 | X-H torsion
[ 10763 10752 10751 10750 ] final  -28.27 input  -60.55 | X-H torsion
[ 11005 11000 10999 10996 ] final  101.53 input  -57.11 | X-H torsion

> <Gold.Protein.ActiveResidues>
 VAL166  LYS551  ARG553  GLY616  TRP617  ASP618  TYR619  PRO620  LYS621  CYS622 
 ASP623  PHE694  ASN695  SER759  ASP760  ASP761  ALA762  ILE779  LEU786  VAL792 
 PHE793  MET794  SER795  GLU796  ALA797  LYS798  CYS799  TRP800  GLU811  SER814 

> <Gold.Protein.RotatedAtoms>
  150.7696  133.9222  159.3401 H   0  0  0  0  0  0  0  0  0  0  0  0  # atno 6907 bound_to 6896
  151.7112  135.0910  160.0277 H   0  0  0  0  0  0  0  0  0  0  0  0  # atno 6908 bound_to 6896
  152.3708  133.6378  159.6121 H   0  0  0  0  0  0  0  0  0  0  0  0  # atno 6909 bound_to 6896
  145.7070  140.9094  143.0701 H   0  0  0  0  0  0  0  0  0  0  0  0  # atno 7974 bound_to 7965
  154.5574  140.2334  155.8388 H   0  0  0  0  0  0  0  0  0  0  0  0  # atno 8008 bound_to 7997
  156.2000  140.3055  155.9467 H   0  0  0  0  0  0  0  0  0  0  0  0  # atno 8009 bound_to 7997
  155.2953  140.0428  157.3016 H   0  0  0  0  0  0  0  0  0  0  0  0  # atno 8010 bound_to 7997
  139.7280  144.7043  151.0766 H   0  0  0  0  0  0  0  0  0  0  0  0  # atno 10167 bound_to 10162
  157.5007  130.8436  149.8313 H   0  0  0  0  0  0  0  0  0  0  0  0  # atno 10718 bound_to 10713
  153.7457  135.6929  153.4957 H   0  0  0  0  0  0  0  0  0  0  0  0  # atno 10763 bound_to 10752
  153.2038  135.4427  155.0297 H   0  0  0  0  0  0  0  0  0  0  0  0  # atno 10764 bound_to 10752
  154.8205  135.3420  154.6980 H   0  0  0  0  0  0  0  0  0  0  0  0  # atno 10765 bound_to 10752
  139.8773  134.9187  156.4921 H   0  0  0  0  0  0  0  0  0  0  0  0  # atno 11005 bound_to 11000
  144.6952  139.9024  143.7459 LP  0  0  0  0  0  0  0  0  0  0  0  0  # atno 17320 bound_to 7965
  146.0746  139.3735  143.0501 LP  0  0  0  0  0  0  0  0  0  0  0  0  # atno 17321 bound_to 7965
  140.7766  143.5079  150.9689 LP  0  0  0  0  0  0  0  0  0  0  0  0  # atno 17342 bound_to 10162
  139.8767  143.7123  152.3161 LP  0  0  0  0  0  0  0  0  0  0  0  0  # atno 17343 bound_to 10162
  156.0228  130.3790  150.1912 LP  0  0  0  0  0  0  0  0  0  0  0  0  # atno 17370 bound_to 10713
  157.0102  130.9948  151.3368 LP  0  0  0  0  0  0  0  0  0  0  0  0  # atno 17371 bound_to 10713
  140.8651  133.8030  155.9305 LP  0  0  0  0  0  0  0  0  0  0  0  0  # atno 17394 bound_to 11000
  140.9010  134.2378  157.5041 LP  0  0  0  0  0  0  0  0  0  0  0  0  # atno 17395 bound_to 11000

$$$$
