AV-unprocessed.smi:1978|AV-procd|sdf|7997|dock5
  -GOLD-   2272010183D 1   1.00000     0.00000
 Structure written by MMmdl.
 45 46  0  0  0  0  0  0  0  0  2 V2000
  153.8147  141.8948  160.2164 C   0  0  0  0  0  0  0  0  0  0  0  0
  152.8948  142.4765  159.1981 C   0  0  0  0  0  0  0  0  0  0  0  0
  152.0102  141.9196  158.3175 C   0  0  0  0  0  0  0  0  0  0  0  0
  151.4699  143.0503  157.6492 C   0  0  0  0  0  0  0  0  0  0  0  0
  150.4937  142.8974  156.6315 N   0  0  0  0  0  0  0  0  0  0  0  0
  150.1646  141.7706  155.9776 C   0  0  0  0  0  0  0  0  0  0  0  0
  150.6902  140.6702  156.1482 O   0  0  0  0  0  0  0  0  0  0  0  0
  149.1724  141.9841  155.1010 N   0  0  0  0  0  0  0  0  0  0  0  0
  148.5832  140.9565  154.2485 C   0  0  0  0  0  0  0  0  0  0  0  0
  147.0329  140.9784  154.2789 C   0  0  1  0  0  0  0  0  0  0  0  0
  146.4541  142.3573  153.9003 C   0  0  0  0  0  0  0  0  0  0  0  0
  146.4155  139.8788  153.4690 N   0  3  1  0  0  0  0  0  0  0  0  0
  147.1237  139.6045  152.1840 C   0  0  0  0  0  0  0  0  0  0  0  0
  146.3008  138.6777  151.2774 C   0  0  0  0  0  0  0  0  0  0  0  0
  145.9870  137.3619  151.9928 C   0  0  0  0  0  0  0  0  0  0  0  0
  145.2908  137.6533  153.3260 C   0  0  0  0  0  0  0  0  0  0  0  0
  146.1211  138.6075  154.2120 C   0  0  2  0  0  0  0  0  0  0  0  0
  145.3823  138.8236  155.5488 C   0  0  0  0  0  0  0  0  0  0  0  0
  151.9798  144.1937  158.0810 N   0  0  0  0  0  0  0  0  0  0  0  0
  152.8956  143.8317  159.0759 O   0  0  0  0  0  0  0  0  0  0  0  0
  153.5497  140.8601  160.4345 H   0  0  0  0  0  0  0  0  0  0  0  0
  153.7680  142.4582  161.1483 H   0  0  0  0  0  0  0  0  0  0  0  0
  154.8449  141.9129  159.8608 H   0  0  0  0  0  0  0  0  0  0  0  0
  151.7883  140.8721  158.1773 H   0  0  0  0  0  0  0  0  0  0  0  0
  149.9858  143.7335  156.3836 H   0  0  0  0  0  0  0  0  0  0  0  0
  148.7989  142.9185  155.0179 H   0  0  0  0  0  0  0  0  0  0  0  0
  148.9478  141.1297  153.2361 H   0  0  0  0  0  0  0  0  0  0  0  0
  148.9707  139.9834  154.5523 H   0  0  0  0  0  0  0  0  0  0  0  0
  146.7106  140.8409  155.3089 H   0  0  0  0  0  0  0  0  0  0  0  0
  146.7111  143.1081  154.6480 H   0  0  0  0  0  0  0  0  0  0  0  0
  145.3656  142.3251  153.8414 H   0  0  0  0  0  0  0  0  0  0  0  0
  146.8348  142.7186  152.9454 H   0  0  0  0  0  0  0  0  0  0  0  0
  147.3140  140.5254  151.6360 H   0  0  0  0  0  0  0  0  0  0  0  0
  148.0949  139.1504  152.3840 H   0  0  0  0  0  0  0  0  0  0  0  0
  145.3729  139.1732  150.9888 H   0  0  0  0  0  0  0  0  0  0  0  0
  146.8462  138.4775  150.3546 H   0  0  0  0  0  0  0  0  0  0  0  0
  145.3547  136.7324  151.3657 H   0  0  0  0  0  0  0  0  0  0  0  0
  146.9085  136.8052  152.1687 H   0  0  0  0  0  0  0  0  0  0  0  0
  144.3085  138.0884  153.1353 H   0  0  0  0  0  0  0  0  0  0  0  0
  145.1129  136.7135  153.8500 H   0  0  0  0  0  0  0  0  0  0  0  0
  147.0680  138.1130  154.4330 H   0  0  0  0  0  0  0  0  0  0  0  0
  145.0734  137.8712  155.9807 H   0  0  0  0  0  0  0  0  0  0  0  0
  144.4858  139.4305  155.4174 H   0  0  0  0  0  0  0  0  0  0  0  0
  146.0150  139.3020  156.2960 H   0  0  0  0  0  0  0  0  0  0  0  0
  145.5099  140.2393  153.2042 H   0  0  0  0  0  0  0  0  0  0  0  0
  1  2  1  0  0  0  0
  1 21  1  0  0  0  0
  1 22  1  0  0  0  0
  1 23  1  0  0  0  0
  2 20  1  0  0  0  0
  2  3  2  0  0  0  0
  3  4  1  0  0  0  0
  3 24  1  0  0  0  0
  4  5  1  0  0  0  0
  4 19  2  0  0  0  0
  5  6  1  0  0  0  0
  5 25  1  0  0  0  0
  6  7  2  0  0  0  0
  6  8  1  0  0  0  0
  8  9  1  0  0  0  0
  8 26  1  0  0  0  0
  9 10  1  0  0  0  0
  9 27  1  0  0  0  0
  9 28  1  0  0  0  0
 10 11  1  0  0  0  0
 10 12  1  0  0  0  0
 10 29  1  0  0  0  0
 11 30  1  0  0  0  0
 11 31  1  0  0  0  0
 11 32  1  0  0  0  0
 12 17  1  0  0  0  0
 12 13  1  0  0  0  0
 12 45  1  0  0  0  0
 13 14  1  0  0  0  0
 13 33  1  0  0  0  0
 13 34  1  0  0  0  0
 14 15  1  0  0  0  0
 14 35  1  0  0  0  0
 14 36  1  0  0  0  0
 15 16  1  0  0  0  0
 15 37  1  0  0  0  0
 15 38  1  0  0  0  0
 16 17  1  0  0  0  0
 16 39  1  0  0  0  0
 16 40  1  0  0  0  0
 17 18  1  0  0  0  0
 17 41  1  0  0  0  0
 18 42  1  0  0  0  0
 18 43  1  0  0  0  0
 18 44  1  0  0  0  0
 19 20  1  0  0  0  0
M  CHG  1  12   1
M  END
> <s_m_source_file>
AV-unprocessed.smi

> <i_m_source_file_index>
1978

> <i_lp_mmshare_version>
43012

> <i_f3d_flags>
0

> <s_epik_input>
W0NIM11jMVtjSF1jKG5vMSlbTkhdQyg9TylbTkhdW0NIMl1bQ0BIXShbQ0gzXSlOMltDSDJdW0NIMl1bQ0gyXVtDSDJdW0NASF0yW0NIM10=

> <s_epik_cmdline>
J2VwaWtfcHl0aG9uJywgJy1waCcsICc3LjAnLCAnLXRuJywgJzgnLCAnLW1hJywgJzIwMCcsICctbWV0YWxfYmluZGluZycsICctaW1hZScsICc8aW5maWxlLm1hZT4nLCAnLW9tYWUnLCAnPG91dGZpbGUubWFlPic=

> <r_epik_Ionization_Penalty>
0.00265971

> <r_epik_Ionization_Penalty_Charging>
0.00262393

> <r_epik_Ionization_Penalty_Neutral>
3.57846e-05

> <r_epik_State_Penalty>
0.00182566

> <r_epik_Charging_Adjusted_Penalty>
0.00444959

> <i_epik_Tot_Q>
1

> <i_epik_Tot_abs_Q>
1

> <r_epik_Metal_State_Penalty>
0.0216344

> <b_epik_Metal_Only>
0

> <s_lp_Force_Field>
OPLS_2005

> <r_lp_Energy>
19.4961

> <b_lp_Chiralities_Consistent>
1

> <s_lp_Variant>
AV-unprocessed.smi:1978-6

> <Gold.Version>
5.8.1

> <Gold.Id.Protein>
6NUR|6NUR_protein|mol2

> <Gold.PLP.Fitness>
46.5726

> <Gold.PLP.PLP>
-36.3976

> <Gold.PLP.part.hbond>
-3.0000

> <Gold.PLP.part.metal>
0.0000

> <Gold.PLP.part.buried>
-0.5352

> <Gold.PLP.part.nonpolar>
-34.0996

> <Gold.PLP.part.repulsive>
0.3564

> <Gold.PLP.ligand.clash>
0.0000

> <Gold.PLP.ligand.torsion>
0.8845

> <Gold.PLP.Chemscore.Hbond>
3.9440

> <Gold.PLP.Chemscore.CHOScore>
0.0000

> <Gold.PLP.Chemscore.Metal>
0.0000

> <Gold.Chemscore.Hbonds>
donor molecule, donor type, donor heavy atom, donor atom, acceptor molecule, acceptor atom, score
      L1  H     5    25       P1  8028  1.00
      L1  H     8    26       P1  8028  0.94
      L1  H    12    45       P1 10175  2.00

> <Gold.PLP.Chemscore.Internal.Correction>
0.1120

> <Gold.Rescore>
     Score         DG    S(hbond)    S(metal)    S(lipo)     H(rot)  DE(clash)    DE(int)     intcor
     16.68     -21.52       2.91        0.00      87.76       1.55       2.92       1.91       ----

> <Gold.Chemscore.Fitness>
16.6819

> <Gold.Chemscore.DG>
-21.5167

> <Gold.Chemscore.ZeroCoef>
-5.4800

> <Gold.Chemscore.Hbond>
2.9131

> <Gold.Chemscore.Metal>
0.0000

> <Gold.Chemscore.Lipo>
87.7629

> <Gold.Chemscore.Internal_Hbond>
0.0000

> <Gold.Chemscore.DEClash>
2.9221

> <Gold.Chemscore.DEInternal>
1.9127

> <Gold.Chemscore.Rot>
1.5474

> <Gold.Chemscore.Internal.Correction>
   9.000000E+99

> <Gold.Chemscore.Hbonds>
donor molecule, donor type, donor heavy atom, donor atom, acceptor molecule, acceptor atom, score
      L1  H     5    25       P1  8028  0.99
      L1  H     8    26       P1  8028  0.91
      L1  H    12    45       P1 10175  0.96

> <Gold.Chemscore.Hbond.Weighted>
-9.7297

> <Gold.Chemscore.Metal.Weighted>
-0.0000

> <Gold.Chemscore.Lipo.Weighted>
-10.2683

> <Gold.Chemscore.Internal_Hbond.Weighted>
0.0000

> <Gold.Chemscore.DEClash.Weighted>
2.9221

> <Gold.Chemscore.DEInternal.Weighted>
1.9127

> <Gold.Chemscore.Rot.Weighted>
3.9612

> <Gold.Chemscore.Internal.Correction.Weighted>
   9.000000E+99

> <Gold.Protein.RotatedTorsions>
[ 6907 6896 6895 6894 ] final  122.33 input  -60.11 | X-H torsion
[ 7974 7965 7964 7962 ] final  -72.73 input  175.53 | X-H torsion
[ 8008 7997 7996 7995 ] final   39.27 input   59.86 | X-H torsion
[ 10167 10162 10161 10158 ] final -151.97 input  -65.29 | X-H torsion
[ 10718 10713 10712 10709 ] final  -29.94 input   66.30 | X-H torsion
[ 10763 10752 10751 10750 ] final  -79.37 input  -60.55 | X-H torsion
[ 11005 11000 10999 10996 ] final   50.09 input  -57.11 | X-H torsion

> <Gold.Protein.ActiveResidues>
 VAL166  LYS551  ARG553  GLY616  TRP617  ASP618  TYR619  PRO620  LYS621  CYS622 
 ASP623  PHE694  ASN695  SER759  ASP760  ASP761  ALA762  ILE779  LEU786  VAL792 
 PHE793  MET794  SER795  GLU796  ALA797  LYS798  CYS799  TRP800  GLU811  SER814 

> <Gold.Protein.RotatedAtoms>
  152.4251  133.7182  159.6517 H   0  0  0  0  0  0  0  0  0  0  0  0  # atno 6907 bound_to 6896
  150.8128  133.8380  159.3180 H   0  0  0  0  0  0  0  0  0  0  0  0  # atno 6908 bound_to 6896
  151.6086  135.1044  160.0127 H   0  0  0  0  0  0  0  0  0  0  0  0  # atno 6909 bound_to 6896
  145.6614  140.9251  143.0932 H   0  0  0  0  0  0  0  0  0  0  0  0  # atno 7974 bound_to 7965
  155.2338  140.3340  155.4300 H   0  0  0  0  0  0  0  0  0  0  0  0  # atno 8008 bound_to 7997
  156.2284  140.1839  156.7351 H   0  0  0  0  0  0  0  0  0  0  0  0  # atno 8009 bound_to 7997
  154.5937  140.0634  156.9259 H   0  0  0  0  0  0  0  0  0  0  0  0  # atno 8010 bound_to 7997
  139.7221  143.8940  152.2507 H   0  0  0  0  0  0  0  0  0  0  0  0  # atno 10167 bound_to 10162
  156.4061  130.4399  149.7286 H   0  0  0  0  0  0  0  0  0  0  0  0  # atno 10718 bound_to 10713
  154.5378  135.5698  153.6813 H   0  0  0  0  0  0  0  0  0  0  0  0  # atno 10763 bound_to 10752
  152.9955  135.6220  154.2543 H   0  0  0  0  0  0  0  0  0  0  0  0  # atno 10764 bound_to 10752
  154.2472  135.2860  155.2810 H   0  0  0  0  0  0  0  0  0  0  0  0  # atno 10765 bound_to 10752
  140.1047  134.5034  155.8731 H   0  0  0  0  0  0  0  0  0  0  0  0  # atno 11005 bound_to 11000
  144.7088  139.8454  143.7421 LP  0  0  0  0  0  0  0  0  0  0  0  0  # atno 17320 bound_to 7965
  146.1122  139.4128  143.0280 LP  0  0  0  0  0  0  0  0  0  0  0  0  # atno 17321 bound_to 7965
  139.8839  144.7003  150.8846 LP  0  0  0  0  0  0  0  0  0  0  0  0  # atno 17342 bound_to 10162
  140.7756  143.3639  151.1775 LP  0  0  0  0  0  0  0  0  0  0  0  0  # atno 17343 bound_to 10162
  156.4283  130.7802  151.2822 LP  0  0  0  0  0  0  0  0  0  0  0  0  # atno 17370 bound_to 10713
  157.7505  131.0162  150.3534 LP  0  0  0  0  0  0  0  0  0  0  0  0  # atno 17371 bound_to 10713
  141.2115  133.6707  156.6587 LP  0  0  0  0  0  0  0  0  0  0  0  0  # atno 17394 bound_to 11000
  140.3172  134.8037  157.4224 LP  0  0  0  0  0  0  0  0  0  0  0  0  # atno 17395 bound_to 11000

$$$$
