AV-unprocessed.smi:2286|AV-procd|sdf|9204|dock8
  -GOLD-   2272012423D 1   1.00000     0.00000
 Structure written by MMmdl.
 46 47  0  0  0  0  0  0  0  0  1 V2000
  143.8039  132.7530  149.7774 C   0  0  0  0  0  0  0  0  0  0  0  0
  144.8635  132.2357  150.7277 C   0  0  0  0  0  0  0  0  0  0  0  0
  144.8665  130.8911  151.1453 C   0  0  0  0  0  0  0  0  0  0  0  0
  145.8798  130.4720  152.0296 C   0  0  0  0  0  0  0  0  0  0  0  0
  145.9445  129.0394  152.5150 C   0  0  0  0  0  0  0  0  0  0  0  0
  146.8449  131.2971  152.4890 N   0  0  0  0  0  0  0  0  0  0  0  0
  146.8518  132.5944  152.0937 C   0  0  0  0  0  0  0  0  0  0  0  0
  147.8225  133.5415  152.5150 N   0  0  0  0  0  0  0  0  0  0  0  0
  148.6742  133.4544  153.5520 C   0  0  0  0  0  0  0  0  0  0  0  0
  148.7325  132.5195  154.3517 O   0  0  0  0  0  0  0  0  0  0  0  0
  149.4733  134.5300  153.6139 N   0  0  0  0  0  0  0  0  0  0  0  0
  150.5070  134.7531  154.6217 C   0  0  0  0  0  0  0  0  0  0  0  0
  150.6056  136.2159  155.0710 C   0  0  0  0  0  0  0  0  0  0  0  0
  150.3739  136.5377  156.2377 O   0  0  0  0  0  0  0  0  0  0  0  0
  150.9297  137.0994  154.1145 N   0  0  0  0  0  0  0  0  0  0  0  0
  151.0588  138.5414  154.3015 C   0  0  0  0  0  0  0  0  0  0  0  0
  151.9415  138.8538  155.5286 C   0  0  0  0  0  0  0  0  0  0  0  0
  152.0199  140.3652  155.7984 C   0  0  0  0  0  0  0  0  0  0  0  0
  150.6197  140.9784  155.9562 C   0  0  0  0  0  0  0  0  0  0  0  0
  149.7431  140.6781  154.7306 C   0  0  0  0  0  0  0  0  0  0  0  0
  149.6596  139.1667  154.4618 C   0  0  0  0  0  0  0  0  0  0  0  0
  145.8691  133.0969  151.2112 C   0  0  0  0  0  0  0  0  0  0  0  0
  143.1686  131.9447  149.4136 H   0  0  0  0  0  0  0  0  0  0  0  0
  144.2693  133.2331  148.9163 H   0  0  0  0  0  0  0  0  0  0  0  0
  143.1716  133.4852  150.2801 H   0  0  0  0  0  0  0  0  0  0  0  0
  144.1134  130.1991  150.7972 H   0  0  0  0  0  0  0  0  0  0  0  0
  145.0115  128.5126  152.3126 H   0  0  0  0  0  0  0  0  0  0  0  0
  146.1259  129.0058  153.5898 H   0  0  0  0  0  0  0  0  0  0  0  0
  146.7536  128.5088  152.0126 H   0  0  0  0  0  0  0  0  0  0  0  0
  147.8883  134.3749  151.9498 H   0  0  0  0  0  0  0  0  0  0  0  0
  149.3509  135.2553  152.9227 H   0  0  0  0  0  0  0  0  0  0  0  0
  150.3364  134.1093  155.4865 H   0  0  0  0  0  0  0  0  0  0  0  0
  151.4661  134.4569  154.1968 H   0  0  0  0  0  0  0  0  0  0  0  0
  151.0997  136.7455  153.1841 H   0  0  0  0  0  0  0  0  0  0  0  0
  151.5231  138.9737  153.4128 H   0  0  0  0  0  0  0  0  0  0  0  0
  151.5399  138.3510  156.4096 H   0  0  0  0  0  0  0  0  0  0  0  0
  152.9476  138.4593  155.3811 H   0  0  0  0  0  0  0  0  0  0  0  0
  152.6102  140.5517  156.6960 H   0  0  0  0  0  0  0  0  0  0  0  0
  152.5432  140.8556  154.9767 H   0  0  0  0  0  0  0  0  0  0  0  0
  150.1444  140.5793  156.8531 H   0  0  0  0  0  0  0  0  0  0  0  0
  150.6997  142.0559  156.1016 H   0  0  0  0  0  0  0  0  0  0  0  0
  148.7426  141.0842  154.8813 H   0  0  0  0  0  0  0  0  0  0  0  0
  150.1534  141.1833  153.8554 H   0  0  0  0  0  0  0  0  0  0  0  0
  149.0649  138.9864  153.5655 H   0  0  0  0  0  0  0  0  0  0  0  0
  149.1307  138.6844  155.2854 H   0  0  0  0  0  0  0  0  0  0  0  0
  145.8859  134.1327  150.9036 H   0  0  0  0  0  0  0  0  0  0  0  0
  1  2  1  0  0  0  0
  1 23  1  0  0  0  0
  1 24  1  0  0  0  0
  1 25  1  0  0  0  0
  2 22  1  0  0  0  0
  2  3  2  0  0  0  0
  3  4  1  0  0  0  0
  3 26  1  0  0  0  0
  4  5  1  0  0  0  0
  4  6  2  0  0  0  0
  5 27  1  0  0  0  0
  5 28  1  0  0  0  0
  5 29  1  0  0  0  0
  6  7  1  0  0  0  0
  7  8  1  0  0  0  0
  7 22  2  0  0  0  0
  8  9  1  0  0  0  0
  8 30  1  0  0  0  0
  9 10  2  0  0  0  0
  9 11  1  0  0  0  0
 11 12  1  0  0  0  0
 11 31  1  0  0  0  0
 12 13  1  0  0  0  0
 12 32  1  0  0  0  0
 12 33  1  0  0  0  0
 13 14  2  0  0  0  0
 13 15  1  0  0  0  0
 15 16  1  0  0  0  0
 15 34  1  0  0  0  0
 16 21  1  0  0  0  0
 16 17  1  0  0  0  0
 16 35  1  0  0  0  0
 17 18  1  0  0  0  0
 17 36  1  0  0  0  0
 17 37  1  0  0  0  0
 18 19  1  0  0  0  0
 18 38  1  0  0  0  0
 18 39  1  0  0  0  0
 19 20  1  0  0  0  0
 19 40  1  0  0  0  0
 19 41  1  0  0  0  0
 20 21  1  0  0  0  0
 20 42  1  0  0  0  0
 20 43  1  0  0  0  0
 21 44  1  0  0  0  0
 21 45  1  0  0  0  0
 22 46  1  0  0  0  0
M  END
> <s_m_source_file>
AV-unprocessed.smi

> <i_m_source_file_index>
2286

> <i_lp_mmshare_version>
43012

> <i_f3d_flags>
0

> <s_epik_input>
W0NIM11jMVtjSF1jKFtDSDNdKW5jKFtjSF0xKVtOSF1DKD1PKVtOSF1bQ0gyXUMoPU8pW05IXVtDSF0yW0NIMl1bQ0gyXVtDSDJdW0NIMl1bQ0gyXTI=

> <s_epik_cmdline>
J2VwaWtfcHl0aG9uJywgJy1waCcsICc3LjAnLCAnLXRuJywgJzgnLCAnLW1hJywgJzIwMCcsICctbWV0YWxfYmluZGluZycsICctaW1hZScsICc8aW5maWxlLm1hZT4nLCAnLW9tYWUnLCAnPG91dGZpbGUubWFlPic=

> <r_lp_tautomer_probability>
1

> <r_epik_Ionization_Penalty>
0.000219548

> <r_epik_Ionization_Penalty_Charging>
0

> <r_epik_Ionization_Penalty_Neutral>
0.000219548

> <r_epik_State_Penalty>
-0

> <r_epik_Charging_Adjusted_Penalty>
0

> <i_epik_Tot_Q>
0

> <i_epik_Tot_abs_Q>
0

> <r_epik_Metal_State_Penalty>
-0

> <b_epik_Metal_Only>
0

> <s_lp_Force_Field>
OPLS_2005

> <r_lp_Energy>
6.54337

> <b_lp_Chiralities_Consistent>
1

> <s_lp_Variant>
AV-unprocessed.smi:2286-1

> <Gold.Version>
5.8.1

> <Gold.Id.Protein>
6NUR|6NUR_protein|mol2

> <Gold.PLP.Fitness>
49.7986

> <Gold.PLP.PLP>
-43.8860

> <Gold.PLP.part.hbond>
-4.1014

> <Gold.PLP.part.metal>
0.0000

> <Gold.PLP.part.buried>
-3.9500

> <Gold.PLP.part.nonpolar>
-36.2687

> <Gold.PLP.part.repulsive>
0.3102

> <Gold.PLP.ligand.clash>
0.0000

> <Gold.PLP.ligand.torsion>
0.3534

> <Gold.PLP.Chemscore.Hbond>
2.2041

> <Gold.PLP.Chemscore.CHOScore>
0.0000

> <Gold.PLP.Chemscore.Metal>
0.0000

> <Gold.Chemscore.Hbonds>
donor molecule, donor type, donor heavy atom, donor atom, acceptor molecule, acceptor atom, score
      L1  H     8    30       P1  7948  0.60
      L1  H    11    31       P1  7948  0.31
      L1  H    15    34       P1  7949  1.00

> <Gold.PLP.Chemscore.Internal.Correction>
0.0072

> <Gold.Rescore>
     Score         DG    S(hbond)    S(metal)    S(lipo)     H(rot)  DE(clash)    DE(int)     intcor
     14.41     -17.35       1.52        0.00      90.72       1.48       0.00       2.94       ----

> <Gold.Chemscore.Fitness>
14.4092

> <Gold.Chemscore.DG>
-17.3540

> <Gold.Chemscore.ZeroCoef>
-5.4800

> <Gold.Chemscore.Hbond>
1.5154

> <Gold.Chemscore.Metal>
0.0000

> <Gold.Chemscore.Lipo>
90.7172

> <Gold.Chemscore.Internal_Hbond>
0.0000

> <Gold.Chemscore.DEClash>
0.0038

> <Gold.Chemscore.DEInternal>
2.9410

> <Gold.Chemscore.Rot>
1.4849

> <Gold.Chemscore.Internal.Correction>
   9.000000E+99

> <Gold.Chemscore.Hbonds>
donor molecule, donor type, donor heavy atom, donor atom, acceptor molecule, acceptor atom, score
      L1  H     8    30       P1  7948  0.10
      L1  H    11    31       P1  7948  0.01
      L1  H    15    34       P1  7949  0.40

> <Gold.Chemscore.Hbond.Weighted>
-5.0613

> <Gold.Chemscore.Metal.Weighted>
-0.0000

> <Gold.Chemscore.Lipo.Weighted>
-10.6139

> <Gold.Chemscore.Internal_Hbond.Weighted>
0.0000

> <Gold.Chemscore.DEClash.Weighted>
0.0038

> <Gold.Chemscore.DEInternal.Weighted>
2.9410

> <Gold.Chemscore.Rot.Weighted>
3.8012

> <Gold.Chemscore.Internal.Correction.Weighted>
   9.000000E+99

> <Gold.Protein.RotatedTorsions>
[ 6907 6896 6895 6894 ] final  124.51 input  -60.11 | X-H torsion
[ 7974 7965 7964 7962 ] final   22.74 input  175.53 | X-H torsion
[ 8008 7997 7996 7995 ] final    0.09 input   59.86 | X-H torsion
[ 10167 10162 10161 10158 ] final  -11.21 input  -65.29 | X-H torsion
[ 10718 10713 10712 10709 ] final  -72.77 input   66.30 | X-H torsion
[ 10763 10752 10751 10750 ] final  109.29 input  -60.55 | X-H torsion
[ 11005 11000 10999 10996 ] final   73.60 input  -57.11 | X-H torsion

> <Gold.Protein.ActiveResidues>
 VAL166  LYS551  ARG553  GLY616  TRP617  ASP618  TYR619  PRO620  LYS621  CYS622 
 ASP623  PHE694  ASN695  SER759  ASP760  ASP761  ALA762  ILE779  LEU786  VAL792 
 PHE793  MET794  SER795  GLU796  ALA797  LYS798  CYS799  TRP800  GLU811  SER814 

> <Gold.Protein.RotatedAtoms>
  152.4071  133.6906  159.6365 H   0  0  0  0  0  0  0  0  0  0  0  0  # atno 6907 bound_to 6896
  150.7955  133.8689  159.3262 H   0  0  0  0  0  0  0  0  0  0  0  0  # atno 6908 bound_to 6896
  151.6441  135.1011  160.0199 H   0  0  0  0  0  0  0  0  0  0  0  0  # atno 6909 bound_to 6896
  146.2015  139.7842  142.8758 H   0  0  0  0  0  0  0  0  0  0  0  0  # atno 7974 bound_to 7965
  154.6641  140.2597  155.7077 H   0  0  0  0  0  0  0  0  0  0  0  0  # atno 8008 bound_to 7997
  156.2631  140.2842  156.1046 H   0  0  0  0  0  0  0  0  0  0  0  0  # atno 8009 bound_to 7997
  155.1265  140.0378  157.2754 H   0  0  0  0  0  0  0  0  0  0  0  0  # atno 8010 bound_to 7997
  140.7133  143.5665  150.9139 H   0  0  0  0  0  0  0  0  0  0  0  0  # atno 10167 bound_to 10162
  156.0307  130.4379  150.2643 H   0  0  0  0  0  0  0  0  0  0  0  0  # atno 10718 bound_to 10713
  153.4326  135.3785  155.2179 H   0  0  0  0  0  0  0  0  0  0  0  0  # atno 10763 bound_to 10752
  154.8750  135.3843  154.4250 H   0  0  0  0  0  0  0  0  0  0  0  0  # atno 10764 bound_to 10752
  153.4784  135.7088  153.6015 H   0  0  0  0  0  0  0  0  0  0  0  0  # atno 10765 bound_to 10752
  139.9432  134.7361  156.1046 H   0  0  0  0  0  0  0  0  0  0  0  0  # atno 11005 bound_to 11000
  145.3466  141.0299  143.3362 LP  0  0  0  0  0  0  0  0  0  0  0  0  # atno 17320 bound_to 7965
  144.8695  139.5059  143.6774 LP  0  0  0  0  0  0  0  0  0  0  0  0  # atno 17321 bound_to 7965
  139.9390  143.6404  152.3058 LP  0  0  0  0  0  0  0  0  0  0  0  0  # atno 17342 bound_to 10162
  139.6882  144.7649  151.1486 LP  0  0  0  0  0  0  0  0  0  0  0  0  # atno 17343 bound_to 10162
  157.0745  131.0126  151.3178 LP  0  0  0  0  0  0  0  0  0  0  0  0  # atno 17370 bound_to 10713
  157.4974  130.7859  149.7569 LP  0  0  0  0  0  0  0  0  0  0  0  0  # atno 17371 bound_to 10713
  141.1074  133.6655  156.2896 LP  0  0  0  0  0  0  0  0  0  0  0  0  # atno 17394 bound_to 11000
  140.5900  134.5660  157.5497 LP  0  0  0  0  0  0  0  0  0  0  0  0  # atno 17395 bound_to 11000

$$$$
