#       Name:                AV-unprocessed.smi:1295
#       Creating user name   scv26
#       Creation time:       Fri Mar 27 04:56:56 2020


#       File generated by GOLD software.
#

@<TRIPOS>MOLECULE
AV-unprocessed.smi:1295
    48    49     1
SMALL
NO_CHARGES


@<TRIPOS>ATOM
      1 ****        -6.5756  -1.3336   0.7325 C.3            1 S1                 0.0000
      2 ****        -5.0627  -1.2931   0.7552 C.2            1 S1                 0.0000
      3 ****        -4.4710  -0.1863   0.9989 N.2            1 S1                 0.0000
      4 ****        -3.0668  -0.1442   1.0257 C.2            1 S1                 0.0000
      5 ****        -2.4501   1.2098   1.3328 C.3            1 S1                 0.0000
      6 ****        -2.3224  -1.2631   0.7918 C.2            1 S1                 0.0000
      7 ****        -0.7943  -1.2693   0.8218 C.3            1 S1                 0.0000
      8 ****        -0.1040  -0.7155  -0.4264 C.2            1 S1                 0.0000
      9 ****        -0.5319  -0.9896  -1.5474 O.2            1 S1                 0.0000
     10 ****         0.9630   0.0693  -0.2103 N.am           1 S1                 0.0000
     11 ****         1.7542   0.7584  -1.2311 C.3            1 S1                 0.0000
     12 ****         1.9326   2.2376  -0.8341 C.3            1 S1                 0.0000
     13 ****         2.8594   2.4049   0.3831 C.3            1 S1                 0.0000
     14 ****         4.2188   1.7314   0.1430 C.3            1 S1                 0.0000
     15 ****         4.0515   0.2509  -0.2352 C.3            1 S1                 0.0000
     16 ****         3.1282   0.0774  -1.4593 C.3            1 S1                 0.0000
     17 ****         3.0105  -1.3990  -1.8745 C.3            1 S1                 0.0000
     18 ****        -3.0431  -2.5170   0.5064 C.2            1 S1                 0.0000
     19 ****        -2.4209  -3.5526   0.2734 O.2            1 S1                 0.0000
     20 ****        -4.4062  -2.4779   0.5096 N.pl3          1 S1                -1.0000
     21 ****        -6.9958  -0.3272   0.7557 H              1 S1                 0.0000
     22 ****        -6.9494  -1.8817   1.5976 H              1 S1                 0.0000
     23 ****        -6.9299  -1.8296  -0.1717 H              1 S1                 0.0000
     24 ****        -1.8837   1.1700   2.2633 H              1 S1                 0.0000
     25 ****        -3.2174   1.9774   1.4403 H              1 S1                 0.0000
     26 ****        -1.7809   1.5196   0.5302 H              1 S1                 0.0000
     27 ****        -0.4741  -0.6926   1.6903 H              1 S1                 0.0000
     28 ****        -0.4105  -2.2734   1.0035 H              1 S1                 0.0000
     29 ****         1.2384   0.2240   0.7486 H              1 S1                 0.0000
     30 ****         1.2084   0.7439  -2.1760 H              1 S1                 0.0000
     31 ****         2.3525   2.7858  -1.6784 H              1 S1                 0.0000
     32 ****         0.9625   2.6933  -0.6311 H              1 S1                 0.0000
     33 ****         3.0028   3.4643   0.5967 H              1 S1                 0.0000
     34 ****         2.3893   1.9754   1.2687 H              1 S1                 0.0000
     35 ****         4.7496   2.2542  -0.6536 H              1 S1                 0.0000
     36 ****         4.8393   1.8187   1.0353 H              1 S1                 0.0000
     37 ****         5.0305  -0.1815  -0.4444 H              1 S1                 0.0000
     38 ****         3.6494  -0.3007   0.6157 H              1 S1                 0.0000
     39 ****         3.6027   0.5960  -2.2939 H              1 S1                 0.0000
     40 ****         2.6000  -2.0130  -1.0727 H              1 S1                 0.0000
     41 ****         3.9857  -1.8108  -2.1349 H              1 S1                 0.0000
     42 ****         2.3631  -1.5104  -2.7447 H              1 S1                 0.0000
     43 ****        -5.0034   0.6429   1.1691 LP             1 S1                 0.0000
     44 ****        -1.3350  -1.5772  -1.6462 LP             1 S1                 0.0000
     45 ****        -0.0765  -0.6247  -2.3595 LP             1 S1                 0.0000
     46 ****        -1.4210  -3.5467   0.2770 LP             1 S1                 0.0000
     47 ****        -2.9152  -4.4002   0.0804 LP             1 S1                 0.0000
     48 ****        -4.9299  -3.3114   0.3332 LP             1 S1                 0.0000
@<TRIPOS>BOND
    1    1    2 1     
    2    1   21 1     
    3    1   22 1     
    4    1   23 1     
    5    2   20 1     
    6    2    3 2     
    7    3    4 1     
    8    4    5 1     
    9    4    6 2     
   10    5   24 1     
   11    5   25 1     
   12    5   26 1     
   13    6    7 1     
   14    6   18 1     
   15    7    8 1     
   16    7   27 1     
   17    7   28 1     
   18    8    9 2     
   19    8   10 am    
   20   10   11 1     
   21   10   29 1     
   22   11   16 1     
   23   11   12 1     
   24   11   30 1     
   25   12   13 1     
   26   12   31 1     
   27   12   32 1     
   28   13   14 1     
   29   13   33 1     
   30   13   34 1     
   31   14   15 1     
   32   14   35 1     
   33   14   36 1     
   34   15   16 1     
   35   15   37 1     
   36   15   38 1     
   37   16   17 1     
   38   16   39 1     
   39   17   40 1     
   40   17   41 1     
   41   17   42 1     
   42   18   19 2     
   43   18   20 1     
   44    3   43 1     
   45    9   44 1     
   46    9   45 1     
   47   19   46 1     
   48   19   47 1     
   49   20   48 1     
@<TRIPOS>SUBSTRUCTURE
      1 S1             1
@<TRIPOS>SET
LONE_PAIRS      STATIC     ATOMS    <user>   **** ""
6 43 44 45 46 47 48
DONOR_HYDROGENS      STATIC     ATOMS    <user>   **** ""
1 29
ATOM$BLUE        STATIC     ATOMS    COLORGROUP SYSTEM
6 43 44 45 46 47 48
ATOM$RED        STATIC     ATOMS    COLORGROUP SYSTEM
1 29
