AV-unprocessed.smi:3306|AV-procd|sdf|12704|dock4
  -GOLD-   2272019 33D 1   1.00000     0.00000
 Structure written by MMmdl.
 44 45  0  0  0  0  0  0  0  0  2 V2000
  149.2903  133.7554  154.2291 C   0  0  0  0  0  0  0  0  0  0  0  0
  148.5683  134.8565  155.0351 C   0  0  0  0  0  0  0  0  0  0  0  0
  147.0506  134.7197  154.7903 C   0  0  0  0  0  0  0  0  0  0  0  0
  149.0626  136.2382  154.7226 N   0  3  2  0  0  0  0  0  0  0  0  0
  150.5157  136.4424  154.9959 C   0  0  0  0  0  0  0  0  0  0  0  0
  150.9928  137.8374  154.5599 C   0  0  0  0  0  0  0  0  0  0  0  0
  150.1832  138.9469  155.2424 C   0  0  1  0  0  0  0  0  0  0  0  0
  150.6270  140.2287  154.7111 N   0  0  0  0  0  0  0  0  0  0  0  0
  150.4664  141.3093  155.6753 C   0  0  0  0  0  0  0  0  0  0  0  0
  151.1953  140.9868  156.9913 C   0  0  0  0  0  0  0  0  0  0  0  0
  151.3798  142.1981  157.8908 C   0  0  0  0  0  0  0  0  0  0  0  0
  152.2758  142.1499  158.9804 C   0  0  0  0  0  0  0  0  0  0  0  0
  152.4020  143.2902  159.7973 C   0  0  0  0  0  0  0  0  0  0  0  0
  151.6308  144.4292  159.4959 C   0  0  0  0  0  0  0  0  0  0  0  0
  150.7641  144.3768  158.3862 C   0  0  0  0  0  0  0  0  0  0  0  0
  150.6351  143.2884  157.5972 N   0  0  0  0  0  0  0  0  0  0  0  0
  148.6915  138.7148  154.9502 C   0  0  0  0  0  0  0  0  0  0  0  0
  148.2529  137.3055  155.3798 C   0  0  0  0  0  0  0  0  0  0  0  0
  148.8261  132.7820  154.3915 H   0  0  0  0  0  0  0  0  0  0  0  0
  150.3325  133.6418  154.5275 H   0  0  0  0  0  0  0  0  0  0  0  0
  149.2584  133.9579  153.1579 H   0  0  0  0  0  0  0  0  0  0  0  0
  148.7585  134.6628  156.0921 H   0  0  0  0  0  0  0  0  0  0  0  0
  146.7259  133.6860  154.9126 H   0  0  0  0  0  0  0  0  0  0  0  0
  146.7822  135.0290  153.7795 H   0  0  0  0  0  0  0  0  0  0  0  0
  146.4571  135.3026  155.4930 H   0  0  0  0  0  0  0  0  0  0  0  0
  150.7138  136.2889  156.0578 H   0  0  0  0  0  0  0  0  0  0  0  0
  151.1209  135.7220  154.4484 H   0  0  0  0  0  0  0  0  0  0  0  0
  152.0522  137.9499  154.7940 H   0  0  0  0  0  0  0  0  0  0  0  0
  150.9061  137.9233  153.4751 H   0  0  0  0  0  0  0  0  0  0  0  0
  150.3696  138.9088  156.3169 H   0  0  0  0  0  0  0  0  0  0  0  0
  151.6008  140.1702  154.4480 H   0  0  0  0  0  0  0  0  0  0  0  0
  150.8447  142.2484  155.2724 H   0  0  0  0  0  0  0  0  0  0  0  0
  149.4032  141.4484  155.8748 H   0  0  0  0  0  0  0  0  0  0  0  0
  150.6290  140.2330  157.5397 H   0  0  0  0  0  0  0  0  0  0  0  0
  152.1670  140.5366  156.7828 H   0  0  0  0  0  0  0  0  0  0  0  0
  152.8511  141.2598  159.1881 H   0  0  0  0  0  0  0  0  0  0  0  0
  153.0770  143.2907  160.6404 H   0  0  0  0  0  0  0  0  0  0  0  0
  151.7016  145.3213  160.1005 H   0  0  0  0  0  0  0  0  0  0  0  0
  150.1571  145.2314  158.1262 H   0  0  0  0  0  0  0  0  0  0  0  0
  148.0760  139.4489  155.4696 H   0  0  0  0  0  0  0  0  0  0  0  0
  148.4951  138.8469  153.8849 H   0  0  0  0  0  0  0  0  0  0  0  0
  147.1990  137.2080  155.1279 H   0  0  0  0  0  0  0  0  0  0  0  0
  148.3293  137.2052  156.4637 H   0  0  0  0  0  0  0  0  0  0  0  0
  148.9464  136.3610  153.7267 H   0  0  0  0  0  0  0  0  0  0  0  0
  1  2  1  0  0  0  0
  1 19  1  0  0  0  0
  1 20  1  0  0  0  0
  1 21  1  0  0  0  0
  2  3  1  0  0  0  0
  2  4  1  0  0  0  0
  2 22  1  0  0  0  0
  3 23  1  0  0  0  0
  3 24  1  0  0  0  0
  3 25  1  0  0  0  0
  4 18  1  0  0  0  0
  4  5  1  0  0  0  0
  4 44  1  0  0  0  0
  5  6  1  0  0  0  0
  5 26  1  0  0  0  0
  5 27  1  0  0  0  0
  6  7  1  0  0  0  0
  6 28  1  0  0  0  0
  6 29  1  0  0  0  0
  7  8  1  0  0  0  0
  7 17  1  0  0  0  0
  7 30  1  0  0  0  0
  8  9  1  0  0  0  0
  8 31  1  0  0  0  0
  9 10  1  0  0  0  0
  9 32  1  0  0  0  0
  9 33  1  0  0  0  0
 10 11  1  0  0  0  0
 10 34  1  0  0  0  0
 10 35  1  0  0  0  0
 11 16  1  0  0  0  0
 11 12  2  0  0  0  0
 12 13  1  0  0  0  0
 12 36  1  0  0  0  0
 13 14  2  0  0  0  0
 13 37  1  0  0  0  0
 14 15  1  0  0  0  0
 14 38  1  0  0  0  0
 15 16  2  0  0  0  0
 15 39  1  0  0  0  0
 17 18  1  0  0  0  0
 17 40  1  0  0  0  0
 17 41  1  0  0  0  0
 18 42  1  0  0  0  0
 18 43  1  0  0  0  0
M  CHG  1   4   1
M  END
> <s_m_source_file>
AV-unprocessed.smi

> <i_m_source_file_index>
3306

> <i_lp_mmshare_version>
43012

> <i_f3d_flags>
0

> <s_epik_input>
W0NIM11bQ0hdKFtDSDNdKU4xW0NIMl1bQ0gyXVtDSF0oW0NIMl1bQ0gyXTEpW05IXVtDSDJdW0NIMl1jMltjSF1bY0hdW2NIXVtjSF1uMg==

> <s_epik_cmdline>
J2VwaWtfcHl0aG9uJywgJy1waCcsICc3LjAnLCAnLXRuJywgJzgnLCAnLW1hJywgJzIwMCcsICctbWV0YWxfYmluZGluZycsICctaW1hZScsICc8aW5maWxlLm1hZT4nLCAnLW9tYWUnLCAnPG91dGZpbGUubWFlPic=

> <r_epik_Ionization_Penalty>
2.29993

> <r_epik_Ionization_Penalty_Charging>
0.000386008

> <r_epik_Ionization_Penalty_Neutral>
2.29954

> <r_epik_State_Penalty>
2.40593

> <r_epik_Charging_Adjusted_Penalty>
2.40631

> <i_epik_Tot_Q>
1

> <i_epik_Tot_abs_Q>
1

> <r_epik_Metal_State_Penalty>
2.31593

> <b_epik_Metal_Only>
0

> <s_lp_Force_Field>
OPLS_2005

> <r_lp_Energy>
25.7367

> <b_lp_Chiralities_Consistent>
1

> <s_lp_Variant>
AV-unprocessed.smi:3306-4

> <Gold.Version>
5.8.1

> <Gold.Id.Protein>
6NUR|6NUR_protein|mol2

> <Gold.PLP.Fitness>
42.6095

> <Gold.PLP.PLP>
-34.7237

> <Gold.PLP.part.hbond>
-2.0000

> <Gold.PLP.part.metal>
0.0000

> <Gold.PLP.part.buried>
-5.6714

> <Gold.PLP.part.nonpolar>
-28.8814

> <Gold.PLP.part.repulsive>
0.8227

> <Gold.PLP.ligand.clash>
0.0000

> <Gold.PLP.ligand.torsion>
0.6364

> <Gold.PLP.Chemscore.Hbond>
2.0000

> <Gold.PLP.Chemscore.CHOScore>
1.0240

> <Gold.PLP.Chemscore.Metal>
0.0000

> <Gold.Chemscore.Hbonds>
donor molecule, donor type, donor heavy atom, donor atom, acceptor molecule, acceptor atom, score
      L1  H     4    44       P1  7948  2.00
      L1  C    15    39       P1  8028  0.06
      L1  C    15    39       P1  8029  0.87

> <Gold.PLP.Chemscore.Internal.Correction>
0.0866

> <Gold.Rescore>
     Score         DG    S(hbond)    S(metal)    S(lipo)     H(rot)  DE(clash)    DE(int)     intcor
     16.97     -17.93       0.98        0.00     109.36       1.41       0.26       0.71       ----

> <Gold.Chemscore.Fitness>
16.9707

> <Gold.Chemscore.DG>
-17.9325

> <Gold.Chemscore.ZeroCoef>
-5.4800

> <Gold.Chemscore.Hbond>
0.9766

> <Gold.Chemscore.Metal>
0.0000

> <Gold.Chemscore.Lipo>
109.3562

> <Gold.Chemscore.Internal_Hbond>
0.0000

> <Gold.Chemscore.DEClash>
0.2558

> <Gold.Chemscore.DEInternal>
0.7060

> <Gold.Chemscore.Rot>
1.4078

> <Gold.Chemscore.Internal.Correction>
   9.000000E+99

> <Gold.Chemscore.Hbonds>
donor molecule, donor type, donor heavy atom, donor atom, acceptor molecule, acceptor atom, score
      L1  H     4    44       P1  7948  0.99

> <Gold.Chemscore.Hbond.Weighted>
-3.2619

> <Gold.Chemscore.Metal.Weighted>
-0.0000

> <Gold.Chemscore.Lipo.Weighted>
-12.7947

> <Gold.Chemscore.Internal_Hbond.Weighted>
0.0000

> <Gold.Chemscore.DEClash.Weighted>
0.2558

> <Gold.Chemscore.DEInternal.Weighted>
0.7060

> <Gold.Chemscore.Rot.Weighted>
3.6041

> <Gold.Chemscore.Internal.Correction.Weighted>
   9.000000E+99

> <Gold.Protein.RotatedTorsions>
[ 6907 6896 6895 6894 ] final   90.65 input  -60.11 | X-H torsion
[ 7974 7965 7964 7962 ] final -180.00 input  175.53 | X-H torsion
[ 8008 7997 7996 7995 ] final  152.98 input   59.86 | X-H torsion
[ 10167 10162 10161 10158 ] final  -43.34 input  -65.29 | X-H torsion
[ 10718 10713 10712 10709 ] final   74.17 input   66.30 | X-H torsion
[ 10763 10752 10751 10750 ] final  -89.26 input  -60.55 | X-H torsion
[ 11005 11000 10999 10996 ] final   16.49 input  -57.11 | X-H torsion

> <Gold.Protein.ActiveResidues>
 VAL166  LYS551  ARG553  GLY616  TRP617  ASP618  TYR619  PRO620  LYS621  CYS622 
 ASP623  PHE694  ASN695  SER759  ASP760  ASP761  ALA762  ILE779  LEU786  VAL792 
 PHE793  MET794  SER795  GLU796  ALA797  LYS798  CYS799  TRP800  GLU811  SER814 

> <Gold.Protein.RotatedAtoms>
  152.5446  134.1779  159.8622 H   0  0  0  0  0  0  0  0  0  0  0  0  # atno 6907 bound_to 6896
  151.1783  133.4734  159.2601 H   0  0  0  0  0  0  0  0  0  0  0  0  # atno 6908 bound_to 6896
  151.1204  135.0087  159.8591 H   0  0  0  0  0  0  0  0  0  0  0  0  # atno 6909 bound_to 6896
  144.7141  140.0633  143.6432 H   0  0  0  0  0  0  0  0  0  0  0  0  # atno 7974 bound_to 7965
  156.2603  140.2006  156.6418 H   0  0  0  0  0  0  0  0  0  0  0  0  # atno 8008 bound_to 7997
  154.6603  140.0561  157.0080 H   0  0  0  0  0  0  0  0  0  0  0  0  # atno 8009 bound_to 7997
  155.1285  140.3231  155.4482 H   0  0  0  0  0  0  0  0  0  0  0  0  # atno 8010 bound_to 7997
  140.6937  143.2988  151.3338 H   0  0  0  0  0  0  0  0  0  0  0  0  # atno 10167 bound_to 10162
  157.6580  130.9665  150.1173 H   0  0  0  0  0  0  0  0  0  0  0  0  # atno 10718 bound_to 10713
  154.6534  135.5347  153.7929 H   0  0  0  0  0  0  0  0  0  0  0  0  # atno 10763 bound_to 10752
  153.0399  135.6488  154.0982 H   0  0  0  0  0  0  0  0  0  0  0  0  # atno 10764 bound_to 10752
  154.0898  135.2941  155.3254 H   0  0  0  0  0  0  0  0  0  0  0  0  # atno 10765 bound_to 10752
  140.4465  134.1268  155.7697 H   0  0  0  0  0  0  0  0  0  0  0  0  # atno 11005 bound_to 11000
  145.9845  139.2967  143.1022 LP  0  0  0  0  0  0  0  0  0  0  0  0  # atno 17320 bound_to 7965
  145.8973  140.9266  143.0521 LP  0  0  0  0  0  0  0  0  0  0  0  0  # atno 17321 bound_to 7965
  139.6368  144.0615  152.2522 LP  0  0  0  0  0  0  0  0  0  0  0  0  # atno 17342 bound_to 10162
  140.0108  144.6225  150.7649 LP  0  0  0  0  0  0  0  0  0  0  0  0  # atno 17343 bound_to 10162
  156.2054  130.3663  149.8736 LP  0  0  0  0  0  0  0  0  0  0  0  0  # atno 17370 bound_to 10713
  156.6629  130.8789  151.3550 LP  0  0  0  0  0  0  0  0  0  0  0  0  # atno 17371 bound_to 10713
  141.1683  133.8660  157.1649 LP  0  0  0  0  0  0  0  0  0  0  0  0  # atno 17394 bound_to 11000
  140.0035  135.0018  157.0241 LP  0  0  0  0  0  0  0  0  0  0  0  0  # atno 17395 bound_to 11000

$$$$
