AV-unprocessed.smi:1733|AV-procd|sdf|6979|dock7
  -GOLD-   22720 8193D 1   1.00000     0.00000
 Structure written by MMmdl.
 53 55  0  0  0  0  0  0  0  0  2 V2000
  147.3143  134.5071  155.3596 O   0  0  0  0  0  0  0  0  0  0  0  0
  147.7596  135.2307  154.4689 C   0  0  0  0  0  0  0  0  0  0  0  0
  147.1759  135.4390  153.2760 N   0  0  0  0  0  0  0  0  0  0  0  0
  145.9310  134.9405  152.8051 C   0  0  0  0  0  0  0  0  0  0  0  0
  145.7314  134.8875  151.4076 C   0  0  0  0  0  0  0  0  0  0  0  0
  144.5039  134.4171  150.8980 C   0  0  0  0  0  0  0  0  0  0  0  0
  143.5265  134.0323  151.7466 N   0  3  0  0  0  0  0  0  0  0  0  0
  143.6648  134.0797  153.0890 C   0  0  0  0  0  0  0  0  0  0  0  0
  144.8701  134.5402  153.6571 C   0  0  0  0  0  0  0  0  0  0  0  0
  148.9172  135.8999  154.5668 N   0  0  0  0  0  0  0  0  0  0  0  0
  149.8055  135.8856  155.7255 C   0  0  0  0  0  0  0  0  0  0  0  0
  149.3749  136.9868  156.7185 C   0  0  0  0  0  0  0  0  0  0  0  0
  150.4001  137.1435  157.8550 C   0  0  0  0  0  0  0  0  0  0  0  0
  151.7177  137.4288  157.2631 N   0  0  0  0  0  0  0  0  0  0  0  0
  152.3491  138.6303  157.2446 C   0  0  0  0  0  0  0  0  0  0  0  0
  153.2655  138.8995  156.4666 O   0  0  0  0  0  0  0  0  0  0  0  0
  151.8914  139.5184  158.1440 N   0  0  0  0  0  0  0  0  0  0  0  0
  152.3753  140.8846  158.3158 C   0  0  0  0  0  0  0  0  0  0  0  0
  152.9689  141.0438  159.7286 C   0  0  0  0  0  0  0  0  0  0  0  0
  153.4350  142.4858  159.9859 C   0  0  0  0  0  0  0  0  0  0  0  0
  152.2945  143.4896  159.7551 C   0  0  0  0  0  0  0  0  0  0  0  0
  151.7032  143.3403  158.3450 C   0  0  0  0  0  0  0  0  0  0  0  0
  151.2356  141.8994  158.0850 C   0  0  0  0  0  0  0  0  0  0  0  0
  152.2064  136.2799  156.4915 C   0  0  0  0  0  0  0  0  0  0  0  0
  151.2768  136.0625  155.2829 C   0  0  0  0  0  0  0  0  0  0  0  0
  147.7095  135.9775  152.6092 H   0  0  0  0  0  0  0  0  0  0  0  0
  146.5125  135.1979  150.7283 H   0  0  0  0  0  0  0  0  0  0  0  0
  144.2755  134.3401  149.8448 H   0  0  0  0  0  0  0  0  0  0  0  0
  142.8105  133.7561  153.6657 H   0  0  0  0  0  0  0  0  0  0  0  0
  144.9532  134.5895  154.7322 H   0  0  0  0  0  0  0  0  0  0  0  0
  149.2092  136.4644  153.7823 H   0  0  0  0  0  0  0  0  0  0  0  0
  149.7152  134.9273  156.2406 H   0  0  0  0  0  0  0  0  0  0  0  0
  149.2734  137.9402  156.1971 H   0  0  0  0  0  0  0  0  0  0  0  0
  148.3930  136.7539  157.1325 H   0  0  0  0  0  0  0  0  0  0  0  0
  150.0594  137.8979  158.5640 H   0  0  0  0  0  0  0  0  0  0  0  0
  150.4587  136.2184  158.4303 H   0  0  0  0  0  0  0  0  0  0  0  0
  151.1386  139.2252  158.7494 H   0  0  0  0  0  0  0  0  0  0  0  0
  153.1695  141.0725  157.5904 H   0  0  0  0  0  0  0  0  0  0  0  0
  152.2234  140.7688  160.4764 H   0  0  0  0  0  0  0  0  0  0  0  0
  153.8069  140.3587  159.8618 H   0  0  0  0  0  0  0  0  0  0  0  0
  153.8109  142.5781  161.0052 H   0  0  0  0  0  0  0  0  0  0  0  0
  154.2703  142.7230  159.3257 H   0  0  0  0  0  0  0  0  0  0  0  0
  151.5119  143.3322  160.4985 H   0  0  0  0  0  0  0  0  0  0  0  0
  152.6585  144.5070  159.8995 H   0  0  0  0  0  0  0  0  0  0  0  0
  150.8686  144.0300  158.2166 H   0  0  0  0  0  0  0  0  0  0  0  0
  152.4523  143.6198  157.6031 H   0  0  0  0  0  0  0  0  0  0  0  0
  150.8583  141.8197  157.0648 H   0  0  0  0  0  0  0  0  0  0  0  0
  150.3965  141.6679  158.7426 H   0  0  0  0  0  0  0  0  0  0  0  0
  153.2352  136.4061  156.1514 H   0  0  0  0  0  0  0  0  0  0  0  0
  152.2127  135.3915  157.1248 H   0  0  0  0  0  0  0  0  0  0  0  0
  151.6060  135.1922  154.7140 H   0  0  0  0  0  0  0  0  0  0  0  0
  151.3609  136.9190  154.6120 H   0  0  0  0  0  0  0  0  0  0  0  0
  142.6448  133.6964  151.3577 H   0  0  0  0  0  0  0  0  0  0  0  0
  1  2  2  0  0  0  0
  2  3  1  0  0  0  0
  2 10  1  0  0  0  0
  3  4  1  0  0  0  0
  3 26  1  0  0  0  0
  4  9  1  0  0  0  0
  4  5  2  0  0  0  0
  5  6  1  0  0  0  0
  5 27  1  0  0  0  0
  6  7  2  0  0  0  0
  6 28  1  0  0  0  0
  7  8  1  0  0  0  0
  7 53  1  0  0  0  0
  8  9  2  0  0  0  0
  8 29  1  0  0  0  0
  9 30  1  0  0  0  0
 10 11  1  0  0  0  0
 10 31  1  0  0  0  0
 11 25  1  0  0  0  0
 11 12  1  0  0  0  0
 11 32  1  0  0  0  0
 12 13  1  0  0  0  0
 12 33  1  0  0  0  0
 12 34  1  0  0  0  0
 13 14  1  0  0  0  0
 13 35  1  0  0  0  0
 13 36  1  0  0  0  0
 14 15  1  0  0  0  0
 14 24  1  0  0  0  0
 15 16  2  0  0  0  0
 15 17  1  0  0  0  0
 17 18  1  0  0  0  0
 17 37  1  0  0  0  0
 18 23  1  0  0  0  0
 18 19  1  0  0  0  0
 18 38  1  0  0  0  0
 19 20  1  0  0  0  0
 19 39  1  0  0  0  0
 19 40  1  0  0  0  0
 20 21  1  0  0  0  0
 20 41  1  0  0  0  0
 20 42  1  0  0  0  0
 21 22  1  0  0  0  0
 21 43  1  0  0  0  0
 21 44  1  0  0  0  0
 22 23  1  0  0  0  0
 22 45  1  0  0  0  0
 22 46  1  0  0  0  0
 23 47  1  0  0  0  0
 23 48  1  0  0  0  0
 24 25  1  0  0  0  0
 24 49  1  0  0  0  0
 24 50  1  0  0  0  0
 25 51  1  0  0  0  0
 25 52  1  0  0  0  0
M  CHG  1   7   1
M  END
> <s_m_source_file>
AV-unprocessed.smi

> <i_m_source_file_index>
1733

> <i_lp_mmshare_version>
43012

> <i_f3d_flags>
0

> <s_epik_input>
W2NIXTFbY0hdbltjSF1bY0hdYzFbTkhdQyg9TylbTkhdW0NIXTJbQ0gyXVtDSDJdTihbQ0gyXVtDSDJdMilDKD1PKVtOSF1bQ0hdM1tDSDJdW0NIMl1bQ0gyXVtDSDJdW0NIMl0z

> <s_epik_cmdline>
J2VwaWtfcHl0aG9uJywgJy1waCcsICc3LjAnLCAnLXRuJywgJzgnLCAnLW1hJywgJzIwMCcsICctbWV0YWxfYmluZGluZycsICctaW1hZScsICc8aW5maWxlLm1hZT4nLCAnLW9tYWUnLCAnPG91dGZpbGUubWFlPic=

> <r_epik_Ionization_Penalty>
1.02331

> <r_epik_Ionization_Penalty_Charging>
1.02322

> <r_epik_Ionization_Penalty_Neutral>
8.7708e-05

> <r_epik_State_Penalty>
1.0737

> <r_epik_Charging_Adjusted_Penalty>
2.09692

> <i_epik_Tot_Q>
1

> <i_epik_Tot_abs_Q>
1

> <r_epik_Metal_State_Penalty>
1.17214

> <b_epik_Metal_Only>
0

> <s_lp_Force_Field>
OPLS_2005

> <r_lp_Energy>
47.1401

> <b_lp_Chiralities_Consistent>
1

> <s_lp_Variant>
AV-unprocessed.smi:1733-2

> <Gold.Version>
5.8.1

> <Gold.Id.Protein>
6NUR|6NUR_protein|mol2

> <Gold.PLP.Fitness>
49.2033

> <Gold.PLP.PLP>
-36.1225

> <Gold.PLP.part.hbond>
-3.8864

> <Gold.PLP.part.metal>
0.0000

> <Gold.PLP.part.buried>
-5.6848

> <Gold.PLP.part.nonpolar>
-27.6366

> <Gold.PLP.part.repulsive>
0.1241

> <Gold.PLP.ligand.clash>
0.0000

> <Gold.PLP.ligand.torsion>
0.5835

> <Gold.PLP.Chemscore.Hbond>
4.7360

> <Gold.PLP.Chemscore.CHOScore>
0.0000

> <Gold.PLP.Chemscore.Metal>
0.0000

> <Gold.Chemscore.Hbonds>
donor molecule, donor type, donor heavy atom, donor atom, acceptor molecule, acceptor atom, score
      L1  H     3    26       P1  7948  0.83
      L1  H    10    31       P1  7948  0.64
      P1  H  7997  8008       L1    16  1.00

> <Gold.PLP.Chemscore.Internal.Correction>
0.0399

> <Gold.Rescore>
     Score         DG    S(hbond)    S(metal)    S(lipo)     H(rot)  DE(clash)    DE(int)     intcor
     23.38     -24.29       3.28        0.00      94.23       1.24       0.01       0.89       ----

> <Gold.Chemscore.Fitness>
23.3841

> <Gold.Chemscore.DG>
-24.2856

> <Gold.Chemscore.ZeroCoef>
-5.4800

> <Gold.Chemscore.Hbond>
3.2821

> <Gold.Chemscore.Metal>
0.0000

> <Gold.Chemscore.Lipo>
94.2287

> <Gold.Chemscore.Internal_Hbond>
0.0000

> <Gold.Chemscore.DEClash>
0.0106

> <Gold.Chemscore.DEInternal>
0.8910

> <Gold.Chemscore.Rot>
1.2426

> <Gold.Chemscore.Internal.Correction>
   9.000000E+99

> <Gold.Chemscore.Hbonds>
donor molecule, donor type, donor heavy atom, donor atom, acceptor molecule, acceptor atom, score
      L1  H     3    26       P1  7948  0.78
      L1  H    10    31       P1  7948  0.61
      P1  H  7997  8008       L1    16  0.95

> <Gold.Chemscore.Hbond.Weighted>
-10.9621

> <Gold.Chemscore.Metal.Weighted>
-0.0000

> <Gold.Chemscore.Lipo.Weighted>
-11.0248

> <Gold.Chemscore.Internal_Hbond.Weighted>
0.0000

> <Gold.Chemscore.DEClash.Weighted>
0.0106

> <Gold.Chemscore.DEInternal.Weighted>
0.8910

> <Gold.Chemscore.Rot.Weighted>
3.1812

> <Gold.Chemscore.Internal.Correction.Weighted>
   9.000000E+99

> <Gold.Protein.RotatedTorsions>
[ 6907 6896 6895 6894 ] final  -93.67 input  -60.11 | X-H torsion
[ 7974 7965 7964 7962 ] final   29.34 input  175.53 | X-H torsion
[ 8008 7997 7996 7995 ] final  -63.52 input   59.86 | X-H torsion
[ 10167 10162 10161 10158 ] final   53.80 input  -65.29 | X-H torsion
[ 10718 10713 10712 10709 ] final  135.13 input   66.30 | X-H torsion
[ 10763 10752 10751 10750 ] final  136.80 input  -60.55 | X-H torsion
[ 11005 11000 10999 10996 ] final  108.98 input  -57.11 | X-H torsion

> <Gold.Protein.ActiveResidues>
 VAL166  LYS551  ARG553  GLY616  TRP617  ASP618  TYR619  PRO620  LYS621  CYS622 
 ASP623  PHE694  ASN695  SER759  ASP760  ASP761  ALA762  ILE779  LEU786  VAL792 
 PHE793  MET794  SER795  GLU796  ALA797  LYS798  CYS799  TRP800  GLU811  SER814 

> <Gold.Protein.RotatedAtoms>
  150.6927  134.1931  159.4292 H   0  0  0  0  0  0  0  0  0  0  0  0  # atno 6907 bound_to 6896
  151.9901  134.9981  160.0570 H   0  0  0  0  0  0  0  0  0  0  0  0  # atno 6908 bound_to 6896
  152.1675  133.4587  159.4929 H   0  0  0  0  0  0  0  0  0  0  0  0  # atno 6909 bound_to 6896
  146.1677  139.6934  142.8989 H   0  0  0  0  0  0  0  0  0  0  0  0  # atno 7974 bound_to 7965
  154.4559  140.0973  156.6756 H   0  0  0  0  0  0  0  0  0  0  0  0  # atno 8008 bound_to 7997
  155.5140  140.3477  155.4375 H   0  0  0  0  0  0  0  0  0  0  0  0  # atno 8009 bound_to 7997
  156.0776  140.1365  156.9741 H   0  0  0  0  0  0  0  0  0  0  0  0  # atno 8010 bound_to 7997
  140.2369  144.3626  150.6394 H   0  0  0  0  0  0  0  0  0  0  0  0  # atno 10167 bound_to 10162
  157.4602  131.1073  150.9928 H   0  0  0  0  0  0  0  0  0  0  0  0  # atno 10718 bound_to 10713
  153.8626  135.3065  155.3438 H   0  0  0  0  0  0  0  0  0  0  0  0  # atno 10763 bound_to 10752
  154.7842  135.4819  153.9913 H   0  0  0  0  0  0  0  0  0  0  0  0  # atno 10764 bound_to 10752
  153.1453  135.6832  153.9059 H   0  0  0  0  0  0  0  0  0  0  0  0  # atno 10765 bound_to 10752
  139.8853  134.9445  156.6055 H   0  0  0  0  0  0  0  0  0  0  0  0  # atno 11005 bound_to 11000
  145.4424  141.0423  143.2850 LP  0  0  0  0  0  0  0  0  0  0  0  0  # atno 17320 bound_to 7965
  144.8116  139.5951  143.7027 LP  0  0  0  0  0  0  0  0  0  0  0  0  # atno 17321 bound_to 7965
  140.6143  143.2171  151.6823 LP  0  0  0  0  0  0  0  0  0  0  0  0  # atno 17342 bound_to 10162
  139.5091  144.3590  152.0580 LP  0  0  0  0  0  0  0  0  0  0  0  0  # atno 17343 bound_to 10162
  157.0728  130.5871  149.5405 LP  0  0  0  0  0  0  0  0  0  0  0  0  # atno 17370 bound_to 10713
  156.0025  130.5107  150.7715 LP  0  0  0  0  0  0  0  0  0  0  0  0  # atno 17371 bound_to 10713
  140.7851  133.8628  155.8599 LP  0  0  0  0  0  0  0  0  0  0  0  0  # atno 17394 bound_to 11000
  140.9726  134.1511  157.4563 LP  0  0  0  0  0  0  0  0  0  0  0  0  # atno 17395 bound_to 11000

$$$$
