AV-unprocessed.smi:1634|AV-procd|sdf|6538|dock2
  -GOLD-   22720 7223D 1   1.00000     0.00000
 Structure written by MMmdl.
 37 37  0  0  0  0  0  0  0  0  2 V2000
  153.7397  136.2646  164.2682 C   0  0  0  0  0  0  0  0  0  0  0  0
  155.1603  136.8470  164.3069 C   0  0  0  0  0  0  0  0  0  0  0  0
  155.2400  138.0266  165.2889 C   0  0  0  0  0  0  0  0  0  0  0  0
  155.6271  137.2531  162.9000 C   0  0  0  0  0  0  0  0  0  0  0  0
  155.0277  138.4954  162.5467 O   0  0  0  0  0  0  0  0  0  0  0  0
  155.5125  139.0915  161.3463 C   0  0  2  0  0  0  0  0  0  0  0  0
  156.9944  139.4315  161.5637 C   0  0  0  0  0  0  0  0  0  0  0  0
  154.6941  140.3477  161.0060 C   0  0  0  0  0  0  0  0  0  0  0  0
  154.7628  141.3303  161.7440 O   0  0  0  0  0  0  0  0  0  0  0  0
  153.9217  140.2476  159.9063 N   0  0  0  0  0  0  0  0  0  0  0  0
  153.0503  141.1845  159.3244 C   0  0  0  0  0  0  0  0  0  0  0  0
  152.7301  142.3955  159.8597 C   0  0  0  0  0  0  0  0  0  0  0  0
  151.8201  143.3229  159.1981 C   0  0  0  0  0  0  0  0  0  0  0  0
  151.4083  144.6695  159.7641 C   0  0  0  0  0  0  0  0  0  0  0  0
  151.8819  145.6531  159.0001 F   0  0  0  0  0  0  0  0  0  0  0  0
  150.0798  144.7725  159.7917 F   0  0  0  0  0  0  0  0  0  0  0  0
  151.8699  144.8400  161.0032 F   0  0  0  0  0  0  0  0  0  0  0  0
  151.3498  142.8317  157.9968 C   0  0  0  0  0  0  0  0  0  0  0  0
  151.6261  141.6561  157.3918 N   0  5  0  0  0  0  0  0  0  0  0  0
  152.4739  140.7938  158.0205 C   0  0  0  0  0  0  0  0  0  0  0  0
  152.7668  139.7046  157.5260 O   0  0  0  0  0  0  0  0  0  0  0  0
  153.0197  137.0015  163.9106 H   0  0  0  0  0  0  0  0  0  0  0  0
  153.4199  135.9397  165.2588 H   0  0  0  0  0  0  0  0  0  0  0  0
  153.6865  135.3996  163.6064 H   0  0  0  0  0  0  0  0  0  0  0  0
  155.8268  136.0627  164.6681 H   0  0  0  0  0  0  0  0  0  0  0  0
  154.5954  138.8478  164.9743 H   0  0  0  0  0  0  0  0  0  0  0  0
  156.2568  138.4134  165.3631 H   0  0  0  0  0  0  0  0  0  0  0  0
  154.9317  137.7261  166.2906 H   0  0  0  0  0  0  0  0  0  0  0  0
  156.7124  137.3635  162.8859 H   0  0  0  0  0  0  0  0  0  0  0  0
  155.3716  136.4684  162.1866 H   0  0  0  0  0  0  0  0  0  0  0  0
  155.4449  138.3691  160.5301 H   0  0  0  0  0  0  0  0  0  0  0  0
  157.4230  139.9150  160.6851 H   0  0  0  0  0  0  0  0  0  0  0  0
  157.5728  138.5278  161.7563 H   0  0  0  0  0  0  0  0  0  0  0  0
  157.1331  140.0984  162.4157 H   0  0  0  0  0  0  0  0  0  0  0  0
  153.9359  139.3538  159.4362 H   0  0  0  0  0  0  0  0  0  0  0  0
  153.1536  142.7175  160.7957 H   0  0  0  0  0  0  0  0  0  0  0  0
  150.6428  143.4837  157.4403 H   0  0  0  0  0  0  0  0  0  0  0  0
  1  2  1  0  0  0  0
  1 22  1  0  0  0  0
  1 23  1  0  0  0  0
  1 24  1  0  0  0  0
  2  3  1  0  0  0  0
  2  4  1  0  0  0  0
  2 25  1  0  0  0  0
  3 26  1  0  0  0  0
  3 27  1  0  0  0  0
  3 28  1  0  0  0  0
  4  5  1  0  0  0  0
  4 29  1  0  0  0  0
  4 30  1  0  0  0  0
  5  6  1  0  0  0  0
  6  7  1  0  0  0  0
  6  8  1  0  0  0  0
  6 31  1  0  0  0  0
  7 32  1  0  0  0  0
  7 33  1  0  0  0  0
  7 34  1  0  0  0  0
  8  9  2  0  0  0  0
  8 10  1  0  0  0  0
 10 11  1  0  0  0  0
 10 35  1  0  0  0  0
 11 20  1  0  0  0  0
 11 12  2  0  0  0  0
 12 13  1  0  0  0  0
 12 36  1  0  0  0  0
 13 14  1  0  0  0  0
 13 18  2  0  0  0  0
 14 15  1  0  0  0  0
 14 16  1  0  0  0  0
 14 17  1  0  0  0  0
 18 19  1  0  0  0  0
 18 37  1  0  0  0  0
 19 20  1  0  0  0  0
 20 21  2  0  0  0  0
M  CHG  1  19  -1
M  END
> <s_m_source_file>
AV-unprocessed.smi

> <i_m_source_file_index>
1634

> <i_lp_mmshare_version>
43012

> <i_f3d_flags>
0

> <s_epik_input>
W0NIM11bQ0hdKFtDSDNdKVtDSDJdT1tDQEhdKFtDSDNdKUMoPU8pW05IXWMxW2NIXWMoQyhGKShGKUYpW2NIXVtuSF1jMT1P

> <s_epik_cmdline>
J2VwaWtfcHl0aG9uJywgJy1waCcsICc3LjAnLCAnLXRuJywgJzgnLCAnLW1hJywgJzIwMCcsICctbWV0YWxfYmluZGluZycsICctaW1hZScsICc8aW5maWxlLm1hZT4nLCAnLW9tYWUnLCAnPG91dGZpbGUubWFlPic=

> <r_epik_Ionization_Penalty>
2.55349

> <r_epik_Ionization_Penalty_Charging>
0.0582825

> <r_epik_Ionization_Penalty_Neutral>
2.49521

> <r_epik_State_Penalty>
2.65983

> <r_epik_Charging_Adjusted_Penalty>
2.71812

> <i_epik_Tot_Q>
-1

> <i_epik_Tot_abs_Q>
1

> <r_epik_Metal_State_Penalty>
0.516727

> <b_epik_Metal_Only>
0

> <s_lp_Force_Field>
OPLS_2005

> <r_lp_Energy>
22.0513

> <b_lp_Chiralities_Consistent>
1

> <s_lp_Variant>
AV-unprocessed.smi:1634-3

> <Gold.Version>
5.8.1

> <Gold.Id.Protein>
6NUR|6NUR_protein|mol2

> <Gold.PLP.Fitness>
43.9660

> <Gold.PLP.PLP>
-41.7122

> <Gold.PLP.part.hbond>
-2.0000

> <Gold.PLP.part.metal>
0.0000

> <Gold.PLP.part.buried>
-1.8084

> <Gold.PLP.part.nonpolar>
-36.0521

> <Gold.PLP.part.repulsive>
0.0945

> <Gold.PLP.ligand.clash>
0.0000

> <Gold.PLP.ligand.torsion>
0.4347

> <Gold.PLP.Chemscore.Hbond>
1.0000

> <Gold.PLP.Chemscore.CHOScore>
0.0000

> <Gold.PLP.Chemscore.Metal>
0.0000

> <Gold.Chemscore.Hbonds>
donor molecule, donor type, donor heavy atom, donor atom, acceptor molecule, acceptor atom, score
      P1  H  7997  8010       L1    21  1.00

> <Gold.PLP.Chemscore.Internal.Correction>
0.1231

> <Gold.Rescore>
     Score         DG    S(hbond)    S(metal)    S(lipo)     H(rot)  DE(clash)    DE(int)     intcor
     10.68     -14.30       0.85        0.00      89.36       1.75       2.19       1.43       ----

> <Gold.Chemscore.Fitness>
10.6782

> <Gold.Chemscore.DG>
-14.2989

> <Gold.Chemscore.ZeroCoef>
-5.4800

> <Gold.Chemscore.Hbond>
0.8543

> <Gold.Chemscore.Metal>
0.0000

> <Gold.Chemscore.Lipo>
89.3611

> <Gold.Chemscore.Internal_Hbond>
0.0000

> <Gold.Chemscore.DEClash>
2.1873

> <Gold.Chemscore.DEInternal>
1.4334

> <Gold.Chemscore.Rot>
1.7538

> <Gold.Chemscore.Internal.Correction>
   9.000000E+99

> <Gold.Chemscore.Hbonds>
donor molecule, donor type, donor heavy atom, donor atom, acceptor molecule, acceptor atom, score
      P1  H  7997  8010       L1    21  0.25

> <Gold.Chemscore.Hbond.Weighted>
-2.8534

> <Gold.Chemscore.Metal.Weighted>
-0.0000

> <Gold.Chemscore.Lipo.Weighted>
-10.4553

> <Gold.Chemscore.Internal_Hbond.Weighted>
0.0000

> <Gold.Chemscore.DEClash.Weighted>
2.1873

> <Gold.Chemscore.DEInternal.Weighted>
1.4334

> <Gold.Chemscore.Rot.Weighted>
4.4898

> <Gold.Chemscore.Internal.Correction.Weighted>
   9.000000E+99

> <Gold.Protein.RotatedTorsions>
[ 6907 6896 6895 6894 ] final  -51.25 input  -60.11 | X-H torsion
[ 7974 7965 7964 7962 ] final -131.19 input  175.53 | X-H torsion
[ 8008 7997 7996 7995 ] final   35.78 input   59.86 | X-H torsion
[ 10167 10162 10161 10158 ] final -130.99 input  -65.29 | X-H torsion
[ 10718 10713 10712 10709 ] final -140.23 input   66.30 | X-H torsion
[ 10763 10752 10751 10750 ] final  119.00 input  -60.55 | X-H torsion
[ 11005 11000 10999 10996 ] final   51.35 input  -57.11 | X-H torsion

> <Gold.Protein.ActiveResidues>
 VAL166  LYS551  ARG553  GLY616  TRP617  ASP618  TYR619  PRO620  LYS621  CYS622 
 ASP623  PHE694  ASN695  SER759  ASP760  ASP761  ALA762  ILE779  LEU786  VAL792 
 PHE793  MET794  SER795  GLU796  ALA797  LYS798  CYS799  TRP800  GLU811  SER814 

> <Gold.Protein.RotatedAtoms>
  150.8629  134.7985  159.7096 H   0  0  0  0  0  0  0  0  0  0  0  0  # atno 6907 bound_to 6896
  152.4660  134.5071  159.9752 H   0  0  0  0  0  0  0  0  0  0  0  0  # atno 6908 bound_to 6896
  151.5172  133.3435  159.2930 H   0  0  0  0  0  0  0  0  0  0  0  0  # atno 6909 bound_to 6896
  144.9403  140.7231  143.4851 H   0  0  0  0  0  0  0  0  0  0  0  0  # atno 7974 bound_to 7965
  155.1767  140.3296  155.4382 H   0  0  0  0  0  0  0  0  0  0  0  0  # atno 8008 bound_to 7997
  156.2491  140.1934  156.6817 H   0  0  0  0  0  0  0  0  0  0  0  0  # atno 8009 bound_to 7997
  154.6300  140.0584  156.9706 H   0  0  0  0  0  0  0  0  0  0  0  0  # atno 8010 bound_to 7997
  139.9235  143.6354  152.2547 H   0  0  0  0  0  0  0  0  0  0  0  0  # atno 10167 bound_to 10162
  156.3199  130.7528  151.1624 H   0  0  0  0  0  0  0  0  0  0  0  0  # atno 10718 bound_to 10713
  153.5763  135.3492  155.2857 H   0  0  0  0  0  0  0  0  0  0  0  0  # atno 10763 bound_to 10752
  154.8674  135.4171  154.2669 H   0  0  0  0  0  0  0  0  0  0  0  0  # atno 10764 bound_to 10752
  153.3446  135.7052  153.6909 H   0  0  0  0  0  0  0  0  0  0  0  0  # atno 10765 bound_to 10752
  140.0940  134.5170  155.8824 H   0  0  0  0  0  0  0  0  0  0  0  0  # atno 11005 bound_to 11000
  145.3002  139.1853  143.4694 LP  0  0  0  0  0  0  0  0  0  0  0  0  # atno 17320 bound_to 7965
  146.3283  140.2991  142.8619 LP  0  0  0  0  0  0  0  0  0  0  0  0  # atno 17321 bound_to 7965
  139.6841  144.7653  151.1555 LP  0  0  0  0  0  0  0  0  0  0  0  0  # atno 17342 bound_to 10162
  140.7656  143.5682  150.9024 LP  0  0  0  0  0  0  0  0  0  0  0  0  # atno 17343 bound_to 10162
  157.7409  131.0510  150.5130 LP  0  0  0  0  0  0  0  0  0  0  0  0  # atno 17370 bound_to 10713
  156.5281  130.4178  149.6215 LP  0  0  0  0  0  0  0  0  0  0  0  0  # atno 17371 bound_to 10713
  141.2086  133.6676  156.6386 LP  0  0  0  0  0  0  0  0  0  0  0  0  # atno 17394 bound_to 11000
  140.3312  134.7927  157.4327 LP  0  0  0  0  0  0  0  0  0  0  0  0  # atno 17395 bound_to 11000

$$$$
