AV-unprocessed.smi:1355|AV-procd|sdf|5537|dock2
  -GOLD-   22720 5133D 1   1.00000     0.00000
 Structure written by MMmdl.
 32 33  0  0  0  0  0  0  0  0  1 V2000
  148.8537  140.5022  154.7533 C   0  0  0  0  0  0  0  0  0  0  0  0
  150.1891  140.2404  155.1460 O   0  0  0  0  0  0  0  0  0  0  0  0
  150.4891  140.7521  156.4332 C   0  0  0  0  0  0  0  0  0  0  0  0
  151.9827  140.5702  156.7379 C   0  0  0  0  0  0  0  0  0  0  0  0
  152.3626  141.1583  158.0166 N   0  0  0  0  0  0  0  0  0  0  0  0
  153.0816  140.6174  159.0378 C   0  0  0  0  0  0  0  0  0  0  0  0
  153.6519  139.2246  159.0084 C   0  0  1  0  0  0  0  0  0  0  0  0
  152.5616  138.1540  158.8531 C   0  0  0  0  0  0  0  0  0  0  0  0
  154.5874  139.0649  157.9625 O   0  0  0  0  0  0  0  0  0  0  0  0
  153.2406  141.4023  160.1065 N   0  0  0  0  0  0  0  0  0  0  0  0
  152.5932  142.5633  159.7371 C   0  0  0  0  0  0  0  0  0  0  0  0
  152.4196  143.7796  160.4357 C   0  0  0  0  0  0  0  0  0  0  0  0
  151.7118  144.8468  159.8454 C   0  0  0  0  0  0  0  0  0  0  0  0
  151.1679  144.7126  158.5515 C   0  0  0  0  0  0  0  0  0  0  0  0
  151.3274  143.5080  157.8400 C   0  0  0  0  0  0  0  0  0  0  0  0
  152.0356  142.4454  158.4336 C   0  0  0  0  0  0  0  0  0  0  0  0
  148.6732  140.0800  153.7652 H   0  0  0  0  0  0  0  0  0  0  0  0
  148.6626  141.5746  154.7005 H   0  0  0  0  0  0  0  0  0  0  0  0
  148.1420  140.0528  155.4469 H   0  0  0  0  0  0  0  0  0  0  0  0
  150.2279  141.8104  156.4855 H   0  0  0  0  0  0  0  0  0  0  0  0
  149.8939  140.2330  157.1858 H   0  0  0  0  0  0  0  0  0  0  0  0
  152.2172  139.5059  156.7687 H   0  0  0  0  0  0  0  0  0  0  0  0
  152.6005  140.9777  155.9392 H   0  0  0  0  0  0  0  0  0  0  0  0
  154.1852  139.0153  159.9322 H   0  0  0  0  0  0  0  0  0  0  0  0
  151.8328  138.2127  159.6613 H   0  0  0  0  0  0  0  0  0  0  0  0
  152.9904  137.1516  158.8700 H   0  0  0  0  0  0  0  0  0  0  0  0
  152.0206  138.2671  157.9129 H   0  0  0  0  0  0  0  0  0  0  0  0
  154.4045  138.2466  157.5264 H   0  0  0  0  0  0  0  0  0  0  0  0
  152.8330  143.8916  161.4270 H   0  0  0  0  0  0  0  0  0  0  0  0
  151.5858  145.7725  160.3875 H   0  0  0  0  0  0  0  0  0  0  0  0
  150.6279  145.5350  158.1057 H   0  0  0  0  0  0  0  0  0  0  0  0
  150.9112  143.4036  156.8491 H   0  0  0  0  0  0  0  0  0  0  0  0
  1  2  1  0  0  0  0
  1 17  1  0  0  0  0
  1 18  1  0  0  0  0
  1 19  1  0  0  0  0
  2  3  1  0  0  0  0
  3  4  1  0  0  0  0
  3 20  1  0  0  0  0
  3 21  1  0  0  0  0
  4  5  1  0  0  0  0
  4 22  1  0  0  0  0
  4 23  1  0  0  0  0
  5 16  1  0  0  0  0
  5  6  1  0  0  0  0
  6  7  1  0  0  0  0
  6 10  2  0  0  0  0
  7  8  1  0  0  0  0
  7  9  1  0  0  0  0
  7 24  1  0  0  0  0
  8 25  1  0  0  0  0
  8 26  1  0  0  0  0
  8 27  1  0  0  0  0
  9 28  1  0  0  0  0
 10 11  1  0  0  0  0
 11 16  2  0  0  0  0
 11 12  1  0  0  0  0
 12 13  2  0  0  0  0
 12 29  1  0  0  0  0
 13 14  1  0  0  0  0
 13 30  1  0  0  0  0
 14 15  2  0  0  0  0
 14 31  1  0  0  0  0
 15 16  1  0  0  0  0
 15 32  1  0  0  0  0
M  END
> <s_m_source_file>
AV-unprocessed.smi

> <i_m_source_file_index>
1355

> <i_lp_mmshare_version>
43012

> <i_f3d_flags>
0

> <s_epik_input>
W0NIM11PW0NIMl1bQ0gyXW4oYyhuMSlbQ0BIXShbQ0gzXSlbT0hdKWMoYzEyKVtjSF1bY0hdW2NIXVtjSF0y

> <s_epik_cmdline>
J2VwaWtfcHl0aG9uJywgJy1waCcsICc3LjAnLCAnLXRuJywgJzgnLCAnLW1hJywgJzIwMCcsICctbWV0YWxfYmluZGluZycsICctaW1hZScsICc8aW5maWxlLm1hZT4nLCAnLW9tYWUnLCAnPG91dGZpbGUubWFlPic=

> <r_epik_Ionization_Penalty>
0.055138

> <r_epik_Ionization_Penalty_Charging>
0

> <r_epik_Ionization_Penalty_Neutral>
0.055138

> <r_epik_State_Penalty>
0.0474756

> <r_epik_Charging_Adjusted_Penalty>
0.0474756

> <i_epik_Tot_Q>
0

> <i_epik_Tot_abs_Q>
0

> <r_epik_Metal_State_Penalty>
4.94275e-05

> <b_epik_Metal_Only>
0

> <s_lp_Force_Field>
OPLS_2005

> <r_lp_Energy>
6.46782

> <b_lp_Chiralities_Consistent>
1

> <s_lp_Variant>
AV-unprocessed.smi:1355-2

> <Gold.Version>
5.8.1

> <Gold.Id.Protein>
6NUR|6NUR_protein|mol2

> <Gold.PLP.Fitness>
43.6967

> <Gold.PLP.PLP>
-38.1615

> <Gold.PLP.part.hbond>
-2.0000

> <Gold.PLP.part.metal>
0.0000

> <Gold.PLP.part.buried>
-5.8298

> <Gold.PLP.part.nonpolar>
-30.2601

> <Gold.PLP.part.repulsive>
0.0863

> <Gold.PLP.ligand.clash>
0.0000

> <Gold.PLP.ligand.torsion>
0.1285

> <Gold.PLP.Chemscore.Hbond>
1.9280

> <Gold.PLP.Chemscore.CHOScore>
0.0000

> <Gold.PLP.Chemscore.Metal>
0.0000

> <Gold.Chemscore.Hbonds>
donor molecule, donor type, donor heavy atom, donor atom, acceptor molecule, acceptor atom, score
      P1  H  7989  7998       L1     2  0.39
      P1  H  7997  8010       L1     9  0.24

> <Gold.PLP.Chemscore.Internal.Correction>
0.0082

> <Gold.Rescore>
     Score         DG    S(hbond)    S(metal)    S(lipo)     H(rot)  DE(clash)    DE(int)     intcor
     17.46     -17.87       1.75        0.00     100.42       2.04       0.40       0.01       ----

> <Gold.Chemscore.Fitness>
17.4572

> <Gold.Chemscore.DG>
-17.8694

> <Gold.Chemscore.ZeroCoef>
-5.4800

> <Gold.Chemscore.Hbond>
1.7546

> <Gold.Chemscore.Metal>
0.0000

> <Gold.Chemscore.Lipo>
100.4187

> <Gold.Chemscore.Internal_Hbond>
0.0000

> <Gold.Chemscore.DEClash>
0.3995

> <Gold.Chemscore.DEInternal>
0.0128

> <Gold.Chemscore.Rot>
2.0390

> <Gold.Chemscore.Internal.Correction>
   9.000000E+99

> <Gold.Chemscore.Hbonds>
donor molecule, donor type, donor heavy atom, donor atom, acceptor molecule, acceptor atom, score
      P1  H  7989  7998       L1     2  0.26
      P1  H  7997  8010       L1     9  0.20

> <Gold.Chemscore.Hbond.Weighted>
-5.8603

> <Gold.Chemscore.Metal.Weighted>
-0.0000

> <Gold.Chemscore.Lipo.Weighted>
-11.7490

> <Gold.Chemscore.Internal_Hbond.Weighted>
0.0000

> <Gold.Chemscore.DEClash.Weighted>
0.3995

> <Gold.Chemscore.DEInternal.Weighted>
0.0128

> <Gold.Chemscore.Rot.Weighted>
5.2199

> <Gold.Chemscore.Internal.Correction.Weighted>
   9.000000E+99

> <Gold.Protein.RotatedTorsions>
[ 6907 6896 6895 6894 ] final  177.40 input  -60.11 | X-H torsion
[ 7974 7965 7964 7962 ] final  -75.02 input  175.53 | X-H torsion
[ 8008 7997 7996 7995 ] final   20.15 input   59.86 | X-H torsion
[ 10167 10162 10161 10158 ] final -161.32 input  -65.29 | X-H torsion
[ 10718 10713 10712 10709 ] final   45.80 input   66.30 | X-H torsion
[ 10763 10752 10751 10750 ] final  108.34 input  -60.55 | X-H torsion
[ 11005 11000 10999 10996 ] final  -36.85 input  -57.11 | X-H torsion

> <Gold.Protein.ActiveResidues>
 VAL166  LYS551  ARG553  GLY616  TRP617  ASP618  TYR619  PRO620  LYS621  CYS622 
 ASP623  PHE694  ASN695  SER759  ASP760  ASP761  ALA762  ILE779  LEU786  VAL792 
 PHE793  MET794  SER795  GLU796  ALA797  LYS798  CYS799  TRP800  GLU811  SER814 

> <Gold.Protein.RotatedAtoms>
  151.7046  133.3311  159.3274 H   0  0  0  0  0  0  0  0  0  0  0  0  # atno 6907 bound_to 6896
  150.7721  134.6586  159.6336 H   0  0  0  0  0  0  0  0  0  0  0  0  # atno 6908 bound_to 6896
  152.3749  134.6681  160.0215 H   0  0  0  0  0  0  0  0  0  0  0  0  # atno 6909 bound_to 6896
  145.6315  140.9336  143.1084 H   0  0  0  0  0  0  0  0  0  0  0  0  # atno 7974 bound_to 7965
  154.9313  140.3040  155.5166 H   0  0  0  0  0  0  0  0  0  0  0  0  # atno 8008 bound_to 7997
  156.3003  140.2353  156.4310 H   0  0  0  0  0  0  0  0  0  0  0  0  # atno 8009 bound_to 7997
  154.8235  140.0422  157.1416 H   0  0  0  0  0  0  0  0  0  0  0  0  # atno 8010 bound_to 7997
  139.6473  144.0148  152.2137 H   0  0  0  0  0  0  0  0  0  0  0  0  # atno 10167 bound_to 10162
  157.4414  130.8084  149.7698 H   0  0  0  0  0  0  0  0  0  0  0  0  # atno 10718 bound_to 10713
  153.4194  135.3815  155.2101 H   0  0  0  0  0  0  0  0  0  0  0  0  # atno 10763 bound_to 10752
  154.8743  135.3813  154.4403 H   0  0  0  0  0  0  0  0  0  0  0  0  # atno 10764 bound_to 10752
  153.4921  135.7088  153.5941 H   0  0  0  0  0  0  0  0  0  0  0  0  # atno 10765 bound_to 10752
  140.9907  133.7006  156.1844 H   0  0  0  0  0  0  0  0  0  0  0  0  # atno 11005 bound_to 11000
  144.7191  139.8090  143.7388 LP  0  0  0  0  0  0  0  0  0  0  0  0  # atno 17320 bound_to 7965
  146.1352  139.4396  143.0143 LP  0  0  0  0  0  0  0  0  0  0  0  0  # atno 17321 bound_to 7965
  139.9853  144.6400  150.7863 LP  0  0  0  0  0  0  0  0  0  0  0  0  # atno 17342 bound_to 10162
  140.7521  143.2984  151.3144 LP  0  0  0  0  0  0  0  0  0  0  0  0  # atno 17343 bound_to 10162
  155.9950  130.3914  150.2835 LP  0  0  0  0  0  0  0  0  0  0  0  0  # atno 17370 bound_to 10713
  157.1000  131.0193  151.3089 LP  0  0  0  0  0  0  0  0  0  0  0  0  # atno 17371 bound_to 10713
  140.7045  134.4528  157.5585 LP  0  0  0  0  0  0  0  0  0  0  0  0  # atno 17394 bound_to 11000
  139.8991  134.8599  156.1975 LP  0  0  0  0  0  0  0  0  0  0  0  0  # atno 17395 bound_to 11000

$$$$
