AV-unprocessed.smi:3193|AV-procd|sdf|12202|dock9
  -GOLD-   2272018 33D 1   1.00000     0.00000
 Structure written by MMmdl.
 40 41  0  0  0  0  0  0  0  0  2 V2000
  149.9920  144.0500  158.8858 C   0  0  0  0  0  0  0  0  0  0  0  0
  151.1643  143.6845  157.9523 C   0  0  1  0  0  0  0  0  0  0  0  0
  152.5033  144.2475  158.4748 C   0  0  0  0  0  0  0  0  0  0  0  0
  153.0221  143.4804  159.7027 C   0  0  0  0  0  0  0  0  0  0  0  0
  153.1375  141.9777  159.4100 C   0  0  0  0  0  0  0  0  0  0  0  0
  151.8078  141.3999  158.9002 C   0  0  0  0  0  0  0  0  0  0  0  0
  151.2956  142.1655  157.6592 C   0  0  1  0  0  0  0  0  0  0  0  0
  150.0003  141.5567  157.0849 C   0  0  0  0  0  0  0  0  0  0  0  0
  149.7348  142.0351  155.7132 N   0  3  0  0  0  0  0  0  0  0  0  0
  148.6277  141.3326  155.0363 C   0  0  0  0  0  0  0  0  0  0  0  0
  149.0878  139.9742  154.4906 C   0  0  0  0  0  0  0  0  0  0  0  0
  148.0215  139.3006  153.7776 N   0  0  0  0  0  0  0  0  0  0  0  0
  147.4644  139.6679  152.5598 C   0  0  0  0  0  0  0  0  0  0  0  0
  146.4937  138.7343  152.2744 C   0  0  0  0  0  0  0  0  0  0  0  0
  146.4378  137.7893  153.2962 N   0  0  0  0  0  0  0  0  0  0  0  0
  147.3698  138.1906  154.1506 C   0  0  0  0  0  0  0  0  0  0  0  0
  150.0665  143.5565  159.8543 H   0  0  0  0  0  0  0  0  0  0  0  0
  149.0310  143.7795  158.4489 H   0  0  0  0  0  0  0  0  0  0  0  0
  149.9635  145.1243  159.0691 H   0  0  0  0  0  0  0  0  0  0  0  0
  150.9642  144.1837  157.0031 H   0  0  0  0  0  0  0  0  0  0  0  0
  153.2498  144.1900  157.6812 H   0  0  0  0  0  0  0  0  0  0  0  0
  152.4017  145.3068  158.7133 H   0  0  0  0  0  0  0  0  0  0  0  0
  153.9943  143.8745  160.0001 H   0  0  0  0  0  0  0  0  0  0  0  0
  152.3565  143.6402  160.5513 H   0  0  0  0  0  0  0  0  0  0  0  0
  153.9162  141.8118  158.6645 H   0  0  0  0  0  0  0  0  0  0  0  0
  153.4538  141.4473  160.3087 H   0  0  0  0  0  0  0  0  0  0  0  0
  151.9506  140.3457  158.6618 H   0  0  0  0  0  0  0  0  0  0  0  0
  151.0639  141.4310  159.6970 H   0  0  0  0  0  0  0  0  0  0  0  0
  152.0590  142.0692  156.8847 H   0  0  0  0  0  0  0  0  0  0  0  0
  150.0552  140.4674  157.0803 H   0  0  0  0  0  0  0  0  0  0  0  0
  149.1535  141.8339  157.7144 H   0  0  0  0  0  0  0  0  0  0  0  0
  149.5126  143.0194  155.7551 H   0  0  0  0  0  0  0  0  0  0  0  0
  147.8059  141.1943  155.7404 H   0  0  0  0  0  0  0  0  0  0  0  0
  148.2540  141.9546  154.2216 H   0  0  0  0  0  0  0  0  0  0  0  0
  149.9337  140.0997  153.8130 H   0  0  0  0  0  0  0  0  0  0  0  0
  149.4231  139.3280  155.3030 H   0  0  0  0  0  0  0  0  0  0  0  0
  147.7937  140.5378  152.0108 H   0  0  0  0  0  0  0  0  0  0  0  0
  145.8370  138.6701  151.4193 H   0  0  0  0  0  0  0  0  0  0  0  0
  147.5848  137.6626  155.0682 H   0  0  0  0  0  0  0  0  0  0  0  0
  150.5753  141.9163  155.1653 H   0  0  0  0  0  0  0  0  0  0  0  0
  1  2  1  0  0  0  0
  1 17  1  0  0  0  0
  1 18  1  0  0  0  0
  1 19  1  0  0  0  0
  2  7  1  0  0  0  0
  2  3  1  0  0  0  0
  2 20  1  0  0  0  0
  3  4  1  0  0  0  0
  3 21  1  0  0  0  0
  3 22  1  0  0  0  0
  4  5  1  0  0  0  0
  4 23  1  0  0  0  0
  4 24  1  0  0  0  0
  5  6  1  0  0  0  0
  5 25  1  0  0  0  0
  5 26  1  0  0  0  0
  6  7  1  0  0  0  0
  6 27  1  0  0  0  0
  6 28  1  0  0  0  0
  7  8  1  0  0  0  0
  7 29  1  0  0  0  0
  8  9  1  0  0  0  0
  8 30  1  0  0  0  0
  8 31  1  0  0  0  0
  9 10  1  0  0  0  0
  9 32  1  0  0  0  0
  9 40  1  0  0  0  0
 10 11  1  0  0  0  0
 10 33  1  0  0  0  0
 10 34  1  0  0  0  0
 11 12  1  0  0  0  0
 11 35  1  0  0  0  0
 11 36  1  0  0  0  0
 12 16  1  0  0  0  0
 12 13  1  0  0  0  0
 13 14  2  0  0  0  0
 13 37  1  0  0  0  0
 14 15  1  0  0  0  0
 14 38  1  0  0  0  0
 15 16  2  0  0  0  0
 16 39  1  0  0  0  0
M  CHG  1   9   1
M  END
> <s_m_source_file>
AV-unprocessed.smi

> <i_m_source_file_index>
3193

> <i_lp_mmshare_version>
43012

> <i_f3d_flags>
0

> <s_epik_input>
W0NIM11bQ0BASF0xW0NIMl1bQ0gyXVtDSDJdW0NIMl1bQ0BIXTFbQ0gyXVtOSF1bQ0gyXVtDSDJdbjJbY0hdW2NIXW5bY0hdMg==

> <s_epik_cmdline>
J2VwaWtfcHl0aG9uJywgJy1waCcsICc3LjAnLCAnLXRuJywgJzgnLCAnLW1hJywgJzIwMCcsICctbWV0YWxfYmluZGluZycsICctaW1hZScsICc8aW5maWxlLm1hZT4nLCAnLW9tYWUnLCAnPG91dGZpbGUubWFlPic=

> <r_lp_tautomer_probability>
1

> <r_epik_Ionization_Penalty>
0.0503046

> <r_epik_Ionization_Penalty_Charging>
0.0503046

> <r_epik_Ionization_Penalty_Neutral>
0

> <r_epik_State_Penalty>
0.0981804

> <r_epik_Charging_Adjusted_Penalty>
0.148485

> <i_epik_Tot_Q>
1

> <i_epik_Tot_abs_Q>
1

> <r_epik_Metal_State_Penalty>
0.000105854

> <b_epik_Metal_Only>
0

> <s_lp_Force_Field>
OPLS_2005

> <r_lp_Energy>
20.219

> <b_lp_Chiralities_Consistent>
1

> <s_lp_Variant>
AV-unprocessed.smi:3193-2

> <Gold.Version>
5.8.1

> <Gold.Id.Protein>
6NUR|6NUR_protein|mol2

> <Gold.PLP.Fitness>
43.8355

> <Gold.PLP.PLP>
-33.6607

> <Gold.PLP.part.hbond>
-1.0000

> <Gold.PLP.part.metal>
0.0000

> <Gold.PLP.part.buried>
0.3439

> <Gold.PLP.part.nonpolar>
-34.4531

> <Gold.PLP.part.repulsive>
0.3493

> <Gold.PLP.ligand.clash>
0.0000

> <Gold.PLP.ligand.torsion>
0.2737

> <Gold.PLP.Chemscore.Hbond>
2.0000

> <Gold.PLP.Chemscore.CHOScore>
1.5564

> <Gold.PLP.Chemscore.Metal>
0.0000

> <Gold.Chemscore.Hbonds>
donor molecule, donor type, donor heavy atom, donor atom, acceptor molecule, acceptor atom, score
      L1  H     9    32       P1  8028  2.00
      L1  C    13    37       P1  7957  0.54
      L1  C    14    38       P1 10171  1.00

> <Gold.PLP.Chemscore.Internal.Correction>
0.0530

> <Gold.Rescore>
     Score         DG    S(hbond)    S(metal)    S(lipo)     H(rot)  DE(clash)    DE(int)     intcor
     16.04     -16.45       1.00        0.00     106.56       1.89       0.14       0.27       ----

> <Gold.Chemscore.Fitness>
16.0365

> <Gold.Chemscore.DG>
-16.4508

> <Gold.Chemscore.ZeroCoef>
-5.4800

> <Gold.Chemscore.Hbond>
1.0000

> <Gold.Chemscore.Metal>
0.0000

> <Gold.Chemscore.Lipo>
106.5630

> <Gold.Chemscore.Internal_Hbond>
0.0000

> <Gold.Chemscore.DEClash>
0.1404

> <Gold.Chemscore.DEInternal>
0.2739

> <Gold.Chemscore.Rot>
1.8895

> <Gold.Chemscore.Internal.Correction>
   9.000000E+99

> <Gold.Chemscore.Hbonds>
donor molecule, donor type, donor heavy atom, donor atom, acceptor molecule, acceptor atom, score
      L1  H     9    32       P1  8028  1.00

> <Gold.Chemscore.Hbond.Weighted>
-3.3400

> <Gold.Chemscore.Metal.Weighted>
-0.0000

> <Gold.Chemscore.Lipo.Weighted>
-12.4679

> <Gold.Chemscore.Internal_Hbond.Weighted>
0.0000

> <Gold.Chemscore.DEClash.Weighted>
0.1404

> <Gold.Chemscore.DEInternal.Weighted>
0.2739

> <Gold.Chemscore.Rot.Weighted>
4.8371

> <Gold.Chemscore.Internal.Correction.Weighted>
   9.000000E+99

> <Gold.Protein.RotatedTorsions>
[ 6907 6896 6895 6894 ] final -179.58 input  -60.11 | X-H torsion
[ 7974 7965 7964 7962 ] final  -42.63 input  175.53 | X-H torsion
[ 8008 7997 7996 7995 ] final   25.17 input   59.86 | X-H torsion
[ 10167 10162 10161 10158 ] final  -92.06 input  -65.29 | X-H torsion
[ 10718 10713 10712 10709 ] final   48.58 input   66.30 | X-H torsion
[ 10763 10752 10751 10750 ] final -165.64 input  -60.55 | X-H torsion
[ 11005 11000 10999 10996 ] final  158.75 input  -57.11 | X-H torsion

> <Gold.Protein.ActiveResidues>
 VAL166  LYS551  ARG553  GLY616  TRP617  ASP618  TYR619  PRO620  LYS621  CYS622 
 ASP623  PHE694  ASN695  SER759  ASP760  ASP761  ALA762  ILE779  LEU786  VAL792 
 PHE793  MET794  SER795  GLU796  ALA797  LYS798  CYS799  TRP800  GLU811  SER814 

> <Gold.Protein.RotatedAtoms>
  151.6558  133.3319  159.3162 H   0  0  0  0  0  0  0  0  0  0  0  0  # atno 6907 bound_to 6896
  150.7938  134.6986  159.6546 H   0  0  0  0  0  0  0  0  0  0  0  0  # atno 6908 bound_to 6896
  152.4022  134.6271  160.0117 H   0  0  0  0  0  0  0  0  0  0  0  0  # atno 6909 bound_to 6896
  146.0097  140.6979  142.9230 H   0  0  0  0  0  0  0  0  0  0  0  0  # atno 7974 bound_to 7965
  155.0076  140.3132  155.4842 H   0  0  0  0  0  0  0  0  0  0  0  0  # atno 8008 bound_to 7997
  156.2914  140.2220  156.5130 H   0  0  0  0  0  0  0  0  0  0  0  0  # atno 8009 bound_to 7997
  154.7563  140.0462  157.0924 H   0  0  0  0  0  0  0  0  0  0  0  0  # atno 8010 bound_to 7997
  140.3386  143.2955  151.9861 H   0  0  0  0  0  0  0  0  0  0  0  0  # atno 10167 bound_to 10162
  157.4701  130.8250  149.7978 H   0  0  0  0  0  0  0  0  0  0  0  0  # atno 10718 bound_to 10713
  154.6912  135.2971  154.9476 H   0  0  0  0  0  0  0  0  0  0  0  0  # atno 10763 bound_to 10752
  154.0439  135.6653  153.4797 H   0  0  0  0  0  0  0  0  0  0  0  0  # atno 10764 bound_to 10752
  153.0614  135.5114  154.8006 H   0  0  0  0  0  0  0  0  0  0  0  0  # atno 10765 bound_to 10752
  140.1895  134.8417  157.2896 H   0  0  0  0  0  0  0  0  0  0  0  0  # atno 11005 bound_to 11000
  144.6948  140.3376  143.7205 LP  0  0  0  0  0  0  0  0  0  0  0  0  # atno 17320 bound_to 7965
  145.7361  139.1750  143.2402 LP  0  0  0  0  0  0  0  0  0  0  0  0  # atno 17321 bound_to 7965
  139.4844  144.6176  151.7317 LP  0  0  0  0  0  0  0  0  0  0  0  0  # atno 17342 bound_to 10162
  140.5330  144.0700  150.6060 LP  0  0  0  0  0  0  0  0  0  0  0  0  # atno 17343 bound_to 10162
  156.0069  130.3851  150.2399 LP  0  0  0  0  0  0  0  0  0  0  0  0  # atno 17370 bound_to 10713
  157.0581  131.0082  151.3231 LP  0  0  0  0  0  0  0  0  0  0  0  0  # atno 17371 bound_to 10713
  140.2176  134.4063  155.7581 LP  0  0  0  0  0  0  0  0  0  0  0  0  # atno 17394 bound_to 11000
  141.2226  133.7149  156.8438 LP  0  0  0  0  0  0  0  0  0  0  0  0  # atno 17395 bound_to 11000

$$$$
