AV-unprocessed.smi:101|AV-procd|sdf|933|dock8
  -GOLD-   2262017453D 1   1.00000     0.00000
 Structure written by MMmdl.
 43 45  0  0  0  0  0  0  0  0  2 V2000
  144.5371  144.9108  153.4347 C   0  0  0  0  0  0  0  0  0  0  0  0
  144.7497  143.9424  154.5854 C   0  0  0  0  0  0  0  0  0  0  0  0
  145.3985  142.7668  154.4290 C   0  0  0  0  0  0  0  0  0  0  0  0
  145.5868  141.8821  155.4796 N   0  0  0  0  0  0  0  0  0  0  0  0
  146.3377  140.5701  155.3072 C   0  0  2  0  0  0  0  0  0  0  0  0
  147.4652  140.5472  156.1308 O   0  0  0  0  0  0  0  0  0  0  0  0
  148.5994  140.9912  155.3992 C   0  0  1  0  0  0  0  0  0  0  0  0
  149.8775  140.4962  156.0874 C   0  0  0  0  0  0  0  0  0  0  0  0
  150.5197  141.5861  156.7288 O   0  0  0  0  0  0  0  0  0  0  0  0
  151.3833  141.3658  157.7383 C   0  0  0  0  0  0  0  0  0  0  0  0
  151.8854  140.2661  157.9794 O   0  0  0  0  0  0  0  0  0  0  0  0
  151.6673  142.5943  158.5350 C   0  0  0  0  0  0  0  0  0  0  0  0
  151.2191  143.8487  158.0589 C   0  0  0  0  0  0  0  0  0  0  0  0
  151.4760  145.0260  158.7882 C   0  0  0  0  0  0  0  0  0  0  0  0
  152.1841  144.9637  160.0024 C   0  0  0  0  0  0  0  0  0  0  0  0
  152.6339  143.7219  160.4875 C   0  0  0  0  0  0  0  0  0  0  0  0
  152.3774  142.5431  159.7603 C   0  0  0  0  0  0  0  0  0  0  0  0
  148.3693  140.4104  154.0026 C   0  0  2  0  0  0  0  0  0  0  0  0
  148.9538  141.2459  153.0228 O   0  0  0  0  0  0  0  0  0  0  0  0
  146.8476  140.3972  153.8578 C   0  0  1  0  0  0  0  0  0  0  0  0
  146.4270  139.1668  153.3040 O   0  0  0  0  0  0  0  0  0  0  0  0
  145.1389  142.2439  156.7785 C   0  0  0  0  0  0  0  0  0  0  0  0
  145.3745  141.4703  157.7067 O   0  0  0  0  0  0  0  0  0  0  0  0
  144.4751  143.4229  156.9441 N   0  5  0  0  0  0  0  0  0  0  0  0
  144.2428  144.2895  155.9178 C   0  0  0  0  0  0  0  0  0  0  0  0
  143.6300  145.3446  156.0784 O   0  0  0  0  0  0  0  0  0  0  0  0
  144.9779  144.5338  152.5113 H   0  0  0  0  0  0  0  0  0  0  0  0
  144.9944  145.8752  153.6582 H   0  0  0  0  0  0  0  0  0  0  0  0
  143.4719  145.0659  153.2617 H   0  0  0  0  0  0  0  0  0  0  0  0
  145.7814  142.5308  153.4488 H   0  0  0  0  0  0  0  0  0  0  0  0
  145.6302  139.8050  155.6323 H   0  0  0  0  0  0  0  0  0  0  0  0
  148.5873  142.0818  155.3653 H   0  0  0  0  0  0  0  0  0  0  0  0
  149.6301  139.7414  156.8347 H   0  0  0  0  0  0  0  0  0  0  0  0
  150.5424  140.0302  155.3588 H   0  0  0  0  0  0  0  0  0  0  0  0
  150.6744  143.9218  157.1286 H   0  0  0  0  0  0  0  0  0  0  0  0
  151.1292  145.9782  158.4145 H   0  0  0  0  0  0  0  0  0  0  0  0
  152.3818  145.8670  160.5604 H   0  0  0  0  0  0  0  0  0  0  0  0
  153.1769  143.6724  161.4199 H   0  0  0  0  0  0  0  0  0  0  0  0
  152.7362  141.6064  160.1619 H   0  0  0  0  0  0  0  0  0  0  0  0
  148.7821  139.4022  153.9369 H   0  0  0  0  0  0  0  0  0  0  0  0
  149.4358  140.7025  152.4183 H   0  0  0  0  0  0  0  0  0  0  0  0
  146.4958  141.2195  153.2323 H   0  0  0  0  0  0  0  0  0  0  0  0
  145.5268  139.2541  153.0311 H   0  0  0  0  0  0  0  0  0  0  0  0
  1  2  1  0  0  0  0
  1 27  1  0  0  0  0
  1 28  1  0  0  0  0
  1 29  1  0  0  0  0
  2 25  1  0  0  0  0
  2  3  2  0  0  0  0
  3  4  1  0  0  0  0
  3 30  1  0  0  0  0
  4  5  1  0  0  0  0
  4 22  1  0  0  0  0
  5 20  1  0  0  0  0
  5  6  1  0  0  0  0
  5 31  1  0  0  0  0
  6  7  1  0  0  0  0
  7  8  1  0  0  0  0
  7 18  1  0  0  0  0
  7 32  1  0  0  0  0
  8  9  1  0  0  0  0
  8 33  1  0  0  0  0
  8 34  1  0  0  0  0
  9 10  1  0  0  0  0
 10 11  2  0  0  0  0
 10 12  1  0  0  0  0
 12 17  1  0  0  0  0
 12 13  2  0  0  0  0
 13 14  1  0  0  0  0
 13 35  1  0  0  0  0
 14 15  2  0  0  0  0
 14 36  1  0  0  0  0
 15 16  1  0  0  0  0
 15 37  1  0  0  0  0
 16 17  2  0  0  0  0
 16 38  1  0  0  0  0
 17 39  1  0  0  0  0
 18 19  1  0  0  0  0
 18 20  1  0  0  0  0
 18 40  1  0  0  0  0
 19 41  1  0  0  0  0
 20 21  1  0  0  0  0
 20 42  1  0  0  0  0
 21 43  1  0  0  0  0
 22 23  2  0  0  0  0
 22 24  1  0  0  0  0
 24 25  1  0  0  0  0
 25 26  2  0  0  0  0
M  CHG  1  24  -1
M  END
> <s_m_source_file>
AV-unprocessed.smi

> <i_m_source_file_index>
101

> <i_lp_mmshare_version>
43012

> <i_f3d_flags>
0

> <s_epik_input>
Tz1jMVtuSF1jKD1PKW4oW2NIXWMxW0NIM10pW0NAQEhdMk9bQ0BIXShbQ0BASF0oW09IXSlbQ0BIXTJbT0hdKVtDSDJdT0MoPU8pYzNbY0hdW2NIXVtjSF1bY0hdW2NIXTM=

> <s_epik_cmdline>
J2VwaWtfcHl0aG9uJywgJy1waCcsICc3LjAnLCAnLXRuJywgJzgnLCAnLW1hJywgJzIwMCcsICctbWV0YWxfYmluZGluZycsICctaW1hZScsICc8aW5maWxlLm1hZT4nLCAnLW9tYWUnLCAnPG91dGZpbGUubWFlPic=

> <r_lp_tautomer_probability>
0.999537

> <r_epik_Ionization_Penalty>
3.21006

> <r_epik_Ionization_Penalty_Charging>
5.75142e-08

> <r_epik_Ionization_Penalty_Neutral>
3.21006

> <r_epik_State_Penalty>
3.20925

> <r_epik_Charging_Adjusted_Penalty>
3.20925

> <i_epik_Tot_Q>
-1

> <i_epik_Tot_abs_Q>
1

> <r_epik_Metal_State_Penalty>
0.119957

> <b_epik_Metal_Only>
1

> <s_epik_Chemistry_Notes>
This compound has an ester and may undergo hydrolysis at high or low pH. This compound contains an acetal/aminal-like group ( X-CH(R)-Y where X, Y are N, S, or O) that may be acid/base labile, releasing an aldehyde.

> <s_lp_Force_Field>
OPLS_2005

> <r_lp_Energy>
40.7876

> <b_lp_Chiralities_Consistent>
1

> <s_lp_Variant>
AV-unprocessed.smi:101-21

> <Gold.Version>
5.8.1

> <Gold.Id.Protein>
6NUR|6NUR_protein|mol2

> <Gold.PLP.Fitness>
50.5646

> <Gold.PLP.PLP>
-46.8243

> <Gold.PLP.part.hbond>
-2.5119

> <Gold.PLP.part.metal>
0.0000

> <Gold.PLP.part.buried>
-8.1448

> <Gold.PLP.part.nonpolar>
-36.3444

> <Gold.PLP.part.repulsive>
0.2453

> <Gold.PLP.ligand.clash>
0.0000

> <Gold.PLP.ligand.torsion>
1.0124

> <Gold.PLP.Chemscore.Hbond>
1.8970

> <Gold.PLP.Chemscore.CHOScore>
0.0000

> <Gold.PLP.Chemscore.Metal>
0.0000

> <Gold.Chemscore.Hbonds>
donor molecule, donor type, donor heavy atom, donor atom, acceptor molecule, acceptor atom, score
      L1  H    19    41       P1  7957  0.73
      L1  H    21    43       P1 10175  0.37
      P1  H  8011  8017       L1    19  0.15

> <Gold.PLP.Chemscore.Internal.Correction>
0.0741

> <Gold.Rescore>
     Score         DG    S(hbond)    S(metal)    S(lipo)     H(rot)  DE(clash)    DE(int)     intcor
     13.06     -15.45       1.43        0.00     115.78       3.27       0.11       2.28       ----

> <Gold.Chemscore.Fitness>
13.0611

> <Gold.Chemscore.DG>
-15.4509

> <Gold.Chemscore.ZeroCoef>
-5.4800

> <Gold.Chemscore.Hbond>
1.4324

> <Gold.Chemscore.Metal>
0.0000

> <Gold.Chemscore.Lipo>
115.7830

> <Gold.Chemscore.Internal_Hbond>
0.0000

> <Gold.Chemscore.DEClash>
0.1064

> <Gold.Chemscore.DEInternal>
2.2834

> <Gold.Chemscore.Rot>
3.2656

> <Gold.Chemscore.Internal.Correction>
   9.000000E+99

> <Gold.Chemscore.Hbonds>
donor molecule, donor type, donor heavy atom, donor atom, acceptor molecule, acceptor atom, score
      L1  H    19    41       P1  7957  0.70
      L1  H    21    43       P1 10175  0.36

> <Gold.Chemscore.Hbond.Weighted>
-4.7841

> <Gold.Chemscore.Metal.Weighted>
-0.0000

> <Gold.Chemscore.Lipo.Weighted>
-13.5466

> <Gold.Chemscore.Internal_Hbond.Weighted>
0.0000

> <Gold.Chemscore.DEClash.Weighted>
0.1064

> <Gold.Chemscore.DEInternal.Weighted>
2.2834

> <Gold.Chemscore.Rot.Weighted>
8.3598

> <Gold.Chemscore.Internal.Correction.Weighted>
   9.000000E+99

> <Gold.Protein.RotatedTorsions>
[ 6907 6896 6895 6894 ] final  -33.23 input  -60.11 | X-H torsion
[ 7974 7965 7964 7962 ] final  118.74 input  175.53 | X-H torsion
[ 8008 7997 7996 7995 ] final   63.70 input   59.86 | X-H torsion
[ 10167 10162 10161 10158 ] final -161.70 input  -65.29 | X-H torsion
[ 10718 10713 10712 10709 ] final  -90.08 input   66.30 | X-H torsion
[ 10763 10752 10751 10750 ] final  -24.68 input  -60.55 | X-H torsion
[ 11005 11000 10999 10996 ] final -148.08 input  -57.11 | X-H torsion

> <Gold.Protein.ActiveResidues>
 VAL166  LYS551  ARG553  GLY616  TRP617  ASP618  TYR619  PRO620  LYS621  CYS622 
 ASP623  PHE694  ASN695  SER759  ASP760  ASP761  ALA762  ILE779  LEU786  VAL792 
 PHE793  MET794  SER795  GLU796  ALA797  LYS798  CYS799  TRP800  GLU811  SER814 

> <Gold.Protein.RotatedAtoms>
  151.0683  134.9782  159.8295 H   0  0  0  0  0  0  0  0  0  0  0  0  # atno 6907 bound_to 6896
  152.5405  134.2331  159.8843 H   0  0  0  0  0  0  0  0  0  0  0  0  # atno 6908 bound_to 6896
  151.2354  133.4384  159.2639 H   0  0  0  0  0  0  0  0  0  0  0  0  # atno 6909 bound_to 6896
  145.1516  139.3207  143.4564 H   0  0  0  0  0  0  0  0  0  0  0  0  # atno 7974 bound_to 7965
  155.6343  140.3496  155.4693 H   0  0  0  0  0  0  0  0  0  0  0  0  # atno 8008 bound_to 7997
  155.9978  140.1207  157.0601 H   0  0  0  0  0  0  0  0  0  0  0  0  # atno 8009 bound_to 7997
  154.4239  140.1106  156.5640 H   0  0  0  0  0  0  0  0  0  0  0  0  # atno 8010 bound_to 7997
  139.6446  144.0197  152.2117 H   0  0  0  0  0  0  0  0  0  0  0  0  # atno 10167 bound_to 10162
  155.9986  130.4896  150.5269 H   0  0  0  0  0  0  0  0  0  0  0  0  # atno 10718 bound_to 10713
  153.6877  135.6963  153.5099 H   0  0  0  0  0  0  0  0  0  0  0  0  # atno 10763 bound_to 10752
  153.2436  135.4298  155.0723 H   0  0  0  0  0  0  0  0  0  0  0  0  # atno 10764 bound_to 10752
  154.8382  135.3514  154.6420 H   0  0  0  0  0  0  0  0  0  0  0  0  # atno 10765 bound_to 10752
  140.7650  134.3255  157.5091 H   0  0  0  0  0  0  0  0  0  0  0  0  # atno 11005 bound_to 11000
  146.3494  140.1592  142.8591 LP  0  0  0  0  0  0  0  0  0  0  0  0  # atno 17320 bound_to 7965
  145.0425  140.8956  143.5044 LP  0  0  0  0  0  0  0  0  0  0  0  0  # atno 17321 bound_to 7965
  139.9895  144.6371  150.7827 LP  0  0  0  0  0  0  0  0  0  0  0  0  # atno 17342 bound_to 10162
  140.7508  143.2961  151.3201 LP  0  0  0  0  0  0  0  0  0  0  0  0  # atno 17343 bound_to 10162
  157.3223  131.0684  151.1923 LP  0  0  0  0  0  0  0  0  0  0  0  0  # atno 17370 bound_to 10713
  157.2832  130.6760  149.6076 LP  0  0  0  0  0  0  0  0  0  0  0  0  # atno 17371 bound_to 10713
  139.8764  134.9225  156.3303 LP  0  0  0  0  0  0  0  0  0  0  0  0  # atno 17394 bound_to 11000
  140.9628  133.7378  156.0424 LP  0  0  0  0  0  0  0  0  0  0  0  0  # atno 17395 bound_to 11000

$$$$
