AV-unprocessed.smi:1|AV-procd|sdf|7|dock6
  -GOLD-   2262015 93D 1   1.00000     0.00000
 Structure written by MMmdl.
 57 62  0  0  0  0  0  0  0  0  1 V2000
  152.6608  140.0458  157.7760 O   0  0  0  0  0  0  0  0  0  0  0  0
  151.8517  140.9495  157.5628 C   0  0  0  0  0  0  0  0  0  0  0  0
  150.7067  140.7711  156.6878 N   0  0  0  0  0  0  0  0  0  0  0  0
  150.2970  139.6388  156.0698 C   0  0  0  0  0  0  0  0  0  0  0  0
  150.2599  139.5200  154.7160 N   0  0  0  0  0  0  0  0  0  0  0  0
  149.8512  138.3799  154.1516 C   0  0  0  0  0  0  0  0  0  0  0  0
  149.4434  137.2567  154.7451 N   0  0  0  0  0  0  0  0  0  0  0  0
  149.4862  137.3649  156.1041 C   0  0  0  0  0  0  0  0  0  0  0  0
  149.8997  138.5123  156.8358 C   0  0  0  0  0  0  0  0  0  0  0  0
  149.8139  138.2566  158.1988 N   0  0  0  0  0  0  0  0  0  0  0  0
  149.3751  137.0279  158.2632 C   0  0  0  0  0  0  0  0  0  0  0  0
  149.1478  136.4191  157.0492 N   0  0  0  0  0  0  0  0  0  0  0  0
  148.6503  135.0363  156.7996 C   0  0  2  0  0  0  0  0  0  0  0  0
  147.6257  134.7519  157.6971 O   0  0  0  0  0  0  0  0  0  0  0  0
  147.6772  133.3836  158.1065 C   0  0  2  0  0  0  0  0  0  0  0  0
  147.8023  133.3491  159.6354 C   0  0  0  0  0  0  0  0  0  0  0  0
  146.6412  133.9293  160.2096 O   0  0  0  0  0  0  0  0  0  0  0  0
  146.5696  134.1492  161.5386 C   0  0  0  0  0  0  0  0  0  0  0  0
  147.4864  133.9025  162.3250 O   0  0  0  0  0  0  0  0  0  0  0  0
  145.2596  134.7237  161.9597 C   0  0  0  0  0  0  0  0  0  0  0  0
  144.9226  136.0406  161.5686 C   0  0  0  0  0  0  0  0  0  0  0  0
  143.6923  136.6099  161.9508 C   0  0  0  0  0  0  0  0  0  0  0  0
  142.7833  135.8688  162.7281 C   0  0  0  0  0  0  0  0  0  0  0  0
  143.1062  134.5574  163.1229 C   0  0  0  0  0  0  0  0  0  0  0  0
  144.3362  133.9866  162.7418 C   0  0  0  0  0  0  0  0  0  0  0  0
  148.9082  132.7826  157.4159 C   0  0  1  0  0  0  0  0  0  0  0  0
  148.5315  132.1131  156.2244 O   0  0  0  0  0  0  0  0  0  0  0  0
  149.6534  132.4775  155.0404 S   0  0  0  0  0  0  0  0  0  0  0  0
  150.5813  131.3431  154.9181 O   0  0  0  0  0  0  0  0  0  0  0  0
  148.9381  133.0460  153.8878 O   0  0  0  0  0  0  0  0  0  0  0  0
  150.4468  133.7182  155.8308 O   0  0  0  0  0  0  0  0  0  0  0  0
  149.7480  134.0012  157.0299 C   0  0  1  0  0  0  0  0  0  0  0  0
  152.0452  142.3297  158.1197 C   0  0  0  0  0  0  0  0  0  0  0  0
  151.4992  143.4463  157.4473 C   0  0  0  0  0  0  0  0  0  0  0  0
  151.6898  144.7467  157.9538 C   0  0  0  0  0  0  0  0  0  0  0  0
  152.4353  144.9423  159.1316 C   0  0  0  0  0  0  0  0  0  0  0  0
  152.9923  143.8366  159.8016 C   0  0  0  0  0  0  0  0  0  0  0  0
  152.8015  142.5356  159.2967 C   0  0  0  0  0  0  0  0  0  0  0  0
  150.1446  141.5936  156.5237 H   0  0  0  0  0  0  0  0  0  0  0  0
  149.8505  138.3651  153.0714 H   0  0  0  0  0  0  0  0  0  0  0  0
  149.2006  136.5290  159.2056 H   0  0  0  0  0  0  0  0  0  0  0  0
  148.2577  135.0430  155.7818 H   0  0  0  0  0  0  0  0  0  0  0  0
  146.7694  132.8643  157.7966 H   0  0  0  0  0  0  0  0  0  0  0  0
  147.8869  132.3202  159.9858 H   0  0  0  0  0  0  0  0  0  0  0  0
  148.7109  133.8683  159.9410 H   0  0  0  0  0  0  0  0  0  0  0  0
  145.6048  136.6291  160.9720 H   0  0  0  0  0  0  0  0  0  0  0  0
  143.4467  137.6169  161.6475 H   0  0  0  0  0  0  0  0  0  0  0  0
  141.8398  136.3054  163.0207 H   0  0  0  0  0  0  0  0  0  0  0  0
  142.4096  133.9874  163.7198 H   0  0  0  0  0  0  0  0  0  0  0  0
  144.5517  132.9774  163.0610 H   0  0  0  0  0  0  0  0  0  0  0  0
  149.4574  132.0845  158.0490 H   0  0  0  0  0  0  0  0  0  0  0  0
  150.4084  134.3055  157.8428 H   0  0  0  0  0  0  0  0  0  0  0  0
  150.9255  143.3128  156.5413 H   0  0  0  0  0  0  0  0  0  0  0  0
  151.2653  145.5945  157.4367 H   0  0  0  0  0  0  0  0  0  0  0  0
  152.5828  145.9397  159.5188 H   0  0  0  0  0  0  0  0  0  0  0  0
  153.5695  143.9865  160.7020 H   0  0  0  0  0  0  0  0  0  0  0  0
  153.2462  141.7020  159.8209 H   0  0  0  0  0  0  0  0  0  0  0  0
  1  2  2  0  0  0  0
  2  3  1  0  0  0  0
  2 33  1  0  0  0  0
  3  4  1  0  0  0  0
  3 39  1  0  0  0  0
  4  9  1  0  0  0  0
  4  5  2  0  0  0  0
  5  6  1  0  0  0  0
  6  7  2  0  0  0  0
  6 40  1  0  0  0  0
  7  8  1  0  0  0  0
  8 12  1  0  0  0  0
  8  9  2  0  0  0  0
  9 10  1  0  0  0  0
 10 11  2  0  0  0  0
 11 12  1  0  0  0  0
 11 41  1  0  0  0  0
 12 13  1  0  0  0  0
 13 32  1  0  0  0  0
 13 14  1  0  0  0  0
 13 42  1  0  0  0  0
 14 15  1  0  0  0  0
 15 16  1  0  0  0  0
 15 26  1  0  0  0  0
 15 43  1  0  0  0  0
 16 17  1  0  0  0  0
 16 44  1  0  0  0  0
 16 45  1  0  0  0  0
 17 18  1  0  0  0  0
 18 19  2  0  0  0  0
 18 20  1  0  0  0  0
 20 25  1  0  0  0  0
 20 21  2  0  0  0  0
 21 22  1  0  0  0  0
 21 46  1  0  0  0  0
 22 23  2  0  0  0  0
 22 47  1  0  0  0  0
 23 24  1  0  0  0  0
 23 48  1  0  0  0  0
 24 25  2  0  0  0  0
 24 49  1  0  0  0  0
 25 50  1  0  0  0  0
 26 32  1  0  0  0  0
 26 27  1  0  0  0  0
 26 51  1  0  0  0  0
 27 28  1  0  0  0  0
 28 29  2  0  0  0  0
 28 30  2  0  0  0  0
 28 31  1  0  0  0  0
 31 32  1  0  0  0  0
 32 52  1  0  0  0  0
 33 38  1  0  0  0  0
 33 34  2  0  0  0  0
 34 35  1  0  0  0  0
 34 53  1  0  0  0  0
 35 36  2  0  0  0  0
 35 54  1  0  0  0  0
 36 37  1  0  0  0  0
 36 55  1  0  0  0  0
 37 38  2  0  0  0  0
 37 56  1  0  0  0  0
 38 57  1  0  0  0  0
M  END
> <s_m_source_file>
AV-unprocessed.smi

> <i_m_source_file_index>
1

> <i_lp_mmshare_version>
43012

> <i_f3d_flags>
0

> <s_epik_input>
W2NIXTFbY0hdW2NIXVtjSF1bY0hdYzFDKD1PKVtOSF1jKG5bY0hdbjIpYyhjMjMpbltjSF1uM1tDQEBIXShbQ0BIXShbQ0BIXTQ1KU9TKE81KSg9Tyk9TylPW0NASF00W0NIMl1PQyg9TyljNltjSF1bY0hdW2NIXVtjSF1bY0hdNg==

> <s_epik_cmdline>
J2VwaWtfcHl0aG9uJywgJy1waCcsICc3LjAnLCAnLXRuJywgJzgnLCAnLW1hJywgJzIwMCcsICctbWV0YWxfYmluZGluZycsICctaW1hZScsICc8aW5maWxlLm1hZT4nLCAnLW9tYWUnLCAnPG91dGZpbGUubWFlPic=

> <r_lp_tautomer_probability>
1

> <r_epik_Ionization_Penalty>
0.00195722

> <r_epik_Ionization_Penalty_Charging>
0

> <r_epik_Ionization_Penalty_Neutral>
0.00195722

> <r_epik_State_Penalty>
0.00633741

> <r_epik_Charging_Adjusted_Penalty>
0.00633741

> <i_epik_Tot_Q>
0

> <i_epik_Tot_abs_Q>
0

> <r_epik_Metal_State_Penalty>
0.341185

> <b_epik_Metal_Only>
0

> <s_epik_Chemistry_Notes>
This compound has an ester and may undergo hydrolysis at high or low pH. This compound contains an acetal/aminal-like group ( X-CH(R)-Y where X, Y are N, S, or O) that may be acid/base labile, releasing an aldehyde.

> <s_lp_Force_Field>
OPLS_2005

> <r_lp_Energy>
42.4074

> <b_lp_Chiralities_Consistent>
1

> <s_lp_Variant>
AV-unprocessed.smi:1-7

> <Gold.Version>
5.8.1

> <Gold.Id.Protein>
6NUR|6NUR_protein|mol2

> <Gold.PLP.Fitness>
52.7803

> <Gold.PLP.PLP>
-48.7623

> <Gold.PLP.part.hbond>
-1.1194

> <Gold.PLP.part.metal>
0.0000

> <Gold.PLP.part.buried>
-8.3425

> <Gold.PLP.part.nonpolar>
-37.9590

> <Gold.PLP.part.repulsive>
0.7919

> <Gold.PLP.ligand.clash>
0.0000

> <Gold.PLP.ligand.torsion>
2.6391

> <Gold.PLP.Chemscore.Hbond>
1.3250

> <Gold.PLP.Chemscore.CHOScore>
1.7202

> <Gold.PLP.Chemscore.Metal>
0.0000

> <Gold.Chemscore.Hbonds>
donor molecule, donor type, donor heavy atom, donor atom, acceptor molecule, acceptor atom, score
      P1  H  7989  7998       L1     5  0.39
      P1  H  7997  8009       L1     1  1.00
      L1  C     6    40       P1  7948  0.72
      L1  C     6    40       P1  7957  0.99

> <Gold.PLP.Chemscore.Internal.Correction>
0.1606

> <Gold.Rescore>
     Score         DG    S(hbond)    S(metal)    S(lipo)     H(rot)  DE(clash)    DE(int)     intcor
     15.70     -18.38       1.41        0.00     116.79       2.13       0.28       2.40       ----

> <Gold.Chemscore.Fitness>
15.7047

> <Gold.Chemscore.DG>
-18.3798

> <Gold.Chemscore.ZeroCoef>
-5.4800

> <Gold.Chemscore.Hbond>
1.4061

> <Gold.Chemscore.Metal>
0.0000

> <Gold.Chemscore.Lipo>
116.7932

> <Gold.Chemscore.Internal_Hbond>
0.0000

> <Gold.Chemscore.DEClash>
0.2792

> <Gold.Chemscore.DEInternal>
2.3958

> <Gold.Chemscore.Rot>
2.1333

> <Gold.Chemscore.Internal.Correction>
   9.000000E+99

> <Gold.Chemscore.Hbonds>
donor molecule, donor type, donor heavy atom, donor atom, acceptor molecule, acceptor atom, score
      P1  H  7989  7998       L1     5  0.36
      P1  H  7997  8009       L1     1  0.87

> <Gold.Chemscore.Hbond.Weighted>
-4.6963

> <Gold.Chemscore.Metal.Weighted>
-0.0000

> <Gold.Chemscore.Lipo.Weighted>
-13.6648

> <Gold.Chemscore.Internal_Hbond.Weighted>
0.0000

> <Gold.Chemscore.DEClash.Weighted>
0.2792

> <Gold.Chemscore.DEInternal.Weighted>
2.3958

> <Gold.Chemscore.Rot.Weighted>
5.4614

> <Gold.Chemscore.Internal.Correction.Weighted>
   9.000000E+99

> <Gold.Protein.RotatedTorsions>
[ 6907 6896 6895 6894 ] final   97.47 input  -60.11 | X-H torsion
[ 7974 7965 7964 7962 ] final  125.79 input  175.53 | X-H torsion
[ 8008 7997 7996 7995 ] final  172.64 input   59.86 | X-H torsion
[ 10167 10162 10161 10158 ] final  -83.64 input  -65.29 | X-H torsion
[ 10718 10713 10712 10709 ] final  125.27 input   66.30 | X-H torsion
[ 10763 10752 10751 10750 ] final  107.67 input  -60.55 | X-H torsion
[ 11005 11000 10999 10996 ] final -132.64 input  -57.11 | X-H torsion

> <Gold.Protein.ActiveResidues>
 VAL166  LYS551  ARG553  GLY616  TRP617  ASP618  TYR619  PRO620  LYS621  CYS622 
 ASP623  PHE694  ASN695  SER759  ASP760  ASP761  ALA762  ILE779  LEU786  VAL792 
 PHE793  MET794  SER795  GLU796  ALA797  LYS798  CYS799  TRP800  GLU811  SER814 

> <Gold.Protein.RotatedAtoms>
  152.5423  134.0729  159.8201 H   0  0  0  0  0  0  0  0  0  0  0  0  # atno 6907 bound_to 6896
  151.0841  133.5359  159.2626 H   0  0  0  0  0  0  0  0  0  0  0  0  # atno 6908 bound_to 6896
  151.2175  135.0514  159.8990 H   0  0  0  0  0  0  0  0  0  0  0  0  # atno 6909 bound_to 6896
  145.0690  139.3745  143.4967 H   0  0  0  0  0  0  0  0  0  0  0  0  # atno 7974 bound_to 7965
  156.1154  140.1480  156.9280 H   0  0  0  0  0  0  0  0  0  0  0  0  # atno 8008 bound_to 7997
  154.4797  140.0883  156.7390 H   0  0  0  0  0  0  0  0  0  0  0  0  # atno 8009 bound_to 7997
  155.4522  140.3435  155.4304 H   0  0  0  0  0  0  0  0  0  0  0  0  # atno 8010 bound_to 7997
  140.4207  143.2586  151.8894 H   0  0  0  0  0  0  0  0  0  0  0  0  # atno 10167 bound_to 10162
  157.5517  131.1094  150.8691 H   0  0  0  0  0  0  0  0  0  0  0  0  # atno 10718 bound_to 10713
  153.4099  135.3837  155.2043 H   0  0  0  0  0  0  0  0  0  0  0  0  # atno 10763 bound_to 10752
  154.8737  135.3792  154.4513 H   0  0  0  0  0  0  0  0  0  0  0  0  # atno 10764 bound_to 10752
  153.5021  135.7088  153.5888 H   0  0  0  0  0  0  0  0  0  0  0  0  # atno 10765 bound_to 10752
  140.9152  134.1516  157.4358 H   0  0  0  0  0  0  0  0  0  0  0  0  # atno 11005 bound_to 11000
  146.3528  140.0426  142.8642 LP  0  0  0  0  0  0  0  0  0  0  0  0  # atno 17320 bound_to 7965
  145.1315  140.9521  143.4541 LP  0  0  0  0  0  0  0  0  0  0  0  0  # atno 17321 bound_to 7965
  139.4782  144.5440  151.8486 LP  0  0  0  0  0  0  0  0  0  0  0  0  # atno 17342 bound_to 10162
  140.4537  144.1820  150.5899 LP  0  0  0  0  0  0  0  0  0  0  0  0  # atno 17343 bound_to 10162
  156.9214  130.5316  149.5279 LP  0  0  0  0  0  0  0  0  0  0  0  0  # atno 17370 bound_to 10713
  156.0582  130.5640  150.9137 LP  0  0  0  0  0  0  0  0  0  0  0  0  # atno 17371 bound_to 10713
  139.8765  134.9951  156.5726 LP  0  0  0  0  0  0  0  0  0  0  0  0  # atno 17394 bound_to 11000
  140.8059  133.8468  155.8767 LP  0  0  0  0  0  0  0  0  0  0  0  0  # atno 17395 bound_to 11000

$$$$
