#       Name:                AV-unprocessed.smi:2424
#       Creating user name   scv26
#       Creation time:       Fri Mar 27 13:19:45 2020


#       File generated by GOLD software.
#

@<TRIPOS>MOLECULE
AV-unprocessed.smi:2424
    56    57     1
SMALL
NO_CHARGES


@<TRIPOS>ATOM
      1 ****        -4.4235  -1.9873  -1.7631 C.3            1 S1                 0.0000
      2 ****        -3.6730  -0.8559  -1.0393 C.3            1 S1                 0.0000
      3 ****        -2.2186  -1.1823  -0.6170 C.3            1 S1                 0.0000
      4 ****        -1.3929  -1.4767  -1.8966 C.3            1 S1                 0.0000
      5 ****        -1.2369  -0.2866  -2.8585 C.3            1 S1                 0.0000
      6 ****        -1.6181  -0.1594   0.3922 C.3            1 S1                 0.0000
      7 ****        -0.1570  -0.0706   0.3323 N.am           1 S1                 0.0000
      8 ****         0.5630   1.0489   0.4772 C.2            1 S1                 0.0000
      9 ****         0.0626   2.1515   0.6941 O.2            1 S1                 0.0000
     10 ****         1.8751   0.7865   0.3395 N.am           1 S1                 0.0000
     11 ****         2.9677   1.6610   0.4122 C.2            1 S1                 0.0000
     12 ****         4.1849   1.1636   0.1329 C.2            1 S1                 0.0000
     13 ****         5.3303   1.9615   0.1746 N.am           1 S1                 0.0000
     14 ****         5.3297   3.2758   0.4923 C.2            1 S1                 0.0000
     15 ****         6.3803   3.9148   0.5024 O.2            1 S1                 0.0000
     16 ****         4.0124   3.8485   0.8139 C.2            1 S1                 0.0000
     17 ****         3.9468   5.3179   1.1910 C.3            1 S1                 0.0000
     18 ****         2.9033   3.0737   0.7727 C.2            1 S1                 0.0000
     19 ****        -2.0857  -1.0567   1.5503 C.3            1 S1                 0.0000
     20 ****        -1.2870  -1.1779   2.8468 C.3            1 S1                 0.0000
     21 ****        -2.1226  -2.2176   0.5428 C.3            1 S1                 0.0000
     22 ****        -0.9009  -2.9472   0.5724 O.3            1 S1                 0.0000
     23 ****        -1.0164  -4.2444   0.0128 C.3            1 S1                 0.0000
     24 ****         6.2078   1.5173  -0.0535 H              1 S1                 0.0000
     25 ****        -5.4735  -1.7247  -1.8925 H              1 S1                 0.0000
     26 ****        -4.3874  -2.9210  -1.2028 H              1 S1                 0.0000
     27 ****        -4.0193  -2.1735  -2.7574 H              1 S1                 0.0000
     28 ****        -3.7038   0.0438  -1.6529 H              1 S1                 0.0000
     29 ****        -4.2621  -0.5964  -0.1598 H              1 S1                 0.0000
     30 ****        -0.3890  -1.8050  -1.6286 H              1 S1                 0.0000
     31 ****        -1.8074  -2.3218  -2.4437 H              1 S1                 0.0000
     32 ****        -0.5423  -0.5341  -3.6613 H              1 S1                 0.0000
     33 ****        -0.8479   0.5948  -2.3490 H              1 S1                 0.0000
     34 ****        -2.1825  -0.0158  -3.3269 H              1 S1                 0.0000
     35 ****        -2.1269   0.8061   0.3721 H              1 S1                 0.0000
     36 ****         0.3371  -0.9342   0.1610 H              1 S1                 0.0000
     37 ****         2.1170  -0.1739   0.1441 H              1 S1                 0.0000
     38 ****         4.3753   0.1373  -0.1461 H              1 S1                 0.0000
     39 ****         2.9261   5.6270   1.4182 H              1 S1                 0.0000
     40 ****         4.3119   5.9376   0.3713 H              1 S1                 0.0000
     41 ****         4.5613   5.5139   2.0703 H              1 S1                 0.0000
     42 ****         1.9646   3.5382   1.0251 H              1 S1                 0.0000
     43 ****        -3.1135  -0.7832   1.7938 H              1 S1                 0.0000
     44 ****        -0.2594  -1.4949   2.6697 H              1 S1                 0.0000
     45 ****        -1.7404  -1.9065   3.5187 H              1 S1                 0.0000
     46 ****        -1.2492  -0.2240   3.3731 H              1 S1                 0.0000
     47 ****        -3.0032  -2.8467   0.6824 H              1 S1                 0.0000
     48 ****        -0.0430  -4.7344   0.0249 H              1 S1                 0.0000
     49 ****        -1.3639  -4.2090  -1.0197 H              1 S1                 0.0000
     50 ****        -1.7081  -4.8581   0.5908 H              1 S1                 0.0000
     51 ****        -0.9302   2.2437   0.7706 LP             1 S1                 0.0000
     52 ****         0.6486   2.9556   0.7940 LP             1 S1                 0.0000
     53 ****         7.2427   3.4627   0.2747 LP             1 S1                 0.0000
     54 ****         6.3722   4.8865   0.7384 LP             1 S1                 0.0000
     55 ****        -0.6057  -3.0357   1.5237 LP             1 S1                 0.0000
     56 ****        -0.2129  -2.4375   0.0559 LP             1 S1                 0.0000
@<TRIPOS>BOND
    1    1    2 1     
    2    1   25 1     
    3    1   26 1     
    4    1   27 1     
    5    2    3 1     
    6    2   28 1     
    7    2   29 1     
    8    3   21 1     
    9    3    4 1     
   10    3    6 1     
   11    4    5 1     
   12    4   30 1     
   13    4   31 1     
   14    5   32 1     
   15    5   33 1     
   16    5   34 1     
   17    6    7 1     
   18    6   19 1     
   19    6   35 1     
   20    7    8 am    
   21    7   36 1     
   22    8    9 2     
   23    8   10 am    
   24   10   11 1     
   25   10   37 1     
   26   11   18 1     
   27   11   12 2     
   28   12   13 1     
   29   12   38 1     
   30   13   24 1     
   31   13   14 am    
   32   14   15 2     
   33   14   16 1     
   34   16   17 1     
   35   16   18 2     
   36   17   39 1     
   37   17   40 1     
   38   17   41 1     
   39   18   42 1     
   40   19   20 1     
   41   19   21 1     
   42   19   43 1     
   43   20   44 1     
   44   20   45 1     
   45   20   46 1     
   46   21   22 1     
   47   21   47 1     
   48   22   23 1     
   49   23   48 1     
   50   23   49 1     
   51   23   50 1     
   52    9   51 1     
   53    9   52 1     
   54   15   53 1     
   55   15   54 1     
   56   22   55 1     
   57   22   56 1     
@<TRIPOS>SUBSTRUCTURE
      1 S1             1
@<TRIPOS>SET
LONE_PAIRS      STATIC     ATOMS    <user>   **** ""
6 51 52 53 54 55 56
DONOR_HYDROGENS      STATIC     ATOMS    <user>   **** ""
3 36 37 24
ATOM$BLUE        STATIC     ATOMS    COLORGROUP SYSTEM
6 51 52 53 54 55 56
ATOM$RED        STATIC     ATOMS    COLORGROUP SYSTEM
3 36 37 24
