AV-unprocessed.smi:203|AV-procd|sdf|1596|dock7
  -GOLD-   2262019503D 1   1.00000     0.00000
 Structure written by MMmdl.
 57 61  0  0  0  0  0  0  0  0  1 V2000
  147.6395  134.5128  161.0100 O   0  0  0  0  0  0  0  0  0  0  0  0
  147.8713  135.1531  159.9874 C   0  0  0  0  0  0  0  0  0  0  0  0
  149.1884  135.8625  159.7225 C   0  0  0  0  0  0  0  0  0  0  0  0
  149.0790  136.2936  158.2464 C   0  0  1  0  0  0  0  0  0  0  0  0
  150.0472  135.5281  157.2892 C   0  0  1  0  0  0  0  0  0  0  0  0
  149.6919  134.0232  157.1544 C   0  0  0  0  0  0  0  0  0  0  0  0
  150.6542  133.2927  156.2087 C   0  0  0  0  0  0  0  0  0  0  0  0
  150.6751  133.9904  154.8450 C   0  0  0  0  0  0  0  0  0  0  0  0
  151.0386  135.4716  155.0096 C   0  0  0  0  0  0  0  0  0  0  0  0
  150.1396  136.1392  155.9507 N   0  0  0  0  0  0  0  0  0  0  0  0
  150.3245  137.4775  155.9041 C   0  0  0  0  0  0  0  0  0  0  0  0
  149.9038  138.1203  154.7873 N   0  0  0  0  0  0  0  0  0  0  0  0
  150.0585  139.4435  154.6812 C   0  0  0  0  0  0  0  0  0  0  0  0
  150.6004  140.2942  155.5559 N   0  0  0  0  0  0  0  0  0  0  0  0
  151.0299  139.6472  156.6771 C   0  0  0  0  0  0  0  0  0  0  0  0
  150.9344  138.2506  156.9322 C   0  0  0  0  0  0  0  0  0  0  0  0
  151.4818  137.9566  158.1751 N   0  0  0  0  0  0  0  0  0  0  0  0
  151.8757  139.1145  158.6309 C   0  0  0  0  0  0  0  0  0  0  0  0
  151.6462  140.1828  157.7940 N   0  0  0  0  0  0  0  0  0  0  0  0
  151.9852  141.5725  158.0494 C   0  0  0  0  0  0  0  0  0  0  0  0
  152.5190  141.7973  159.4806 C   0  0  1  0  0  0  0  0  0  0  0  0
  153.9216  141.6128  159.4628 O   0  0  0  0  0  0  0  0  0  0  0  0
  152.2400  143.2162  160.0171 C   0  0  1  0  0  0  0  0  0  0  0  0
  152.5192  144.3470  159.0260 C   0  0  0  0  0  0  0  0  0  0  0  0
  151.6653  145.4867  159.5517 C   0  0  0  0  0  0  0  0  0  0  0  0
  150.5814  144.7803  160.3699 C   0  0  0  0  0  0  0  0  0  0  0  0
  150.8466  143.3899  160.2309 O   0  0  0  0  0  0  0  0  0  0  0  0
  147.5842  136.1241  157.8933 C   0  0  0  0  0  0  0  0  0  0  0  0
  147.0287  135.3302  158.9720 N   0  0  0  0  0  0  0  0  0  0  0  0
  149.2601  136.7299  160.3797 H   0  0  0  0  0  0  0  0  0  0  0  0
  150.0435  135.2174  159.9248 H   0  0  0  0  0  0  0  0  0  0  0  0
  149.3195  137.3566  158.2164 H   0  0  0  0  0  0  0  0  0  0  0  0
  151.0434  135.5779  157.7295 H   0  0  0  0  0  0  0  0  0  0  0  0
  149.7149  133.5292  158.1252 H   0  0  0  0  0  0  0  0  0  0  0  0
  148.6755  133.9059  156.7777 H   0  0  0  0  0  0  0  0  0  0  0  0
  151.6576  133.2839  156.6363 H   0  0  0  0  0  0  0  0  0  0  0  0
  150.3520  132.2512  156.0946 H   0  0  0  0  0  0  0  0  0  0  0  0
  151.3897  133.5013  154.1826 H   0  0  0  0  0  0  0  0  0  0  0  0
  149.6971  133.9023  154.3700 H   0  0  0  0  0  0  0  0  0  0  0  0
  152.0658  135.5606  155.3662 H   0  0  0  0  0  0  0  0  0  0  0  0
  150.9962  135.9655  154.0374 H   0  0  0  0  0  0  0  0  0  0  0  0
  149.6969  139.8840  153.7637 H   0  0  0  0  0  0  0  0  0  0  0  0
  152.3511  139.2224  159.5950 H   0  0  0  0  0  0  0  0  0  0  0  0
  152.7209  141.8978  157.3128 H   0  0  0  0  0  0  0  0  0  0  0  0
  151.0882  142.1673  157.8757 H   0  0  0  0  0  0  0  0  0  0  0  0
  152.0757  141.0584  160.1494 H   0  0  0  0  0  0  0  0  0  0  0  0
  154.3058  142.2834  158.9189 H   0  0  0  0  0  0  0  0  0  0  0  0
  152.7839  143.4000  160.9461 H   0  0  0  0  0  0  0  0  0  0  0  0
  153.5761  144.6073  158.9630 H   0  0  0  0  0  0  0  0  0  0  0  0
  152.1785  144.0652  158.0285 H   0  0  0  0  0  0  0  0  0  0  0  0
  152.2516  146.1454  160.1937 H   0  0  0  0  0  0  0  0  0  0  0  0
  151.2500  146.0867  158.7415 H   0  0  0  0  0  0  0  0  0  0  0  0
  150.6469  145.0620  161.4219 H   0  0  0  0  0  0  0  0  0  0  0  0
  149.5762  145.0134  160.0171 H   0  0  0  0  0  0  0  0  0  0  0  0
  147.0799  137.0910  157.8694 H   0  0  0  0  0  0  0  0  0  0  0  0
  147.4197  135.6433  156.9286 H   0  0  0  0  0  0  0  0  0  0  0  0
  146.0955  134.9455  158.9384 H   0  0  0  0  0  0  0  0  0  0  0  0
  1  2  2  0  0  0  0
  2 29  1  0  0  0  0
  2  3  1  0  0  0  0
  3  4  1  0  0  0  0
  3 30  1  0  0  0  0
  3 31  1  0  0  0  0
  4  5  1  0  0  0  0
  4 28  1  0  0  0  0
  4 32  1  0  0  0  0
  5 10  1  0  0  0  0
  5  6  1  0  0  0  0
  5 33  1  0  0  0  0
  6  7  1  0  0  0  0
  6 34  1  0  0  0  0
  6 35  1  0  0  0  0
  7  8  1  0  0  0  0
  7 36  1  0  0  0  0
  7 37  1  0  0  0  0
  8  9  1  0  0  0  0
  8 38  1  0  0  0  0
  8 39  1  0  0  0  0
  9 10  1  0  0  0  0
  9 40  1  0  0  0  0
  9 41  1  0  0  0  0
 10 11  1  0  0  0  0
 11 16  1  0  0  0  0
 11 12  2  0  0  0  0
 12 13  1  0  0  0  0
 13 14  2  0  0  0  0
 13 42  1  0  0  0  0
 14 15  1  0  0  0  0
 15 19  1  0  0  0  0
 15 16  2  0  0  0  0
 16 17  1  0  0  0  0
 17 18  2  0  0  0  0
 18 19  1  0  0  0  0
 18 43  1  0  0  0  0
 19 20  1  0  0  0  0
 20 21  1  0  0  0  0
 20 44  1  0  0  0  0
 20 45  1  0  0  0  0
 21 22  1  0  0  0  0
 21 23  1  0  0  0  0
 21 46  1  0  0  0  0
 22 47  1  0  0  0  0
 23 27  1  0  0  0  0
 23 24  1  0  0  0  0
 23 48  1  0  0  0  0
 24 25  1  0  0  0  0
 24 49  1  0  0  0  0
 24 50  1  0  0  0  0
 25 26  1  0  0  0  0
 25 51  1  0  0  0  0
 25 52  1  0  0  0  0
 26 27  1  0  0  0  0
 26 53  1  0  0  0  0
 26 54  1  0  0  0  0
 28 29  1  0  0  0  0
 28 55  1  0  0  0  0
 28 56  1  0  0  0  0
 29 57  1  0  0  0  0
M  END
> <s_m_source_file>
AV-unprocessed.smi

> <i_m_source_file_index>
203

> <i_lp_mmshare_version>
43012

> <i_f3d_flags>
0

> <s_epik_input>
Tz1DMVtDSDJdW0NASF0oW0NIMl1bTkhdMSlbQ0BASF0yW0NIMl1bQ0gyXVtDSDJdW0NIMl1OMmMobltjSF1uMyljKGMzNCluW2NIXW40W0NIMl1bQ0BIXShbT0hdKVtDQEBIXTVbQ0gyXVtDSDJdW0NIMl1PNQ==

> <s_epik_cmdline>
J2VwaWtfcHl0aG9uJywgJy1waCcsICc3LjAnLCAnLXRuJywgJzgnLCAnLW1hJywgJzIwMCcsICctbWV0YWxfYmluZGluZycsICctaW1hZScsICc8aW5maWxlLm1hZT4nLCAnLW9tYWUnLCAnPG91dGZpbGUubWFlPic=

> <r_lp_tautomer_probability>
1

> <r_epik_Ionization_Penalty>
0.00175146

> <r_epik_Ionization_Penalty_Charging>
0

> <r_epik_Ionization_Penalty_Neutral>
0.00175146

> <r_epik_State_Penalty>
0.00109045

> <r_epik_Charging_Adjusted_Penalty>
0.00109045

> <i_epik_Tot_Q>
0

> <i_epik_Tot_abs_Q>
0

> <r_epik_Metal_State_Penalty>
-0

> <b_epik_Metal_Only>
0

> <s_lp_Force_Field>
OPLS_2005

> <r_lp_Energy>
57.4119

> <b_lp_Chiralities_Consistent>
1

> <s_lp_Variant>
AV-unprocessed.smi:203-15

> <Gold.Version>
5.8.1

> <Gold.Id.Protein>
6NUR|6NUR_protein|mol2

> <Gold.PLP.Fitness>
42.3927

> <Gold.PLP.PLP>
-41.2473

> <Gold.PLP.part.hbond>
-0.8700

> <Gold.PLP.part.metal>
0.0000

> <Gold.PLP.part.buried>
-6.1101

> <Gold.PLP.part.nonpolar>
-33.6468

> <Gold.PLP.part.repulsive>
0.3328

> <Gold.PLP.ligand.clash>
0.0047

> <Gold.PLP.ligand.torsion>
1.0985

> <Gold.PLP.Chemscore.Hbond>
0.0000

> <Gold.PLP.Chemscore.CHOScore>
0.9934

> <Gold.PLP.Chemscore.Metal>
0.0000

> <Gold.Chemscore.Hbonds>
donor molecule, donor type, donor heavy atom, donor atom, acceptor molecule, acceptor atom, score
      L1  C    13    42       P1  7957  0.81

> <Gold.PLP.Chemscore.Internal.Correction>
0.3669

> <Gold.Rescore>
     Score         DG    S(hbond)    S(metal)    S(lipo)     H(rot)  DE(clash)    DE(int)     intcor
      5.34      -9.98       0.00        0.00      97.92       2.72       0.13       4.50       ----

> <Gold.Chemscore.Fitness>
5.3428

> <Gold.Chemscore.DG>
-9.9814

> <Gold.Chemscore.ZeroCoef>
-5.4800

> <Gold.Chemscore.Hbond>
0.0000

> <Gold.Chemscore.Metal>
0.0000

> <Gold.Chemscore.Lipo>
97.9242

> <Gold.Chemscore.Internal_Hbond>
0.0000

> <Gold.Chemscore.DEClash>
0.1348

> <Gold.Chemscore.DEInternal>
4.5038

> <Gold.Chemscore.Rot>
2.7171

> <Gold.Chemscore.Internal.Correction>
   9.000000E+99

> <Gold.Chemscore.Hbond.Weighted>
-0.0000

> <Gold.Chemscore.Metal.Weighted>
-0.0000

> <Gold.Chemscore.Lipo.Weighted>
-11.4571

> <Gold.Chemscore.Internal_Hbond.Weighted>
0.0000

> <Gold.Chemscore.DEClash.Weighted>
0.1348

> <Gold.Chemscore.DEInternal.Weighted>
4.5038

> <Gold.Chemscore.Rot.Weighted>
6.9557

> <Gold.Chemscore.Internal.Correction.Weighted>
   9.000000E+99

> <Gold.Protein.RotatedTorsions>
[ 6907 6896 6895 6894 ] final  121.02 input  -60.11 | X-H torsion
[ 7974 7965 7964 7962 ] final  -37.62 input  175.53 | X-H torsion
[ 8008 7997 7996 7995 ] final   65.81 input   59.86 | X-H torsion
[ 10167 10162 10161 10158 ] final   90.30 input  -65.29 | X-H torsion
[ 10718 10713 10712 10709 ] final -179.55 input   66.30 | X-H torsion
[ 10763 10752 10751 10750 ] final -113.74 input  -60.55 | X-H torsion
[ 11005 11000 10999 10996 ] final  139.70 input  -57.11 | X-H torsion

> <Gold.Protein.ActiveResidues>
 VAL166  LYS551  ARG553  GLY616  TRP617  ASP618  TYR619  PRO620  LYS621  CYS622 
 ASP623  PHE694  ASN695  SER759  ASP760  ASP761  ALA762  ILE779  LEU786  VAL792 
 PHE793  MET794  SER795  GLU796  ALA797  LYS798  CYS799  TRP800  GLU811  SER814 

> <Gold.Protein.RotatedAtoms>
  152.4354  133.7351  159.6609 H   0  0  0  0  0  0  0  0  0  0  0  0  # atno 6907 bound_to 6896
  150.8237  133.8197  159.3134 H   0  0  0  0  0  0  0  0  0  0  0  0  # atno 6908 bound_to 6896
  151.5872  135.1057  160.0082 H   0  0  0  0  0  0  0  0  0  0  0  0  # atno 6909 bound_to 6896
  146.0559  140.6417  142.9020 H   0  0  0  0  0  0  0  0  0  0  0  0  # atno 7974 bound_to 7965
  155.6675  140.3497  155.4806 H   0  0  0  0  0  0  0  0  0  0  0  0  # atno 8008 bound_to 7997
  155.9716  140.1157  157.0830 H   0  0  0  0  0  0  0  0  0  0  0  0  # atno 8009 bound_to 7997
  154.4168  140.1156  156.5300 H   0  0  0  0  0  0  0  0  0  0  0  0  # atno 8010 bound_to 7997
  139.8487  144.6605  150.9196 H   0  0  0  0  0  0  0  0  0  0  0  0  # atno 10167 bound_to 10162
  156.8608  130.9751  151.3083 H   0  0  0  0  0  0  0  0  0  0  0  0  # atno 10718 bound_to 10713
  154.8410  135.4443  154.1397 H   0  0  0  0  0  0  0  0  0  0  0  0  # atno 10763 bound_to 10752
  153.2585  135.6934  153.7609 H   0  0  0  0  0  0  0  0  0  0  0  0  # atno 10764 bound_to 10752
  153.6895  135.3389  155.3174 H   0  0  0  0  0  0  0  0  0  0  0  0  # atno 10765 bound_to 10752
  140.0273  134.9368  157.0594 H   0  0  0  0  0  0  0  0  0  0  0  0  # atno 11005 bound_to 11000
  144.7147  140.4168  143.7053 LP  0  0  0  0  0  0  0  0  0  0  0  0  # atno 17320 bound_to 7965
  145.6645  139.1587  143.2789 LP  0  0  0  0  0  0  0  0  0  0  0  0  # atno 17321 bound_to 7965
  140.7790  143.3847  151.1414 LP  0  0  0  0  0  0  0  0  0  0  0  0  # atno 17342 bound_to 10162
  139.7487  143.8812  152.3071 LP  0  0  0  0  0  0  0  0  0  0  0  0  # atno 17343 bound_to 10162
  157.6251  130.8685  149.9176 LP  0  0  0  0  0  0  0  0  0  0  0  0  # atno 17370 bound_to 10713
  156.0778  130.3677  150.0642 LP  0  0  0  0  0  0  0  0  0  0  0  0  # atno 17371 bound_to 10713
  140.4284  134.1806  155.7167 LP  0  0  0  0  0  0  0  0  0  0  0  0  # atno 17394 bound_to 11000
  141.1810  133.8413  157.1256 LP  0  0  0  0  0  0  0  0  0  0  0  0  # atno 17395 bound_to 11000

$$$$
