AV-unprocessed.smi:1870|AV-procd|sdf|7594|dock3
  -GOLD-   22720 9303D 1   1.00000     0.00000
 Structure written by MMmdl.
 48 50  0  0  0  0  0  0  0  0  2 V2000
  146.9041  137.2337  162.8993 C   0  0  0  0  0  0  0  0  0  0  0  0
  147.3852  136.3111  161.8119 C   0  0  0  0  0  0  0  0  0  0  0  0
  147.9510  136.8651  160.7902 N   0  0  0  0  0  0  0  0  0  0  0  0
  148.4264  136.1125  159.7338 N   0  0  0  0  0  0  0  0  0  0  0  0
  149.0499  136.9055  158.6659 C   0  0  0  0  0  0  0  0  0  0  0  0
  150.1996  137.8049  159.1738 C   0  0  1  0  0  0  0  0  0  0  0  0
  151.3237  136.9733  159.3832 O   0  0  0  0  0  0  0  0  0  0  0  0
  150.5791  138.9247  158.1782 C   0  0  0  0  0  0  0  0  0  0  0  0
  151.0424  140.1711  158.8415 N   0  3  1  0  0  0  0  0  0  0  0  0
  152.5190  140.2953  158.8338 C   0  0  0  0  0  0  0  0  0  0  0  0
  152.9610  141.3964  159.8056 C   0  0  0  0  0  0  0  0  0  0  0  0
  152.2015  142.6924  159.5906 C   0  0  0  0  0  0  0  0  0  0  0  0
  152.7115  143.8983  160.1142 C   0  0  0  0  0  0  0  0  0  0  0  0
  151.9959  145.0995  159.9494 C   0  0  0  0  0  0  0  0  0  0  0  0
  150.7672  145.0979  159.2626 C   0  0  0  0  0  0  0  0  0  0  0  0
  150.2538  143.8954  158.7397 C   0  0  0  0  0  0  0  0  0  0  0  0
  150.9650  142.6879  158.9008 C   0  0  0  0  0  0  0  0  0  0  0  0
  150.3978  141.4022  158.3087 C   0  0  0  0  0  0  0  0  0  0  0  0
  148.3346  134.7548  159.6456 C   0  0  0  0  0  0  0  0  0  0  0  0
  148.7559  134.1250  158.6747 O   0  0  0  0  0  0  0  0  0  0  0  0
  147.7017  134.1323  160.8104 C   0  0  0  0  0  0  0  0  0  0  0  0
  147.5989  132.7093  160.7655 C   0  0  0  0  0  0  0  0  0  0  0  0
  147.5280  131.5541  160.7452 N   0  0  0  0  0  0  0  0  0  0  0  0
  147.2458  134.8592  161.8610 C   0  0  0  0  0  0  0  0  0  0  0  0
  146.5793  134.2587  163.0912 C   0  0  0  0  0  0  0  0  0  0  0  0
  145.8586  137.0392  163.1398 H   0  0  0  0  0  0  0  0  0  0  0  0
  146.9821  138.2822  162.6071 H   0  0  0  0  0  0  0  0  0  0  0  0
  147.4919  137.0989  163.8076 H   0  0  0  0  0  0  0  0  0  0  0  0
  149.4191  136.2335  157.8886 H   0  0  0  0  0  0  0  0  0  0  0  0
  148.2953  137.5238  158.1748 H   0  0  0  0  0  0  0  0  0  0  0  0
  149.9135  138.2251  160.1367 H   0  0  0  0  0  0  0  0  0  0  0  0
  152.0475  137.5026  159.6813 H   0  0  0  0  0  0  0  0  0  0  0  0
  151.3627  138.5454  157.5204 H   0  0  0  0  0  0  0  0  0  0  0  0
  149.7355  139.1732  157.5330 H   0  0  0  0  0  0  0  0  0  0  0  0
  152.9887  139.3555  159.1270 H   0  0  0  0  0  0  0  0  0  0  0  0
  152.8582  140.5176  157.8206 H   0  0  0  0  0  0  0  0  0  0  0  0
  152.7937  141.0723  160.8334 H   0  0  0  0  0  0  0  0  0  0  0  0
  154.0318  141.5763  159.7013 H   0  0  0  0  0  0  0  0  0  0  0  0
  153.6504  143.9045  160.6490 H   0  0  0  0  0  0  0  0  0  0  0  0
  152.3884  146.0217  160.3525 H   0  0  0  0  0  0  0  0  0  0  0  0
  150.2187  146.0199  159.1364 H   0  0  0  0  0  0  0  0  0  0  0  0
  149.3120  143.9040  158.2102 H   0  0  0  0  0  0  0  0  0  0  0  0
  150.5216  141.4439  157.2256 H   0  0  0  0  0  0  0  0  0  0  0  0
  149.3272  141.3798  158.5095 H   0  0  0  0  0  0  0  0  0  0  0  0
  146.6668  133.1729  163.1177 H   0  0  0  0  0  0  0  0  0  0  0  0
  145.5178  134.5072  163.1051 H   0  0  0  0  0  0  0  0  0  0  0  0
  147.0343  134.6398  164.0060 H   0  0  0  0  0  0  0  0  0  0  0  0
  150.7782  140.0938  159.8132 H   0  0  0  0  0  0  0  0  0  0  0  0
  1  2  1  0  0  0  0
  1 26  1  0  0  0  0
  1 27  1  0  0  0  0
  1 28  1  0  0  0  0
  2 24  1  0  0  0  0
  2  3  2  0  0  0  0
  3  4  1  0  0  0  0
  4  5  1  0  0  0  0
  4 19  1  0  0  0  0
  5  6  1  0  0  0  0
  5 29  1  0  0  0  0
  5 30  1  0  0  0  0
  6  7  1  0  0  0  0
  6  8  1  0  0  0  0
  6 31  1  0  0  0  0
  7 32  1  0  0  0  0
  8  9  1  0  0  0  0
  8 33  1  0  0  0  0
  8 34  1  0  0  0  0
  9 18  1  0  0  0  0
  9 10  1  0  0  0  0
  9 48  1  0  0  0  0
 10 11  1  0  0  0  0
 10 35  1  0  0  0  0
 10 36  1  0  0  0  0
 11 12  1  0  0  0  0
 11 37  1  0  0  0  0
 11 38  1  0  0  0  0
 12 17  2  0  0  0  0
 12 13  1  0  0  0  0
 13 14  2  0  0  0  0
 13 39  1  0  0  0  0
 14 15  1  0  0  0  0
 14 40  1  0  0  0  0
 15 16  2  0  0  0  0
 15 41  1  0  0  0  0
 16 17  1  0  0  0  0
 16 42  1  0  0  0  0
 17 18  1  0  0  0  0
 18 43  1  0  0  0  0
 18 44  1  0  0  0  0
 19 20  2  0  0  0  0
 19 21  1  0  0  0  0
 21 22  1  0  0  0  0
 21 24  2  0  0  0  0
 22 23  3  0  0  0  0
 24 25  1  0  0  0  0
 25 45  1  0  0  0  0
 25 46  1  0  0  0  0
 25 47  1  0  0  0  0
M  CHG  1   9   1
M  END
> <s_m_source_file>
AV-unprocessed.smi

> <i_m_source_file_index>
1870

> <i_lp_mmshare_version>
43012

> <i_f3d_flags>
0

> <s_epik_input>
TiNDYyhjMVtDSDNdKWMoPU8pbihuYzFbQ0gzXSlbQ0gyXVtDQEhdKFtPSF0pW0NIMl1OKFtDSDJdW0NIMl0yKVtDSDJdYyhjMjMpW2NIXVtjSF1bY0hdW2NIXTM=

> <s_epik_cmdline>
J2VwaWtfcHl0aG9uJywgJy1waCcsICc3LjAnLCAnLXRuJywgJzgnLCAnLW1hJywgJzIwMCcsICctbWV0YWxfYmluZGluZycsICctaW1hZScsICc8aW5maWxlLm1hZT4nLCAnLW9tYWUnLCAnPG91dGZpbGUubWFlPic=

> <r_epik_Ionization_Penalty>
0.0122865

> <r_epik_Ionization_Penalty_Charging>
0.0122864

> <r_epik_Ionization_Penalty_Neutral>
1.48087e-07

> <r_epik_State_Penalty>
0.00950248

> <r_epik_Charging_Adjusted_Penalty>
0.0217889

> <i_epik_Tot_Q>
1

> <i_epik_Tot_abs_Q>
1

> <r_epik_Metal_State_Penalty>
0.00950248

> <b_epik_Metal_Only>
0

> <s_lp_Force_Field>
OPLS_2005

> <r_lp_Energy>
36.9803

> <b_lp_Chiralities_Consistent>
1

> <s_lp_Variant>
AV-unprocessed.smi:1870-2

> <Gold.Version>
5.8.1

> <Gold.Id.Protein>
6NUR|6NUR_protein|mol2

> <Gold.PLP.Fitness>
56.6925

> <Gold.PLP.PLP>
-49.2969

> <Gold.PLP.part.hbond>
-4.0000

> <Gold.PLP.part.metal>
0.0000

> <Gold.PLP.part.buried>
-2.9053

> <Gold.PLP.part.nonpolar>
-42.6596

> <Gold.PLP.part.repulsive>
0.1847

> <Gold.PLP.ligand.clash>
0.0000

> <Gold.PLP.ligand.torsion>
1.2143

> <Gold.PLP.Chemscore.Hbond>
3.2549

> <Gold.PLP.Chemscore.CHOScore>
0.0000

> <Gold.PLP.Chemscore.Metal>
0.0000

> <Gold.Chemscore.Hbonds>
donor molecule, donor type, donor heavy atom, donor atom, acceptor molecule, acceptor atom, score
      P1  H  6896  6907       L1    20  0.80
      P1  H  6896  6908       L1     7  0.98
      P1  H  6931  6943       L1     3  0.70
      P1  H  6934  6947       L1     3  0.30

> <Gold.PLP.Chemscore.Internal.Correction>
0.0596

> <Gold.Rescore>
     Score         DG    S(hbond)    S(metal)    S(lipo)     H(rot)  DE(clash)    DE(int)     intcor
     17.73     -19.06       0.99        0.00     135.11       2.16       0.00       1.33       ----

> <Gold.Chemscore.Fitness>
17.7272

> <Gold.Chemscore.DG>
-19.0643

> <Gold.Chemscore.ZeroCoef>
-5.4800

> <Gold.Chemscore.Hbond>
0.9919

> <Gold.Chemscore.Metal>
0.0000

> <Gold.Chemscore.Lipo>
135.1104

> <Gold.Chemscore.Internal_Hbond>
0.0000

> <Gold.Chemscore.DEClash>
0.0048

> <Gold.Chemscore.DEInternal>
1.3322

> <Gold.Chemscore.Rot>
2.1628

> <Gold.Chemscore.Internal.Correction>
   9.000000E+99

> <Gold.Chemscore.Hbonds>
donor molecule, donor type, donor heavy atom, donor atom, acceptor molecule, acceptor atom, score
      P1  H  6896  6907       L1    20  0.13
      P1  H  6896  6908       L1     7  0.46
      P1  H  6931  6943       L1     3  0.10
      P1  H  6934  6947       L1     3  0.10

> <Gold.Chemscore.Hbond.Weighted>
-3.3131

> <Gold.Chemscore.Metal.Weighted>
-0.0000

> <Gold.Chemscore.Lipo.Weighted>
-15.8079

> <Gold.Chemscore.Internal_Hbond.Weighted>
0.0000

> <Gold.Chemscore.DEClash.Weighted>
0.0048

> <Gold.Chemscore.DEInternal.Weighted>
1.3322

> <Gold.Chemscore.Rot.Weighted>
5.5367

> <Gold.Chemscore.Internal.Correction.Weighted>
   9.000000E+99

> <Gold.Protein.RotatedTorsions>
[ 6907 6896 6895 6894 ] final -110.58 input  -60.11 | X-H torsion
[ 7974 7965 7964 7962 ] final  -15.49 input  175.53 | X-H torsion
[ 8008 7997 7996 7995 ] final   24.56 input   59.86 | X-H torsion
[ 10167 10162 10161 10158 ] final  124.39 input  -65.29 | X-H torsion
[ 10718 10713 10712 10709 ] final  140.34 input   66.30 | X-H torsion
[ 10763 10752 10751 10750 ] final  -62.79 input  -60.55 | X-H torsion
[ 11005 11000 10999 10996 ] final  -34.13 input  -57.11 | X-H torsion

> <Gold.Protein.ActiveResidues>
 VAL166  LYS551  ARG553  GLY616  TRP617  ASP618  TYR619  PRO620  LYS621  CYS622 
 ASP623  PHE694  ASN695  SER759  ASP760  ASP761  ALA762  ILE779  LEU786  VAL792 
 PHE793  MET794  SER795  GLU796  ALA797  LYS798  CYS799  TRP800  GLU811  SER814 

> <Gold.Protein.RotatedAtoms>
  150.7634  133.9360  159.3441 H   0  0  0  0  0  0  0  0  0  0  0  0  # atno 6907 bound_to 6896
  151.7264  135.0882  160.0302 H   0  0  0  0  0  0  0  0  0  0  0  0  # atno 6908 bound_to 6896
  152.3618  133.6268  159.6056 H   0  0  0  0  0  0  0  0  0  0  0  0  # atno 6909 bound_to 6896
  146.2030  140.3500  142.8417 H   0  0  0  0  0  0  0  0  0  0  0  0  # atno 7974 bound_to 7965
  154.9982  140.3122  155.4878 H   0  0  0  0  0  0  0  0  0  0  0  0  # atno 8008 bound_to 7997
  156.2929  140.2237  156.5031 H   0  0  0  0  0  0  0  0  0  0  0  0  # atno 8009 bound_to 7997
  154.7642  140.0457  157.0987 H   0  0  0  0  0  0  0  0  0  0  0  0  # atno 8010 bound_to 7997
  139.5744  144.6956  151.3692 H   0  0  0  0  0  0  0  0  0  0  0  0  # atno 10167 bound_to 10162
  157.4043  131.1020  151.0519 H   0  0  0  0  0  0  0  0  0  0  0  0  # atno 10718 bound_to 10713
  154.3052  135.6227  153.5441 H   0  0  0  0  0  0  0  0  0  0  0  0  # atno 10763 bound_to 10752
  152.9836  135.5688  154.5240 H   0  0  0  0  0  0  0  0  0  0  0  0  # atno 10764 bound_to 10752
  154.4878  135.2866  155.1497 H   0  0  0  0  0  0  0  0  0  0  0  0  # atno 10765 bound_to 10752
  140.9691  133.7120  156.1494 H   0  0  0  0  0  0  0  0  0  0  0  0  # atno 11005 bound_to 11000
  144.8726  140.7293  143.6037 LP  0  0  0  0  0  0  0  0  0  0  0  0  # atno 17320 bound_to 7965
  145.3419  139.1730  143.4481 LP  0  0  0  0  0  0  0  0  0  0  0  0  # atno 17321 bound_to 7965
  140.7028  143.7590  150.7431 LP  0  0  0  0  0  0  0  0  0  0  0  0  # atno 17342 bound_to 10162
  140.1106  143.4703  152.2372 LP  0  0  0  0  0  0  0  0  0  0  0  0  # atno 17343 bound_to 10162
  157.1507  130.6183  149.5581 LP  0  0  0  0  0  0  0  0  0  0  0  0  # atno 17370 bound_to 10713
  155.9832  130.4850  150.6921 LP  0  0  0  0  0  0  0  0  0  0  0  0  # atno 17371 bound_to 10713
  140.7355  134.4207  157.5561 LP  0  0  0  0  0  0  0  0  0  0  0  0  # atno 17394 bound_to 11000
  139.8905  134.8802  156.2364 LP  0  0  0  0  0  0  0  0  0  0  0  0  # atno 17395 bound_to 11000

$$$$
