AV-unprocessed.smi:2143|AV-procd|sdf|8724|dock7
  -GOLD-   2272011493D 1   1.00000     0.00000
 Structure written by MMmdl.
 44 45  0  0  0  0  0  0  0  0  1 V2000
  152.1895  145.0236  160.6327 C   0  0  0  0  0  0  0  0  0  0  0  0
  152.2999  143.9906  159.4955 C   0  0  2  0  0  0  0  0  0  0  0  0
  151.1814  144.2408  158.4640 C   0  0  0  0  0  0  0  0  0  0  0  0
  151.2620  143.2632  157.2870 C   0  0  0  0  0  0  0  0  0  0  0  0
  151.1988  141.8164  157.7839 C   0  0  0  0  0  0  0  0  0  0  0  0
  152.3137  141.5240  158.8075 C   0  0  2  0  0  0  0  0  0  0  0  0
  152.1821  140.1467  159.2800 N   0  0  0  0  0  0  0  0  0  0  0  0
  153.1652  139.2341  159.3015 C   0  0  0  0  0  0  0  0  0  0  0  0
  154.3178  139.4723  158.9384 O   0  0  0  0  0  0  0  0  0  0  0  0
  152.7847  137.8449  159.8304 C   0  0  0  0  0  0  0  0  0  0  0  0
  153.6709  137.3836  160.9065 N   0  0  0  0  0  0  0  0  0  0  0  0
  153.8872  138.1875  162.0110 C   0  0  0  0  0  0  0  0  0  0  0  0
  154.7021  137.8456  163.0329 C   0  0  0  0  0  0  0  0  0  0  0  0
  155.4165  136.5747  163.0286 C   0  0  0  0  0  0  0  0  0  0  0  0
  156.1842  136.2340  163.9291 O   0  0  0  0  0  0  0  0  0  0  0  0
  155.1653  135.7648  161.8948 N   0  0  0  0  0  0  0  0  0  0  0  0
  155.8428  134.4892  161.7885 C   0  0  0  0  0  0  0  0  0  0  0  0
  154.3233  136.1346  160.8226 C   0  0  0  0  0  0  0  0  0  0  0  0
  154.1609  135.4061  159.8403 O   0  0  0  0  0  0  0  0  0  0  0  0
  152.2785  142.5191  159.9996 C   0  0  1  0  0  0  0  0  0  0  0  0
  153.4245  142.2325  160.9948 C   0  0  0  0  0  0  0  0  0  0  0  0
  151.2970  144.8553  161.2362 H   0  0  0  0  0  0  0  0  0  0  0  0
  152.1331  146.0374  160.2353 H   0  0  0  0  0  0  0  0  0  0  0  0
  153.0550  144.9958  161.2937 H   0  0  0  0  0  0  0  0  0  0  0  0
  153.2534  144.1608  158.9929 H   0  0  0  0  0  0  0  0  0  0  0  0
  150.2068  144.1499  158.9459 H   0  0  0  0  0  0  0  0  0  0  0  0
  151.2427  145.2619  158.0861 H   0  0  0  0  0  0  0  0  0  0  0  0
  150.4460  143.4525  156.5892 H   0  0  0  0  0  0  0  0  0  0  0  0
  152.1881  143.4246  156.7339 H   0  0  0  0  0  0  0  0  0  0  0  0
  150.2230  141.6297  158.2349 H   0  0  0  0  0  0  0  0  0  0  0  0
  151.2794  141.1389  156.9330 H   0  0  0  0  0  0  0  0  0  0  0  0
  153.2784  141.6361  158.3085 H   0  0  0  0  0  0  0  0  0  0  0  0
  151.2681  139.8641  159.6030 H   0  0  0  0  0  0  0  0  0  0  0  0
  151.7544  137.8873  160.1863 H   0  0  0  0  0  0  0  0  0  0  0  0
  152.7851  137.1212  159.0131 H   0  0  0  0  0  0  0  0  0  0  0  0
  153.3852  139.1429  162.0596 H   0  0  0  0  0  0  0  0  0  0  0  0
  154.8307  138.5242  163.8634 H   0  0  0  0  0  0  0  0  0  0  0  0
  155.1313  133.7511  161.4142 H   0  0  0  0  0  0  0  0  0  0  0  0
  156.1952  134.1583  162.7655 H   0  0  0  0  0  0  0  0  0  0  0  0
  156.6747  134.6295  161.0970 H   0  0  0  0  0  0  0  0  0  0  0  0
  151.3380  142.3648  160.5314 H   0  0  0  0  0  0  0  0  0  0  0  0
  154.3974  142.4185  160.5387 H   0  0  0  0  0  0  0  0  0  0  0  0
  153.4155  141.1988  161.3400 H   0  0  0  0  0  0  0  0  0  0  0  0
  153.3500  142.8501  161.8888 H   0  0  0  0  0  0  0  0  0  0  0  0
  1  2  1  0  0  0  0
  1 22  1  0  0  0  0
  1 23  1  0  0  0  0
  1 24  1  0  0  0  0
  2 20  1  0  0  0  0
  2  3  1  0  0  0  0
  2 25  1  0  0  0  0
  3  4  1  0  0  0  0
  3 26  1  0  0  0  0
  3 27  1  0  0  0  0
  4  5  1  0  0  0  0
  4 28  1  0  0  0  0
  4 29  1  0  0  0  0
  5  6  1  0  0  0  0
  5 30  1  0  0  0  0
  5 31  1  0  0  0  0
  6  7  1  0  0  0  0
  6 20  1  0  0  0  0
  6 32  1  0  0  0  0
  7  8  1  0  0  0  0
  7 33  1  0  0  0  0
  8  9  2  0  0  0  0
  8 10  1  0  0  0  0
 10 11  1  0  0  0  0
 10 34  1  0  0  0  0
 10 35  1  0  0  0  0
 11 18  1  0  0  0  0
 11 12  1  0  0  0  0
 12 13  2  0  0  0  0
 12 36  1  0  0  0  0
 13 14  1  0  0  0  0
 13 37  1  0  0  0  0
 14 15  2  0  0  0  0
 14 16  1  0  0  0  0
 16 17  1  0  0  0  0
 16 18  1  0  0  0  0
 17 38  1  0  0  0  0
 17 39  1  0  0  0  0
 17 40  1  0  0  0  0
 18 19  2  0  0  0  0
 20 21  1  0  0  0  0
 20 41  1  0  0  0  0
 21 42  1  0  0  0  0
 21 43  1  0  0  0  0
 21 44  1  0  0  0  0
M  END
> <s_m_source_file>
AV-unprocessed.smi

> <i_m_source_file_index>
2143

> <i_lp_mmshare_version>
43012

> <i_f3d_flags>
0

> <s_epik_input>
W0NIM11bQ0BASF0xW0NIMl1bQ0gyXVtDSDJdW0NASF0oW0NASF0xW0NIM10pW05IXUMoPU8pW0NIMl1uMltjSF1bY0hdYyg9TyluKFtDSDNdKWMyPU8=

> <s_epik_cmdline>
J2VwaWtfcHl0aG9uJywgJy1waCcsICc3LjAnLCAnLXRuJywgJzgnLCAnLW1hJywgJzIwMCcsICctbWV0YWxfYmluZGluZycsICctaW1hZScsICc8aW5maWxlLm1hZT4nLCAnLW9tYWUnLCAnPG91dGZpbGUubWFlPic=

> <r_lp_tautomer_probability>
1

> <r_epik_Ionization_Penalty>
3.18445e-08

> <r_epik_Ionization_Penalty_Charging>
1.27977e-08

> <r_epik_Ionization_Penalty_Neutral>
1.90469e-08

> <r_epik_State_Penalty>
-0

> <r_epik_Charging_Adjusted_Penalty>
1.27977e-08

> <i_epik_Tot_Q>
0

> <i_epik_Tot_abs_Q>
0

> <r_epik_Metal_State_Penalty>
-0

> <b_epik_Metal_Only>
0

> <s_lp_Force_Field>
OPLS_2005

> <r_lp_Energy>
20.5946

> <b_lp_Chiralities_Consistent>
1

> <s_lp_Variant>
AV-unprocessed.smi:2143-3

> <Gold.Version>
5.8.1

> <Gold.Id.Protein>
6NUR|6NUR_protein|mol2

> <Gold.PLP.Fitness>
45.4179

> <Gold.PLP.PLP>
-39.8068

> <Gold.PLP.part.hbond>
-2.0000

> <Gold.PLP.part.metal>
0.0000

> <Gold.PLP.part.buried>
-4.6137

> <Gold.PLP.part.nonpolar>
-33.6148

> <Gold.PLP.part.repulsive>
0.1816

> <Gold.PLP.ligand.clash>
0.0000

> <Gold.PLP.ligand.torsion>
0.1984

> <Gold.PLP.Chemscore.Hbond>
2.0000

> <Gold.PLP.Chemscore.CHOScore>
0.0000

> <Gold.PLP.Chemscore.Metal>
0.0000

> <Gold.Chemscore.Hbonds>
donor molecule, donor type, donor heavy atom, donor atom, acceptor molecule, acceptor atom, score
      P1  H  6896  6907       L1    19  1.00
      P1  H  7997  8008       L1     9  1.00

> <Gold.PLP.Chemscore.Internal.Correction>
0.0078

> <Gold.Rescore>
     Score         DG    S(hbond)    S(metal)    S(lipo)     H(rot)  DE(clash)    DE(int)     intcor
     20.25     -20.47       1.98        0.00     104.71       1.51       0.04       0.18       ----

> <Gold.Chemscore.Fitness>
20.2531

> <Gold.Chemscore.DG>
-20.4730

> <Gold.Chemscore.ZeroCoef>
-5.4800

> <Gold.Chemscore.Hbond>
1.9807

> <Gold.Chemscore.Metal>
0.0000

> <Gold.Chemscore.Lipo>
104.7095

> <Gold.Chemscore.Internal_Hbond>
0.0000

> <Gold.Chemscore.DEClash>
0.0424

> <Gold.Chemscore.DEInternal>
0.1774

> <Gold.Chemscore.Rot>
1.5131

> <Gold.Chemscore.Internal.Correction>
   9.000000E+99

> <Gold.Chemscore.Hbonds>
donor molecule, donor type, donor heavy atom, donor atom, acceptor molecule, acceptor atom, score
      P1  H  6896  6907       L1    19  0.70
      P1  H  7997  8008       L1     9  0.95

> <Gold.Chemscore.Hbond.Weighted>
-6.6154

> <Gold.Chemscore.Metal.Weighted>
-0.0000

> <Gold.Chemscore.Lipo.Weighted>
-12.2510

> <Gold.Chemscore.Internal_Hbond.Weighted>
0.0000

> <Gold.Chemscore.DEClash.Weighted>
0.0424

> <Gold.Chemscore.DEInternal.Weighted>
0.1774

> <Gold.Chemscore.Rot.Weighted>
3.8734

> <Gold.Chemscore.Internal.Correction.Weighted>
   9.000000E+99

> <Gold.Protein.RotatedTorsions>
[ 6907 6896 6895 6894 ] final   67.05 input  -60.11 | X-H torsion
[ 7974 7965 7964 7962 ] final -140.42 input  175.53 | X-H torsion
[ 8008 7997 7996 7995 ] final -130.41 input   59.86 | X-H torsion
[ 10167 10162 10161 10158 ] final  133.37 input  -65.29 | X-H torsion
[ 10718 10713 10712 10709 ] final  -31.83 input   66.30 | X-H torsion
[ 10763 10752 10751 10750 ] final  178.75 input  -60.55 | X-H torsion
[ 11005 11000 10999 10996 ] final  176.52 input  -57.11 | X-H torsion

> <Gold.Protein.ActiveResidues>
 VAL166  LYS551  ARG553  GLY616  TRP617  ASP618  TYR619  PRO620  LYS621  CYS622 
 ASP623  PHE694  ASN695  SER759  ASP760  ASP761  ALA762  ILE779  LEU786  VAL792 
 PHE793  MET794  SER795  GLU796  ALA797  LYS798  CYS799  TRP800  GLU811  SER814 

> <Gold.Protein.RotatedAtoms>
  152.4525  134.5364  159.9825 H   0  0  0  0  0  0  0  0  0  0  0  0  # atno 6907 bound_to 6896
  151.5433  133.3423  159.2947 H   0  0  0  0  0  0  0  0  0  0  0  0  # atno 6908 bound_to 6896
  150.8458  134.7797  159.7032 H   0  0  0  0  0  0  0  0  0  0  0  0  # atno 6909 bound_to 6896
  144.8599  140.6202  143.5335 H   0  0  0  0  0  0  0  0  0  0  0  0  # atno 7974 bound_to 7965
  155.2954  140.0450  157.3026 H   0  0  0  0  0  0  0  0  0  0  0  0  # atno 8008 bound_to 7997
  154.5517  140.2319  155.8442 H   0  0  0  0  0  0  0  0  0  0  0  0  # atno 8009 bound_to 7997
  156.1972  140.3035  155.9459 H   0  0  0  0  0  0  0  0  0  0  0  0  # atno 8010 bound_to 7997
  139.5300  144.6619  151.4986 H   0  0  0  0  0  0  0  0  0  0  0  0  # atno 10167 bound_to 10162
  156.3824  130.4358  149.7459 H   0  0  0  0  0  0  0  0  0  0  0  0  # atno 10718 bound_to 10713
  154.5118  135.2789  155.1336 H   0  0  0  0  0  0  0  0  0  0  0  0  # atno 10763 bound_to 10752
  154.2929  135.6263  153.5396 H   0  0  0  0  0  0  0  0  0  0  0  0  # atno 10764 bound_to 10752
  152.9920  135.5678  154.5585 H   0  0  0  0  0  0  0  0  0  0  0  0  # atno 10765 bound_to 10752
  140.3740  134.7005  157.4410 H   0  0  0  0  0  0  0  0  0  0  0  0  # atno 11005 bound_to 11000
  145.4333  139.1546  143.4010 LP  0  0  0  0  0  0  0  0  0  0  0  0  # atno 17320 bound_to 7965
  146.2852  140.4451  142.8761 LP  0  0  0  0  0  0  0  0  0  0  0  0  # atno 17321 bound_to 7965
  140.6471  143.8772  150.6748 LP  0  0  0  0  0  0  0  0  0  0  0  0  # atno 17342 bound_to 10162
  140.2125  143.3872  152.1707 LP  0  0  0  0  0  0  0  0  0  0  0  0  # atno 17343 bound_to 10162
  156.4544  130.7922  151.2943 LP  0  0  0  0  0  0  0  0  0  0  0  0  # atno 17370 bound_to 10713
  157.7493  131.0085  150.3232 LP  0  0  0  0  0  0  0  0  0  0  0  0  # atno 17371 bound_to 10713
  140.0530  134.6104  155.8839 LP  0  0  0  0  0  0  0  0  0  0  0  0  # atno 17394 bound_to 11000
  141.1945  133.6583  156.5599 LP  0  0  0  0  0  0  0  0  0  0  0  0  # atno 17395 bound_to 11000

$$$$
