AV-unprocessed.smi:1929|AV-procd|sdf|7801|dock2
  -GOLD-   22720 9543D 1   1.00000     0.00000
 Structure written by MMmdl.
 43 44  0  0  0  0  0  0  0  0  2 V2000
  142.0048  138.5264  154.9876 C   0  0  0  0  0  0  0  0  0  0  0  0
  142.7826  139.7499  154.8605 N   0  0  0  0  0  0  0  0  0  0  0  0
  143.2068  140.4847  155.8984 C   0  0  0  0  0  0  0  0  0  0  0  0
  142.9847  140.1865  157.0725 O   0  0  0  0  0  0  0  0  0  0  0  0
  144.0190  141.7384  155.5561 C   0  0  0  0  0  0  0  0  0  0  0  0
  145.2533  141.4389  154.7852 N   0  3  2  0  0  0  0  0  0  0  0  0
  146.2372  140.6284  155.5513 C   0  0  0  0  0  0  0  0  0  0  0  0
  147.4270  140.2206  154.6656 C   0  0  0  0  0  0  0  0  0  0  0  0
  148.1159  141.4430  154.0258 C   0  0  2  0  0  0  0  0  0  0  0  0
  148.8483  142.2390  155.0112 N   0  0  0  0  0  0  0  0  0  0  0  0
  149.7865  141.7671  155.8459 C   0  0  0  0  0  0  0  0  0  0  0  0
  150.1159  140.5825  155.8889 O   0  0  0  0  0  0  0  0  0  0  0  0
  150.2867  142.7478  156.6184 N   0  0  0  0  0  0  0  0  0  0  0  0
  151.2995  142.6773  157.6148 C   0  0  0  0  0  0  0  0  0  0  0  0
  151.6688  141.3974  158.0784 C   0  0  0  0  0  0  0  0  0  0  0  0
  152.6594  141.2941  159.0754 C   0  0  0  0  0  0  0  0  0  0  0  0
  153.2762  142.3630  159.6213 N   0  0  0  0  0  0  0  0  0  0  0  0
  152.9142  143.5881  159.1854 C   0  0  0  0  0  0  0  0  0  0  0  0
  151.9356  143.8022  158.1940 C   0  0  0  0  0  0  0  0  0  0  0  0
  147.0676  142.3086  153.3048 C   0  0  0  0  0  0  0  0  0  0  0  0
  145.8776  142.6610  154.2170 C   0  0  0  0  0  0  0  0  0  0  0  0
  141.7907  138.1177  153.9999 H   0  0  0  0  0  0  0  0  0  0  0  0
  141.0555  138.7189  155.4892 H   0  0  0  0  0  0  0  0  0  0  0  0
  142.5527  137.7737  155.5557 H   0  0  0  0  0  0  0  0  0  0  0  0
  143.0111  140.0545  153.9251 H   0  0  0  0  0  0  0  0  0  0  0  0
  143.3642  142.3813  154.9660 H   0  0  0  0  0  0  0  0  0  0  0  0
  144.2697  142.2936  156.4617 H   0  0  0  0  0  0  0  0  0  0  0  0
  146.5863  141.1949  156.4160 H   0  0  0  0  0  0  0  0  0  0  0  0
  145.7606  139.7279  155.9398 H   0  0  0  0  0  0  0  0  0  0  0  0
  148.1400  139.6332  155.2449 H   0  0  0  0  0  0  0  0  0  0  0  0
  147.0683  139.5597  153.8753 H   0  0  0  0  0  0  0  0  0  0  0  0
  148.8335  141.0919  153.2819 H   0  0  0  0  0  0  0  0  0  0  0  0
  148.6425  143.2268  155.0437 H   0  0  0  0  0  0  0  0  0  0  0  0
  149.8649  143.6575  156.5043 H   0  0  0  0  0  0  0  0  0  0  0  0
  151.2072  140.5061  157.6786 H   0  0  0  0  0  0  0  0  0  0  0  0
  152.9633  140.3260  159.4450 H   0  0  0  0  0  0  0  0  0  0  0  0
  153.4164  144.4262  159.6453 H   0  0  0  0  0  0  0  0  0  0  0  0
  151.6927  144.8151  157.9145 H   0  0  0  0  0  0  0  0  0  0  0  0
  147.5282  143.2192  152.9193 H   0  0  0  0  0  0  0  0  0  0  0  0
  146.6968  141.7666  152.4336 H   0  0  0  0  0  0  0  0  0  0  0  0
  145.1389  143.2159  153.6374 H   0  0  0  0  0  0  0  0  0  0  0  0
  146.1993  143.3167  155.0278 H   0  0  0  0  0  0  0  0  0  0  0  0
  144.9603  140.8777  153.9977 H   0  0  0  0  0  0  0  0  0  0  0  0
  1  2  1  0  0  0  0
  1 22  1  0  0  0  0
  1 23  1  0  0  0  0
  1 24  1  0  0  0  0
  2  3  1  0  0  0  0
  2 25  1  0  0  0  0
  3  4  2  0  0  0  0
  3  5  1  0  0  0  0
  5  6  1  0  0  0  0
  5 26  1  0  0  0  0
  5 27  1  0  0  0  0
  6 21  1  0  0  0  0
  6  7  1  0  0  0  0
  6 43  1  0  0  0  0
  7  8  1  0  0  0  0
  7 28  1  0  0  0  0
  7 29  1  0  0  0  0
  8  9  1  0  0  0  0
  8 30  1  0  0  0  0
  8 31  1  0  0  0  0
  9 10  1  0  0  0  0
  9 20  1  0  0  0  0
  9 32  1  0  0  0  0
 10 11  1  0  0  0  0
 10 33  1  0  0  0  0
 11 12  2  0  0  0  0
 11 13  1  0  0  0  0
 13 14  1  0  0  0  0
 13 34  1  0  0  0  0
 14 19  1  0  0  0  0
 14 15  2  0  0  0  0
 15 16  1  0  0  0  0
 15 35  1  0  0  0  0
 16 17  2  0  0  0  0
 16 36  1  0  0  0  0
 17 18  1  0  0  0  0
 18 19  2  0  0  0  0
 18 37  1  0  0  0  0
 19 38  1  0  0  0  0
 20 21  1  0  0  0  0
 20 39  1  0  0  0  0
 20 40  1  0  0  0  0
 21 41  1  0  0  0  0
 21 42  1  0  0  0  0
M  CHG  1   6   1
M  END
> <s_m_source_file>
AV-unprocessed.smi

> <i_m_source_file_index>
1929

> <i_lp_mmshare_version>
43012

> <i_f3d_flags>
0

> <s_epik_input>
W0NIM11bTkhdQyg9TylbQ0gyXU4xW0NIMl1bQ0gyXVtDSF0oW0NIMl1bQ0gyXTEpW05IXUMoPU8pW05IXWMyW2NIXVtjSF1uW2NIXVtjSF0y

> <s_epik_cmdline>
J2VwaWtfcHl0aG9uJywgJy1waCcsICc3LjAnLCAnLXRuJywgJzgnLCAnLW1hJywgJzIwMCcsICctbWV0YWxfYmluZGluZycsICctaW1hZScsICc8aW5maWxlLm1hZT4nLCAnLW9tYWUnLCAnPG91dGZpbGUubWFlPic=

> <r_epik_Ionization_Penalty>
0.938295

> <r_epik_Ionization_Penalty_Charging>
0.838844

> <r_epik_Ionization_Penalty_Neutral>
0.0994513

> <r_epik_State_Penalty>
0.957722

> <r_epik_Charging_Adjusted_Penalty>
1.79657

> <i_epik_Tot_Q>
1

> <i_epik_Tot_abs_Q>
1

> <r_epik_Metal_State_Penalty>
0.961727

> <b_epik_Metal_Only>
0

> <s_lp_Force_Field>
OPLS_2005

> <r_lp_Energy>
19.6911

> <b_lp_Chiralities_Consistent>
1

> <s_lp_Variant>
AV-unprocessed.smi:1929-3

> <Gold.Version>
5.8.1

> <Gold.Id.Protein>
6NUR|6NUR_protein|mol2

> <Gold.PLP.Fitness>
47.4003

> <Gold.PLP.PLP>
-32.5707

> <Gold.PLP.part.hbond>
-4.0000

> <Gold.PLP.part.metal>
0.0000

> <Gold.PLP.part.buried>
-6.1118

> <Gold.PLP.part.nonpolar>
-23.3193

> <Gold.PLP.part.repulsive>
0.3262

> <Gold.PLP.ligand.clash>
0.0000

> <Gold.PLP.ligand.torsion>
0.1040

> <Gold.PLP.Chemscore.Hbond>
5.0000

> <Gold.PLP.Chemscore.CHOScore>
0.0000

> <Gold.PLP.Chemscore.Metal>
0.0000

> <Gold.Chemscore.Hbonds>
donor molecule, donor type, donor heavy atom, donor atom, acceptor molecule, acceptor atom, score
      L1  H     2    25       P1 10175  1.00
      L1  H     6    43       P1 10175  2.00
      L1  H    10    33       P1  8028  1.00
      L1  H    13    34       P1  8028  1.00

> <Gold.PLP.Chemscore.Internal.Correction>
0.0376

> <Gold.Rescore>
     Score         DG    S(hbond)    S(metal)    S(lipo)     H(rot)  DE(clash)    DE(int)     intcor
     19.73     -23.50       3.87        0.00      80.50       1.69       1.31       2.46       ----

> <Gold.Chemscore.Fitness>
19.7259

> <Gold.Chemscore.DG>
-23.4981

> <Gold.Chemscore.ZeroCoef>
-5.4800

> <Gold.Chemscore.Hbond>
3.8678

> <Gold.Chemscore.Metal>
0.0000

> <Gold.Chemscore.Lipo>
80.5031

> <Gold.Chemscore.Internal_Hbond>
0.0000

> <Gold.Chemscore.DEClash>
1.3082

> <Gold.Chemscore.DEInternal>
2.4640

> <Gold.Chemscore.Rot>
1.6873

> <Gold.Chemscore.Internal.Correction>
   9.000000E+99

> <Gold.Chemscore.Hbonds>
donor molecule, donor type, donor heavy atom, donor atom, acceptor molecule, acceptor atom, score
      L1  H     2    25       P1 10175  0.98
      L1  H     6    43       P1 10175  0.83
      L1  H    10    33       P1  8028  0.96
      L1  H    13    34       P1  8028  0.96

> <Gold.Chemscore.Hbond.Weighted>
-12.9186

> <Gold.Chemscore.Metal.Weighted>
-0.0000

> <Gold.Chemscore.Lipo.Weighted>
-9.4189

> <Gold.Chemscore.Internal_Hbond.Weighted>
0.0000

> <Gold.Chemscore.DEClash.Weighted>
1.3082

> <Gold.Chemscore.DEInternal.Weighted>
2.4640

> <Gold.Chemscore.Rot.Weighted>
4.3194

> <Gold.Chemscore.Internal.Correction.Weighted>
   9.000000E+99

> <Gold.Protein.RotatedTorsions>
[ 6907 6896 6895 6894 ] final -178.75 input  -60.11 | X-H torsion
[ 7974 7965 7964 7962 ] final   23.79 input  175.53 | X-H torsion
[ 8008 7997 7996 7995 ] final  -63.63 input   59.86 | X-H torsion
[ 10167 10162 10161 10158 ] final   22.83 input  -65.29 | X-H torsion
[ 10718 10713 10712 10709 ] final   79.43 input   66.30 | X-H torsion
[ 10763 10752 10751 10750 ] final  129.89 input  -60.55 | X-H torsion
[ 11005 11000 10999 10996 ] final   78.78 input  -57.11 | X-H torsion

> <Gold.Protein.ActiveResidues>
 VAL166  LYS551  ARG553  GLY616  TRP617  ASP618  TYR619  PRO620  LYS621  CYS622 
 ASP623  PHE694  ASN695  SER759  ASP760  ASP761  ALA762  ILE779  LEU786  VAL792 
 PHE793  MET794  SER795  GLU796  ALA797  LYS798  CYS799  TRP800  GLU811  SER814 

> <Gold.Protein.RotatedAtoms>
  151.6424  133.3325  159.3132 H   0  0  0  0  0  0  0  0  0  0  0  0  # atno 6907 bound_to 6896
  150.8001  134.7093  159.6604 H   0  0  0  0  0  0  0  0  0  0  0  0  # atno 6908 bound_to 6896
  152.4093  134.6157  160.0089 H   0  0  0  0  0  0  0  0  0  0  0  0  # atno 6909 bound_to 6896
  146.1968  139.7696  142.8791 H   0  0  0  0  0  0  0  0  0  0  0  0  # atno 7974 bound_to 7965
  154.4565  140.0970  156.6773 H   0  0  0  0  0  0  0  0  0  0  0  0  # atno 8008 bound_to 7997
  155.5122  140.3476  155.4372 H   0  0  0  0  0  0  0  0  0  0  0  0  # atno 8009 bound_to 7997
  156.0788  140.1368  156.9727 H   0  0  0  0  0  0  0  0  0  0  0  0  # atno 8010 bound_to 7997
  140.5317  143.9830  150.6469 H   0  0  0  0  0  0  0  0  0  0  0  0  # atno 10167 bound_to 10162
  157.6776  130.9914  150.1931 H   0  0  0  0  0  0  0  0  0  0  0  0  # atno 10718 bound_to 10713
  153.7490  135.3212  155.3318 H   0  0  0  0  0  0  0  0  0  0  0  0  # atno 10763 bound_to 10752
  154.8269  135.4563  154.0950 H   0  0  0  0  0  0  0  0  0  0  0  0  # atno 10764 bound_to 10752
  153.2148  135.6940  153.8153 H   0  0  0  0  0  0  0  0  0  0  0  0  # atno 10765 bound_to 10752
  139.9199  134.7790  156.1694 H   0  0  0  0  0  0  0  0  0  0  0  0  # atno 11005 bound_to 11000
  145.3617  141.0327  143.3281 LP  0  0  0  0  0  0  0  0  0  0  0  0  # atno 17320 bound_to 7965
  144.8597  139.5195  143.6818 LP  0  0  0  0  0  0  0  0  0  0  0  0  # atno 17321 bound_to 7965
  140.3207  143.3139  152.0787 LP  0  0  0  0  0  0  0  0  0  0  0  0  # atno 17342 bound_to 10162
  139.4956  144.6576  151.6538 LP  0  0  0  0  0  0  0  0  0  0  0  0  # atno 17343 bound_to 10162
  156.2638  130.3714  149.8102 LP  0  0  0  0  0  0  0  0  0  0  0  0  # atno 17370 bound_to 10713
  156.5839  130.8477  151.3390 LP  0  0  0  0  0  0  0  0  0  0  0  0  # atno 17371 bound_to 10713
  141.0710  133.6797  156.2140 LP  0  0  0  0  0  0  0  0  0  0  0  0  # atno 17394 bound_to 11000
  140.6507  134.5070  157.5577 LP  0  0  0  0  0  0  0  0  0  0  0  0  # atno 17395 bound_to 11000

$$$$
