#       Name:                AV-unprocessed.smi:3117
#       Creating user name   scv26
#       Creation time:       Fri Mar 27 17:27:23 2020


#       File generated by GOLD software.
#

@<TRIPOS>MOLECULE
AV-unprocessed.smi:3117
    40    40     1
SMALL
NO_CHARGES


@<TRIPOS>ATOM
      1 ****        -1.1898  -0.9774  -1.7570 C.3            1 S1                 0.0000
      2 ****        -0.6646  -0.0997  -0.6054 C.3            1 S1                 0.0000
      3 ****         0.7991  -0.0797  -0.6794 N.3            1 S1                 0.0000
      4 ****         1.4145   1.2221  -0.4112 C.3            1 S1                 0.0000
      5 ****         2.9554   1.1518  -0.4405 C.3            1 S1                 0.0000
      6 ****         3.5160   0.2541   0.6770 C.3            1 S1                 0.0000
      7 ****         3.4983   0.7510  -1.8237 C.3            1 S1                 0.0000
      8 ****         3.4208   2.4612  -0.1844 O.3            1 S1                 0.0000
      9 ****        -1.1623  -0.5891   0.7875 C.3            1 S1                 0.0000
     10 ****        -0.7776   0.3313   1.9608 C.3            1 S1                 0.0000
     11 ****        -2.6023  -0.8177   0.8018 N.pl3          1 S1                 0.0000
     12 ****        -3.2752  -2.0053   1.0035 C.2            1 S1                 0.0000
     13 ****        -4.6118  -1.7348   0.9372 C.2            1 S1                 0.0000
     14 ****        -4.6614  -0.3350   0.6892 C.2            1 S1                 0.0000
     15 ****        -3.4591   0.2115   0.6089 N.2            1 S1                 0.0000
     16 ****        -2.2759  -0.9355  -1.8391 H              1 S1                 0.0000
     17 ****        -0.9050  -2.0214  -1.6226 H              1 S1                 0.0000
     18 ****        -0.7891  -0.6451  -2.7154 H              1 S1                 0.0000
     19 ****        -1.0493   0.9064  -0.7802 H              1 S1                 0.0000
     20 ****         1.0939  -0.3971  -1.5973 H              1 S1                 0.0000
     21 ****         1.0732   1.9419  -1.1569 H              1 S1                 0.0000
     22 ****         1.0896   1.6138   0.5508 H              1 S1                 0.0000
     23 ****         3.2298  -0.7880   0.5311 H              1 S1                 0.0000
     24 ****         3.1478   0.5616   1.6565 H              1 S1                 0.0000
     25 ****         4.6056   0.2906   0.7071 H              1 S1                 0.0000
     26 ****         3.2092  -0.2673  -2.0854 H              1 S1                 0.0000
     27 ****         4.5878   0.7959  -1.8500 H              1 S1                 0.0000
     28 ****         3.1219   1.4120  -2.6053 H              1 S1                 0.0000
     29 ****         3.1072   2.7300   0.6656 H              1 S1                 0.0000
     30 ****        -0.6984  -1.5583   0.9787 H              1 S1                 0.0000
     31 ****         0.2973   0.3232   2.1367 H              1 S1                 0.0000
     32 ****        -1.2478  -0.0001   2.8874 H              1 S1                 0.0000
     33 ****        -1.0877   1.3612   1.7817 H              1 S1                 0.0000
     34 ****        -2.7523  -2.9345   1.1755 H              1 S1                 0.0000
     35 ****        -5.4297  -2.4307   1.0500 H              1 S1                 0.0000
     36 ****        -5.5293   0.2959   0.5669 H              1 S1                 0.0000
     37 ****         1.1117  -0.6900   0.0485 LP             1 S1                 0.0000
     38 ****         3.0743   3.0854  -0.8847 LP             1 S1                 0.0000
     39 ****         4.4207   2.4717  -0.1939 LP             1 S1                 0.0000
     40 ****        -3.2338   1.1715   0.4426 LP             1 S1                 0.0000
@<TRIPOS>BOND
    1    1    2 1     
    2    1   16 1     
    3    1   17 1     
    4    1   18 1     
    5    2    3 1     
    6    2    9 1     
    7    2   19 1     
    8    3    4 1     
    9    3   20 1     
   10    4    5 1     
   11    4   21 1     
   12    4   22 1     
   13    5    6 1     
   14    5    7 1     
   15    5    8 1     
   16    6   23 1     
   17    6   24 1     
   18    6   25 1     
   19    7   26 1     
   20    7   27 1     
   21    7   28 1     
   22    8   29 1     
   23    9   10 1     
   24    9   11 1     
   25    9   30 1     
   26   10   31 1     
   27   10   32 1     
   28   10   33 1     
   29   11   15 1     
   30   11   12 1     
   31   12   13 2     
   32   12   34 1     
   33   13   14 1     
   34   13   35 1     
   35   14   15 2     
   36   14   36 1     
   37    3   37 1     
   38    8   38 1     
   39    8   39 1     
   40   15   40 1     
@<TRIPOS>SUBSTRUCTURE
      1 S1             1
@<TRIPOS>SET
LONE_PAIRS      STATIC     ATOMS    <user>   **** ""
4 37 38 39 40
DONOR_HYDROGENS      STATIC     ATOMS    <user>   **** ""
2 20 29
ATOM$BLUE        STATIC     ATOMS    COLORGROUP SYSTEM
4 37 38 39 40
ATOM$RED        STATIC     ATOMS    COLORGROUP SYSTEM
2 20 29
