#       Name:                AV-unprocessed.smi:2107
#       Creating user name   scv26
#       Creation time:       Fri Mar 27 11:34:15 2020


#       File generated by GOLD software.
#

@<TRIPOS>MOLECULE
AV-unprocessed.smi:2107
    50    51     1
SMALL
NO_CHARGES


@<TRIPOS>ATOM
      1 ****        -2.7759   2.2761   1.7506 C.3            1 S1                 0.0000
      2 ****        -1.9948   1.7775   2.9735 C.3            1 S1                 0.0000
      3 ****        -1.4010   0.4554   2.7165 N.pl3          1 S1                 0.0000
      4 ****        -1.9083  -0.6663   3.5253 C.3            1 S1                 0.0000
      5 ****        -3.3273  -1.0647   3.0983 C.3            1 S1                 0.0000
      6 ****         0.1290   0.3185   1.8939 S.o2           1 S1                 0.0000
      7 ****         0.3848   1.6121   1.2366 O.2            1 S1                 0.0000
      8 ****         1.0853  -0.1173   2.9228 O.2            1 S1                 0.0000
      9 ****        -0.2606  -0.8872   0.8690 N.pl3          1 S1                -1.0000
     10 ****        -1.0164  -0.6383  -0.3519 C.3            1 S1                 0.0000
     11 ****        -0.3593  -1.2998  -1.5699 C.ar           1 S1                 0.0000
     12 ****        -1.0457  -2.3634  -2.2087 C.ar           1 S1                 0.0000
     13 ****        -0.4868  -2.9891  -3.3404 C.ar           1 S1                 0.0000
     14 ****         0.7559  -2.5441  -3.8225 C.ar           1 S1                 0.0000
     15 ****         1.3924  -1.5331  -3.1971 N.pl3          1 S1                 1.0000
     16 ****         0.9061  -0.8927  -2.1035 C.ar           1 S1                 0.0000
     17 ****         1.7112   0.1284  -1.5566 N.3            1 S1                 0.0000
     18 ****         2.8726  -0.3765  -0.8348 C.3            1 S1                 0.0000
     19 ****         3.6052   0.7803  -0.1334 C.3            1 S1                 0.0000
     20 ****         3.9308   1.7902  -1.0849 O.3            1 S1                 0.0000
     21 ****         2.7698   2.3305  -1.7098 C.3            1 S1                 0.0000
     22 ****         2.0353   1.2148  -2.4713 C.3            1 S1                 0.0000
     23 ****        -3.2321   3.2450   1.9528 H              1 S1                 0.0000
     24 ****        -3.5736   1.5827   1.4830 H              1 S1                 0.0000
     25 ****        -2.1306   2.3918   0.8800 H              1 S1                 0.0000
     26 ****        -1.2041   2.4820   3.2333 H              1 S1                 0.0000
     27 ****        -2.6591   1.7304   3.8371 H              1 S1                 0.0000
     28 ****        -1.2462  -1.5256   3.4126 H              1 S1                 0.0000
     29 ****        -1.8828  -0.3958   4.5814 H              1 S1                 0.0000
     30 ****        -3.6769  -1.9210   3.6749 H              1 S1                 0.0000
     31 ****        -3.3564  -1.3414   2.0440 H              1 S1                 0.0000
     32 ****        -4.0371  -0.2521   3.2521 H              1 S1                 0.0000
     33 ****        -2.0425  -0.9951  -0.2582 H              1 S1                 0.0000
     34 ****        -1.1071   0.4241  -0.5781 H              1 S1                 0.0000
     35 ****        -2.0031  -2.7159  -1.8485 H              1 S1                 0.0000
     36 ****        -1.0063  -3.7999  -3.8295 H              1 S1                 0.0000
     37 ****         1.2594  -2.9646  -4.6805 H              1 S1                 0.0000
     38 ****         2.5580  -1.1181  -0.0994 H              1 S1                 0.0000
     39 ****         3.5476  -0.8769  -1.5303 H              1 S1                 0.0000
     40 ****         2.9949   1.2031   0.6655 H              1 S1                 0.0000
     41 ****         4.5230   0.4171   0.3291 H              1 S1                 0.0000
     42 ****         2.1184   2.7861  -0.9617 H              1 S1                 0.0000
     43 ****         3.0701   3.1214  -2.3969 H              1 S1                 0.0000
     44 ****         2.6646   0.8449  -3.2817 H              1 S1                 0.0000
     45 ****         1.1208   1.6039  -2.9202 H              1 S1                 0.0000
     46 ****         2.2966  -1.2359  -3.5635 H              1 S1                 0.0000
     47 ****         0.0261  -1.8210   1.0833 LP             1 S1                 0.0000
     48 ****         1.1209   0.5554  -0.8717 LP             1 S1                 0.0000
     49 ****         4.5205   1.3929  -1.7881 LP             1 S1                 0.0000
     50 ****         4.4190   2.5278  -0.6183 LP             1 S1                 0.0000
@<TRIPOS>BOND
    1    1    2 1     
    2    1   23 1     
    3    1   24 1     
    4    1   25 1     
    5    2    3 1     
    6    2   26 1     
    7    2   27 1     
    8    3    4 1     
    9    3    6 1     
   10    4    5 1     
   11    4   28 1     
   12    4   29 1     
   13    5   30 1     
   14    5   31 1     
   15    5   32 1     
   16    6    7 2     
   17    6    8 2     
   18    6    9 1     
   19    9   10 1     
   20   10   11 1     
   21   10   33 1     
   22   10   34 1     
   23   11   16 ar    
   24   11   12 ar    
   25   12   13 ar    
   26   12   35 1     
   27   13   14 ar    
   28   13   36 1     
   29   14   15 ar    
   30   14   37 1     
   31   15   16 ar    
   32   15   46 1     
   33   16   17 1     
   34   17   22 1     
   35   17   18 1     
   36   18   19 1     
   37   18   38 1     
   38   18   39 1     
   39   19   20 1     
   40   19   40 1     
   41   19   41 1     
   42   20   21 1     
   43   21   22 1     
   44   21   42 1     
   45   21   43 1     
   46   22   44 1     
   47   22   45 1     
   48    9   47 1     
   49   17   48 1     
   50   20   49 1     
   51   20   50 1     
@<TRIPOS>SUBSTRUCTURE
      1 S1             1
@<TRIPOS>SET
LONE_PAIRS      STATIC     ATOMS    <user>   **** ""
6 7 8 47 48 49 50
DONOR_HYDROGENS      STATIC     ATOMS    <user>   **** ""
1 46
ATOM$BLUE        STATIC     ATOMS    COLORGROUP SYSTEM
6 7 8 47 48 49 50
ATOM$RED        STATIC     ATOMS    COLORGROUP SYSTEM
1 46
