#       Name:                AV-unprocessed.smi:1853
#       Creating user name   scv26
#       Creation time:       Fri Mar 27 09:23:44 2020


#       File generated by GOLD software.
#

@<TRIPOS>MOLECULE
AV-unprocessed.smi:1853
    47    49     1
SMALL
NO_CHARGES


@<TRIPOS>ATOM
      1 ****        -6.1064   2.7882  -0.1010 C.3            1 S1                 0.0000
      2 ****        -4.6122   2.5534  -0.0182 C.ar           1 S1                 0.0000
      3 ****        -3.7386   3.6156   0.2875 C.ar           1 S1                 0.0000
      4 ****        -2.3512   3.3884   0.3656 C.ar           1 S1                 0.0000
      5 ****        -1.8153   2.1032   0.1433 C.ar           1 S1                 0.0000
      6 ****        -0.4468   1.9706   0.2417 O.3            1 S1                 0.0000
      7 ****         0.1153   0.6788   0.0621 C.3            1 S1                 0.0000
      8 ****         1.6358   0.7777   0.2329 C.3            1 S1                 0.0000
      9 ****         2.2727  -0.5282   0.1590 N.pl3          1 S1                 0.0000
     10 ****         2.6883  -1.2083  -0.9408 C.2            1 S1                 0.0000
     11 ****         2.5277  -0.6613  -2.3359 C.3            1 S1                 0.0000
     12 ****         2.0761  -1.7149  -3.2413 N.am           1 S1                 0.0000
     13 ****         0.8131  -2.1526  -3.3459 C.2            1 S1                 0.0000
     14 ****        -0.1316  -1.7173  -2.6896 O.2            1 S1                 0.0000
     15 ****         3.2677  -2.3881  -0.7015 N.2            1 S1                 0.0000
     16 ****         3.1979  -2.4929   0.6732 C.ar           1 S1                 0.0000
     17 ****         3.6327  -3.5216   1.5396 C.ar           1 S1                 0.0000
     18 ****         3.4517  -3.4048   2.9334 C.ar           1 S1                 0.0000
     19 ****         2.8345  -2.2608   3.4794 C.ar           1 S1                 0.0000
     20 ****         2.3949  -1.2244   2.6337 C.ar           1 S1                 0.0000
     21 ****         2.5784  -1.3455   1.2429 C.ar           1 S1                 0.0000
     22 ****        -2.7002   1.0385  -0.1634 C.ar           1 S1                 0.0000
     23 ****        -4.0881   1.2653  -0.2425 C.ar           1 S1                 0.0000
     24 ****        -6.3353   3.8507  -0.1882 H              1 S1                 0.0000
     25 ****        -6.5973   2.4038   0.7933 H              1 S1                 0.0000
     26 ****        -6.5258   2.2794  -0.9693 H              1 S1                 0.0000
     27 ****        -4.1277   4.6076   0.4643 H              1 S1                 0.0000
     28 ****        -1.6906   4.2099   0.6012 H              1 S1                 0.0000
     29 ****        -0.2944  -0.0146   0.7987 H              1 S1                 0.0000
     30 ****        -0.1234   0.3014  -0.9322 H              1 S1                 0.0000
     31 ****         2.0721   1.4398  -0.5149 H              1 S1                 0.0000
     32 ****         1.8702   1.2216   1.2009 H              1 S1                 0.0000
     33 ****         1.8264   0.1719  -2.3660 H              1 S1                 0.0000
     34 ****         3.4909  -0.2840  -2.6792 H              1 S1                 0.0000
     35 ****         2.7791  -2.1481  -3.8222 H              1 S1                 0.0000
     36 ****         0.7371  -2.9546  -4.0962 H              1 S1                 0.0000
     37 ****         4.1056  -4.4026   1.1314 H              1 S1                 0.0000
     38 ****         3.7875  -4.1969   3.5867 H              1 S1                 0.0000
     39 ****         2.6989  -2.1792   4.5480 H              1 S1                 0.0000
     40 ****         1.9214  -0.3477   3.0499 H              1 S1                 0.0000
     41 ****        -2.3400   0.0367  -0.3426 H              1 S1                 0.0000
     42 ****        -4.7506   0.4446  -0.4761 H              1 S1                 0.0000
     43 ****        -0.1830   2.2850   1.1536 LP             1 S1                 0.0000
     44 ****        -0.0402   2.5698  -0.4480 LP             1 S1                 0.0000
     45 ****         0.0170  -0.9866  -2.0233 LP             1 S1                 0.0000
     46 ****        -1.0484  -2.0940  -2.8224 LP             1 S1                 0.0000
     47 ****         3.6563  -3.0358  -1.3569 LP             1 S1                 0.0000
@<TRIPOS>BOND
    1    1    2 1     
    2    1   24 1     
    3    1   25 1     
    4    1   26 1     
    5    2   23 ar    
    6    2    3 ar    
    7    3    4 ar    
    8    3   27 1     
    9    4    5 ar    
   10    4   28 1     
   11    5    6 1     
   12    5   22 ar    
   13    6    7 1     
   14    7    8 1     
   15    7   29 1     
   16    7   30 1     
   17    8    9 1     
   18    8   31 1     
   19    8   32 1     
   20    9   21 1     
   21    9   10 1     
   22   10   11 1     
   23   10   15 2     
   24   11   12 1     
   25   11   33 1     
   26   11   34 1     
   27   12   13 am    
   28   12   35 1     
   29   13   14 2     
   30   13   36 1     
   31   15   16 1     
   32   16   21 ar    
   33   16   17 ar    
   34   17   18 ar    
   35   17   37 1     
   36   18   19 ar    
   37   18   38 1     
   38   19   20 ar    
   39   19   39 1     
   40   20   21 ar    
   41   20   40 1     
   42   22   23 ar    
   43   22   41 1     
   44   23   42 1     
   45    6   43 1     
   46    6   44 1     
   47   14   45 1     
   48   14   46 1     
   49   15   47 1     
@<TRIPOS>SUBSTRUCTURE
      1 S1             1
@<TRIPOS>SET
LONE_PAIRS      STATIC     ATOMS    <user>   **** ""
5 43 44 45 46 47
DONOR_HYDROGENS      STATIC     ATOMS    <user>   **** ""
1 35
ATOM$BLUE        STATIC     ATOMS    COLORGROUP SYSTEM
5 43 44 45 46 47
ATOM$RED        STATIC     ATOMS    COLORGROUP SYSTEM
1 35
