AV-unprocessed.smi:201|AV-procd|sdf|1580|dock3
  -GOLD-   2262019463D 1   1.00000     0.00000
 Structure written by MMmdl.
 59 61  0  0  0  0  0  0  0  0  1 V2000
  148.7044  131.2238  154.6414 C   0  0  0  0  0  0  0  0  0  0  0  0
  148.6730  132.4534  153.7139 C   0  0  0  0  0  0  0  0  0  0  0  0
  149.7827  133.4326  154.1562 C   0  0  0  0  0  0  0  0  0  0  0  0
  147.3427  133.0870  153.6863 N   0  0  0  0  0  0  0  0  0  0  0  0
  146.8370  133.6889  152.4490 C   0  0  0  0  0  0  0  0  0  0  0  0
  145.3412  133.4113  152.1946 C   0  0  0  0  0  0  0  0  0  0  0  0
  145.1350  132.8063  150.9261 O   0  0  0  0  0  0  0  0  0  0  0  0
  143.7824  132.8068  150.4914 C   0  0  0  0  0  0  0  0  0  0  0  0
  143.7280  132.3195  149.0389 C   0  0  0  0  0  0  0  0  0  0  0  0
  142.4552  132.5825  148.4881 O   0  0  0  0  0  0  0  0  0  0  0  0
  146.9550  133.7962  154.7753 C   0  0  0  0  0  0  0  0  0  0  0  0
  147.0062  135.1490  154.6821 N   0  0  0  0  0  0  0  0  0  0  0  0
  146.6491  135.9079  155.7221 C   0  0  0  0  0  0  0  0  0  0  0  0
  146.2272  135.5252  156.9287 N   0  0  0  0  0  0  0  0  0  0  0  0
  146.1870  134.1657  157.0320 C   0  0  0  0  0  0  0  0  0  0  0  0
  146.5289  133.2323  156.0131 C   0  0  0  0  0  0  0  0  0  0  0  0
  146.3663  131.9365  156.4889 N   0  0  0  0  0  0  0  0  0  0  0  0
  145.9408  132.0951  157.7119 C   0  0  0  0  0  0  0  0  0  0  0  0
  145.8230  133.4019  158.1278 N   0  0  0  0  0  0  0  0  0  0  0  0
  145.3738  133.8679  159.4322 C   0  0  0  0  0  0  0  0  0  0  0  0
  146.4592  134.5579  160.3156 C   0  0  0  0  0  0  0  0  0  0  0  0
  147.2616  133.4341  161.0316 C   0  0  0  0  0  0  0  0  0  0  0  0
  147.9861  132.6259  160.1250 O   0  0  0  0  0  0  0  0  0  0  0  0
  147.3896  135.4606  159.4636 C   0  0  0  0  0  0  0  0  0  0  0  0
  148.3509  136.3002  160.3247 C   0  0  0  0  0  0  0  0  0  0  0  0
  147.6085  137.1011  161.2359 O   0  0  0  0  0  0  0  0  0  0  0  0
  146.8304  136.3340  162.1466 C   0  0  0  0  0  0  0  0  0  0  0  0
  145.8040  135.4813  161.3764 C   0  0  0  0  0  0  0  0  0  0  0  0
  149.7069  130.7978  154.6927 H   0  0  0  0  0  0  0  0  0  0  0  0
  148.0481  130.4294  154.2863 H   0  0  0  0  0  0  0  0  0  0  0  0
  148.4034  131.4839  155.6568 H   0  0  0  0  0  0  0  0  0  0  0  0
  148.9091  132.1060  152.7085 H   0  0  0  0  0  0  0  0  0  0  0  0
  150.7483  132.9294  154.2111 H   0  0  0  0  0  0  0  0  0  0  0  0
  149.5716  133.8471  155.1425 H   0  0  0  0  0  0  0  0  0  0  0  0
  149.9061  134.2661  153.4655 H   0  0  0  0  0  0  0  0  0  0  0  0
  147.0125  134.7636  152.4737 H   0  0  0  0  0  0  0  0  0  0  0  0
  147.4307  133.3272  151.6093 H   0  0  0  0  0  0  0  0  0  0  0  0
  144.9049  132.7989  152.9847 H   0  0  0  0  0  0  0  0  0  0  0  0
  144.7902  134.3518  152.1922 H   0  0  0  0  0  0  0  0  0  0  0  0
  143.1427  132.1950  151.1281 H   0  0  0  0  0  0  0  0  0  0  0  0
  143.4017  133.8283  150.5375 H   0  0  0  0  0  0  0  0  0  0  0  0
  144.4637  132.8578  148.4407 H   0  0  0  0  0  0  0  0  0  0  0  0
  143.9644  131.2575  148.9657 H   0  0  0  0  0  0  0  0  0  0  0  0
  141.9864  133.1508  149.0802 H   0  0  0  0  0  0  0  0  0  0  0  0
  146.7121  136.9747  155.5655 H   0  0  0  0  0  0  0  0  0  0  0  0
  145.7067  131.2567  158.3519 H   0  0  0  0  0  0  0  0  0  0  0  0
  144.5412  134.5533  159.2679 H   0  0  0  0  0  0  0  0  0  0  0  0
  144.9505  133.0095  159.9552 H   0  0  0  0  0  0  0  0  0  0  0  0
  147.9734  133.8307  161.7531 H   0  0  0  0  0  0  0  0  0  0  0  0
  146.5871  132.7894  161.5962 H   0  0  0  0  0  0  0  0  0  0  0  0
  148.8597  132.5032  160.4641 H   0  0  0  0  0  0  0  0  0  0  0  0
  147.9535  134.8670  158.7437 H   0  0  0  0  0  0  0  0  0  0  0  0
  146.7958  136.1588  158.8754 H   0  0  0  0  0  0  0  0  0  0  0  0
  149.0643  135.6749  160.8618 H   0  0  0  0  0  0  0  0  0  0  0  0
  148.9379  136.9596  159.6850 H   0  0  0  0  0  0  0  0  0  0  0  0
  147.4776  135.7238  162.7761 H   0  0  0  0  0  0  0  0  0  0  0  0
  146.3096  137.0188  162.8162 H   0  0  0  0  0  0  0  0  0  0  0  0
  145.1152  136.1768  160.8983 H   0  0  0  0  0  0  0  0  0  0  0  0
  145.2062  134.8946  162.0745 H   0  0  0  0  0  0  0  0  0  0  0  0
  1  2  1  0  0  0  0
  1 29  1  0  0  0  0
  1 30  1  0  0  0  0
  1 31  1  0  0  0  0
  2  3  1  0  0  0  0
  2  4  1  0  0  0  0
  2 32  1  0  0  0  0
  3 33  1  0  0  0  0
  3 34  1  0  0  0  0
  3 35  1  0  0  0  0
  4  5  1  0  0  0  0
  4 11  1  0  0  0  0
  5  6  1  0  0  0  0
  5 36  1  0  0  0  0
  5 37  1  0  0  0  0
  6  7  1  0  0  0  0
  6 38  1  0  0  0  0
  6 39  1  0  0  0  0
  7  8  1  0  0  0  0
  8  9  1  0  0  0  0
  8 40  1  0  0  0  0
  8 41  1  0  0  0  0
  9 10  1  0  0  0  0
  9 42  1  0  0  0  0
  9 43  1  0  0  0  0
 10 44  1  0  0  0  0
 11 16  1  0  0  0  0
 11 12  2  0  0  0  0
 12 13  1  0  0  0  0
 13 14  2  0  0  0  0
 13 45  1  0  0  0  0
 14 15  1  0  0  0  0
 15 19  1  0  0  0  0
 15 16  2  0  0  0  0
 16 17  1  0  0  0  0
 17 18  2  0  0  0  0
 18 19  1  0  0  0  0
 18 46  1  0  0  0  0
 19 20  1  0  0  0  0
 20 21  1  0  0  0  0
 20 47  1  0  0  0  0
 20 48  1  0  0  0  0
 21 28  1  0  0  0  0
 21 22  1  0  0  0  0
 21 24  1  0  0  0  0
 22 23  1  0  0  0  0
 22 49  1  0  0  0  0
 22 50  1  0  0  0  0
 23 51  1  0  0  0  0
 24 25  1  0  0  0  0
 24 52  1  0  0  0  0
 24 53  1  0  0  0  0
 25 26  1  0  0  0  0
 25 54  1  0  0  0  0
 25 55  1  0  0  0  0
 26 27  1  0  0  0  0
 27 28  1  0  0  0  0
 27 56  1  0  0  0  0
 27 57  1  0  0  0  0
 28 58  1  0  0  0  0
 28 59  1  0  0  0  0
M  END
> <s_m_source_file>
AV-unprocessed.smi

> <i_m_source_file_index>
201

> <i_lp_mmshare_version>
43012

> <i_f3d_flags>
0

> <s_epik_input>
W09IXVtDSDJdW0NIMl1PW0NIMl1bQ0gyXU4oW0NIXShbQ0gzXSlbQ0gzXSljKG5bY0hdbjEpYyhjMTIpbltjSF1uMltDSDJdQzMoW0NIMl1bT0hdKVtDSDJdW0NIMl1PW0NIMl1bQ0gyXTM=

> <s_epik_cmdline>
J2VwaWtfcHl0aG9uJywgJy1waCcsICc3LjAnLCAnLXRuJywgJzgnLCAnLW1hJywgJzIwMCcsICctbWV0YWxfYmluZGluZycsICctaW1hZScsICc8aW5maWxlLm1hZT4nLCAnLW9tYWUnLCAnPG91dGZpbGUubWFlPic=

> <r_lp_tautomer_probability>
1

> <r_epik_Ionization_Penalty>
0.00276835

> <r_epik_Ionization_Penalty_Charging>
0

> <r_epik_Ionization_Penalty_Neutral>
0.00276835

> <r_epik_State_Penalty>
0.00179834

> <r_epik_Charging_Adjusted_Penalty>
0.00179834

> <i_epik_Tot_Q>
0

> <i_epik_Tot_abs_Q>
0

> <r_epik_Metal_State_Penalty>
-0

> <b_epik_Metal_Only>
0

> <s_lp_Force_Field>
OPLS_2005

> <r_lp_Energy>
32.5455

> <b_lp_Chiralities_Consistent>
1

> <s_lp_Variant>
AV-unprocessed.smi:201-1

> <Gold.Version>
5.8.1

> <Gold.Id.Protein>
6NUR|6NUR_protein|mol2

> <Gold.PLP.Fitness>
39.5888

> <Gold.PLP.PLP>
-33.9683

> <Gold.PLP.part.hbond>
-4.8019

> <Gold.PLP.part.metal>
0.0000

> <Gold.PLP.part.buried>
-6.1242

> <Gold.PLP.part.nonpolar>
-23.7872

> <Gold.PLP.part.repulsive>
0.3702

> <Gold.PLP.ligand.clash>
0.0000

> <Gold.PLP.ligand.torsion>
2.2509

> <Gold.PLP.Chemscore.Hbond>
2.9040

> <Gold.PLP.Chemscore.CHOScore>
0.0000

> <Gold.PLP.Chemscore.Metal>
0.0000

> <Gold.Chemscore.Hbonds>
donor molecule, donor type, donor heavy atom, donor atom, acceptor molecule, acceptor atom, score
      L1  H    10    44       P1 10186  1.00
      P1  H  6931  6943       L1    26  0.98
      P1  H  6934  6947       L1    26  0.90

> <Gold.PLP.Chemscore.Internal.Correction>
1.4102

> <Gold.Rescore>
     Score         DG    S(hbond)    S(metal)    S(lipo)     H(rot)  DE(clash)    DE(int)     intcor
      5.11      -9.98       2.02        0.00      83.09       4.68       0.02       4.84       ----

> <Gold.Chemscore.Fitness>
5.1147

> <Gold.Chemscore.DG>
-9.9750

> <Gold.Chemscore.ZeroCoef>
-5.4800

> <Gold.Chemscore.Hbond>
2.0199

> <Gold.Chemscore.Metal>
0.0000

> <Gold.Chemscore.Lipo>
83.0925

> <Gold.Chemscore.Internal_Hbond>
0.0000

> <Gold.Chemscore.DEClash>
0.0154

> <Gold.Chemscore.DEInternal>
4.8449

> <Gold.Chemscore.Rot>
4.6771

> <Gold.Chemscore.Internal.Correction>
   9.000000E+99

> <Gold.Chemscore.Hbonds>
donor molecule, donor type, donor heavy atom, donor atom, acceptor molecule, acceptor atom, score
      L1  H    10    44       P1 10186  0.99
      P1  H  6931  6943       L1    26  0.23
      P1  H  6934  6947       L1    26  0.83

> <Gold.Chemscore.Hbond.Weighted>
-6.7466

> <Gold.Chemscore.Metal.Weighted>
-0.0000

> <Gold.Chemscore.Lipo.Weighted>
-9.7218

> <Gold.Chemscore.Internal_Hbond.Weighted>
0.0000

> <Gold.Chemscore.DEClash.Weighted>
0.0154

> <Gold.Chemscore.DEInternal.Weighted>
4.8449

> <Gold.Chemscore.Rot.Weighted>
11.9733

> <Gold.Chemscore.Internal.Correction.Weighted>
   9.000000E+99

> <Gold.Protein.RotatedTorsions>
[ 6907 6896 6895 6894 ] final  -95.51 input  -60.11 | X-H torsion
[ 7974 7965 7964 7962 ] final -113.70 input  175.53 | X-H torsion
[ 8008 7997 7996 7995 ] final   45.45 input   59.86 | X-H torsion
[ 10167 10162 10161 10158 ] final -171.95 input  -65.29 | X-H torsion
[ 10718 10713 10712 10709 ] final  -24.87 input   66.30 | X-H torsion
[ 10763 10752 10751 10750 ] final  125.46 input  -60.55 | X-H torsion
[ 11005 11000 10999 10996 ] final -128.11 input  -57.11 | X-H torsion

> <Gold.Protein.ActiveResidues>
 VAL166  LYS551  ARG553  GLY616  TRP617  ASP618  TYR619  PRO620  LYS621  CYS622 
 ASP623  PHE694  ASN695  SER759  ASP760  ASP761  ALA762  ILE779  LEU786  VAL792 
 PHE793  MET794  SER795  GLU796  ALA797  LYS798  CYS799  TRP800  GLU811  SER814 

> <Gold.Protein.RotatedAtoms>
  150.6965  134.1646  159.4188 H   0  0  0  0  0  0  0  0  0  0  0  0  # atno 6907 bound_to 6896
  151.9626  135.0114  160.0558 H   0  0  0  0  0  0  0  0  0  0  0  0  # atno 6908 bound_to 6896
  152.1913  133.4740  159.5046 H   0  0  0  0  0  0  0  0  0  0  0  0  # atno 6909 bound_to 6896
  145.1289  140.8713  143.3770 H   0  0  0  0  0  0  0  0  0  0  0  0  # atno 7974 bound_to 7965
  155.3360  140.3405  155.4239 H   0  0  0  0  0  0  0  0  0  0  0  0  # atno 8008 bound_to 7997
  156.1837  140.1673  156.8262 H   0  0  0  0  0  0  0  0  0  0  0  0  # atno 8009 bound_to 7997
  154.5362  140.0734  156.8415 H   0  0  0  0  0  0  0  0  0  0  0  0  # atno 8010 bound_to 7997
  139.5772  144.1504  152.1467 H   0  0  0  0  0  0  0  0  0  0  0  0  # atno 10167 bound_to 10162
  156.4720  130.4526  149.6864 H   0  0  0  0  0  0  0  0  0  0  0  0  # atno 10718 bound_to 10713
  153.6777  135.3319  155.3170 H   0  0  0  0  0  0  0  0  0  0  0  0  # atno 10763 bound_to 10752
  154.8474  135.4401  154.1639 H   0  0  0  0  0  0  0  0  0  0  0  0  # atno 10764 bound_to 10752
  153.2647  135.6994  153.7619 H   0  0  0  0  0  0  0  0  0  0  0  0  # atno 10765 bound_to 10752
  140.9543  134.1023  157.4031 H   0  0  0  0  0  0  0  0  0  0  0  0  # atno 11005 bound_to 11000
  145.0658  139.3070  143.5857 LP  0  0  0  0  0  0  0  0  0  0  0  0  # atno 17320 bound_to 7965
  146.3515  140.0115  142.8666 LP  0  0  0  0  0  0  0  0  0  0  0  0  # atno 17321 bound_to 7965
  140.1050  144.5507  150.6963 LP  0  0  0  0  0  0  0  0  0  0  0  0  # atno 17342 bound_to 10162
  140.7054  143.2464  151.4742 LP  0  0  0  0  0  0  0  0  0  0  0  0  # atno 17343 bound_to 10162
  156.3609  130.7481  151.2453 LP  0  0  0  0  0  0  0  0  0  0  0  0  # atno 17370 bound_to 10713
  157.7490  131.0350  150.4345 LP  0  0  0  0  0  0  0  0  0  0  0  0  # atno 17371 bound_to 10713
  139.8857  135.0075  156.6453 LP  0  0  0  0  0  0  0  0  0  0  0  0  # atno 17394 bound_to 11000
  140.7558  133.8859  155.8381 LP  0  0  0  0  0  0  0  0  0  0  0  0  # atno 17395 bound_to 11000

$$$$
