#       Name:                AV-unprocessed.smi:156
#       Creating user name   scv26
#       Creation time:       Thu Mar 26 18:56:29 2020


#       File generated by GOLD software.
#

@<TRIPOS>MOLECULE
AV-unprocessed.smi:156
    58    60     1
SMALL
NO_CHARGES


@<TRIPOS>ATOM
      1 ****        -2.8800   0.3138   3.0443 C.3            1 S1                 0.0000
      2 ****        -2.7127   1.1095   1.7307 C.3            1 S1                 0.0000
      3 ****        -3.6034   0.6340   0.5404 C.3            1 S1                 0.0000
      4 ****        -3.5237   1.6260  -0.6372 C.3            1 S1                 0.0000
      5 ****        -5.3774   0.4016   1.0549 S.o2           1 S1                 0.0000
      6 ****        -6.2401   0.0153  -0.5262 C.3            1 S1                 0.0000
      7 ****        -5.4662  -0.7959   1.9045 O.2            1 S1                 0.0000
      8 ****        -5.8931   1.6854   1.5543 O.2            1 S1                 0.0000
      9 ****        -1.2946   1.2630   1.3654 N.pl3          1 S1                 0.0000
     10 ****        -0.4809   2.1896   2.1458 C.3            1 S1                 0.0000
     11 ****        -0.5870   0.2624   0.7749 C.ar           1 S1                 0.0000
     12 ****        -0.9083  -1.0363   1.0127 N.ar           1 S1                 0.0000
     13 ****        -0.2115  -2.0236   0.4438 C.ar           1 S1                 0.0000
     14 ****         0.8318  -1.9382  -0.3824 N.ar           1 S1                 0.0000
     15 ****         1.1655  -0.6388  -0.6252 C.ar           1 S1                 0.0000
     16 ****         0.5148   0.5108  -0.0933 C.ar           1 S1                 0.0000
     17 ****         1.1231   1.6618  -0.5791 N.2            1 S1                 0.0000
     18 ****         2.0799   1.2191  -1.3477 C.2            1 S1                 0.0000
     19 ****         2.1874  -0.1514  -1.4231 N.pl3          1 S1                 0.0000
     20 ****         3.1539  -0.9113  -2.2038 C.3            1 S1                 0.0000
     21 ****         4.5385  -1.0569  -1.5361 C.3            1 S1                 0.0000
     22 ****         4.4057  -1.7115  -0.1507 C.3            1 S1                 0.0000
     23 ****         3.9109  -3.0307  -0.2554 O.3            1 S1                 0.0000
     24 ****         5.6303  -1.6467  -2.4393 C.3            1 S1                 0.0000
     25 ****         6.2859  -0.3713  -2.5978 O.3            1 S1                 0.0000
     26 ****         5.4306   0.1931  -1.5823 C.3            1 S1                 0.0000
     27 ****        -3.8636   0.4733   3.4842 H              1 S1                 0.0000
     28 ****        -2.1559   0.6284   3.7958 H              1 S1                 0.0000
     29 ****        -2.7542  -0.7582   2.8949 H              1 S1                 0.0000
     30 ****        -3.0526   2.1200   1.9620 H              1 S1                 0.0000
     31 ****        -3.2738  -0.3426   0.1898 H              1 S1                 0.0000
     32 ****        -2.4941   1.7999  -0.9494 H              1 S1                 0.0000
     33 ****        -3.9542   2.5914  -0.3704 H              1 S1                 0.0000
     34 ****        -4.0475   1.2538  -1.5160 H              1 S1                 0.0000
     35 ****        -7.2611  -0.2972  -0.3082 H              1 S1                 0.0000
     36 ****        -5.7199  -0.7924  -1.0410 H              1 S1                 0.0000
     37 ****        -6.2732   0.8997  -1.1613 H              1 S1                 0.0000
     38 ****         0.3484   1.6747   2.6328 H              1 S1                 0.0000
     39 ****        -1.0710   2.6757   2.9231 H              1 S1                 0.0000
     40 ****        -0.0740   2.9710   1.5043 H              1 S1                 0.0000
     41 ****        -0.5358  -3.0247   0.6867 H              1 S1                 0.0000
     42 ****         2.7328   1.8890  -1.8872 H              1 S1                 0.0000
     43 ****         2.7270  -1.8913  -2.4190 H              1 S1                 0.0000
     44 ****         3.2513  -0.4207  -3.1731 H              1 S1                 0.0000
     45 ****         5.3751  -1.7615   0.3463 H              1 S1                 0.0000
     46 ****         3.7583  -1.1352   0.5102 H              1 S1                 0.0000
     47 ****         3.8234  -3.3896   0.6145 H              1 S1                 0.0000
     48 ****         6.2737  -2.3735  -1.9411 H              1 S1                 0.0000
     49 ****         5.2569  -2.0437  -3.3839 H              1 S1                 0.0000
     50 ****         4.9298   1.0964  -1.9278 H              1 S1                 0.0000
     51 ****         5.9749   0.3850  -0.6564 H              1 S1                 0.0000
     52 ****        -1.6731  -1.2548   1.6188 LP             1 S1                 0.0000
     53 ****         1.3080  -2.7258  -0.7735 LP             1 S1                 0.0000
     54 ****         0.8824   2.6126  -0.3841 LP             1 S1                 0.0000
     55 ****         4.5481  -3.5883  -0.7875 LP             1 S1                 0.0000
     56 ****         3.0189  -3.0211  -0.7073 LP             1 S1                 0.0000
     57 ****         6.1701   0.0378  -3.5030 LP             1 S1                 0.0000
     58 ****         7.2564  -0.3782  -2.3569 LP             1 S1                 0.0000
@<TRIPOS>BOND
    1    1    2 1     
    2    1   27 1     
    3    1   28 1     
    4    1   29 1     
    5    2    3 1     
    6    2    9 1     
    7    2   30 1     
    8    3    4 1     
    9    3    5 1     
   10    3   31 1     
   11    4   32 1     
   12    4   33 1     
   13    4   34 1     
   14    5    6 1     
   15    5    7 2     
   16    5    8 2     
   17    6   35 1     
   18    6   36 1     
   19    6   37 1     
   20    9   10 1     
   21    9   11 1     
   22   10   38 1     
   23   10   39 1     
   24   10   40 1     
   25   11   16 ar    
   26   11   12 ar    
   27   12   13 ar    
   28   13   14 ar    
   29   13   41 1     
   30   14   15 ar    
   31   15   19 1     
   32   15   16 ar    
   33   16   17 1     
   34   17   18 2     
   35   18   19 1     
   36   18   42 1     
   37   19   20 1     
   38   20   21 1     
   39   20   43 1     
   40   20   44 1     
   41   21   26 1     
   42   21   22 1     
   43   21   24 1     
   44   22   23 1     
   45   22   45 1     
   46   22   46 1     
   47   23   47 1     
   48   24   25 1     
   49   24   48 1     
   50   24   49 1     
   51   25   26 1     
   52   26   50 1     
   53   26   51 1     
   54   12   52 1     
   55   14   53 1     
   56   17   54 1     
   57   23   55 1     
   58   23   56 1     
   59   25   57 1     
   60   25   58 1     
@<TRIPOS>SUBSTRUCTURE
      1 S1             1
@<TRIPOS>SET
LONE_PAIRS      STATIC     ATOMS    <user>   **** ""
9 7 8 52 53 54 55 56 57 58
DONOR_HYDROGENS      STATIC     ATOMS    <user>   **** ""
1 47
ATOM$BLUE        STATIC     ATOMS    COLORGROUP SYSTEM
9 7 8 52 53 54 55 56 57 58
ATOM$RED        STATIC     ATOMS    COLORGROUP SYSTEM
1 47
