AV-unprocessed.smi:3311|AV-procd|sdf|12723|dock10
  -GOLD-   2272019 63D 1   1.00000     0.00000
 Structure written by MMmdl.
 43 44  0  0  0  0  0  0  0  0  1 V2000
  146.9684  141.5770  155.7446 C   0  0  0  0  0  0  0  0  0  0  0  0
  148.4605  141.2798  155.9731 C   0  0  2  0  0  0  0  0  0  0  0  0
  149.0065  142.3463  156.8194 N   0  0  0  0  0  0  0  0  0  0  0  0
  150.3058  142.0491  157.4274 C   0  0  0  0  0  0  0  0  0  0  0  0
  150.9526  143.2888  158.0843 C   0  0  0  0  0  0  0  0  0  0  0  0
  151.3138  144.1692  157.0353 O   0  0  0  0  0  0  0  0  0  0  0  0
  150.0022  144.0114  159.0724 C   0  0  0  0  0  0  0  0  0  0  0  0
  150.6883  145.1610  159.8316 C   0  0  0  0  0  0  0  0  0  0  0  0
  151.9560  144.6818  160.5516 C   0  0  0  0  0  0  0  0  0  0  0  0
  152.9294  144.0197  159.5666 C   0  0  0  0  0  0  0  0  0  0  0  0
  152.2546  142.8649  158.8045 C   0  0  0  0  0  0  0  0  0  0  0  0
  149.2448  141.1619  154.6331 C   0  0  2  0  0  0  0  0  0  0  0  0
  148.3349  140.9600  153.4067 C   0  0  0  0  0  0  0  0  0  0  0  0
  150.2436  140.0998  154.6726 N   0  0  0  0  0  0  0  0  0  0  0  0
  150.0573  138.7321  154.6165 C   0  0  0  0  0  0  0  0  0  0  0  0
  151.2869  138.1474  154.7189 C   0  0  0  0  0  0  0  0  0  0  0  0
  152.1763  139.2510  154.8403 C   0  0  0  0  0  0  0  0  0  0  0  0
  151.5506  140.4159  154.8100 N   0  0  0  0  0  0  0  0  0  0  0  0
  146.4632  140.7528  155.2416 H   0  0  0  0  0  0  0  0  0  0  0  0
  146.8281  142.4758  155.1432 H   0  0  0  0  0  0  0  0  0  0  0  0
  146.4515  141.7293  156.6928 H   0  0  0  0  0  0  0  0  0  0  0  0
  148.5186  140.3281  156.5040 H   0  0  0  0  0  0  0  0  0  0  0  0
  149.0940  143.1950  156.2686 H   0  0  0  0  0  0  0  0  0  0  0  0
  150.1737  141.2686  158.1775 H   0  0  0  0  0  0  0  0  0  0  0  0
  150.9952  141.6403  156.6909 H   0  0  0  0  0  0  0  0  0  0  0  0
  150.5705  144.2696  156.4608 H   0  0  0  0  0  0  0  0  0  0  0  0
  149.1291  144.4040  158.5497 H   0  0  0  0  0  0  0  0  0  0  0  0
  149.6222  143.2890  159.7960 H   0  0  0  0  0  0  0  0  0  0  0  0
  150.9423  145.9622  159.1365 H   0  0  0  0  0  0  0  0  0  0  0  0
  149.9938  145.5920  160.5531 H   0  0  0  0  0  0  0  0  0  0  0  0
  152.4425  145.5220  161.0480 H   0  0  0  0  0  0  0  0  0  0  0  0
  151.6869  143.9721  161.3348 H   0  0  0  0  0  0  0  0  0  0  0  0
  153.3008  144.7636  158.8610 H   0  0  0  0  0  0  0  0  0  0  0  0
  153.8015  143.6469  160.1043 H   0  0  0  0  0  0  0  0  0  0  0  0
  152.0271  142.0693  159.5155 H   0  0  0  0  0  0  0  0  0  0  0  0
  152.9593  142.4361  158.0905 H   0  0  0  0  0  0  0  0  0  0  0  0
  149.7777  142.1022  154.4761 H   0  0  0  0  0  0  0  0  0  0  0  0
  147.7103  141.8331  153.2201 H   0  0  0  0  0  0  0  0  0  0  0  0
  147.6782  140.0989  153.5329 H   0  0  0  0  0  0  0  0  0  0  0  0
  148.9260  140.7982  152.5048 H   0  0  0  0  0  0  0  0  0  0  0  0
  149.0757  138.2933  154.5159 H   0  0  0  0  0  0  0  0  0  0  0  0
  151.5161  137.0922  154.7134 H   0  0  0  0  0  0  0  0  0  0  0  0
  153.2506  139.2410  154.9501 H   0  0  0  0  0  0  0  0  0  0  0  0
  1  2  1  0  0  0  0
  1 19  1  0  0  0  0
  1 20  1  0  0  0  0
  1 21  1  0  0  0  0
  2  3  1  0  0  0  0
  2 12  1  0  0  0  0
  2 22  1  0  0  0  0
  3  4  1  0  0  0  0
  3 23  1  0  0  0  0
  4  5  1  0  0  0  0
  4 24  1  0  0  0  0
  4 25  1  0  0  0  0
  5 11  1  0  0  0  0
  5  6  1  0  0  0  0
  5  7  1  0  0  0  0
  6 26  1  0  0  0  0
  7  8  1  0  0  0  0
  7 27  1  0  0  0  0
  7 28  1  0  0  0  0
  8  9  1  0  0  0  0
  8 29  1  0  0  0  0
  8 30  1  0  0  0  0
  9 10  1  0  0  0  0
  9 31  1  0  0  0  0
  9 32  1  0  0  0  0
 10 11  1  0  0  0  0
 10 33  1  0  0  0  0
 10 34  1  0  0  0  0
 11 35  1  0  0  0  0
 11 36  1  0  0  0  0
 12 13  1  0  0  0  0
 12 14  1  0  0  0  0
 12 37  1  0  0  0  0
 13 38  1  0  0  0  0
 13 39  1  0  0  0  0
 13 40  1  0  0  0  0
 14 18  1  0  0  0  0
 14 15  1  0  0  0  0
 15 16  2  0  0  0  0
 15 41  1  0  0  0  0
 16 17  1  0  0  0  0
 16 42  1  0  0  0  0
 17 18  2  0  0  0  0
 17 43  1  0  0  0  0
M  END
> <s_m_source_file>
AV-unprocessed.smi

> <i_m_source_file_index>
3311

> <i_lp_mmshare_version>
43012

> <i_f3d_flags>
0

> <s_epik_input>
bjFbY0hdW2NIXVtjSF1uMVtDQEBIXShbQ0gzXSlbQ0BIXShbQ0gzXSlbTkhdW0NIMl1DMihbT0hdKVtDSDJdW0NIMl1bQ0gyXVtDSDJdW0NIMl0y

> <s_epik_cmdline>
J2VwaWtfcHl0aG9uJywgJy1waCcsICc3LjAnLCAnLXRuJywgJzgnLCAnLW1hJywgJzIwMCcsICctbWV0YWxfYmluZGluZycsICctaW1hZScsICc8aW5maWxlLm1hZT4nLCAnLW9tYWUnLCAnPG91dGZpbGUubWFlPic=

> <r_lp_tautomer_probability>
1

> <r_epik_Ionization_Penalty>
2.222

> <r_epik_Ionization_Penalty_Charging>
0

> <r_epik_Ionization_Penalty_Neutral>
2.222

> <r_epik_State_Penalty>
2.36562

> <r_epik_Charging_Adjusted_Penalty>
2.36562

> <i_epik_Tot_Q>
0

> <i_epik_Tot_abs_Q>
0

> <r_epik_Metal_State_Penalty>
2.36435

> <b_epik_Metal_Only>
0

> <s_lp_Force_Field>
OPLS_2005

> <r_lp_Energy>
30.3398

> <b_lp_Chiralities_Consistent>
1

> <s_lp_Variant>
AV-unprocessed.smi:3311-5

> <Gold.Version>
5.8.1

> <Gold.Id.Protein>
6NUR|6NUR_protein|mol2

> <Gold.PLP.Fitness>
47.4571

> <Gold.PLP.PLP>
-41.5482

> <Gold.PLP.part.hbond>
-2.9403

> <Gold.PLP.part.metal>
0.0000

> <Gold.PLP.part.buried>
-5.7905

> <Gold.PLP.part.nonpolar>
-32.9782

> <Gold.PLP.part.repulsive>
0.0766

> <Gold.PLP.ligand.clash>
0.0000

> <Gold.PLP.ligand.torsion>
1.5696

> <Gold.PLP.Chemscore.Hbond>
2.9913

> <Gold.PLP.Chemscore.CHOScore>
0.0000

> <Gold.PLP.Chemscore.Metal>
0.0000

> <Gold.Chemscore.Hbonds>
donor molecule, donor type, donor heavy atom, donor atom, acceptor molecule, acceptor atom, score
      L1  H     3    23       P1  8028  1.00
      L1  H     6    26       P1  8028  1.00
      P1  H  7989  7998       L1    18  0.40

> <Gold.PLP.Chemscore.Internal.Correction>
0.0743

> <Gold.Rescore>
     Score         DG    S(hbond)    S(metal)    S(lipo)     H(rot)  DE(clash)    DE(int)     intcor
     21.42     -23.06       2.96        0.00     111.02       2.07       0.02       1.62       ----

> <Gold.Chemscore.Fitness>
21.4211

> <Gold.Chemscore.DG>
-23.0632

> <Gold.Chemscore.ZeroCoef>
-5.4800

> <Gold.Chemscore.Hbond>
2.9609

> <Gold.Chemscore.Metal>
0.0000

> <Gold.Chemscore.Lipo>
111.0224

> <Gold.Chemscore.Internal_Hbond>
0.0000

> <Gold.Chemscore.DEClash>
0.0174

> <Gold.Chemscore.DEInternal>
1.6248

> <Gold.Chemscore.Rot>
2.0686

> <Gold.Chemscore.Internal.Correction>
   9.000000E+99

> <Gold.Chemscore.Hbonds>
donor molecule, donor type, donor heavy atom, donor atom, acceptor molecule, acceptor atom, score
      L1  H     3    23       P1  8028  1.00
      L1  H     6    26       P1  8028  1.00
      P1  H  7989  7998       L1    18  0.02

> <Gold.Chemscore.Hbond.Weighted>
-9.8893

> <Gold.Chemscore.Metal.Weighted>
-0.0000

> <Gold.Chemscore.Lipo.Weighted>
-12.9896

> <Gold.Chemscore.Internal_Hbond.Weighted>
0.0000

> <Gold.Chemscore.DEClash.Weighted>
0.0174

> <Gold.Chemscore.DEInternal.Weighted>
1.6248

> <Gold.Chemscore.Rot.Weighted>
5.2957

> <Gold.Chemscore.Internal.Correction.Weighted>
   9.000000E+99

> <Gold.Protein.RotatedTorsions>
[ 6907 6896 6895 6894 ] final  164.67 input  -60.11 | X-H torsion
[ 7974 7965 7964 7962 ] final  174.31 input  175.53 | X-H torsion
[ 8008 7997 7996 7995 ] final  131.82 input   59.86 | X-H torsion
[ 10167 10162 10161 10158 ] final  -79.02 input  -65.29 | X-H torsion
[ 10718 10713 10712 10709 ] final   55.93 input   66.30 | X-H torsion
[ 10763 10752 10751 10750 ] final -138.44 input  -60.55 | X-H torsion
[ 11005 11000 10999 10996 ] final  117.36 input  -57.11 | X-H torsion

> <Gold.Protein.ActiveResidues>
 VAL166  LYS551  ARG553  GLY616  TRP617  ASP618  TYR619  PRO620  LYS621  CYS622 
 ASP623  PHE694  ASN695  SER759  ASP760  ASP761  ALA762  ILE779  LEU786  VAL792 
 PHE793  MET794  SER795  GLU796  ALA797  LYS798  CYS799  TRP800  GLU811  SER814 

> <Gold.Protein.RotatedAtoms>
  151.9062  133.3550  159.3847 H   0  0  0  0  0  0  0  0  0  0  0  0  # atno 6907 bound_to 6896
  150.7068  134.4778  159.5465 H   0  0  0  0  0  0  0  0  0  0  0  0  # atno 6908 bound_to 6896
  152.2376  134.8261  160.0516 H   0  0  0  0  0  0  0  0  0  0  0  0  # atno 6909 bound_to 6896
  144.7224  139.9777  143.6438 H   0  0  0  0  0  0  0  0  0  0  0  0  # atno 7974 bound_to 7965
  156.2975  140.2561  156.2989 H   0  0  0  0  0  0  0  0  0  0  0  0  # atno 8008 bound_to 7997
  154.9437  140.0395  157.2128 H   0  0  0  0  0  0  0  0  0  0  0  0  # atno 8009 bound_to 7997
  154.8102  140.2843  155.5863 H   0  0  0  0  0  0  0  0  0  0  0  0  # atno 8010 bound_to 7997
  140.4631  143.2448  151.8319 H   0  0  0  0  0  0  0  0  0  0  0  0  # atno 10167 bound_to 10162
  157.5387  130.8682  149.8790 H   0  0  0  0  0  0  0  0  0  0  0  0  # atno 10718 bound_to 10713
  154.8636  135.3612  154.5386 H   0  0  0  0  0  0  0  0  0  0  0  0  # atno 10763 bound_to 10752
  153.6008  135.7012  153.5390 H   0  0  0  0  0  0  0  0  0  0  0  0  # atno 10764 bound_to 10752
  153.3292  135.4129  155.1443 H   0  0  0  0  0  0  0  0  0  0  0  0  # atno 10765 bound_to 10752
  139.9072  134.9609  156.7338 H   0  0  0  0  0  0  0  0  0  0  0  0  # atno 11005 bound_to 11000
  146.0512  139.3513  143.0638 LP  0  0  0  0  0  0  0  0  0  0  0  0  # atno 17320 bound_to 7965
  145.8212  140.9678  143.0898 LP  0  0  0  0  0  0  0  0  0  0  0  0  # atno 17321 bound_to 7965
  139.4808  144.4984  151.9093 LP  0  0  0  0  0  0  0  0  0  0  0  0  # atno 17342 bound_to 10162
  140.4069  144.2420  150.5890 LP  0  0  0  0  0  0  0  0  0  0  0  0  # atno 17343 bound_to 10162
  156.0479  130.3724  150.1272 LP  0  0  0  0  0  0  0  0  0  0  0  0  # atno 17370 bound_to 10713
  156.9453  130.9757  151.3508 LP  0  0  0  0  0  0  0  0  0  0  0  0  # atno 17371 bound_to 10713
  140.6904  133.9395  155.7963 LP  0  0  0  0  0  0  0  0  0  0  0  0  # atno 17394 bound_to 11000
  141.0446  134.0573  157.3860 LP  0  0  0  0  0  0  0  0  0  0  0  0  # atno 17395 bound_to 11000

$$$$
