AV-unprocessed.smi:3172|AV-procd|sdf|12115|dock3
  -GOLD-   2272017553D 1   1.00000     0.00000
 Structure written by MMmdl.
 43 44  0  0  0  0  0  0  0  0  2 V2000
  152.8872  138.8082  155.2443 C   0  0  0  0  0  0  0  0  0  0  0  0
  151.4385  138.9794  154.9076 C   0  0  0  0  0  0  0  0  0  0  0  0
  150.8763  140.2448  154.7611 N   0  0  0  0  0  0  0  0  0  0  0  0
  149.6081  139.9959  154.4701 C   0  0  0  0  0  0  0  0  0  0  0  0
  149.2912  138.6942  154.4273 N   0  0  0  0  0  0  0  0  0  0  0  0
  147.9742  138.1359  154.1640 C   0  0  0  0  0  0  0  0  0  0  0  0
  146.9436  139.2285  153.8226 C   0  0  2  0  0  0  0  0  0  0  0  0
  145.9467  139.4391  154.9707 C   0  0  0  0  0  0  0  0  0  0  0  0
  146.2210  138.8798  152.5771 N   0  3  0  0  0  0  0  0  0  0  0  0
  145.8838  137.4493  152.4120 C   0  0  0  0  0  0  0  0  0  0  0  0
  146.0045  137.0526  150.9286 C   0  0  0  0  0  0  0  0  0  0  0  0
  145.6233  135.5799  150.7064 C   0  0  0  0  0  0  0  0  0  0  0  0
  144.2078  135.2882  151.2282 C   0  0  0  0  0  0  0  0  0  0  0  0
  144.0701  135.6843  152.7060 C   0  0  0  0  0  0  0  0  0  0  0  0
  144.4580  137.1549  152.9286 C   0  0  0  0  0  0  0  0  0  0  0  0
  150.4774  138.0131  154.6973 C   0  0  0  0  0  0  0  0  0  0  0  0
  150.5910  136.5226  154.7400 C   0  0  0  0  0  0  0  0  0  0  0  0
  153.4736  138.5906  154.3514 H   0  0  0  0  0  0  0  0  0  0  0  0
  153.0357  137.9872  155.9458 H   0  0  0  0  0  0  0  0  0  0  0  0
  153.3008  139.7076  155.7012 H   0  0  0  0  0  0  0  0  0  0  0  0
  148.8877  140.7822  154.2973 H   0  0  0  0  0  0  0  0  0  0  0  0
  148.0538  137.4158  153.3479 H   0  0  0  0  0  0  0  0  0  0  0  0
  147.6575  137.5719  155.0417 H   0  0  0  0  0  0  0  0  0  0  0  0
  147.4841  140.1636  153.6790 H   0  0  0  0  0  0  0  0  0  0  0  0
  146.4622  139.7179  155.8901 H   0  0  0  0  0  0  0  0  0  0  0  0
  145.3754  138.5323  155.1725 H   0  0  0  0  0  0  0  0  0  0  0  0
  145.2380  140.2348  154.7394 H   0  0  0  0  0  0  0  0  0  0  0  0
  145.3537  139.3972  152.5542 H   0  0  0  0  0  0  0  0  0  0  0  0
  146.6038  136.8564  152.9786 H   0  0  0  0  0  0  0  0  0  0  0  0
  145.3589  137.6882  150.3206 H   0  0  0  0  0  0  0  0  0  0  0  0
  147.0234  137.2216  150.5780 H   0  0  0  0  0  0  0  0  0  0  0  0
  145.6853  135.3354  149.6455 H   0  0  0  0  0  0  0  0  0  0  0  0
  146.3410  134.9346  151.2148 H   0  0  0  0  0  0  0  0  0  0  0  0
  143.4779  135.8378  150.6326 H   0  0  0  0  0  0  0  0  0  0  0  0
  143.9751  134.2304  151.1032 H   0  0  0  0  0  0  0  0  0  0  0  0
  143.0461  135.5156  153.0410 H   0  0  0  0  0  0  0  0  0  0  0  0
  144.7050  135.0422  153.3177 H   0  0  0  0  0  0  0  0  0  0  0  0
  144.3732  137.3879  153.9898 H   0  0  0  0  0  0  0  0  0  0  0  0
  143.7408  137.7994  152.4180 H   0  0  0  0  0  0  0  0  0  0  0  0
  151.6321  136.2087  154.6661 H   0  0  0  0  0  0  0  0  0  0  0  0
  150.0506  136.0592  153.9150 H   0  0  0  0  0  0  0  0  0  0  0  0
  150.1912  136.1292  155.6742 H   0  0  0  0  0  0  0  0  0  0  0  0
  146.7888  139.1758  151.7960 H   0  0  0  0  0  0  0  0  0  0  0  0
  1  2  1  0  0  0  0
  1 18  1  0  0  0  0
  1 19  1  0  0  0  0
  1 20  1  0  0  0  0
  2 16  2  0  0  0  0
  2  3  1  0  0  0  0
  3  4  2  0  0  0  0
  4  5  1  0  0  0  0
  4 21  1  0  0  0  0
  5  6  1  0  0  0  0
  5 16  1  0  0  0  0
  6  7  1  0  0  0  0
  6 22  1  0  0  0  0
  6 23  1  0  0  0  0
  7  8  1  0  0  0  0
  7  9  1  0  0  0  0
  7 24  1  0  0  0  0
  8 25  1  0  0  0  0
  8 26  1  0  0  0  0
  8 27  1  0  0  0  0
  9 10  1  0  0  0  0
  9 28  1  0  0  0  0
  9 43  1  0  0  0  0
 10 15  1  0  0  0  0
 10 11  1  0  0  0  0
 10 29  1  0  0  0  0
 11 12  1  0  0  0  0
 11 30  1  0  0  0  0
 11 31  1  0  0  0  0
 12 13  1  0  0  0  0
 12 32  1  0  0  0  0
 12 33  1  0  0  0  0
 13 14  1  0  0  0  0
 13 34  1  0  0  0  0
 13 35  1  0  0  0  0
 14 15  1  0  0  0  0
 14 36  1  0  0  0  0
 14 37  1  0  0  0  0
 15 38  1  0  0  0  0
 15 39  1  0  0  0  0
 16 17  1  0  0  0  0
 17 40  1  0  0  0  0
 17 41  1  0  0  0  0
 17 42  1  0  0  0  0
M  CHG  1   9   1
M  END
> <s_m_source_file>
AV-unprocessed.smi

> <i_m_source_file_index>
3172

> <i_lp_mmshare_version>
43012

> <i_f3d_flags>
0

> <s_epik_input>
W0NIM11jMW5bY0hdbihjMVtDSDNdKVtDSDJdW0NASF0oW0NIM10pW05IXVtDSF0yW0NIMl1bQ0gyXVtDSDJdW0NIMl1bQ0gyXTI=

> <s_epik_cmdline>
J2VwaWtfcHl0aG9uJywgJy1waCcsICc3LjAnLCAnLXRuJywgJzgnLCAnLW1hJywgJzIwMCcsICctbWV0YWxfYmluZGluZycsICctaW1hZScsICc8aW5maWxlLm1hZT4nLCAnLW9tYWUnLCAnPG91dGZpbGUubWFlPic=

> <r_lp_tautomer_probability>
1

> <r_epik_Ionization_Penalty>
0.328572

> <r_epik_Ionization_Penalty_Charging>
0.328572

> <r_epik_Ionization_Penalty_Neutral>
3.58496e-13

> <r_epik_State_Penalty>
0.596179

> <r_epik_Charging_Adjusted_Penalty>
0.924751

> <i_epik_Tot_Q>
1

> <i_epik_Tot_abs_Q>
1

> <r_epik_Metal_State_Penalty>
0.00102252

> <b_epik_Metal_Only>
0

> <s_lp_Force_Field>
OPLS_2005

> <r_lp_Energy>
15.8324

> <b_lp_Chiralities_Consistent>
1

> <s_lp_Variant>
AV-unprocessed.smi:3172-3

> <Gold.Version>
5.8.1

> <Gold.Id.Protein>
6NUR|6NUR_protein|mol2

> <Gold.PLP.Fitness>
37.0514

> <Gold.PLP.PLP>
-30.8327

> <Gold.PLP.part.hbond>
-2.0000

> <Gold.PLP.part.metal>
0.0000

> <Gold.PLP.part.buried>
0.1841

> <Gold.PLP.part.nonpolar>
-29.9824

> <Gold.PLP.part.repulsive>
0.1076

> <Gold.PLP.ligand.clash>
0.0000

> <Gold.PLP.ligand.torsion>
1.4165

> <Gold.PLP.Chemscore.Hbond>
3.0000

> <Gold.PLP.Chemscore.CHOScore>
0.0000

> <Gold.PLP.Chemscore.Metal>
0.0000

> <Gold.Chemscore.Hbonds>
donor molecule, donor type, donor heavy atom, donor atom, acceptor molecule, acceptor atom, score
      L1  H     9    28       P1 10175  2.00
      P1  H  7989  7998       L1     3  1.00

> <Gold.PLP.Chemscore.Internal.Correction>
0.0518

> <Gold.Rescore>
     Score         DG    S(hbond)    S(metal)    S(lipo)     H(rot)  DE(clash)    DE(int)     intcor
     13.09     -15.84       1.70        0.00      72.96       1.50       1.21       1.55       ----

> <Gold.Chemscore.Fitness>
13.0854

> <Gold.Chemscore.DG>
-15.8390

> <Gold.Chemscore.ZeroCoef>
-5.4800

> <Gold.Chemscore.Hbond>
1.6954

> <Gold.Chemscore.Metal>
0.0000

> <Gold.Chemscore.Lipo>
72.9560

> <Gold.Chemscore.Internal_Hbond>
0.0000

> <Gold.Chemscore.DEClash>
1.2075

> <Gold.Chemscore.DEInternal>
1.5460

> <Gold.Chemscore.Rot>
1.4999

> <Gold.Chemscore.Internal.Correction>
   9.000000E+99

> <Gold.Chemscore.Hbonds>
donor molecule, donor type, donor heavy atom, donor atom, acceptor molecule, acceptor atom, score
      L1  H     9    28       P1 10175  0.97
      P1  H  7989  7998       L1     3  0.39

> <Gold.Chemscore.Hbond.Weighted>
-5.6628

> <Gold.Chemscore.Metal.Weighted>
-0.0000

> <Gold.Chemscore.Lipo.Weighted>
-8.5358

> <Gold.Chemscore.Internal_Hbond.Weighted>
0.0000

> <Gold.Chemscore.DEClash.Weighted>
1.2075

> <Gold.Chemscore.DEInternal.Weighted>
1.5460

> <Gold.Chemscore.Rot.Weighted>
3.8397

> <Gold.Chemscore.Internal.Correction.Weighted>
   9.000000E+99

> <Gold.Protein.RotatedTorsions>
[ 6907 6896 6895 6894 ] final   13.39 input  -60.11 | X-H torsion
[ 7974 7965 7964 7962 ] final  -41.50 input  175.53 | X-H torsion
[ 8008 7997 7996 7995 ] final  134.63 input   59.86 | X-H torsion
[ 10167 10162 10161 10158 ] final -172.78 input  -65.29 | X-H torsion
[ 10718 10713 10712 10709 ] final -138.23 input   66.30 | X-H torsion
[ 10763 10752 10751 10750 ] final   89.26 input  -60.55 | X-H torsion
[ 11005 11000 10999 10996 ] final -150.51 input  -57.11 | X-H torsion

> <Gold.Protein.ActiveResidues>
 VAL166  LYS551  ARG553  GLY616  TRP617  ASP618  TYR619  PRO620  LYS621  CYS622 
 ASP623  PHE694  ASN695  SER759  ASP760  ASP761  ALA762  ILE779  LEU786  VAL792 
 PHE793  MET794  SER795  GLU796  ALA797  LYS798  CYS799  TRP800  GLU811  SER814 

> <Gold.Protein.RotatedAtoms>
  151.7855  135.0750  160.0379 H   0  0  0  0  0  0  0  0  0  0  0  0  # atno 6907 bound_to 6896
  152.3193  133.5832  159.5742 H   0  0  0  0  0  0  0  0  0  0  0  0  # atno 6908 bound_to 6896
  150.7361  133.9951  159.3662 H   0  0  0  0  0  0  0  0  0  0  0  0  # atno 6909 bound_to 6896
  146.0205  140.6855  142.9180 H   0  0  0  0  0  0  0  0  0  0  0  0  # atno 7974 bound_to 7965
  156.3000  140.2491  156.3449 H   0  0  0  0  0  0  0  0  0  0  0  0  # atno 8008 bound_to 7997
  154.9020  140.0406  157.1918 H   0  0  0  0  0  0  0  0  0  0  0  0  # atno 8009 bound_to 7997
  154.8491  140.2903  155.5614 H   0  0  0  0  0  0  0  0  0  0  0  0  # atno 8010 bound_to 7997
  139.5725  144.1609  152.1404 H   0  0  0  0  0  0  0  0  0  0  0  0  # atno 10167 bound_to 10162
  156.2970  130.7407  151.1449 H   0  0  0  0  0  0  0  0  0  0  0  0  # atno 10718 bound_to 10713
  153.1853  135.4477  155.0080 H   0  0  0  0  0  0  0  0  0  0  0  0  # atno 10763 bound_to 10752
  154.8056  135.3273  154.7442 H   0  0  0  0  0  0  0  0  0  0  0  0  # atno 10764 bound_to 10752
  153.7902  135.6971  153.4928 H   0  0  0  0  0  0  0  0  0  0  0  0  # atno 10765 bound_to 10752
  140.7394  134.3531  157.5150 H   0  0  0  0  0  0  0  0  0  0  0  0  # atno 11005 bound_to 11000
  144.6988  140.3558  143.7173 LP  0  0  0  0  0  0  0  0  0  0  0  0  # atno 17320 bound_to 7965
  145.7200  139.1707  143.2490 LP  0  0  0  0  0  0  0  0  0  0  0  0  # atno 17321 bound_to 7965
  140.1144  144.5428  150.6903 LP  0  0  0  0  0  0  0  0  0  0  0  0  # atno 17342 bound_to 10162
  140.7009  143.2434  151.4867 LP  0  0  0  0  0  0  0  0  0  0  0  0  # atno 17343 bound_to 10162
  157.7358  131.0569  150.5450 LP  0  0  0  0  0  0  0  0  0  0  0  0  # atno 17370 bound_to 10713
  156.5573  130.4246  149.6079 LP  0  0  0  0  0  0  0  0  0  0  0  0  # atno 17371 bound_to 10713
  139.8809  134.9071  156.2937 LP  0  0  0  0  0  0  0  0  0  0  0  0  # atno 17394 bound_to 11000
  140.9850  133.7244  156.0728 LP  0  0  0  0  0  0  0  0  0  0  0  0  # atno 17395 bound_to 11000

$$$$
