AV-unprocessed.smi:3032|AV-procd|sdf|11562|dock6
  -GOLD-   2272016533D 1   1.00000     0.00000
 Structure written by MMmdl.
 37 38  0  0  0  0  0  0  0  0  1 V2000
  153.3025  141.8095  161.0419 C   0  0  0  0  0  0  0  0  0  0  0  0
  152.3024  142.5666  160.1567 C   0  0  1  0  0  0  0  0  0  0  0  0
  152.7958  143.9912  159.8401 C   0  0  0  0  0  0  0  0  0  0  0  0
  151.8003  144.7466  158.9458 C   0  0  0  0  0  0  0  0  0  0  0  0
  151.5154  143.9699  157.6508 C   0  0  0  0  0  0  0  0  0  0  0  0
  151.0061  142.5457  157.9543 C   0  0  1  0  0  0  0  0  0  0  0  0
  150.7535  141.7601  156.6613 C   0  0  0  0  0  0  0  0  0  0  0  0
  151.3123  140.6786  156.4749 O   0  0  0  0  0  0  0  0  0  0  0  0
  149.8874  142.3025  155.7902 N   0  0  0  0  0  0  0  0  0  0  0  0
  149.4204  141.6733  154.5564 C   0  0  0  0  0  0  0  0  0  0  0  0
  148.0554  140.9779  154.7325 C   0  0  0  0  0  0  0  0  0  0  0  0
  147.7100  140.0328  153.6250 C   0  0  0  0  0  0  0  0  0  0  0  0
  148.3640  138.8799  153.4744 N   0  0  0  0  0  0  0  0  0  0  0  0
  147.7096  138.3174  152.4356 N   0  0  0  0  0  0  0  0  0  0  0  0
  146.7370  139.1393  152.0452 C   0  0  0  0  0  0  0  0  0  0  0  0
  146.6742  140.2559  152.7577 N   0  0  0  0  0  0  0  0  0  0  0  0
  152.0119  141.7960  158.8544 C   0  0  0  0  0  0  0  0  0  0  0  0
  154.2617  141.6837  160.5384 H   0  0  0  0  0  0  0  0  0  0  0  0
  152.9284  140.8174  161.2964 H   0  0  0  0  0  0  0  0  0  0  0  0
  153.4837  142.3429  161.9753 H   0  0  0  0  0  0  0  0  0  0  0  0
  151.3681  142.6501  160.7139 H   0  0  0  0  0  0  0  0  0  0  0  0
  152.9510  144.5475  160.7652 H   0  0  0  0  0  0  0  0  0  0  0  0
  153.7655  143.9436  159.3425 H   0  0  0  0  0  0  0  0  0  0  0  0
  150.8685  144.9073  159.4894 H   0  0  0  0  0  0  0  0  0  0  0  0
  152.1930  145.7353  158.7067 H   0  0  0  0  0  0  0  0  0  0  0  0
  150.7804  144.5129  157.0549 H   0  0  0  0  0  0  0  0  0  0  0  0
  152.4266  143.9261  157.0519 H   0  0  0  0  0  0  0  0  0  0  0  0
  150.0621  142.6302  158.4961 H   0  0  0  0  0  0  0  0  0  0  0  0
  149.4783  143.1947  156.0273 H   0  0  0  0  0  0  0  0  0  0  0  0
  149.3413  142.4432  153.7890 H   0  0  0  0  0  0  0  0  0  0  0  0
  150.1546  140.9555  154.1873 H   0  0  0  0  0  0  0  0  0  0  0  0
  148.0473  140.4273  155.6743 H   0  0  0  0  0  0  0  0  0  0  0  0
  147.2697  141.7296  154.8163 H   0  0  0  0  0  0  0  0  0  0  0  0
  146.0626  138.9165  151.2315 H   0  0  0  0  0  0  0  0  0  0  0  0
  152.9468  141.6327  158.3154 H   0  0  0  0  0  0  0  0  0  0  0  0
  151.6222  140.8062  159.0965 H   0  0  0  0  0  0  0  0  0  0  0  0
  147.9491  137.4144  152.0519 H   0  0  0  0  0  0  0  0  0  0  0  0
  1  2  1  0  0  0  0
  1 18  1  0  0  0  0
  1 19  1  0  0  0  0
  1 20  1  0  0  0  0
  2 17  1  0  0  0  0
  2  3  1  0  0  0  0
  2 21  1  0  0  0  0
  3  4  1  0  0  0  0
  3 22  1  0  0  0  0
  3 23  1  0  0  0  0
  4  5  1  0  0  0  0
  4 24  1  0  0  0  0
  4 25  1  0  0  0  0
  5  6  1  0  0  0  0
  5 26  1  0  0  0  0
  5 27  1  0  0  0  0
  6  7  1  0  0  0  0
  6 17  1  0  0  0  0
  6 28  1  0  0  0  0
  7  8  2  0  0  0  0
  7  9  1  0  0  0  0
  9 10  1  0  0  0  0
  9 29  1  0  0  0  0
 10 11  1  0  0  0  0
 10 30  1  0  0  0  0
 10 31  1  0  0  0  0
 11 32  1  0  0  0  0
 11 33  1  0  0  0  0
 11 12  1  0  0  0  0
 12 16  1  0  0  0  0
 12 13  2  0  0  0  0
 13 14  1  0  0  0  0
 14 15  1  0  0  0  0
 14 37  1  0  0  0  0
 15 16  2  0  0  0  0
 15 34  1  0  0  0  0
 17 35  1  0  0  0  0
 17 36  1  0  0  0  0
M  END
> <s_m_source_file>
AV-unprocessed.smi

> <i_m_source_file_index>
3032

> <i_lp_mmshare_version>
43012

> <i_f3d_flags>
0

> <s_epik_input>
W0NIM11bQ0BASF0xW0NIMl1bQ0gyXVtDSDJdW0NASF0oW0NIMl0xKUMoPU8pW05IXVtDSDJdW0NIMl1jMm5uW2NIXVtuSF0y

> <s_epik_cmdline>
J2VwaWtfcHl0aG9uJywgJy1waCcsICc3LjAnLCAnLXRuJywgJzgnLCAnLW1hJywgJzIwMCcsICctbWV0YWxfYmluZGluZycsICctaW1hZScsICc8aW5maWxlLm1hZT4nLCAnLW9tYWUnLCAnPG91dGZpbGUubWFlPic=

> <r_epik_Ionization_Penalty>
0.000752022

> <r_epik_Ionization_Penalty_Charging>
0

> <r_epik_Ionization_Penalty_Neutral>
0.000752022

> <r_epik_State_Penalty>
0.639926

> <r_epik_Charging_Adjusted_Penalty>
0.639926

> <i_epik_Tot_Q>
0

> <i_epik_Tot_abs_Q>
0

> <r_epik_Metal_State_Penalty>
0.76532

> <b_epik_Metal_Only>
0

> <s_lp_Force_Field>
OPLS_2005

> <r_lp_Energy>
8.74502

> <b_lp_Chiralities_Consistent>
1

> <s_lp_Variant>
AV-unprocessed.smi:3032-6

> <Gold.Version>
5.8.1

> <Gold.Id.Protein>
6NUR|6NUR_protein|mol2

> <Gold.PLP.Fitness>
44.6992

> <Gold.PLP.PLP>
-36.8423

> <Gold.PLP.part.hbond>
-2.8540

> <Gold.PLP.part.metal>
0.0000

> <Gold.PLP.part.buried>
-2.3037

> <Gold.PLP.part.nonpolar>
-34.4477

> <Gold.PLP.part.repulsive>
2.9922

> <Gold.PLP.ligand.clash>
0.0000

> <Gold.PLP.ligand.torsion>
0.2992

> <Gold.PLP.Chemscore.Hbond>
2.0000

> <Gold.PLP.Chemscore.CHOScore>
0.8122

> <Gold.PLP.Chemscore.Metal>
0.0000

> <Gold.Chemscore.Hbonds>
donor molecule, donor type, donor heavy atom, donor atom, acceptor molecule, acceptor atom, score
      L1  H     9    29       P1  8028  1.00
      L1  H    14    37       P1  7948  1.00
      L1  C    15    34       P1 10171  0.79

> <Gold.PLP.Chemscore.Internal.Correction>
0.0189

> <Gold.Rescore>
     Score         DG    S(hbond)    S(metal)    S(lipo)     H(rot)  DE(clash)    DE(int)     intcor
     15.70     -17.03       1.88        0.00      94.21       2.25       1.01       0.32       ----

> <Gold.Chemscore.Fitness>
15.6972

> <Gold.Chemscore.DG>
-17.0284

> <Gold.Chemscore.ZeroCoef>
-5.4800

> <Gold.Chemscore.Hbond>
1.8820

> <Gold.Chemscore.Metal>
0.0000

> <Gold.Chemscore.Lipo>
94.2112

> <Gold.Chemscore.Internal_Hbond>
0.0000

> <Gold.Chemscore.DEClash>
1.0125

> <Gold.Chemscore.DEInternal>
0.3188

> <Gold.Chemscore.Rot>
2.2501

> <Gold.Chemscore.Internal.Correction>
   9.000000E+99

> <Gold.Chemscore.Hbonds>
donor molecule, donor type, donor heavy atom, donor atom, acceptor molecule, acceptor atom, score
      L1  H     9    29       P1  8028  0.97
      L1  H    14    37       P1  7948  0.90

> <Gold.Chemscore.Hbond.Weighted>
-6.2860

> <Gold.Chemscore.Metal.Weighted>
-0.0000

> <Gold.Chemscore.Lipo.Weighted>
-11.0227

> <Gold.Chemscore.Internal_Hbond.Weighted>
0.0000

> <Gold.Chemscore.DEClash.Weighted>
1.0125

> <Gold.Chemscore.DEInternal.Weighted>
0.3188

> <Gold.Chemscore.Rot.Weighted>
5.7603

> <Gold.Chemscore.Internal.Correction.Weighted>
   9.000000E+99

> <Gold.Protein.RotatedTorsions>
[ 6907 6896 6895 6894 ] final -166.11 input  -60.11 | X-H torsion
[ 7974 7965 7964 7962 ] final  129.70 input  175.53 | X-H torsion
[ 8008 7997 7996 7995 ] final  -49.52 input   59.86 | X-H torsion
[ 10167 10162 10161 10158 ] final   36.03 input  -65.29 | X-H torsion
[ 10718 10713 10712 10709 ] final  132.24 input   66.30 | X-H torsion
[ 10763 10752 10751 10750 ] final  134.58 input  -60.55 | X-H torsion
[ 11005 11000 10999 10996 ] final -113.87 input  -57.11 | X-H torsion

> <Gold.Protein.ActiveResidues>
 VAL166  LYS551  ARG553  GLY616  TRP617  ASP618  TYR619  PRO620  LYS621  CYS622 
 ASP623  PHE694  ASN695  SER759  ASP760  ASP761  ALA762  ILE779  LEU786  VAL792 
 PHE793  MET794  SER795  GLU796  ALA797  LYS798  CYS799  TRP800  GLU811  SER814 

> <Gold.Protein.RotatedAtoms>
  151.4384  133.3650  159.2778 H   0  0  0  0  0  0  0  0  0  0  0  0  # atno 6907 bound_to 6896
  150.9175  134.8594  159.7477 H   0  0  0  0  0  0  0  0  0  0  0  0  # atno 6908 bound_to 6896
  152.4965  134.4319  159.9567 H   0  0  0  0  0  0  0  0  0  0  0  0  # atno 6909 bound_to 6896
  145.0259  139.4090  143.5174 H   0  0  0  0  0  0  0  0  0  0  0  0  # atno 7974 bound_to 7965
  154.4045  140.1295  156.4516 H   0  0  0  0  0  0  0  0  0  0  0  0  # atno 8008 bound_to 7997
  155.7361  140.3490  155.5062 H   0  0  0  0  0  0  0  0  0  0  0  0  # atno 8009 bound_to 7997
  155.9082  140.1031  157.1289 H   0  0  0  0  0  0  0  0  0  0  0  0  # atno 8010 bound_to 7997
  140.4166  144.1518  150.6144 H   0  0  0  0  0  0  0  0  0  0  0  0  # atno 10167 bound_to 10162
  157.4890  131.1089  150.9582 H   0  0  0  0  0  0  0  0  0  0  0  0  # atno 10718 bound_to 10713
  153.8259  135.3110  155.3414 H   0  0  0  0  0  0  0  0  0  0  0  0  # atno 10763 bound_to 10752
  154.7993  135.4736  154.0241 H   0  0  0  0  0  0  0  0  0  0  0  0  # atno 10764 bound_to 10752
  153.1664  135.6870  153.8759 H   0  0  0  0  0  0  0  0  0  0  0  0  # atno 10765 bound_to 10752
  141.0587  133.9570  157.2706 H   0  0  0  0  0  0  0  0  0  0  0  0  # atno 11005 bound_to 11000
  146.3492  139.9782  142.8698 LP  0  0  0  0  0  0  0  0  0  0  0  0  # atno 17320 bound_to 7965
  145.1835  140.9778  143.4252 LP  0  0  0  0  0  0  0  0  0  0  0  0  # atno 17321 bound_to 7965
  140.4579  143.2460  151.9259 LP  0  0  0  0  0  0  0  0  0  0  0  0  # atno 17342 bound_to 10162
  139.4782  144.5496  151.8405 LP  0  0  0  0  0  0  0  0  0  0  0  0  # atno 17343 bound_to 10162
  157.0290  130.5704  149.5341 LP  0  0  0  0  0  0  0  0  0  0  0  0  # atno 17370 bound_to 10713
  156.0163  130.5257  150.8143 LP  0  0  0  0  0  0  0  0  0  0  0  0  # atno 17371 bound_to 10713
  139.9413  135.0190  156.8718 LP  0  0  0  0  0  0  0  0  0  0  0  0  # atno 17394 bound_to 11000
  140.5911  134.0260  155.7500 LP  0  0  0  0  0  0  0  0  0  0  0  0  # atno 17395 bound_to 11000

$$$$
