#       Name:                AV-unprocessed.smi:1499
#       Creating user name   scv26
#       Creation time:       Fri Mar 27 06:17:54 2020


#       File generated by GOLD software.
#

@<TRIPOS>MOLECULE
AV-unprocessed.smi:1499
    46    47     1
SMALL
NO_CHARGES


@<TRIPOS>ATOM
      1 ****        -4.4205   3.1239   2.3161 C.3            1 S1                 0.0000
      2 ****        -3.4106   1.9693   2.3872 C.3            1 S1                 0.0000
      3 ****        -3.1439   1.3589   1.0603 N.4            1 S1                 1.0000
      4 ****        -2.5691  -0.0089   1.1792 C.3            1 S1                 0.0000
      5 ****        -2.3004  -0.6351  -0.2026 C.3            1 S1                 0.0000
      6 ****        -1.4321   0.2657  -0.9743 N.am           1 S1                 0.0000
      7 ****        -0.1034   0.0944  -1.1875 C.2            1 S1                 0.0000
      8 ****         0.6436   1.0231  -1.4966 O.2            1 S1                 0.0000
      9 ****         0.3023  -1.1881  -1.1221 N.am           1 S1                 0.0000
     10 ****         1.6244  -1.6861  -1.2429 C.2            1 S1                 0.0000
     11 ****         1.9796  -3.0587  -1.1823 C.2            1 S1                 0.0000
     12 ****         3.2869  -3.2220  -1.3154 N.2            1 S1                 0.0000
     13 ****         3.7858  -1.9685  -1.4608 N.pl3          1 S1                 0.0000
     14 ****         5.2158  -1.7772  -1.6260 C.3            1 S1                 0.0000
     15 ****         5.8646  -1.3092  -0.3222 C.2            1 S1                 0.0000
     16 ****         6.0816  -2.2340   0.6167 N.am           1 S1                 0.0000
     17 ****         6.1666  -0.1282  -0.1653 O.2            1 S1                 0.0000
     18 ****         2.7959  -1.0058  -1.4226 C.2            1 S1                 0.0000
     19 ****        -2.0931   1.5538  -1.2020 C.3            1 S1                 0.0000
     20 ****        -2.3544   2.2374   0.1527 C.3            1 S1                 0.0000
     21 ****        -4.6667   3.4789   3.3172 H              1 S1                 0.0000
     22 ****        -5.3492   2.8072   1.8411 H              1 S1                 0.0000
     23 ****        -4.0299   3.9766   1.7613 H              1 S1                 0.0000
     24 ****        -2.4758   2.3032   2.8403 H              1 S1                 0.0000
     25 ****        -3.8215   1.2082   3.0522 H              1 S1                 0.0000
     26 ****        -1.6396   0.0388   1.7493 H              1 S1                 0.0000
     27 ****        -3.2532  -0.6460   1.7409 H              1 S1                 0.0000
     28 ****        -1.8933  -1.6379  -0.0737 H              1 S1                 0.0000
     29 ****        -3.2405  -0.7697  -0.7399 H              1 S1                 0.0000
     30 ****        -0.4101  -1.8785  -0.9349 H              1 S1                 0.0000
     31 ****         1.3470  -3.9238  -1.0475 H              1 S1                 0.0000
     32 ****         5.6761  -2.7077  -1.9628 H              1 S1                 0.0000
     33 ****         5.3800  -1.0367  -2.4100 H              1 S1                 0.0000
     34 ****         6.5145  -1.9720   1.4908 H              1 S1                 0.0000
     35 ****         5.8184  -3.1937   0.4458 H              1 S1                 0.0000
     36 ****         3.0187   0.0465  -1.5196 H              1 S1                 0.0000
     37 ****        -1.5143   2.2128  -1.8512 H              1 S1                 0.0000
     38 ****        -3.0363   1.3848  -1.7236 H              1 S1                 0.0000
     39 ****        -2.8827   3.1745  -0.0195 H              1 S1                 0.0000
     40 ****        -1.4048   2.4904   0.6274 H              1 S1                 0.0000
     41 ****        -4.0441   1.2348   0.6193 H              1 S1                 0.0000
     42 ****         0.2761   1.9474  -1.5995 LP             1 S1                 0.0000
     43 ****         1.6179   0.8531  -1.6447 LP             1 S1                 0.0000
     44 ****         3.7962  -4.0826  -1.3099 LP             1 S1                 0.0000
     45 ****         5.9885   0.5344  -0.8928 LP             1 S1                 0.0000
     46 ****         6.5905   0.1702   0.6899 LP             1 S1                 0.0000
@<TRIPOS>BOND
    1    1    2 1     
    2    1   21 1     
    3    1   22 1     
    4    1   23 1     
    5    2    3 1     
    6    2   24 1     
    7    2   25 1     
    8    3   20 1     
    9    3    4 1     
   10    3   41 1     
   11    4    5 1     
   12    4   26 1     
   13    4   27 1     
   14    5    6 1     
   15    5   28 1     
   16    5   29 1     
   17    6    7 am    
   18    6   19 1     
   19    7    8 2     
   20    7    9 am    
   21    9   10 1     
   22    9   30 1     
   23   10   18 2     
   24   10   11 1     
   25   11   12 2     
   26   11   31 1     
   27   12   13 1     
   28   13   14 1     
   29   13   18 1     
   30   14   15 1     
   31   14   32 1     
   32   14   33 1     
   33   15   16 am    
   34   15   17 2     
   35   16   34 1     
   36   16   35 1     
   37   18   36 1     
   38   19   20 1     
   39   19   37 1     
   40   19   38 1     
   41   20   39 1     
   42   20   40 1     
   43    8   42 1     
   44    8   43 1     
   45   12   44 1     
   46   17   45 1     
   47   17   46 1     
@<TRIPOS>SUBSTRUCTURE
      1 S1             1
@<TRIPOS>SET
LONE_PAIRS      STATIC     ATOMS    <user>   **** ""
5 42 43 44 45 46
DONOR_HYDROGENS      STATIC     ATOMS    <user>   **** ""
4 41 30 34 35
ATOM$BLUE        STATIC     ATOMS    COLORGROUP SYSTEM
5 42 43 44 45 46
ATOM$RED        STATIC     ATOMS    COLORGROUP SYSTEM
4 41 30 34 35
