AV-unprocessed.smi:2883|AV-procd|sdf|11075|dock5
  -GOLD-   2272015543D 1   1.00000     0.00000
 Structure written by MMmdl.
 40 42  0  0  0  0  0  0  0  0  2 V2000
  151.9747  138.2753  157.4055 C   0  0  0  0  0  0  0  0  0  0  0  0
  151.0327  138.1364  156.1867 C   0  0  0  0  0  0  0  0  0  0  0  0
  151.8631  137.9088  154.9104 C   0  0  0  0  0  0  0  0  0  0  0  0
  150.1505  136.8968  156.4588 C   0  0  0  0  0  0  0  0  0  0  0  0
  150.1700  139.3950  156.0160 C   0  0  0  0  0  0  0  0  0  0  0  0
  149.1339  139.3712  155.1583 N   0  3  0  0  0  0  0  0  0  0  0  0
  148.4317  140.5028  154.9065 C   0  0  0  0  0  0  0  0  0  0  0  0
  148.7994  141.7182  155.5112 C   0  0  0  0  0  0  0  0  0  0  0  0
  149.9163  141.6902  156.3620 C   0  0  0  0  0  0  0  0  0  0  0  0
  150.3444  142.8710  156.9841 N   0  0  0  0  0  0  0  0  0  0  0  0
  150.9591  142.8448  158.3075 C   0  0  2  0  0  0  0  0  0  0  0  0
  150.4476  143.9583  159.2314 C   0  0  0  0  0  0  0  0  0  0  0  0
  151.7497  144.6666  159.6249 C   0  0  1  0  0  0  0  0  0  0  0  0
  152.6320  143.8006  160.5342 C   0  0  0  0  0  0  0  0  0  0  0  0
  153.1621  142.7559  159.5526 C   0  0  0  0  0  0  0  0  0  0  0  0
  152.4625  143.1637  158.2488 C   0  0  2  0  0  0  0  0  0  0  0  0
  152.4592  144.5738  158.4026 O   0  0  0  0  0  0  0  0  0  0  0  0
  150.5878  140.5388  156.5801 N   0  0  0  0  0  0  0  0  0  0  0  0
  152.5630  137.3698  157.5575 H   0  0  0  0  0  0  0  0  0  0  0  0
  151.4142  138.4588  158.3231 H   0  0  0  0  0  0  0  0  0  0  0  0
  152.6845  139.0946  157.2833 H   0  0  0  0  0  0  0  0  0  0  0  0
  152.5179  138.7570  154.7066 H   0  0  0  0  0  0  0  0  0  0  0  0
  151.2219  137.7729  154.0388 H   0  0  0  0  0  0  0  0  0  0  0  0
  152.4922  137.0222  154.9975 H   0  0  0  0  0  0  0  0  0  0  0  0
  150.7590  136.0061  156.6204 H   0  0  0  0  0  0  0  0  0  0  0  0
  149.4861  136.6758  155.6227 H   0  0  0  0  0  0  0  0  0  0  0  0
  149.5325  137.0352  157.3468 H   0  0  0  0  0  0  0  0  0  0  0  0
  147.6036  140.3997  154.2206 H   0  0  0  0  0  0  0  0  0  0  0  0
  148.2519  142.6295  155.3189 H   0  0  0  0  0  0  0  0  0  0  0  0
  150.0681  143.7645  156.6034 H   0  0  0  0  0  0  0  0  0  0  0  0
  150.8106  141.8593  158.7510 H   0  0  0  0  0  0  0  0  0  0  0  0
  149.7901  144.6508  158.7035 H   0  0  0  0  0  0  0  0  0  0  0  0
  149.9055  143.5712  160.0950 H   0  0  0  0  0  0  0  0  0  0  0  0
  151.6071  145.6858  159.9849 H   0  0  0  0  0  0  0  0  0  0  0  0
  153.4535  144.3840  160.9514 H   0  0  0  0  0  0  0  0  0  0  0  0
  152.0697  143.3619  161.3590 H   0  0  0  0  0  0  0  0  0  0  0  0
  154.2447  142.8411  159.4522 H   0  0  0  0  0  0  0  0  0  0  0  0
  152.9272  141.7340  159.8520 H   0  0  0  0  0  0  0  0  0  0  0  0
  152.9689  142.8041  157.3521 H   0  0  0  0  0  0  0  0  0  0  0  0
  148.8669  138.5019  154.6958 H   0  0  0  0  0  0  0  0  0  0  0  0
  1  2  1  0  0  0  0
  1 19  1  0  0  0  0
  1 20  1  0  0  0  0
  1 21  1  0  0  0  0
  2  3  1  0  0  0  0
  2  4  1  0  0  0  0
  2  5  1  0  0  0  0
  3 22  1  0  0  0  0
  3 23  1  0  0  0  0
  3 24  1  0  0  0  0
  4 25  1  0  0  0  0
  4 26  1  0  0  0  0
  4 27  1  0  0  0  0
  5 18  1  0  0  0  0
  5  6  2  0  0  0  0
  6  7  1  0  0  0  0
  6 40  1  0  0  0  0
  7  8  2  0  0  0  0
  7 28  1  0  0  0  0
  8  9  1  0  0  0  0
  8 29  1  0  0  0  0
  9 10  1  0  0  0  0
  9 18  2  0  0  0  0
 10 11  1  0  0  0  0
 10 30  1  0  0  0  0
 11 16  1  0  0  0  0
 11 12  1  0  0  0  0
 11 31  1  0  0  0  0
 12 13  1  0  0  0  0
 12 32  1  0  0  0  0
 12 33  1  0  0  0  0
 13 17  1  0  0  0  0
 13 14  1  0  0  0  0
 13 34  1  0  0  0  0
 14 15  1  0  0  0  0
 14 35  1  0  0  0  0
 14 36  1  0  0  0  0
 15 16  1  0  0  0  0
 15 37  1  0  0  0  0
 15 38  1  0  0  0  0
 16 17  1  0  0  0  0
 16 39  1  0  0  0  0
M  CHG  1   6   1
M  END
> <s_m_source_file>
AV-unprocessed.smi

> <i_m_source_file_index>
2883

> <i_lp_mmshare_version>
43012

> <i_f3d_flags>
0

> <s_epik_input>
W0NIM11DKFtDSDNdKShbQ0gzXSljMW5bY0hdW2NIXWMobjEpW05IXVtDQEhdKFtDSDJdW0NAQEhdMjMpW0NAQEhdKE8zKVtDSDJdW0NIMl0y

> <s_epik_cmdline>
J2VwaWtfcHl0aG9uJywgJy1waCcsICc3LjAnLCAnLXRuJywgJzgnLCAnLW1hJywgJzIwMCcsICctbWV0YWxfYmluZGluZycsICctaW1hZScsICc8aW5maWxlLm1hZT4nLCAnLW9tYWUnLCAnPG91dGZpbGUubWFlPic=

> <r_lp_tautomer_probability>
0.999336

> <r_epik_Ionization_Penalty>
0.371831

> <r_epik_Ionization_Penalty_Charging>
0.371821

> <r_epik_Ionization_Penalty_Neutral>
1.06897e-05

> <r_epik_State_Penalty>
0.369311

> <r_epik_Charging_Adjusted_Penalty>
0.741132

> <i_epik_Tot_Q>
1

> <i_epik_Tot_abs_Q>
1

> <r_epik_Metal_State_Penalty>
0.621338

> <b_epik_Metal_Only>
0

> <s_lp_Force_Field>
OPLS_2005

> <r_lp_Energy>
38.7215

> <b_lp_Chiralities_Consistent>
1

> <s_lp_Variant>
AV-unprocessed.smi:2883-1

> <Gold.Version>
5.8.1

> <Gold.Id.Protein>
6NUR|6NUR_protein|mol2

> <Gold.PLP.Fitness>
40.0614

> <Gold.PLP.PLP>
-38.7917

> <Gold.PLP.part.hbond>
-1.0000

> <Gold.PLP.part.metal>
0.0000

> <Gold.PLP.part.buried>
-4.9830

> <Gold.PLP.part.nonpolar>
-34.3488

> <Gold.PLP.part.repulsive>
0.1998

> <Gold.PLP.ligand.clash>
0.0000

> <Gold.PLP.ligand.torsion>
0.9454

> <Gold.PLP.Chemscore.Hbond>
1.0000

> <Gold.PLP.Chemscore.CHOScore>
0.0000

> <Gold.PLP.Chemscore.Metal>
0.0000

> <Gold.Chemscore.Hbonds>
donor molecule, donor type, donor heavy atom, donor atom, acceptor molecule, acceptor atom, score
      L1  H    10    30       P1  8028  0.99

> <Gold.PLP.Chemscore.Internal.Correction>
0.1605

> <Gold.Rescore>
     Score         DG    S(hbond)    S(metal)    S(lipo)     H(rot)  DE(clash)    DE(int)     intcor
     17.22     -18.11       0.98        0.00     105.26       1.16       0.01       0.89       ----

> <Gold.Chemscore.Fitness>
17.2152

> <Gold.Chemscore.DG>
-18.1078

> <Gold.Chemscore.ZeroCoef>
-5.4800

> <Gold.Chemscore.Hbond>
0.9848

> <Gold.Chemscore.Metal>
0.0000

> <Gold.Chemscore.Lipo>
105.2559

> <Gold.Chemscore.Internal_Hbond>
0.0000

> <Gold.Chemscore.DEClash>
0.0062

> <Gold.Chemscore.DEInternal>
0.8865

> <Gold.Chemscore.Rot>
1.1626

> <Gold.Chemscore.Internal.Correction>
   9.000000E+99

> <Gold.Chemscore.Hbonds>
donor molecule, donor type, donor heavy atom, donor atom, acceptor molecule, acceptor atom, score
      L1  H    10    30       P1  8028  0.94

> <Gold.Chemscore.Hbond.Weighted>
-3.2891

> <Gold.Chemscore.Metal.Weighted>
-0.0000

> <Gold.Chemscore.Lipo.Weighted>
-12.3149

> <Gold.Chemscore.Internal_Hbond.Weighted>
0.0000

> <Gold.Chemscore.DEClash.Weighted>
0.0062

> <Gold.Chemscore.DEInternal.Weighted>
0.8865

> <Gold.Chemscore.Rot.Weighted>
2.9763

> <Gold.Chemscore.Internal.Correction.Weighted>
   9.000000E+99

> <Gold.Protein.RotatedTorsions>
[ 6907 6896 6895 6894 ] final  -84.88 input  -60.11 | X-H torsion
[ 7974 7965 7964 7962 ] final  -86.41 input  175.53 | X-H torsion
[ 8008 7997 7996 7995 ] final -101.04 input   59.86 | X-H torsion
[ 10167 10162 10161 10158 ] final   77.04 input  -65.29 | X-H torsion
[ 10718 10713 10712 10709 ] final  -37.86 input   66.30 | X-H torsion
[ 10763 10752 10751 10750 ] final  111.61 input  -60.55 | X-H torsion
[ 11005 11000 10999 10996 ] final  -79.38 input  -57.11 | X-H torsion

> <Gold.Protein.ActiveResidues>
 VAL166  LYS551  ARG553  GLY616  TRP617  ASP618  TYR619  PRO620  LYS621  CYS622 
 ASP623  PHE694  ASN695  SER759  ASP760  ASP761  ALA762  ILE779  LEU786  VAL792 
 PHE793  MET794  SER795  GLU796  ALA797  LYS798  CYS799  TRP800  GLU811  SER814 

> <Gold.Protein.RotatedAtoms>
  150.6873  134.3291  159.4819 H   0  0  0  0  0  0  0  0  0  0  0  0  # atno 6907 bound_to 6896
  152.1158  134.9239  160.0574 H   0  0  0  0  0  0  0  0  0  0  0  0  # atno 6908 bound_to 6896
  152.0464  133.3965  159.4395 H   0  0  0  0  0  0  0  0  0  0  0  0  # atno 6909 bound_to 6896
  145.4803  140.9557  143.1868 H   0  0  0  0  0  0  0  0  0  0  0  0  # atno 7974 bound_to 7965
  154.8370  140.0437  157.1515 H   0  0  0  0  0  0  0  0  0  0  0  0  # atno 8008 bound_to 7997
  154.9089  140.3011  155.5256 H   0  0  0  0  0  0  0  0  0  0  0  0  # atno 8009 bound_to 7997
  156.2990  140.2362  156.4126 H   0  0  0  0  0  0  0  0  0  0  0  0  # atno 8010 bound_to 7997
  139.9858  144.5793  150.7860 H   0  0  0  0  0  0  0  0  0  0  0  0  # atno 10167 bound_to 10162
  156.3104  130.4252  149.8056 H   0  0  0  0  0  0  0  0  0  0  0  0  # atno 10718 bound_to 10713
  153.4659  135.3711  155.2364 H   0  0  0  0  0  0  0  0  0  0  0  0  # atno 10763 bound_to 10752
  154.8757  135.3919  154.3870 H   0  0  0  0  0  0  0  0  0  0  0  0  # atno 10764 bound_to 10752
  153.4450  135.7085  153.6209 H   0  0  0  0  0  0  0  0  0  0  0  0  # atno 10765 bound_to 10752
  141.1667  133.7103  156.8114 H   0  0  0  0  0  0  0  0  0  0  0  0  # atno 11005 bound_to 11000
  144.7893  139.6362  143.7120 LP  0  0  0  0  0  0  0  0  0  0  0  0  # atno 17320 bound_to 7965
  146.2345  139.5878  142.9533 LP  0  0  0  0  0  0  0  0  0  0  0  0  # atno 17321 bound_to 7965
  140.7472  143.2903  151.3348 LP  0  0  0  0  0  0  0  0  0  0  0  0  # atno 17342 bound_to 10162
  139.6376  144.0601  152.2528 LP  0  0  0  0  0  0  0  0  0  0  0  0  # atno 17343 bound_to 10162
  156.5401  130.8296  151.3266 LP  0  0  0  0  0  0  0  0  0  0  0  0  # atno 17370 bound_to 10713
  157.7389  130.9822  150.2283 LP  0  0  0  0  0  0  0  0  0  0  0  0  # atno 17371 bound_to 10713
  140.2185  134.8775  157.3352 LP  0  0  0  0  0  0  0  0  0  0  0  0  # atno 17394 bound_to 11000
  140.2012  134.4252  155.7661 LP  0  0  0  0  0  0  0  0  0  0  0  0  # atno 17395 bound_to 11000

$$$$
