AV-unprocessed.smi:670|AV-procd|sdf|3270|dock7
  -GOLD-   22720 0223D 1   1.00000     0.00000
 Structure written by MMmdl.
 45 46  0  0  0  0  0  0  0  0  1 V2000
  147.9672  141.7010  154.0235 C   0  0  0  0  0  0  0  0  0  0  0  0
  149.3299  141.0681  154.3455 C   0  0  1  0  0  0  0  0  0  0  0  0
  149.8045  141.4237  155.7693 C   0  0  0  0  0  0  0  0  0  0  0  0
  151.1841  140.8179  156.0726 C   0  0  0  0  0  0  0  0  0  0  0  0
  151.1880  139.2987  155.8498 C   0  0  0  0  0  0  0  0  0  0  0  0
  150.7194  138.9437  154.4297 C   0  0  0  0  0  0  0  0  0  0  0  0
  149.3267  139.5382  154.1249 C   0  0  1  0  0  0  0  0  0  0  0  0
  148.3450  138.9641  154.9801 O   0  0  0  0  0  0  0  0  0  0  0  0
  147.7572  137.7667  154.4932 C   0  0  0  0  0  0  0  0  0  0  0  0
  146.6571  138.1363  153.4883 C   0  0  0  0  0  0  0  0  0  0  0  0
  146.5502  137.1432  152.4251 N   0  0  0  0  0  0  0  0  0  0  0  0
  145.4174  136.5328  152.0471 C   0  0  0  0  0  0  0  0  0  0  0  0
  144.3317  136.7293  152.5955 O   0  0  0  0  0  0  0  0  0  0  0  0
  145.5478  135.5443  150.8790 C   0  0  0  0  0  0  0  0  0  0  0  0
  145.6829  134.1442  151.3066 N   0  0  0  0  0  0  0  0  0  0  0  0
  146.9266  133.8318  151.8344 N   0  0  0  0  0  0  0  0  0  0  0  0
  147.1649  132.6374  152.2601 C   0  0  0  0  0  0  0  0  0  0  0  0
  148.4083  132.3718  152.7792 O   0  0  0  0  0  0  0  0  0  0  0  0
  146.1549  131.6038  152.1946 C   0  0  0  0  0  0  0  0  0  0  0  0
  144.9483  131.9167  151.6739 C   0  0  0  0  0  0  0  0  0  0  0  0
  144.6437  133.2621  151.1837 C   0  0  0  0  0  0  0  0  0  0  0  0
  143.5531  133.5737  150.7062 O   0  0  0  0  0  0  0  0  0  0  0  0
  148.8559  131.8696  152.1160 H   0  0  0  0  0  0  0  0  0  0  0  0
  147.1902  141.3412  154.6986 H   0  0  0  0  0  0  0  0  0  0  0  0
  147.6573  141.4683  153.0045 H   0  0  0  0  0  0  0  0  0  0  0  0
  148.0084  142.7867  154.1154 H   0  0  0  0  0  0  0  0  0  0  0  0
  150.0495  141.4959  153.6461 H   0  0  0  0  0  0  0  0  0  0  0  0
  149.8504  142.5067  155.8876 H   0  0  0  0  0  0  0  0  0  0  0  0
  149.0809  141.0653  156.5025 H   0  0  0  0  0  0  0  0  0  0  0  0
  151.9352  141.2821  155.4325 H   0  0  0  0  0  0  0  0  0  0  0  0
  151.4713  141.0435  157.0999 H   0  0  0  0  0  0  0  0  0  0  0  0
  152.1884  138.9006  156.0209 H   0  0  0  0  0  0  0  0  0  0  0  0
  150.5359  138.8196  156.5812 H   0  0  0  0  0  0  0  0  0  0  0  0
  151.4394  139.3320  153.7084 H   0  0  0  0  0  0  0  0  0  0  0  0
  150.7240  137.8622  154.2995 H   0  0  0  0  0  0  0  0  0  0  0  0
  149.0657  139.3393  153.0838 H   0  0  0  0  0  0  0  0  0  0  0  0
  148.5197  137.1596  154.0040 H   0  0  0  0  0  0  0  0  0  0  0  0
  147.3391  137.1675  155.3015 H   0  0  0  0  0  0  0  0  0  0  0  0
  145.6955  138.2010  153.9978 H   0  0  0  0  0  0  0  0  0  0  0  0
  146.8502  139.1213  153.0605 H   0  0  0  0  0  0  0  0  0  0  0  0
  147.3981  136.9234  151.9224 H   0  0  0  0  0  0  0  0  0  0  0  0
  144.6854  135.6514  150.2181 H   0  0  0  0  0  0  0  0  0  0  0  0
  146.4120  135.8391  150.2810 H   0  0  0  0  0  0  0  0  0  0  0  0
  146.3691  130.6081  152.5541 H   0  0  0  0  0  0  0  0  0  0  0  0
  144.1852  131.1543  151.6176 H   0  0  0  0  0  0  0  0  0  0  0  0
  1  2  1  0  0  0  0
  1 24  1  0  0  0  0
  1 25  1  0  0  0  0
  1 26  1  0  0  0  0
  2  7  1  0  0  0  0
  2  3  1  0  0  0  0
  2 27  1  0  0  0  0
  3  4  1  0  0  0  0
  3 28  1  0  0  0  0
  3 29  1  0  0  0  0
  4  5  1  0  0  0  0
  4 30  1  0  0  0  0
  4 31  1  0  0  0  0
  5  6  1  0  0  0  0
  5 32  1  0  0  0  0
  5 33  1  0  0  0  0
  6  7  1  0  0  0  0
  6 34  1  0  0  0  0
  6 35  1  0  0  0  0
  7  8  1  0  0  0  0
  7 36  1  0  0  0  0
  8  9  1  0  0  0  0
  9 10  1  0  0  0  0
  9 37  1  0  0  0  0
  9 38  1  0  0  0  0
 10 11  1  0  0  0  0
 10 39  1  0  0  0  0
 10 40  1  0  0  0  0
 11 12  1  0  0  0  0
 11 41  1  0  0  0  0
 12 13  2  0  0  0  0
 12 14  1  0  0  0  0
 14 42  1  0  0  0  0
 14 43  1  0  0  0  0
 14 15  1  0  0  0  0
 15 16  1  0  0  0  0
 15 21  1  0  0  0  0
 16 17  2  0  0  0  0
 17 18  1  0  0  0  0
 17 19  1  0  0  0  0
 18 23  1  0  0  0  0
 19 44  1  0  0  0  0
 19 20  2  0  0  0  0
 20 45  1  0  0  0  0
 20 21  1  0  0  0  0
 21 22  2  0  0  0  0
M  END
> <s_m_source_file>
AV-unprocessed.smi

> <i_m_source_file_index>
670

> <i_lp_mmshare_version>
43012

> <i_f3d_flags>
0

> <s_epik_input>
W0NIM11bQ0BASF0xW0NIMl1bQ0gyXVtDSDJdW0NIMl1bQ0BIXTFPW0NIMl1bQ0gyXVtOSF1DKD1PKVtDSDJdbjJbbkhdYyg9TylbY0hdW2NIXWMyPU8=

> <s_epik_cmdline>
J2VwaWtfcHl0aG9uJywgJy1waCcsICc3LjAnLCAnLXRuJywgJzgnLCAnLW1hJywgJzIwMCcsICctbWV0YWxfYmluZGluZycsICctaW1hZScsICc8aW5maWxlLm1hZT4nLCAnLW9tYWUnLCAnPG91dGZpbGUubWFlPic=

> <r_lp_tautomer_probability>
0.9996

> <r_epik_Ionization_Penalty>
2.12726

> <r_epik_Ionization_Penalty_Charging>
3.83395e-08

> <r_epik_Ionization_Penalty_Neutral>
2.12726

> <r_epik_State_Penalty>
1.70432

> <r_epik_Charging_Adjusted_Penalty>
1.70432

> <i_epik_Tot_Q>
0

> <i_epik_Tot_abs_Q>
0

> <r_epik_Metal_State_Penalty>
1.70432

> <b_epik_Metal_Only>
0

> <s_lp_Force_Field>
OPLS_2005

> <r_lp_Energy>
19.8416

> <b_lp_Chiralities_Consistent>
1

> <s_lp_Variant>
AV-unprocessed.smi:670-6

> <Gold.Version>
5.8.1

> <Gold.Id.Protein>
6NUR|6NUR_protein|mol2

> <Gold.PLP.Fitness>
41.1518

> <Gold.PLP.PLP>
-37.4854

> <Gold.PLP.part.hbond>
-2.0000

> <Gold.PLP.part.metal>
0.0000

> <Gold.PLP.part.buried>
-3.5079

> <Gold.PLP.part.nonpolar>
-33.6742

> <Gold.PLP.part.repulsive>
2.2825

> <Gold.PLP.ligand.clash>
0.0000

> <Gold.PLP.ligand.torsion>
1.1978

> <Gold.PLP.Chemscore.Hbond>
2.0000

> <Gold.PLP.Chemscore.CHOScore>
0.0000

> <Gold.PLP.Chemscore.Metal>
0.0000

> <Gold.Chemscore.Hbonds>
donor molecule, donor type, donor heavy atom, donor atom, acceptor molecule, acceptor atom, score
      L1  H    11    41       P1  7948  1.00
      L1  H    18    23       P1 10747  0.88

> <Gold.PLP.Chemscore.Internal.Correction>
0.0621

> <Gold.Rescore>
     Score         DG    S(hbond)    S(metal)    S(lipo)     H(rot)  DE(clash)    DE(int)     intcor
     10.50     -12.67       1.89        0.00      75.21       3.09       0.82       1.34       ----

> <Gold.Chemscore.Fitness>
10.5035

> <Gold.Chemscore.DG>
-12.6674

> <Gold.Chemscore.ZeroCoef>
-5.4800

> <Gold.Chemscore.Hbond>
1.8858

> <Gold.Chemscore.Metal>
0.0000

> <Gold.Chemscore.Lipo>
75.2100

> <Gold.Chemscore.Internal_Hbond>
0.0000

> <Gold.Chemscore.DEClash>
0.8203

> <Gold.Chemscore.DEInternal>
1.3436

> <Gold.Chemscore.Rot>
3.0901

> <Gold.Chemscore.Internal.Correction>
   9.000000E+99

> <Gold.Chemscore.Hbonds>
donor molecule, donor type, donor heavy atom, donor atom, acceptor molecule, acceptor atom, score
      L1  H    11    41       P1  7948  0.96
      L1  H    18    23       P1 10747  0.78

> <Gold.Chemscore.Hbond.Weighted>
-6.2984

> <Gold.Chemscore.Metal.Weighted>
-0.0000

> <Gold.Chemscore.Lipo.Weighted>
-8.7996

> <Gold.Chemscore.Internal_Hbond.Weighted>
0.0000

> <Gold.Chemscore.DEClash.Weighted>
0.8203

> <Gold.Chemscore.DEInternal.Weighted>
1.3436

> <Gold.Chemscore.Rot.Weighted>
7.9106

> <Gold.Chemscore.Internal.Correction.Weighted>
   9.000000E+99

> <Gold.Protein.RotatedTorsions>
[ 6907 6896 6895 6894 ] final -178.02 input  -60.11 | X-H torsion
[ 7974 7965 7964 7962 ] final  133.55 input  175.53 | X-H torsion
[ 8008 7997 7996 7995 ] final -133.84 input   59.86 | X-H torsion
[ 10167 10162 10161 10158 ] final  118.41 input  -65.29 | X-H torsion
[ 10718 10713 10712 10709 ] final  -12.06 input   66.30 | X-H torsion
[ 10763 10752 10751 10750 ] final  164.68 input  -60.55 | X-H torsion
[ 11005 11000 10999 10996 ] final  173.45 input  -57.11 | X-H torsion

> <Gold.Protein.ActiveResidues>
 VAL166  LYS551  ARG553  GLY616  TRP617  ASP618  TYR619  PRO620  LYS621  CYS622 
 ASP623  PHE694  ASN695  SER759  ASP760  ASP761  ALA762  ILE779  LEU786  VAL792 
 PHE793  MET794  SER795  GLU796  ALA797  LYS798  CYS799  TRP800  GLU811  SER814 

> <Gold.Protein.RotatedAtoms>
  151.6305  133.3332  159.3107 H   0  0  0  0  0  0  0  0  0  0  0  0  # atno 6907 bound_to 6896
  150.8059  134.7187  159.6655 H   0  0  0  0  0  0  0  0  0  0  0  0  # atno 6908 bound_to 6896
  152.4154  134.6055  160.0063 H   0  0  0  0  0  0  0  0  0  0  0  0  # atno 6909 bound_to 6896
  144.9854  139.4461  143.5365 H   0  0  0  0  0  0  0  0  0  0  0  0  # atno 7974 bound_to 7965
  155.3521  140.0478  157.3046 H   0  0  0  0  0  0  0  0  0  0  0  0  # atno 8008 bound_to 7997
  154.5221  140.2228  155.8920 H   0  0  0  0  0  0  0  0  0  0  0  0  # atno 8009 bound_to 7997
  156.1701  140.3097  155.8964 H   0  0  0  0  0  0  0  0  0  0  0  0  # atno 8010 bound_to 7997
  139.6113  144.7082  151.2837 H   0  0  0  0  0  0  0  0  0  0  0  0  # atno 10167 bound_to 10162
  156.6501  130.4952  149.6065 H   0  0  0  0  0  0  0  0  0  0  0  0  # atno 10718 bound_to 10713
  154.3126  135.2757  155.2559 H   0  0  0  0  0  0  0  0  0  0  0  0  # atno 10763 bound_to 10752
  154.4947  135.5824  153.6489 H   0  0  0  0  0  0  0  0  0  0  0  0  # atno 10764 bound_to 10752
  152.9886  135.6143  154.3304 H   0  0  0  0  0  0  0  0  0  0  0  0  # atno 10765 bound_to 10752
  140.3407  134.7279  157.4200 H   0  0  0  0  0  0  0  0  0  0  0  0  # atno 11005 bound_to 11000
  146.3418  139.9153  142.8774 LP  0  0  0  0  0  0  0  0  0  0  0  0  # atno 17320 bound_to 7965
  145.2361  140.9991  143.3963 LP  0  0  0  0  0  0  0  0  0  0  0  0  # atno 17321 bound_to 7965
  140.7321  143.6833  150.7983 LP  0  0  0  0  0  0  0  0  0  0  0  0  # atno 17342 bound_to 10162
  140.0428  143.5329  152.2710 LP  0  0  0  0  0  0  0  0  0  0  0  0  # atno 17343 bound_to 10162
  156.2091  130.6667  151.1250 LP  0  0  0  0  0  0  0  0  0  0  0  0  # atno 17370 bound_to 10713
  157.7143  131.0718  150.6384 LP  0  0  0  0  0  0  0  0  0  0  0  0  # atno 17371 bound_to 10713
  140.0784  134.5765  155.8567 LP  0  0  0  0  0  0  0  0  0  0  0  0  # atno 17394 bound_to 11000
  141.2039  133.6635  156.6091 LP  0  0  0  0  0  0  0  0  0  0  0  0  # atno 17395 bound_to 11000

$$$$
