AV-unprocessed.smi:244|AV-procd|sdf|1875|dock9
  -GOLD-   2262020513D 1   1.00000     0.00000
 Structure written by MMmdl.
 56 60  0  0  0  0  0  0  0  0  1 V2000
  150.5854  144.7333  159.3695 C   0  0  0  0  0  0  0  0  0  0  0  0
  151.7225  144.4498  158.5010 N   0  0  0  0  0  0  0  0  0  0  0  0
  152.9410  144.1377  159.2534 C   0  0  0  0  0  0  0  0  0  0  0  0
  152.8934  142.7424  159.9099 C   0  0  0  0  0  0  0  0  0  0  0  0
  152.6099  141.6681  158.8549 C   0  0  1  0  0  0  0  0  0  0  0  0
  152.4937  140.3903  159.4717 O   0  0  0  0  0  0  0  0  0  0  0  0
  152.2891  139.3610  158.5084 C   0  0  0  0  0  0  0  0  0  0  0  0
  150.9877  139.6307  157.7346 C   0  0  0  0  0  0  0  0  0  0  0  0
  151.0203  140.9609  157.1330 N   0  0  0  0  0  0  0  0  0  0  0  0
  149.9477  141.2008  156.3463 C   0  0  0  0  0  0  0  0  0  0  0  0
  150.0506  141.0878  154.9953 N   0  0  0  0  0  0  0  0  0  0  0  0
  148.9758  141.2911  154.2271 C   0  0  0  0  0  0  0  0  0  0  0  0
  147.7305  141.5990  154.5975 N   0  0  0  0  0  0  0  0  0  0  0  0
  147.6290  141.7109  155.9535 C   0  0  0  0  0  0  0  0  0  0  0  0
  148.6827  141.5374  156.8923 C   0  0  0  0  0  0  0  0  0  0  0  0
  148.2118  141.7335  158.1836 N   0  0  0  0  0  0  0  0  0  0  0  0
  146.9463  142.0071  158.0176 C   0  0  0  0  0  0  0  0  0  0  0  0
  146.5065  141.9927  156.7125 N   0  0  0  0  0  0  0  0  0  0  0  0
  145.1515  142.2410  156.2460 C   0  0  0  0  0  0  0  0  0  0  0  0
  144.2870  140.9640  156.0837 C   0  0  0  0  0  0  0  0  0  0  0  0
  144.8626  140.2591  154.9987 O   0  0  0  0  0  0  0  0  0  0  0  0
  144.3181  140.0516  157.3293 C   0  0  0  0  0  0  0  0  0  0  0  0
  143.3798  138.8406  157.1778 C   0  0  0  0  0  0  0  0  0  0  0  0
  142.0564  139.2812  156.8960 O   0  0  0  0  0  0  0  0  0  0  0  0
  141.9592  139.9949  155.6688 C   0  0  0  0  0  0  0  0  0  0  0  0
  142.8148  141.2731  155.7341 C   0  0  0  0  0  0  0  0  0  0  0  0
  151.3002  142.0080  158.1175 C   0  0  2  0  0  0  0  0  0  0  0  0
  151.4213  143.4251  157.4969 C   0  0  0  0  0  0  0  0  0  0  0  0
  150.8203  145.5592  160.0414 H   0  0  0  0  0  0  0  0  0  0  0  0
  150.3013  143.8755  159.9779 H   0  0  0  0  0  0  0  0  0  0  0  0
  149.7196  145.0277  158.7757 H   0  0  0  0  0  0  0  0  0  0  0  0
  153.7857  144.1810  158.5649 H   0  0  0  0  0  0  0  0  0  0  0  0
  153.1177  144.9076  160.0051 H   0  0  0  0  0  0  0  0  0  0  0  0
  153.8443  142.5353  160.4014 H   0  0  0  0  0  0  0  0  0  0  0  0
  152.1340  142.7125  160.6915 H   0  0  0  0  0  0  0  0  0  0  0  0
  153.4415  141.6469  158.1472 H   0  0  0  0  0  0  0  0  0  0  0  0
  153.1412  139.3078  157.8289 H   0  0  0  0  0  0  0  0  0  0  0  0
  152.2303  138.4008  159.0205 H   0  0  0  0  0  0  0  0  0  0  0  0
  150.8523  138.8756  156.9590 H   0  0  0  0  0  0  0  0  0  0  0  0
  150.1373  139.5512  158.4136 H   0  0  0  0  0  0  0  0  0  0  0  0
  149.1348  141.1864  153.1641 H   0  0  0  0  0  0  0  0  0  0  0  0
  146.2898  142.2138  158.8505 H   0  0  0  0  0  0  0  0  0  0  0  0
  144.6766  142.9296  156.9465 H   0  0  0  0  0  0  0  0  0  0  0  0
  145.2148  142.7734  155.2956 H   0  0  0  0  0  0  0  0  0  0  0  0
  144.5393  140.6318  154.1926 H   0  0  0  0  0  0  0  0  0  0  0  0
  145.3358  139.7171  157.5346 H   0  0  0  0  0  0  0  0  0  0  0  0
  143.9967  140.6119  158.2073 H   0  0  0  0  0  0  0  0  0  0  0  0
  143.7259  138.1673  156.3924 H   0  0  0  0  0  0  0  0  0  0  0  0
  143.3661  138.2635  158.1024 H   0  0  0  0  0  0  0  0  0  0  0  0
  142.2631  139.3566  154.8378 H   0  0  0  0  0  0  0  0  0  0  0  0
  140.9146  140.2558  155.4985 H   0  0  0  0  0  0  0  0  0  0  0  0
  142.3801  141.9207  156.4949 H   0  0  0  0  0  0  0  0  0  0  0  0
  142.7502  141.8189  154.7919 H   0  0  0  0  0  0  0  0  0  0  0  0
  150.4824  142.0008  158.8390 H   0  0  0  0  0  0  0  0  0  0  0  0
  150.5058  143.7082  156.9763 H   0  0  0  0  0  0  0  0  0  0  0  0
  152.2154  143.4296  156.7489 H   0  0  0  0  0  0  0  0  0  0  0  0
  1  2  1  0  0  0  0
  1 29  1  0  0  0  0
  1 30  1  0  0  0  0
  1 31  1  0  0  0  0
  2 28  1  0  0  0  0
  2  3  1  0  0  0  0
  3  4  1  0  0  0  0
  3 32  1  0  0  0  0
  3 33  1  0  0  0  0
  4  5  1  0  0  0  0
  4 34  1  0  0  0  0
  4 35  1  0  0  0  0
  5 27  1  0  0  0  0
  5  6  1  0  0  0  0
  5 36  1  0  0  0  0
  6  7  1  0  0  0  0
  7  8  1  0  0  0  0
  7 37  1  0  0  0  0
  7 38  1  0  0  0  0
  8  9  1  0  0  0  0
  8 39  1  0  0  0  0
  8 40  1  0  0  0  0
  9 10  1  0  0  0  0
  9 27  1  0  0  0  0
 10 15  1  0  0  0  0
 10 11  2  0  0  0  0
 11 12  1  0  0  0  0
 12 13  2  0  0  0  0
 12 41  1  0  0  0  0
 13 14  1  0  0  0  0
 14 18  1  0  0  0  0
 14 15  2  0  0  0  0
 15 16  1  0  0  0  0
 16 17  2  0  0  0  0
 17 18  1  0  0  0  0
 17 42  1  0  0  0  0
 18 19  1  0  0  0  0
 19 20  1  0  0  0  0
 19 43  1  0  0  0  0
 19 44  1  0  0  0  0
 20 26  1  0  0  0  0
 20 21  1  0  0  0  0
 20 22  1  0  0  0  0
 21 45  1  0  0  0  0
 22 23  1  0  0  0  0
 22 46  1  0  0  0  0
 22 47  1  0  0  0  0
 23 24  1  0  0  0  0
 23 48  1  0  0  0  0
 23 49  1  0  0  0  0
 24 25  1  0  0  0  0
 25 26  1  0  0  0  0
 25 50  1  0  0  0  0
 25 51  1  0  0  0  0
 26 52  1  0  0  0  0
 26 53  1  0  0  0  0
 27 28  1  0  0  0  0
 27 54  1  0  0  0  0
 28 55  1  0  0  0  0
 28 56  1  0  0  0  0
M  END
> <s_m_source_file>
AV-unprocessed.smi

> <i_m_source_file_index>
244

> <i_lp_mmshare_version>
43012

> <i_f3d_flags>
0

> <s_epik_input>
W0NIMl0xW0NIMl1OKFtDSDNdKVtDSDJdW0NAQEhdKFtDQEhdMTIpTihbQ0gyXVtDSDJdTzIpYyhuW2NIXW4zKWMoYzM0KW5bY0hdbjRbQ0gyXUM1KFtPSF0pW0NIMl1bQ0gyXU9bQ0gyXVtDSDJdNQ==

> <s_epik_cmdline>
J2VwaWtfcHl0aG9uJywgJy1waCcsICc3LjAnLCAnLXRuJywgJzgnLCAnLW1hJywgJzIwMCcsICctbWV0YWxfYmluZGluZycsICctaW1hZScsICc8aW5maWxlLm1hZT4nLCAnLW9tYWUnLCAnPG91dGZpbGUubWFlPic=

> <r_lp_tautomer_probability>
1

> <r_epik_Ionization_Penalty>
2.27765

> <r_epik_Ionization_Penalty_Charging>
0

> <r_epik_Ionization_Penalty_Neutral>
2.27765

> <r_epik_State_Penalty>
2.4114

> <r_epik_Charging_Adjusted_Penalty>
2.4114

> <i_epik_Tot_Q>
0

> <i_epik_Tot_abs_Q>
0

> <r_epik_Metal_State_Penalty>
2.39769

> <b_epik_Metal_Only>
0

> <s_lp_Force_Field>
OPLS_2005

> <r_lp_Energy>
45.6912

> <b_lp_Chiralities_Consistent>
1

> <s_lp_Variant>
AV-unprocessed.smi:244-12

> <Gold.Version>
5.8.1

> <Gold.Id.Protein>
6NUR|6NUR_protein|mol2

> <Gold.PLP.Fitness>
42.3726

> <Gold.PLP.PLP>
-36.5087

> <Gold.PLP.part.hbond>
-2.0694

> <Gold.PLP.part.metal>
0.0000

> <Gold.PLP.part.buried>
-6.9589

> <Gold.PLP.part.nonpolar>
-27.4669

> <Gold.PLP.part.repulsive>
0.4483

> <Gold.PLP.ligand.clash>
0.0000

> <Gold.PLP.ligand.torsion>
0.7606

> <Gold.PLP.Chemscore.Hbond>
1.4264

> <Gold.PLP.Chemscore.CHOScore>
1.0000

> <Gold.PLP.Chemscore.Metal>
0.0000

> <Gold.Chemscore.Hbonds>
donor molecule, donor type, donor heavy atom, donor atom, acceptor molecule, acceptor atom, score
      L1  H    21    45       P1 10175  1.00
      P1  H  7989  7998       L1    11  0.42
      L1  C    12    41       P1  7957  1.00

> <Gold.PLP.Chemscore.Internal.Correction>
0.1060

> <Gold.Rescore>
     Score         DG    S(hbond)    S(metal)    S(lipo)     H(rot)  DE(clash)    DE(int)     intcor
     13.19     -13.68       1.19        0.00      81.30       2.06       0.03       0.46       ----

> <Gold.Chemscore.Fitness>
13.1857

> <Gold.Chemscore.DG>
-13.6847

> <Gold.Chemscore.ZeroCoef>
-5.4800

> <Gold.Chemscore.Hbond>
1.1882

> <Gold.Chemscore.Metal>
0.0000

> <Gold.Chemscore.Lipo>
81.3038

> <Gold.Chemscore.Internal_Hbond>
0.0000

> <Gold.Chemscore.DEClash>
0.0344

> <Gold.Chemscore.DEInternal>
0.4646

> <Gold.Chemscore.Rot>
2.0611

> <Gold.Chemscore.Internal.Correction>
   9.000000E+99

> <Gold.Chemscore.Hbonds>
donor molecule, donor type, donor heavy atom, donor atom, acceptor molecule, acceptor atom, score
      L1  H    21    45       P1 10175  0.96
      P1  H  7989  7998       L1    11  0.13

> <Gold.Chemscore.Hbond.Weighted>
-3.9687

> <Gold.Chemscore.Metal.Weighted>
-0.0000

> <Gold.Chemscore.Lipo.Weighted>
-9.5125

> <Gold.Chemscore.Internal_Hbond.Weighted>
0.0000

> <Gold.Chemscore.DEClash.Weighted>
0.0344

> <Gold.Chemscore.DEInternal.Weighted>
0.4646

> <Gold.Chemscore.Rot.Weighted>
5.2765

> <Gold.Chemscore.Internal.Correction.Weighted>
   9.000000E+99

> <Gold.Protein.RotatedTorsions>
[ 6907 6896 6895 6894 ] final   -5.59 input  -60.11 | X-H torsion
[ 7974 7965 7964 7962 ] final -175.05 input  175.53 | X-H torsion
[ 8008 7997 7996 7995 ] final  169.21 input   59.86 | X-H torsion
[ 10167 10162 10161 10158 ] final -144.24 input  -65.29 | X-H torsion
[ 10718 10713 10712 10709 ] final  -26.93 input   66.30 | X-H torsion
[ 10763 10752 10751 10750 ] final   34.13 input  -60.55 | X-H torsion
[ 11005 11000 10999 10996 ] final    1.10 input  -57.11 | X-H torsion

> <Gold.Protein.ActiveResidues>
 VAL166  LYS551  ARG553  GLY616  TRP617  ASP618  TYR619  PRO620  LYS621  CYS622 
 ASP623  PHE694  ASN695  SER759  ASP760  ASP761  ALA762  ILE779  LEU786  VAL792 
 PHE793  MET794  SER795  GLU796  ALA797  LYS798  CYS799  TRP800  GLU811  SER814 

> <Gold.Protein.RotatedAtoms>
  151.4792  135.1051  159.9772 H   0  0  0  0  0  0  0  0  0  0  0  0  # atno 6907 bound_to 6896
  152.4786  133.8194  159.7056 H   0  0  0  0  0  0  0  0  0  0  0  0  # atno 6908 bound_to 6896
  150.8841  133.7270  159.2950 H   0  0  0  0  0  0  0  0  0  0  0  0  # atno 6909 bound_to 6896
  144.7129  140.1379  143.6394 H   0  0  0  0  0  0  0  0  0  0  0  0  # atno 7974 bound_to 7965
  156.1477  140.1570  156.8819 H   0  0  0  0  0  0  0  0  0  0  0  0  # atno 8008 bound_to 7997
  154.5043  140.0817  156.7900 H   0  0  0  0  0  0  0  0  0  0  0  0  # atno 8009 bound_to 7997
  155.3956  140.3412  155.4256 H   0  0  0  0  0  0  0  0  0  0  0  0  # atno 8010 bound_to 7997
  139.7918  143.7956  152.2650 H   0  0  0  0  0  0  0  0  0  0  0  0  # atno 10167 bound_to 10162
  156.4448  130.4472  149.7028 H   0  0  0  0  0  0  0  0  0  0  0  0  # atno 10718 bound_to 10713
  153.0178  135.6368  154.1621 H   0  0  0  0  0  0  0  0  0  0  0  0  # atno 10763 bound_to 10752
  154.1358  135.2837  155.3175 H   0  0  0  0  0  0  0  0  0  0  0  0  # atno 10764 bound_to 10752
  154.6161  135.5540  153.7586 H   0  0  0  0  0  0  0  0  0  0  0  0  # atno 10765 bound_to 10752
  140.6192  133.9677  155.8216 H   0  0  0  0  0  0  0  0  0  0  0  0  # atno 11005 bound_to 11000
  145.9228  139.2556  143.1371 LP  0  0  0  0  0  0  0  0  0  0  0  0  # atno 17320 bound_to 7965
  145.9602  140.8841  143.0214 LP  0  0  0  0  0  0  0  0  0  0  0  0  # atno 17321 bound_to 7965
  139.8049  144.7359  150.9774 LP  0  0  0  0  0  0  0  0  0  0  0  0  # atno 17342 bound_to 10162
  140.7820  143.4308  151.0698 LP  0  0  0  0  0  0  0  0  0  0  0  0  # atno 17343 bound_to 10162
  156.3879  130.7612  151.2610 LP  0  0  0  0  0  0  0  0  0  0  0  0  # atno 17370 bound_to 10713
  157.7505  131.0276  150.4015 LP  0  0  0  0  0  0  0  0  0  0  0  0  # atno 17371 bound_to 10713
  141.0754  134.0142  157.3465 LP  0  0  0  0  0  0  0  0  0  0  0  0  # atno 17394 bound_to 11000
  139.9160  135.0197  156.7883 LP  0  0  0  0  0  0  0  0  0  0  0  0  # atno 17395 bound_to 11000

$$$$
