AV-unprocessed.smi:247|AV-procd|sdf|1891|dock5
  -GOLD-   2262020553D 1   1.00000     0.00000
 Structure written by MMmdl.
 61 65  0  0  0  0  0  0  0  0  1 V2000
  153.4705  139.0971  158.1813 O   0  0  0  0  0  0  0  0  0  0  0  0
  152.1179  138.9046  158.5465 C   0  0  0  0  0  0  0  0  0  0  0  0
  151.1162  139.2343  157.4049 C   0  0  0  0  0  0  0  0  0  0  0  0
  149.6693  138.9365  157.9113 C   0  0  0  0  0  0  0  0  0  0  0  0
  149.3878  137.5359  158.1946 N   0  0  0  0  0  0  0  0  0  0  0  0
  149.2528  136.9566  159.4357 C   0  0  0  0  0  0  0  0  0  0  0  0
  148.9961  135.6779  159.4281 N   0  0  0  0  0  0  0  0  0  0  0  0
  148.9215  135.3494  158.0788 C   0  0  0  0  0  0  0  0  0  0  0  0
  148.6777  134.1431  157.3586 C   0  0  0  0  0  0  0  0  0  0  0  0
  148.4449  132.9460  157.9618 N   0  0  0  0  0  0  0  0  0  0  0  0
  148.6873  131.7166  157.2161 C   0  0  0  0  0  0  0  0  0  0  0  0
  149.0758  130.6654  158.2551 C   0  0  0  0  0  0  0  0  0  0  0  0
  149.5082  131.5010  159.4572 C   0  0  0  0  0  0  0  0  0  0  0  0
  148.5822  132.7300  159.4055 C   0  0  2  0  0  0  0  0  0  0  0  0
  147.1996  132.5127  160.1100 C   0  0  1  0  0  0  0  0  0  0  0  0
  147.3685  132.1693  161.6110 C   0  0  0  0  0  0  0  0  0  0  0  0
  147.9252  133.2793  162.3114 O   0  0  0  0  0  0  0  0  0  0  0  0
  147.0676  134.4165  162.3335 C   0  0  0  0  0  0  0  0  0  0  0  0
  146.7605  134.8884  160.9032 C   0  0  0  0  0  0  0  0  0  0  0  0
  146.2194  133.7166  160.0730 C   0  0  1  0  0  0  0  0  0  0  0  0
  145.8658  134.1371  158.7713 O   0  0  0  0  0  0  0  0  0  0  0  0
  148.7000  134.2184  156.0020 N   0  0  0  0  0  0  0  0  0  0  0  0
  148.9322  135.3811  155.3876 C   0  0  0  0  0  0  0  0  0  0  0  0
  149.1699  136.5763  155.9285 N   0  0  0  0  0  0  0  0  0  0  0  0
  149.1616  136.5115  157.2905 C   0  0  0  0  0  0  0  0  0  0  0  0
  151.2867  140.7125  156.9677 C   0  0  0  0  0  0  0  0  0  0  0  0
  150.4943  141.0409  155.6901 C   0  0  0  0  0  0  0  0  0  0  0  0
  150.8931  140.1707  154.6381 O   0  0  0  0  0  0  0  0  0  0  0  0
  150.6271  138.8009  154.9154 C   0  0  0  0  0  0  0  0  0  0  0  0
  151.4070  138.3491  156.1652 C   0  0  0  0  0  0  0  0  0  0  0  0
  154.0127  138.5688  158.7469 H   0  0  0  0  0  0  0  0  0  0  0  0
  151.9997  137.8690  158.8669 H   0  0  0  0  0  0  0  0  0  0  0  0
  151.9295  139.5296  159.4193 H   0  0  0  0  0  0  0  0  0  0  0  0
  149.4400  139.4980  158.8156 H   0  0  0  0  0  0  0  0  0  0  0  0
  148.9441  139.2779  157.1713 H   0  0  0  0  0  0  0  0  0  0  0  0
  149.3598  137.5137  160.3548 H   0  0  0  0  0  0  0  0  0  0  0  0
  147.8033  131.4144  156.6541 H   0  0  0  0  0  0  0  0  0  0  0  0
  149.5071  131.8644  156.5118 H   0  0  0  0  0  0  0  0  0  0  0  0
  148.2065  130.0611  158.5164 H   0  0  0  0  0  0  0  0  0  0  0  0
  149.8581  129.9930  157.9022 H   0  0  0  0  0  0  0  0  0  0  0  0
  149.4914  130.9364  160.3863 H   0  0  0  0  0  0  0  0  0  0  0  0
  150.5386  131.8274  159.3088 H   0  0  0  0  0  0  0  0  0  0  0  0
  149.0974  133.5523  159.9004 H   0  0  0  0  0  0  0  0  0  0  0  0
  146.7039  131.6697  159.6271 H   0  0  0  0  0  0  0  0  0  0  0  0
  146.4066  131.9059  162.0540 H   0  0  0  0  0  0  0  0  0  0  0  0
  148.0021  131.2999  161.7688 H   0  0  0  0  0  0  0  0  0  0  0  0
  146.1461  134.1711  162.8636 H   0  0  0  0  0  0  0  0  0  0  0  0
  147.5528  135.2145  162.8956 H   0  0  0  0  0  0  0  0  0  0  0  0
  146.0355  135.7025  160.9304 H   0  0  0  0  0  0  0  0  0  0  0  0
  147.6634  135.2942  160.4486 H   0  0  0  0  0  0  0  0  0  0  0  0
  145.2807  133.3963  160.5278 H   0  0  0  0  0  0  0  0  0  0  0  0
  145.4609  133.4121  158.3207 H   0  0  0  0  0  0  0  0  0  0  0  0
  148.9273  135.3474  154.3080 H   0  0  0  0  0  0  0  0  0  0  0  0
  151.0137  141.3966  157.7703 H   0  0  0  0  0  0  0  0  0  0  0  0
  152.3371  140.9173  156.7591 H   0  0  0  0  0  0  0  0  0  0  0  0
  149.4186  140.9702  155.8527 H   0  0  0  0  0  0  0  0  0  0  0  0
  150.6959  142.0678  155.3849 H   0  0  0  0  0  0  0  0  0  0  0  0
  149.5545  138.6410  155.0270 H   0  0  0  0  0  0  0  0  0  0  0  0
  150.9375  138.2083  154.0547 H   0  0  0  0  0  0  0  0  0  0  0  0
  152.4676  138.3862  155.9155 H   0  0  0  0  0  0  0  0  0  0  0  0
  151.1886  137.3031  156.3834 H   0  0  0  0  0  0  0  0  0  0  0  0
  1  2  1  0  0  0  0
  1 31  1  0  0  0  0
  2  3  1  0  0  0  0
  2 32  1  0  0  0  0
  2 33  1  0  0  0  0
  3 30  1  0  0  0  0
  3  4  1  0  0  0  0
  3 26  1  0  0  0  0
  4  5  1  0  0  0  0
  4 34  1  0  0  0  0
  4 35  1  0  0  0  0
  5 25  1  0  0  0  0
  5  6  1  0  0  0  0
  6  7  2  0  0  0  0
  6 36  1  0  0  0  0
  7  8  1  0  0  0  0
  8 25  2  0  0  0  0
  8  9  1  0  0  0  0
  9 10  1  0  0  0  0
  9 22  2  0  0  0  0
 10 14  1  0  0  0  0
 10 11  1  0  0  0  0
 11 12  1  0  0  0  0
 11 37  1  0  0  0  0
 11 38  1  0  0  0  0
 12 13  1  0  0  0  0
 12 39  1  0  0  0  0
 12 40  1  0  0  0  0
 13 14  1  0  0  0  0
 13 41  1  0  0  0  0
 13 42  1  0  0  0  0
 14 15  1  0  0  0  0
 14 43  1  0  0  0  0
 15 20  1  0  0  0  0
 15 16  1  0  0  0  0
 15 44  1  0  0  0  0
 16 17  1  0  0  0  0
 16 45  1  0  0  0  0
 16 46  1  0  0  0  0
 17 18  1  0  0  0  0
 18 19  1  0  0  0  0
 18 47  1  0  0  0  0
 18 48  1  0  0  0  0
 19 20  1  0  0  0  0
 19 49  1  0  0  0  0
 19 50  1  0  0  0  0
 20 21  1  0  0  0  0
 20 51  1  0  0  0  0
 21 52  1  0  0  0  0
 22 23  1  0  0  0  0
 23 24  2  0  0  0  0
 23 53  1  0  0  0  0
 24 25  1  0  0  0  0
 26 27  1  0  0  0  0
 26 54  1  0  0  0  0
 26 55  1  0  0  0  0
 27 28  1  0  0  0  0
 27 56  1  0  0  0  0
 27 57  1  0  0  0  0
 28 29  1  0  0  0  0
 29 30  1  0  0  0  0
 29 58  1  0  0  0  0
 29 59  1  0  0  0  0
 30 60  1  0  0  0  0
 30 61  1  0  0  0  0
M  END
> <s_m_source_file>
AV-unprocessed.smi

> <i_m_source_file_index>
247

> <i_lp_mmshare_version>
43012

> <i_f3d_flags>
0

> <s_epik_input>
W0NIMl0xW0NIMl1PW0NIMl1bQ0gyXUMxKFtDSDJdW09IXSlbQ0gyXW4oW2NIXW4yKWMoYzIzKW5bY0hdbmMzTjRbQ0gyXVtDSDJdW0NIMl1bQ0BIXTRbQ0BASF01W0NIMl1PW0NIMl1bQ0gyXVtDQEhdNVtPSF0=

> <s_epik_cmdline>
J2VwaWtfcHl0aG9uJywgJy1waCcsICc3LjAnLCAnLXRuJywgJzgnLCAnLW1hJywgJzIwMCcsICctbWV0YWxfYmluZGluZycsICctaW1hZScsICc8aW5maWxlLm1hZT4nLCAnLW9tYWUnLCAnPG91dGZpbGUubWFlPic=

> <r_lp_tautomer_probability>
1

> <r_epik_Ionization_Penalty>
0.00362597

> <r_epik_Ionization_Penalty_Charging>
0

> <r_epik_Ionization_Penalty_Neutral>
0.00362597

> <r_epik_State_Penalty>
0.00241433

> <r_epik_Charging_Adjusted_Penalty>
0.00241433

> <i_epik_Tot_Q>
0

> <i_epik_Tot_abs_Q>
0

> <r_epik_Metal_State_Penalty>
-0

> <b_epik_Metal_Only>
0

> <s_lp_Force_Field>
OPLS_2005

> <r_lp_Energy>
63.0173

> <b_lp_Chiralities_Consistent>
1

> <s_lp_Variant>
AV-unprocessed.smi:247-4

> <Gold.Version>
5.8.1

> <Gold.Id.Protein>
6NUR|6NUR_protein|mol2

> <Gold.PLP.Fitness>
42.0947

> <Gold.PLP.PLP>
-30.4432

> <Gold.PLP.part.hbond>
-2.9337

> <Gold.PLP.part.metal>
0.0000

> <Gold.PLP.part.buried>
-4.3674

> <Gold.PLP.part.nonpolar>
-23.5512

> <Gold.PLP.part.repulsive>
0.1722

> <Gold.PLP.ligand.clash>
0.0000

> <Gold.PLP.ligand.torsion>
0.3283

> <Gold.PLP.Chemscore.Hbond>
3.0000

> <Gold.PLP.Chemscore.CHOScore>
1.0000

> <Gold.PLP.Chemscore.Metal>
0.0000

> <Gold.Chemscore.Hbonds>
donor molecule, donor type, donor heavy atom, donor atom, acceptor molecule, acceptor atom, score
      P1  H  6896  6908       L1     7  0.75
      P1  H  7989  7998       L1    28  0.99
      P1  H  7997  8010       L1     1  0.95
      L1  C    23    53       P1  7948  0.88

> <Gold.PLP.Chemscore.Internal.Correction>
0.3082

> <Gold.Rescore>
     Score         DG    S(hbond)    S(metal)    S(lipo)     H(rot)  DE(clash)    DE(int)     intcor
     10.01     -12.72       1.80        0.00      74.91       2.94       0.01       2.69       ----

> <Gold.Chemscore.Fitness>
10.0145

> <Gold.Chemscore.DG>
-12.7207

> <Gold.Chemscore.ZeroCoef>
-5.4800

> <Gold.Chemscore.Hbond>
1.7988

> <Gold.Chemscore.Metal>
0.0000

> <Gold.Chemscore.Lipo>
74.9134

> <Gold.Chemscore.Internal_Hbond>
0.0000

> <Gold.Chemscore.DEClash>
0.0130

> <Gold.Chemscore.DEInternal>
2.6932

> <Gold.Chemscore.Rot>
2.9423

> <Gold.Chemscore.Internal.Correction>
   9.000000E+99

> <Gold.Chemscore.Hbonds>
donor molecule, donor type, donor heavy atom, donor atom, acceptor molecule, acceptor atom, score
      P1  H  6896  6908       L1     7  0.03
      P1  H  7989  7998       L1    28  0.81
      P1  H  7997  8010       L1     1  0.21

> <Gold.Chemscore.Hbond.Weighted>
-6.0081

> <Gold.Chemscore.Metal.Weighted>
-0.0000

> <Gold.Chemscore.Lipo.Weighted>
-8.7649

> <Gold.Chemscore.Internal_Hbond.Weighted>
0.0000

> <Gold.Chemscore.DEClash.Weighted>
0.0130

> <Gold.Chemscore.DEInternal.Weighted>
2.6932

> <Gold.Chemscore.Rot.Weighted>
7.5323

> <Gold.Chemscore.Internal.Correction.Weighted>
   9.000000E+99

> <Gold.Protein.RotatedTorsions>
[ 6907 6896 6895 6894 ] final -169.48 input  -60.11 | X-H torsion
[ 7974 7965 7964 7962 ] final  145.04 input  175.53 | X-H torsion
[ 8008 7997 7996 7995 ] final   16.14 input   59.86 | X-H torsion
[ 10167 10162 10161 10158 ] final   53.34 input  -65.29 | X-H torsion
[ 10718 10713 10712 10709 ] final   51.11 input   66.30 | X-H torsion
[ 10763 10752 10751 10750 ] final   61.24 input  -60.55 | X-H torsion
[ 11005 11000 10999 10996 ] final   61.66 input  -57.11 | X-H torsion

> <Gold.Protein.ActiveResidues>
 VAL166  LYS551  ARG553  GLY616  TRP617  ASP618  TYR619  PRO620  LYS621  CYS622 
 ASP623  PHE694  ASN695  SER759  ASP760  ASP761  ALA762  ILE779  LEU786  VAL792 
 PHE793  MET794  SER795  GLU796  ALA797  LYS798  CYS799  TRP800  GLU811  SER814 

> <Gold.Protein.RotatedAtoms>
  151.4924  133.3522  159.2855 H   0  0  0  0  0  0  0  0  0  0  0  0  # atno 6907 bound_to 6896
  150.8826  134.8221  159.7247 H   0  0  0  0  0  0  0  0  0  0  0  0  # atno 6908 bound_to 6896
  152.4772  134.4823  159.9721 H   0  0  0  0  0  0  0  0  0  0  0  0  # atno 6909 bound_to 6896
  144.8785  139.5735  143.5854 H   0  0  0  0  0  0  0  0  0  0  0  0  # atno 7974 bound_to 7965
  154.8727  140.2961  155.5472 H   0  0  0  0  0  0  0  0  0  0  0  0  # atno 8008 bound_to 7997
  156.3021  140.2457  156.3651 H   0  0  0  0  0  0  0  0  0  0  0  0  # atno 8009 bound_to 7997
  154.8800  140.0398  157.1765 H   0  0  0  0  0  0  0  0  0  0  0  0  # atno 8010 bound_to 7997
  140.2418  144.3575  150.6378 H   0  0  0  0  0  0  0  0  0  0  0  0  # atno 10167 bound_to 10162
  157.4950  130.8400  149.8247 H   0  0  0  0  0  0  0  0  0  0  0  0  # atno 10718 bound_to 10713
  152.9944  135.5507  154.6003 H   0  0  0  0  0  0  0  0  0  0  0  0  # atno 10763 bound_to 10752
  154.5345  135.2815  155.1152 H   0  0  0  0  0  0  0  0  0  0  0  0  # atno 10764 bound_to 10752
  154.2454  135.6408  153.5274 H   0  0  0  0  0  0  0  0  0  0  0  0  # atno 10765 bound_to 10752
  140.0145  134.6245  155.9730 H   0  0  0  0  0  0  0  0  0  0  0  0  # atno 11005 bound_to 11000
  146.2979  139.7334  142.9113 LP  0  0  0  0  0  0  0  0  0  0  0  0  # atno 17320 bound_to 7965
  145.3997  141.0383  143.3077 LP  0  0  0  0  0  0  0  0  0  0  0  0  # atno 17321 bound_to 7965
  140.6108  143.2169  151.6890 LP  0  0  0  0  0  0  0  0  0  0  0  0  # atno 17342 bound_to 10162
  139.5075  144.3644  152.0531 LP  0  0  0  0  0  0  0  0  0  0  0  0  # atno 17343 bound_to 10162
  156.0195  130.3801  150.2006 LP  0  0  0  0  0  0  0  0  0  0  0  0  # atno 17370 bound_to 10713
  157.0195  130.9975  151.3343 LP  0  0  0  0  0  0  0  0  0  0  0  0  # atno 17371 bound_to 10713
  141.1734  133.6538  156.4735 LP  0  0  0  0  0  0  0  0  0  0  0  0  # atno 17394 bound_to 11000
  140.4495  134.6942  157.5032 LP  0  0  0  0  0  0  0  0  0  0  0  0  # atno 17395 bound_to 11000

$$$$
