AV-unprocessed.smi:1535|AV-procd|sdf|6177|dock8
  -GOLD-   22720 6333D 1   1.00000     0.00000
 Structure written by MMmdl.
 47 48  0  0  0  0  0  0  0  0  2 V2000
  146.5190  130.3869  152.3746 C   0  0  0  0  0  0  0  0  0  0  0  0
  146.2347  131.8751  152.2632 C   0  0  0  0  0  0  0  0  0  0  0  0
  145.8179  132.3907  151.0156 C   0  0  0  0  0  0  0  0  0  0  0  0
  145.5663  133.7554  150.9454 C   0  0  0  0  0  0  0  0  0  0  0  0
  145.1496  134.5518  149.8769 N   0  3  0  0  0  0  0  0  0  0  0  0
  145.0396  135.8443  150.2898 C   0  0  0  0  0  0  0  0  0  0  0  0
  145.3921  135.8880  151.6038 N   0  0  0  0  0  0  0  0  0  0  0  0
  145.4542  137.0431  152.5095 C   0  0  0  0  0  0  0  0  0  0  0  0
  146.6772  137.9558  152.2625 C   0  0  1  0  0  0  0  0  0  0  0  0
  146.6114  138.3364  150.9036 O   0  0  0  0  0  0  0  0  0  0  0  0
  146.7064  139.2472  153.1201 C   0  0  0  0  0  0  0  0  0  0  0  0
  148.0285  139.8349  153.3556 N   0  0  0  0  0  0  0  0  0  0  0  0
  147.8825  141.1172  154.0371 C   0  0  0  0  0  0  0  0  0  0  0  0
  148.9049  138.9356  154.1085 C   0  0  0  0  0  0  0  0  0  0  0  0
  150.3689  139.3863  154.2593 C   0  0  1  0  0  0  0  0  0  0  0  0
  150.5202  140.3543  155.4398 C   0  0  0  0  0  0  0  0  0  0  0  0
  151.2751  138.2362  154.4124 C   0  0  0  0  0  0  0  0  0  0  0  0
  151.9883  137.3333  154.5322 N   0  0  0  0  0  0  0  0  0  0  0  0
  145.7153  134.6039  152.0607 C   0  0  0  0  0  0  0  0  0  0  0  0
  146.1204  134.1091  153.2986 C   0  0  0  0  0  0  0  0  0  0  0  0
  146.3857  132.7242  153.3896 C   0  0  0  0  0  0  0  0  0  0  0  0
  146.8396  132.1606  154.7255 C   0  0  0  0  0  0  0  0  0  0  0  0
  146.3130  129.8695  151.4372 H   0  0  0  0  0  0  0  0  0  0  0  0
  145.8970  129.9339  153.1470 H   0  0  0  0  0  0  0  0  0  0  0  0
  147.5656  130.2157  152.6276 H   0  0  0  0  0  0  0  0  0  0  0  0
  145.7009  131.7505  150.1533 H   0  0  0  0  0  0  0  0  0  0  0  0
  144.7397  136.6859  149.6818 H   0  0  0  0  0  0  0  0  0  0  0  0
  144.5361  137.6082  152.3409 H   0  0  0  0  0  0  0  0  0  0  0  0
  145.4107  136.7049  153.5447 H   0  0  0  0  0  0  0  0  0  0  0  0
  147.5999  137.3866  152.3829 H   0  0  0  0  0  0  0  0  0  0  0  0
  145.7030  138.4468  150.6669 H   0  0  0  0  0  0  0  0  0  0  0  0
  146.0867  139.9964  152.6237 H   0  0  0  0  0  0  0  0  0  0  0  0
  146.2089  139.0756  154.0738 H   0  0  0  0  0  0  0  0  0  0  0  0
  148.8380  141.6332  154.1226 H   0  0  0  0  0  0  0  0  0  0  0  0
  147.4701  140.9876  155.0386 H   0  0  0  0  0  0  0  0  0  0  0  0
  147.2170  141.7785  153.4810 H   0  0  0  0  0  0  0  0  0  0  0  0
  148.4789  138.7574  155.0969 H   0  0  0  0  0  0  0  0  0  0  0  0
  148.9344  137.9707  153.6093 H   0  0  0  0  0  0  0  0  0  0  0  0
  150.6882  139.9147  153.3620 H   0  0  0  0  0  0  0  0  0  0  0  0
  151.5519  140.6941  155.5364 H   0  0  0  0  0  0  0  0  0  0  0  0
  150.2369  139.8784  156.3792 H   0  0  0  0  0  0  0  0  0  0  0  0
  149.8922  141.2362  155.3093 H   0  0  0  0  0  0  0  0  0  0  0  0
  146.2363  134.7505  154.1595 H   0  0  0  0  0  0  0  0  0  0  0  0
  146.9359  132.9443  155.4776 H   0  0  0  0  0  0  0  0  0  0  0  0
  147.8105  131.6748  154.6265 H   0  0  0  0  0  0  0  0  0  0  0  0
  146.1213  131.4292  155.0961 H   0  0  0  0  0  0  0  0  0  0  0  0
  144.9513  134.2389  148.9351 H   0  0  0  0  0  0  0  0  0  0  0  0
  1  2  1  0  0  0  0
  1 23  1  0  0  0  0
  1 24  1  0  0  0  0
  1 25  1  0  0  0  0
  2 21  1  0  0  0  0
  2  3  2  0  0  0  0
  3  4  1  0  0  0  0
  3 26  1  0  0  0  0
  4 19  2  0  0  0  0
  4  5  1  0  0  0  0
  5  6  2  0  0  0  0
  5 47  1  0  0  0  0
  6  7  1  0  0  0  0
  6 27  1  0  0  0  0
  7  8  1  0  0  0  0
  7 19  1  0  0  0  0
  8  9  1  0  0  0  0
  8 28  1  0  0  0  0
  8 29  1  0  0  0  0
  9 10  1  0  0  0  0
  9 11  1  0  0  0  0
  9 30  1  0  0  0  0
 10 31  1  0  0  0  0
 11 12  1  0  0  0  0
 11 32  1  0  0  0  0
 11 33  1  0  0  0  0
 12 13  1  0  0  0  0
 12 14  1  0  0  0  0
 13 34  1  0  0  0  0
 13 35  1  0  0  0  0
 13 36  1  0  0  0  0
 14 15  1  0  0  0  0
 14 37  1  0  0  0  0
 14 38  1  0  0  0  0
 15 16  1  0  0  0  0
 15 17  1  0  0  0  0
 15 39  1  0  0  0  0
 16 40  1  0  0  0  0
 16 41  1  0  0  0  0
 16 42  1  0  0  0  0
 17 18  3  0  0  0  0
 19 20  1  0  0  0  0
 20 21  2  0  0  0  0
 20 43  1  0  0  0  0
 21 22  1  0  0  0  0
 22 44  1  0  0  0  0
 22 45  1  0  0  0  0
 22 46  1  0  0  0  0
M  CHG  1   5   1
M  END
> <s_m_source_file>
AV-unprocessed.smi

> <i_m_source_file_index>
1535

> <i_lp_mmshare_version>
43012

> <i_f3d_flags>
0

> <s_epik_input>
W0NIM11jKFtjSF0xKWMoW0NIM10pW2NIXWMoYzEyKW4oW2NIXW4yKVtDSDJdW0NASF0oW09IXSlbQ0gyXU4oW0NIM10pW0NIMl1bQ0BIXShbQ0gzXSlDI04=

> <s_epik_cmdline>
J2VwaWtfcHl0aG9uJywgJy1waCcsICc3LjAnLCAnLXRuJywgJzgnLCAnLW1hJywgJzIwMCcsICctbWV0YWxfYmluZGluZycsICctaW1hZScsICc8aW5maWxlLm1hZT4nLCAnLW9tYWUnLCAnPG91dGZpbGUubWFlPic=

> <r_epik_Ionization_Penalty>
1.22846

> <r_epik_Ionization_Penalty_Charging>
1.21333

> <r_epik_Ionization_Penalty_Neutral>
0.0151341

> <r_epik_State_Penalty>
1.27012

> <r_epik_Charging_Adjusted_Penalty>
2.48344

> <i_epik_Tot_Q>
1

> <i_epik_Tot_abs_Q>
1

> <r_epik_Metal_State_Penalty>
5.28751

> <b_epik_Metal_Only>
0

> <s_lp_Force_Field>
OPLS_2005

> <r_lp_Energy>
29.5902

> <b_lp_Chiralities_Consistent>
1

> <s_lp_Variant>
AV-unprocessed.smi:1535-8

> <Gold.Version>
5.8.1

> <Gold.Id.Protein>
6NUR|6NUR_protein|mol2

> <Gold.PLP.Fitness>
49.6795

> <Gold.PLP.PLP>
-38.2432

> <Gold.PLP.part.hbond>
-4.3251

> <Gold.PLP.part.metal>
0.0000

> <Gold.PLP.part.buried>
-2.9475

> <Gold.PLP.part.nonpolar>
-34.5406

> <Gold.PLP.part.repulsive>
2.9476

> <Gold.PLP.ligand.clash>
0.0000

> <Gold.PLP.ligand.torsion>
0.8138

> <Gold.PLP.Chemscore.Hbond>
3.3200

> <Gold.PLP.Chemscore.CHOScore>
1.0000

> <Gold.PLP.Chemscore.Metal>
0.0000

> <Gold.Chemscore.Hbonds>
donor molecule, donor type, donor heavy atom, donor atom, acceptor molecule, acceptor atom, score
      L1  H     5    47       P1  7921  0.32
      L1  H    10    31       P1 10171  1.00
      P1  H  7954  7966       L1    10  1.00
      P1  H 10752 10765       L1    18  0.91
      L1  C     6    27       P1 10171  1.00

> <Gold.PLP.Chemscore.Internal.Correction>
0.1039

> <Gold.Rescore>
     Score         DG    S(hbond)    S(metal)    S(lipo)     H(rot)  DE(clash)    DE(int)     intcor
     16.36     -18.80       3.14        0.00      80.87       2.59       1.50       0.93       ----

> <Gold.Chemscore.Fitness>
16.3636

> <Gold.Chemscore.DG>
-18.7983

> <Gold.Chemscore.ZeroCoef>
-5.4800

> <Gold.Chemscore.Hbond>
3.1413

> <Gold.Chemscore.Metal>
0.0000

> <Gold.Chemscore.Lipo>
80.8672

> <Gold.Chemscore.Internal_Hbond>
0.0000

> <Gold.Chemscore.DEClash>
1.5040

> <Gold.Chemscore.DEInternal>
0.9307

> <Gold.Chemscore.Rot>
2.5918

> <Gold.Chemscore.Internal.Correction>
   9.000000E+99

> <Gold.Chemscore.Hbonds>
donor molecule, donor type, donor heavy atom, donor atom, acceptor molecule, acceptor atom, score
      L1  H     5    47       P1  7921  0.32
      L1  H    10    31       P1 10171  0.95
      P1  H  7954  7966       L1    10  0.85
      P1  H 10752 10765       L1    18  0.89

> <Gold.Chemscore.Hbond.Weighted>
-10.4919

> <Gold.Chemscore.Metal.Weighted>
-0.0000

> <Gold.Chemscore.Lipo.Weighted>
-9.4615

> <Gold.Chemscore.Internal_Hbond.Weighted>
0.0000

> <Gold.Chemscore.DEClash.Weighted>
1.5040

> <Gold.Chemscore.DEInternal.Weighted>
0.9307

> <Gold.Chemscore.Rot.Weighted>
6.6351

> <Gold.Chemscore.Internal.Correction.Weighted>
   9.000000E+99

> <Gold.Protein.RotatedTorsions>
[ 6907 6896 6895 6894 ] final  150.83 input  -60.11 | X-H torsion
[ 7974 7965 7964 7962 ] final  169.45 input  175.53 | X-H torsion
[ 8008 7997 7996 7995 ] final -116.33 input   59.86 | X-H torsion
[ 10167 10162 10161 10158 ] final  -84.02 input  -65.29 | X-H torsion
[ 10718 10713 10712 10709 ] final   12.11 input   66.30 | X-H torsion
[ 10763 10752 10751 10750 ] final  168.27 input  -60.55 | X-H torsion
[ 11005 11000 10999 10996 ] final  100.00 input  -57.11 | X-H torsion

> <Gold.Protein.ActiveResidues>
 VAL166  LYS551  ARG553  GLY616  TRP617  ASP618  TYR619  PRO620  LYS621  CYS622 
 ASP623  PHE694  ASN695  SER759  ASP760  ASP761  ALA762  ILE779  LEU786  VAL792 
 PHE793  MET794  SER795  GLU796  ALA797  LYS798  CYS799  TRP800  GLU811  SER814 

> <Gold.Protein.RotatedAtoms>
  152.1090  133.4290  159.4621 H   0  0  0  0  0  0  0  0  0  0  0  0  # atno 6907 bound_to 6896
  150.6866  134.2671  159.4582 H   0  0  0  0  0  0  0  0  0  0  0  0  # atno 6908 bound_to 6896
  152.0538  134.9636  160.0625 H   0  0  0  0  0  0  0  0  0  0  0  0  # atno 6909 bound_to 6896
  144.7355  139.9056  143.6412 H   0  0  0  0  0  0  0  0  0  0  0  0  # atno 7974 bound_to 7965
  155.0661  140.0393  157.2593 H   0  0  0  0  0  0  0  0  0  0  0  0  # atno 8008 bound_to 7997
  154.7020  140.2675  155.6686 H   0  0  0  0  0  0  0  0  0  0  0  0  # atno 8009 bound_to 7997
  156.2763  140.2738  156.1634 H   0  0  0  0  0  0  0  0  0  0  0  0  # atno 8010 bound_to 7997
  140.4171  143.2599  151.8940 H   0  0  0  0  0  0  0  0  0  0  0  0  # atno 10167 bound_to 10162
  157.0053  130.6095  149.5701 H   0  0  0  0  0  0  0  0  0  0  0  0  # atno 10718 bound_to 10713
  154.3662  135.2753  155.2292 H   0  0  0  0  0  0  0  0  0  0  0  0  # atno 10763 bound_to 10752
  154.4459  135.5943  153.6163 H   0  0  0  0  0  0  0  0  0  0  0  0  # atno 10764 bound_to 10752
  152.9840  135.6030  154.3888 H   0  0  0  0  0  0  0  0  0  0  0  0  # atno 10765 bound_to 10752
  139.8771  134.9121  156.4690 H   0  0  0  0  0  0  0  0  0  0  0  0  # atno 11005 bound_to 11000
  146.1039  139.4037  143.0329 LP  0  0  0  0  0  0  0  0  0  0  0  0  # atno 17320 bound_to 7965
  145.7539  140.9962  143.1236 LP  0  0  0  0  0  0  0  0  0  0  0  0  # atno 17321 bound_to 7965
  139.4782  144.5476  151.8434 LP  0  0  0  0  0  0  0  0  0  0  0  0  # atno 17342 bound_to 10162
  140.4574  144.1770  150.5903 LP  0  0  0  0  0  0  0  0  0  0  0  0  # atno 17343 bound_to 10162
  156.0156  130.5250  150.8123 LP  0  0  0  0  0  0  0  0  0  0  0  0  # atno 17370 bound_to 10713
  157.5360  131.0939  150.9891 LP  0  0  0  0  0  0  0  0  0  0  0  0  # atno 17371 bound_to 10713
  140.8809  133.7918  155.9466 LP  0  0  0  0  0  0  0  0  0  0  0  0  # atno 17394 bound_to 11000
  140.8855  134.2559  157.5122 LP  0  0  0  0  0  0  0  0  0  0  0  0  # atno 17395 bound_to 11000

$$$$
