AV-unprocessed.smi:2896|AV-procd|sdf|11137|dock8
  -GOLD-   2272016 13D 1   1.00000     0.00000
 Structure written by MMmdl.
 50 51  0  0  0  0  0  0  0  0  2 V2000
  145.8882  137.3812  151.8850 C   0  0  0  0  0  0  0  0  0  0  0  0
  145.3310  136.6580  153.1274 C   0  0  1  0  0  0  0  0  0  0  0  0
  144.7216  137.6546  154.1375 C   0  0  0  0  0  0  0  0  0  0  0  0
  145.3965  138.9475  154.1108 N   0  0  0  0  0  0  0  0  0  0  0  0
  146.6001  139.2060  154.6517 C   0  0  0  0  0  0  0  0  0  0  0  0
  147.2335  138.3571  155.2811 O   0  0  0  0  0  0  0  0  0  0  0  0
  147.1766  140.6291  154.4464 C   0  0  0  0  0  0  0  0  0  0  0  0
  147.0878  140.9530  152.9365 C   0  0  0  0  0  0  0  0  0  0  0  0
  146.3146  141.6766  155.1934 C   0  0  0  0  0  0  0  0  0  0  0  0
  148.6170  140.6737  154.9987 C   0  0  0  0  0  0  0  0  0  0  0  0
  148.9269  141.4750  156.1245 C   0  0  0  0  0  0  0  0  0  0  0  0
  150.2413  141.4921  156.6260 C   0  0  0  0  0  0  0  0  0  0  0  0
  151.2128  140.7058  155.9802 C   0  0  0  0  0  0  0  0  0  0  0  0
  150.9432  139.9363  154.9058 N   0  0  0  0  0  0  0  0  0  0  0  0
  149.6790  139.9260  154.4313 C   0  0  0  0  0  0  0  0  0  0  0  0
  144.2883  135.5891  152.7340 C   0  0  0  0  0  0  0  0  0  0  0  0
  144.7433  134.7153  151.6221 N   0  3  0  0  0  0  0  0  0  0  0  0
  146.1024  134.1534  151.8229 C   0  0  0  0  0  0  0  0  0  0  0  0
  146.5145  133.2990  150.6123 C   0  0  0  0  0  0  0  0  0  0  0  0
  145.5551  132.2702  150.4045 O   0  0  0  0  0  0  0  0  0  0  0  0
  144.2642  132.7961  150.1235 C   0  0  0  0  0  0  0  0  0  0  0  0
  143.7769  133.6333  151.3182 C   0  0  0  0  0  0  0  0  0  0  0  0
  145.0996  137.9092  151.3481 H   0  0  0  0  0  0  0  0  0  0  0  0
  146.3514  136.6808  151.1900 H   0  0  0  0  0  0  0  0  0  0  0  0
  146.6509  138.1118  152.1527 H   0  0  0  0  0  0  0  0  0  0  0  0
  146.1634  136.1641  153.6277 H   0  0  0  0  0  0  0  0  0  0  0  0
  143.6667  137.8173  153.9133 H   0  0  0  0  0  0  0  0  0  0  0  0
  144.7584  137.2462  155.1491 H   0  0  0  0  0  0  0  0  0  0  0  0
  144.9336  139.6955  153.6142 H   0  0  0  0  0  0  0  0  0  0  0  0
  147.6516  140.2429  152.3298 H   0  0  0  0  0  0  0  0  0  0  0  0
  147.4677  141.9522  152.7201 H   0  0  0  0  0  0  0  0  0  0  0  0
  146.0559  140.9219  152.5836 H   0  0  0  0  0  0  0  0  0  0  0  0
  146.2226  141.4580  156.2577 H   0  0  0  0  0  0  0  0  0  0  0  0
  145.3025  141.7293  154.7893 H   0  0  0  0  0  0  0  0  0  0  0  0
  146.7476  142.6734  155.1026 H   0  0  0  0  0  0  0  0  0  0  0  0
  148.1646  142.0641  156.6127 H   0  0  0  0  0  0  0  0  0  0  0  0
  150.4986  142.0930  157.4857 H   0  0  0  0  0  0  0  0  0  0  0  0
  152.2321  140.6933  156.3367 H   0  0  0  0  0  0  0  0  0  0  0  0
  149.5322  139.2882  153.5737 H   0  0  0  0  0  0  0  0  0  0  0  0
  144.0299  134.9668  153.5924 H   0  0  0  0  0  0  0  0  0  0  0  0
  143.3685  136.0997  152.4438 H   0  0  0  0  0  0  0  0  0  0  0  0
  146.8321  134.9503  151.9613 H   0  0  0  0  0  0  0  0  0  0  0  0
  146.1184  133.5455  152.7288 H   0  0  0  0  0  0  0  0  0  0  0  0
  146.6085  133.9130  149.7153 H   0  0  0  0  0  0  0  0  0  0  0  0
  147.4886  132.8428  150.7895 H   0  0  0  0  0  0  0  0  0  0  0  0
  144.2923  133.3958  149.2123 H   0  0  0  0  0  0  0  0  0  0  0  0
  143.5784  131.9688  149.9392 H   0  0  0  0  0  0  0  0  0  0  0  0
  143.6508  132.9968  152.1956 H   0  0  0  0  0  0  0  0  0  0  0  0
  142.8006  134.0618  151.0889 H   0  0  0  0  0  0  0  0  0  0  0  0
  144.7816  135.2971  150.7972 H   0  0  0  0  0  0  0  0  0  0  0  0
  1  2  1  0  0  0  0
  1 23  1  0  0  0  0
  1 24  1  0  0  0  0
  1 25  1  0  0  0  0
  2  3  1  0  0  0  0
  2 16  1  0  0  0  0
  2 26  1  0  0  0  0
  3  4  1  0  0  0  0
  3 27  1  0  0  0  0
  3 28  1  0  0  0  0
  4  5  1  0  0  0  0
  4 29  1  0  0  0  0
  5  6  2  0  0  0  0
  5  7  1  0  0  0  0
  7  8  1  0  0  0  0
  7  9  1  0  0  0  0
  7 10  1  0  0  0  0
  8 30  1  0  0  0  0
  8 31  1  0  0  0  0
  8 32  1  0  0  0  0
  9 33  1  0  0  0  0
  9 34  1  0  0  0  0
  9 35  1  0  0  0  0
 10 15  1  0  0  0  0
 10 11  2  0  0  0  0
 11 12  1  0  0  0  0
 11 36  1  0  0  0  0
 12 13  2  0  0  0  0
 12 37  1  0  0  0  0
 13 14  1  0  0  0  0
 13 38  1  0  0  0  0
 14 15  2  0  0  0  0
 15 39  1  0  0  0  0
 16 17  1  0  0  0  0
 16 40  1  0  0  0  0
 16 41  1  0  0  0  0
 17 22  1  0  0  0  0
 17 18  1  0  0  0  0
 17 50  1  0  0  0  0
 18 19  1  0  0  0  0
 18 42  1  0  0  0  0
 18 43  1  0  0  0  0
 19 20  1  0  0  0  0
 19 44  1  0  0  0  0
 19 45  1  0  0  0  0
 20 21  1  0  0  0  0
 21 22  1  0  0  0  0
 21 46  1  0  0  0  0
 21 47  1  0  0  0  0
 22 48  1  0  0  0  0
 22 49  1  0  0  0  0
M  CHG  1  17   1
M  END
> <s_m_source_file>
AV-unprocessed.smi

> <i_m_source_file_index>
2896

> <i_lp_mmshare_version>
43012

> <i_f3d_flags>
0

> <s_epik_input>
W0NIMl0xW0NIMl1PW0NIMl1bQ0gyXU4xW0NIMl1bQ0BIXShbQ0gzXSlbQ0gyXVtOSF1DKD1PKUMoW0NIM10pKFtDSDNdKWMyW2NIXVtjSF1bY0hdbltjSF0y

> <s_epik_cmdline>
J2VwaWtfcHl0aG9uJywgJy1waCcsICc3LjAnLCAnLXRuJywgJzgnLCAnLW1hJywgJzIwMCcsICctbWV0YWxfYmluZGluZycsICctaW1hZScsICc8aW5maWxlLm1hZT4nLCAnLW9tYWUnLCAnPG91dGZpbGUubWFlPic=

> <r_epik_Ionization_Penalty>
0.378644

> <r_epik_Ionization_Penalty_Charging>
0.372108

> <r_epik_Ionization_Penalty_Neutral>
0.0065361

> <r_epik_State_Penalty>
0.380038

> <r_epik_Charging_Adjusted_Penalty>
0.752147

> <i_epik_Tot_Q>
1

> <i_epik_Tot_abs_Q>
1

> <r_epik_Metal_State_Penalty>
0.375202

> <b_epik_Metal_Only>
0

> <s_lp_Force_Field>
OPLS_2005

> <r_lp_Energy>
23.8301

> <b_lp_Chiralities_Consistent>
1

> <s_lp_Variant>
AV-unprocessed.smi:2896-2

> <Gold.Version>
5.8.1

> <Gold.Id.Protein>
6NUR|6NUR_protein|mol2

> <Gold.PLP.Fitness>
40.5533

> <Gold.PLP.PLP>
-33.7866

> <Gold.PLP.part.hbond>
-2.0000

> <Gold.PLP.part.metal>
0.0000

> <Gold.PLP.part.buried>
-3.3857

> <Gold.PLP.part.nonpolar>
-27.2093

> <Gold.PLP.part.repulsive>
0.2260

> <Gold.PLP.ligand.clash>
0.0000

> <Gold.PLP.ligand.torsion>
0.7702

> <Gold.PLP.Chemscore.Hbond>
1.8000

> <Gold.PLP.Chemscore.CHOScore>
0.9093

> <Gold.PLP.Chemscore.Metal>
0.0000

> <Gold.Chemscore.Hbonds>
donor molecule, donor type, donor heavy atom, donor atom, acceptor molecule, acceptor atom, score
      L1  H     4    29       P1 10175  1.00
      P1  H  7989  7998       L1    14  0.75
      L1  C    15    39       P1  7957  0.91

> <Gold.PLP.Chemscore.Internal.Correction>
0.1794

> <Gold.Rescore>
     Score         DG    S(hbond)    S(metal)    S(lipo)     H(rot)  DE(clash)    DE(int)     intcor
     15.26     -16.50       1.43        0.00      92.30       1.78       0.29       0.95       ----

> <Gold.Chemscore.Fitness>
15.2612

> <Gold.Chemscore.DG>
-16.4965

> <Gold.Chemscore.ZeroCoef>
-5.4800

> <Gold.Chemscore.Hbond>
1.4270

> <Gold.Chemscore.Metal>
0.0000

> <Gold.Chemscore.Lipo>
92.3042

> <Gold.Chemscore.Internal_Hbond>
0.0000

> <Gold.Chemscore.DEClash>
0.2867

> <Gold.Chemscore.DEInternal>
0.9486

> <Gold.Chemscore.Rot>
1.7771

> <Gold.Chemscore.Internal.Correction>
   9.000000E+99

> <Gold.Chemscore.Hbonds>
donor molecule, donor type, donor heavy atom, donor atom, acceptor molecule, acceptor atom, score
      L1  H     4    29       P1 10175  0.99
      P1  H  7989  7998       L1    14  0.04

> <Gold.Chemscore.Hbond.Weighted>
-4.7662

> <Gold.Chemscore.Metal.Weighted>
-0.0000

> <Gold.Chemscore.Lipo.Weighted>
-10.7996

> <Gold.Chemscore.Internal_Hbond.Weighted>
0.0000

> <Gold.Chemscore.DEClash.Weighted>
0.2867

> <Gold.Chemscore.DEInternal.Weighted>
0.9486

> <Gold.Chemscore.Rot.Weighted>
4.5494

> <Gold.Chemscore.Internal.Correction.Weighted>
   9.000000E+99

> <Gold.Protein.RotatedTorsions>
[ 6907 6896 6895 6894 ] final  168.71 input  -60.11 | X-H torsion
[ 7974 7965 7964 7962 ] final  -29.28 input  175.53 | X-H torsion
[ 8008 7997 7996 7995 ] final   56.03 input   59.86 | X-H torsion
[ 10167 10162 10161 10158 ] final -105.78 input  -65.29 | X-H torsion
[ 10718 10713 10712 10709 ] final   43.30 input   66.30 | X-H torsion
[ 10763 10752 10751 10750 ] final  126.44 input  -60.55 | X-H torsion
[ 11005 11000 10999 10996 ] final   34.22 input  -57.11 | X-H torsion

> <Gold.Protein.ActiveResidues>
 VAL166  LYS551  ARG553  GLY616  TRP617  ASP618  TYR619  PRO620  LYS621  CYS622 
 ASP623  PHE694  ASN695  SER759  ASP760  ASP761  ALA762  ILE779  LEU786  VAL792 
 PHE793  MET794  SER795  GLU796  ALA797  LYS798  CYS799  TRP800  GLU811  SER814 

> <Gold.Protein.RotatedAtoms>
  151.8433  133.3427  159.3649 H   0  0  0  0  0  0  0  0  0  0  0  0  # atno 6907 bound_to 6896
  150.7228  134.5370  159.5737 H   0  0  0  0  0  0  0  0  0  0  0  0  # atno 6908 bound_to 6896
  152.2848  134.7789  160.0440 H   0  0  0  0  0  0  0  0  0  0  0  0  # atno 6909 bound_to 6896
  146.1228  140.5392  142.8728 H   0  0  0  0  0  0  0  0  0  0  0  0  # atno 7974 bound_to 7965
  155.5108  140.3477  155.4388 H   0  0  0  0  0  0  0  0  0  0  0  0  # atno 8008 bound_to 7997
  156.0851  140.1396  156.9691 H   0  0  0  0  0  0  0  0  0  0  0  0  # atno 8009 bound_to 7997
  154.4602  140.0938  156.6847 H   0  0  0  0  0  0  0  0  0  0  0  0  # atno 8010 bound_to 7997
  140.1948  143.3864  152.1177 H   0  0  0  0  0  0  0  0  0  0  0  0  # atno 10167 bound_to 10162
  157.4144  130.7933  149.7459 H   0  0  0  0  0  0  0  0  0  0  0  0  # atno 10718 bound_to 10713
  153.6934  135.3295  155.3207 H   0  0  0  0  0  0  0  0  0  0  0  0  # atno 10763 bound_to 10752
  154.8433  135.4437  154.1485 H   0  0  0  0  0  0  0  0  0  0  0  0  # atno 10764 bound_to 10752
  153.2532  135.6983  153.7734 H   0  0  0  0  0  0  0  0  0  0  0  0  # atno 10765 bound_to 10752
  140.2550  134.3258  155.7877 H   0  0  0  0  0  0  0  0  0  0  0  0  # atno 11005 bound_to 11000
  144.7613  140.5428  143.6733 LP  0  0  0  0  0  0  0  0  0  0  0  0  # atno 17320 bound_to 7965
  145.5430  139.1475  143.3436 LP  0  0  0  0  0  0  0  0  0  0  0  0  # atno 17321 bound_to 7965
  139.5241  144.7080  151.5296 LP  0  0  0  0  0  0  0  0  0  0  0  0  # atno 17342 bound_to 10162
  140.6431  143.8849  150.6711 LP  0  0  0  0  0  0  0  0  0  0  0  0  # atno 17343 bound_to 10162
  155.9860  130.3978  150.3232 LP  0  0  0  0  0  0  0  0  0  0  0  0  # atno 17370 bound_to 10713
  157.1373  131.0287  151.2943 LP  0  0  0  0  0  0  0  0  0  0  0  0  # atno 17371 bound_to 10713
  141.2197  133.7376  156.9097 LP  0  0  0  0  0  0  0  0  0  0  0  0  # atno 17394 bound_to 11000
  140.1520  134.9223  157.2605 LP  0  0  0  0  0  0  0  0  0  0  0  0  # atno 17395 bound_to 11000

$$$$
