AV-unprocessed.smi:1005|AV-procd|sdf|4374|dock1
  -GOLD-   22720 2283D 1   1.00000     0.00000
 Structure written by MMmdl.
 57 59  0  0  0  0  0  0  0  0  3 V2000
  151.8600  143.7393  160.1145 C   0  0  0  0  0  0  0  0  0  0  0  0
  151.5911  142.8012  158.9500 C   0  0  0  0  0  0  0  0  0  0  0  0
  150.6269  143.1794  157.9880 C   0  0  0  0  0  0  0  0  0  0  0  0
  150.4042  142.3011  156.9341 C   0  0  0  0  0  0  0  0  0  0  0  0
  149.5382  142.3814  155.8412 N   0  3  0  0  0  0  0  0  0  0  0  0
  149.6771  141.2683  155.0683 C   0  0  0  0  0  0  0  0  0  0  0  0
  150.6187  140.4792  155.6530 N   0  0  0  0  0  0  0  0  0  0  0  0
  151.1534  139.1766  155.2362 C   0  0  0  0  0  0  0  0  0  0  0  0
  150.0455  138.1606  154.8982 C   0  0  2  0  0  0  0  0  0  0  0  0
  149.5429  138.4443  153.6071 O   0  0  0  0  0  0  0  0  0  0  0  0
  148.8836  138.2329  155.9087 C   0  0  0  0  0  0  0  0  0  0  0  0
  149.0525  137.4350  157.1251 N   0  0  0  0  0  0  0  0  0  0  0  0
  150.1207  137.9370  157.9873 C   0  0  0  0  0  0  0  0  0  0  0  0
  150.2515  137.1104  159.2768 C   0  0  0  0  0  0  0  0  0  0  0  0
  149.0003  137.0843  159.9555 O   0  0  0  0  0  0  0  0  0  0  0  0
  147.9465  136.5319  159.1705 C   0  0  1  0  0  0  0  0  0  0  0  0
  146.6691  136.5269  160.0375 C   0  0  0  0  0  0  0  0  0  0  0  0
  146.7061  135.5405  161.1484 N   0  3  0  0  0  0  0  0  0  0  0  0
  145.4153  135.3896  161.8576 C   0  0  0  0  0  0  0  0  0  0  0  0
  147.8146  135.8139  162.0903 C   0  0  0  0  0  0  0  0  0  0  0  0
  147.8125  137.3911  157.8926 C   0  0  0  0  0  0  0  0  0  0  0  0
  151.1006  141.0828  156.8184 C   0  0  0  0  0  0  0  0  0  0  0  0
  152.0538  140.6945  157.7564 C   0  0  0  0  0  0  0  0  0  0  0  0
  152.2962  141.5749  158.8348 C   0  0  0  0  0  0  0  0  0  0  0  0
  153.3320  141.1794  159.8733 C   0  0  0  0  0  0  0  0  0  0  0  0
  151.2211  144.6220  160.0716 H   0  0  0  0  0  0  0  0  0  0  0  0
  152.8962  144.0777  160.1016 H   0  0  0  0  0  0  0  0  0  0  0  0
  151.6707  143.2378  161.0639 H   0  0  0  0  0  0  0  0  0  0  0  0
  150.0876  144.1120  158.0684 H   0  0  0  0  0  0  0  0  0  0  0  0
  149.1416  141.0527  154.1545 H   0  0  0  0  0  0  0  0  0  0  0  0
  151.8138  139.3343  154.3827 H   0  0  0  0  0  0  0  0  0  0  0  0
  151.7806  138.8031  156.0472 H   0  0  0  0  0  0  0  0  0  0  0  0
  150.4841  137.1640  154.8855 H   0  0  0  0  0  0  0  0  0  0  0  0
  149.5398  137.6428  153.1057 H   0  0  0  0  0  0  0  0  0  0  0  0
  148.7195  139.2746  156.1895 H   0  0  0  0  0  0  0  0  0  0  0  0
  147.9725  137.9202  155.3958 H   0  0  0  0  0  0  0  0  0  0  0  0
  151.0773  137.9136  157.4675 H   0  0  0  0  0  0  0  0  0  0  0  0
  149.9295  138.9797  158.2459 H   0  0  0  0  0  0  0  0  0  0  0  0
  150.5742  136.0926  159.0525 H   0  0  0  0  0  0  0  0  0  0  0  0
  151.0038  137.5477  159.9333 H   0  0  0  0  0  0  0  0  0  0  0  0
  148.2204  135.5068  158.9129 H   0  0  0  0  0  0  0  0  0  0  0  0
  146.5688  137.5137  160.4923 H   0  0  0  0  0  0  0  0  0  0  0  0
  145.7755  136.3884  159.4265 H   0  0  0  0  0  0  0  0  0  0  0  0
  145.0639  136.3474  162.2434 H   0  0  0  0  0  0  0  0  0  0  0  0
  145.5145  134.7009  162.6973 H   0  0  0  0  0  0  0  0  0  0  0  0
  144.6525  134.9764  161.1990 H   0  0  0  0  0  0  0  0  0  0  0  0
  147.6808  136.7789  162.5811 H   0  0  0  0  0  0  0  0  0  0  0  0
  148.7731  135.8244  161.5701 H   0  0  0  0  0  0  0  0  0  0  0  0
  147.8691  135.0433  162.8600 H   0  0  0  0  0  0  0  0  0  0  0  0
  147.5173  138.4048  158.1686 H   0  0  0  0  0  0  0  0  0  0  0  0
  147.0125  137.0021  157.2646 H   0  0  0  0  0  0  0  0  0  0  0  0
  152.5900  139.7611  157.6671 H   0  0  0  0  0  0  0  0  0  0  0  0
  153.8131  140.2346  159.6181 H   0  0  0  0  0  0  0  0  0  0  0  0
  152.8663  141.0628  160.8519 H   0  0  0  0  0  0  0  0  0  0  0  0
  154.1111  141.9381  159.9479 H   0  0  0  0  0  0  0  0  0  0  0  0
  146.9121  134.6439  160.7311 H   0  0  0  0  0  0  0  0  0  0  0  0
  148.9006  143.1392  155.6334 H   0  0  0  0  0  0  0  0  0  0  0  0
  1  2  1  0  0  0  0
  1 26  1  0  0  0  0
  1 27  1  0  0  0  0
  1 28  1  0  0  0  0
  2 24  1  0  0  0  0
  2  3  2  0  0  0  0
  3  4  1  0  0  0  0
  3 29  1  0  0  0  0
  4 22  2  0  0  0  0
  4  5  1  0  0  0  0
  5  6  2  0  0  0  0
  5 57  1  0  0  0  0
  6  7  1  0  0  0  0
  6 30  1  0  0  0  0
  7  8  1  0  0  0  0
  7 22  1  0  0  0  0
  8  9  1  0  0  0  0
  8 31  1  0  0  0  0
  8 32  1  0  0  0  0
  9 10  1  0  0  0  0
  9 11  1  0  0  0  0
  9 33  1  0  0  0  0
 10 34  1  0  0  0  0
 11 12  1  0  0  0  0
 11 35  1  0  0  0  0
 11 36  1  0  0  0  0
 12 21  1  0  0  0  0
 12 13  1  0  0  0  0
 13 14  1  0  0  0  0
 13 37  1  0  0  0  0
 13 38  1  0  0  0  0
 14 15  1  0  0  0  0
 14 39  1  0  0  0  0
 14 40  1  0  0  0  0
 15 16  1  0  0  0  0
 16 17  1  0  0  0  0
 16 21  1  0  0  0  0
 16 41  1  0  0  0  0
 17 18  1  0  0  0  0
 17 42  1  0  0  0  0
 17 43  1  0  0  0  0
 18 19  1  0  0  0  0
 18 20  1  0  0  0  0
 18 56  1  0  0  0  0
 19 44  1  0  0  0  0
 19 45  1  0  0  0  0
 19 46  1  0  0  0  0
 20 47  1  0  0  0  0
 20 48  1  0  0  0  0
 20 49  1  0  0  0  0
 21 50  1  0  0  0  0
 21 51  1  0  0  0  0
 22 23  1  0  0  0  0
 23 24  2  0  0  0  0
 23 52  1  0  0  0  0
 24 25  1  0  0  0  0
 25 53  1  0  0  0  0
 25 54  1  0  0  0  0
 25 55  1  0  0  0  0
M  CHG  1   5   1
M  CHG  1  18   1
M  END
> <s_m_source_file>
AV-unprocessed.smi

> <i_m_source_file_index>
1005

> <i_lp_mmshare_version>
43012

> <i_f3d_flags>
0

> <s_epik_input>
W0NIM11jKFtjSF0xKWMoW0NIM10pW2NIXWMoYzEyKW4oW2NIXW4yKVtDSDJdW0NASF0oW09IXSlbQ0gyXU4zW0NIMl1bQ0gyXU9bQ0BIXShbQ0gyXTMpW0NIMl1OKFtDSDNdKVtDSDNd

> <s_epik_cmdline>
J2VwaWtfcHl0aG9uJywgJy1waCcsICc3LjAnLCAnLXRuJywgJzgnLCAnLW1hJywgJzIwMCcsICctbWV0YWxfYmluZGluZycsICctaW1hZScsICc8aW5maWxlLm1hZT4nLCAnLW9tYWUnLCAnPG91dGZpbGUubWFlPic=

> <r_epik_Ionization_Penalty>
1.3281

> <r_epik_Ionization_Penalty_Charging>
1.21988

> <r_epik_Ionization_Penalty_Neutral>
0.10822

> <r_epik_State_Penalty>
1.32886

> <r_epik_Charging_Adjusted_Penalty>
2.54875

> <i_epik_Tot_Q>
2

> <i_epik_Tot_abs_Q>
2

> <r_epik_Metal_State_Penalty>
5.33912

> <b_epik_Metal_Only>
0

> <s_lp_Force_Field>
OPLS_2005

> <r_lp_Energy>
44.7977

> <b_lp_Chiralities_Consistent>
1

> <s_lp_Variant>
AV-unprocessed.smi:1005-13

> <Gold.Version>
5.8.1

> <Gold.Id.Protein>
6NUR|6NUR_protein|mol2

> <Gold.PLP.Fitness>
53.6028

> <Gold.PLP.PLP>
-44.1715

> <Gold.PLP.part.hbond>
-4.0789

> <Gold.PLP.part.metal>
0.0000

> <Gold.PLP.part.buried>
-5.8262

> <Gold.PLP.part.nonpolar>
-36.0375

> <Gold.PLP.part.repulsive>
0.2033

> <Gold.PLP.ligand.clash>
0.0000

> <Gold.PLP.ligand.torsion>
0.6664

> <Gold.PLP.Chemscore.Hbond>
3.5193

> <Gold.PLP.Chemscore.CHOScore>
0.0000

> <Gold.PLP.Chemscore.Metal>
0.0000

> <Gold.Chemscore.Hbonds>
donor molecule, donor type, donor heavy atom, donor atom, acceptor molecule, acceptor atom, score
      L1  H     5    57       P1  8028  1.60
      L1  H    10    34       P1  7948  1.00
      P1  H  6931  6943       L1    15  0.23

> <Gold.PLP.Chemscore.Internal.Correction>
0.2064

> <Gold.Rescore>
     Score         DG    S(hbond)    S(metal)    S(lipo)     H(rot)  DE(clash)    DE(int)     intcor
     15.97     -19.15       1.61        0.00     125.49       2.49       0.82       2.36       ----

> <Gold.Chemscore.Fitness>
15.9740

> <Gold.Chemscore.DG>
-19.1522

> <Gold.Chemscore.ZeroCoef>
-5.4800

> <Gold.Chemscore.Hbond>
1.6059

> <Gold.Chemscore.Metal>
0.0000

> <Gold.Chemscore.Lipo>
125.4877

> <Gold.Chemscore.Internal_Hbond>
0.0000

> <Gold.Chemscore.DEClash>
0.8156

> <Gold.Chemscore.DEInternal>
2.3627

> <Gold.Chemscore.Rot>
2.4897

> <Gold.Chemscore.Internal.Correction>
   9.000000E+99

> <Gold.Chemscore.Hbonds>
donor molecule, donor type, donor heavy atom, donor atom, acceptor molecule, acceptor atom, score
      L1  H     5    57       P1  8028  0.77
      L1  H    10    34       P1  7948  0.85
      P1  H  6931  6943       L1    15  0.19

> <Gold.Chemscore.Hbond.Weighted>
-5.3639

> <Gold.Chemscore.Metal.Weighted>
-0.0000

> <Gold.Chemscore.Lipo.Weighted>
-14.6821

> <Gold.Chemscore.Internal_Hbond.Weighted>
0.0000

> <Gold.Chemscore.DEClash.Weighted>
0.8156

> <Gold.Chemscore.DEInternal.Weighted>
2.3627

> <Gold.Chemscore.Rot.Weighted>
6.3737

> <Gold.Chemscore.Internal.Correction.Weighted>
   9.000000E+99

> <Gold.Protein.RotatedTorsions>
[ 6907 6896 6895 6894 ] final  -10.43 input  -60.11 | X-H torsion
[ 7974 7965 7964 7962 ] final  151.94 input  175.53 | X-H torsion
[ 8008 7997 7996 7995 ] final -131.18 input   59.86 | X-H torsion
[ 10167 10162 10161 10158 ] final  120.63 input  -65.29 | X-H torsion
[ 10718 10713 10712 10709 ] final  176.49 input   66.30 | X-H torsion
[ 10763 10752 10751 10750 ] final  -65.91 input  -60.55 | X-H torsion
[ 11005 11000 10999 10996 ] final  -82.97 input  -57.11 | X-H torsion

> <Gold.Protein.ActiveResidues>
 VAL166  LYS551  ARG553  GLY616  TRP617  ASP618  TYR619  PRO620  LYS621  CYS622 
 ASP623  PHE694  ASN695  SER759  ASP760  ASP761  ALA762  ILE779  LEU786  VAL792 
 PHE793  MET794  SER795  GLU796  ALA797  LYS798  CYS799  TRP800  GLU811  SER814 

> <Gold.Protein.RotatedAtoms>
  151.4021  135.0972  159.9558 H   0  0  0  0  0  0  0  0  0  0  0  0  # atno 6907 bound_to 6896
  152.5047  133.8878  159.7389 H   0  0  0  0  0  0  0  0  0  0  0  0  # atno 6908 bound_to 6896
  150.9355  133.6661  159.2830 H   0  0  0  0  0  0  0  0  0  0  0  0  # atno 6909 bound_to 6896
  144.8257  139.6603  143.6081 H   0  0  0  0  0  0  0  0  0  0  0  0  # atno 7974 bound_to 7965
  155.3080  140.0456  157.3033 H   0  0  0  0  0  0  0  0  0  0  0  0  # atno 8008 bound_to 7997
  154.5449  140.2299  155.8547 H   0  0  0  0  0  0  0  0  0  0  0  0  # atno 8009 bound_to 7997
  156.1915  140.3049  155.9348 H   0  0  0  0  0  0  0  0  0  0  0  0  # atno 8010 bound_to 7997
  139.5970  144.7045  151.3152 H   0  0  0  0  0  0  0  0  0  0  0  0  # atno 10167 bound_to 10162
  156.9193  130.9935  151.3007 H   0  0  0  0  0  0  0  0  0  0  0  0  # atno 10718 bound_to 10713
  154.3521  135.6134  153.5648 H   0  0  0  0  0  0  0  0  0  0  0  0  # atno 10763 bound_to 10752
  152.9798  135.5795  154.4731 H   0  0  0  0  0  0  0  0  0  0  0  0  # atno 10764 bound_to 10752
  154.4454  135.2851  155.1796 H   0  0  0  0  0  0  0  0  0  0  0  0  # atno 10765 bound_to 10752
  141.1660  133.7271  156.8650 H   0  0  0  0  0  0  0  0  0  0  0  0  # atno 11005 bound_to 11000
  146.2562  139.6308  142.9393 LP  0  0  0  0  0  0  0  0  0  0  0  0  # atno 17320 bound_to 7965
  145.5005  141.0437  143.2543 LP  0  0  0  0  0  0  0  0  0  0  0  0  # atno 17321 bound_to 7965
  140.7220  143.7110  150.7769 LP  0  0  0  0  0  0  0  0  0  0  0  0  # atno 17342 bound_to 10162
  140.0678  143.5091  152.2595 LP  0  0  0  0  0  0  0  0  0  0  0  0  # atno 17343 bound_to 10162
  157.5918  130.8449  149.8670 LP  0  0  0  0  0  0  0  0  0  0  0  0  # atno 17370 bound_to 10713
  156.0498  130.3720  150.1228 LP  0  0  0  0  0  0  0  0  0  0  0  0  # atno 17371 bound_to 10713
  140.1821  134.9025  157.2961 LP  0  0  0  0  0  0  0  0  0  0  0  0  # atno 17394 bound_to 11000
  140.2383  134.3826  155.7491 LP  0  0  0  0  0  0  0  0  0  0  0  0  # atno 17395 bound_to 11000

$$$$
