AV-unprocessed.smi:2294|AV-procd|sdf|9216|dock4
  -GOLD-   2272012433D 1   1.00000     0.00000
 Structure written by MMmdl.
 34 35  0  0  0  0  0  0  0  0  1 V2000
  148.5773  138.6541  153.2200 C   0  0  0  0  0  0  0  0  0  0  0  0
  149.5770  139.1694  154.2400 C   0  0  0  0  0  0  0  0  0  0  0  0
  149.5073  140.5381  154.5151 N   0  0  0  0  0  0  0  0  0  0  0  0
  150.3199  141.0654  155.3712 C   0  0  0  0  0  0  0  0  0  0  0  0
  151.2834  140.2968  156.0463 N   0  0  0  0  0  0  0  0  0  0  0  0
  152.1489  141.0203  156.9938 C   0  0  0  0  0  0  0  0  0  0  0  0
  151.3882  142.1267  157.7584 C   0  0  2  0  0  0  0  0  0  0  0  0
  151.7002  143.3809  157.1835 O   0  0  0  0  0  0  0  0  0  0  0  0
  151.7312  142.0903  159.2426 C   0  0  0  0  0  0  0  0  0  0  0  0
  152.0583  140.8685  159.8739 C   0  0  0  0  0  0  0  0  0  0  0  0
  152.3649  140.8360  161.2479 C   0  0  0  0  0  0  0  0  0  0  0  0
  152.3427  142.0238  162.0028 C   0  0  0  0  0  0  0  0  0  0  0  0
  152.0095  143.2430  161.3832 C   0  0  0  0  0  0  0  0  0  0  0  0
  151.7020  143.2780  160.0089 C   0  0  0  0  0  0  0  0  0  0  0  0
  151.3734  144.4592  159.4322 F   0  0  0  0  0  0  0  0  0  0  0  0
  151.4213  138.9560  155.8342 C   0  0  0  0  0  0  0  0  0  0  0  0
  152.2709  138.2893  156.4275 O   0  0  0  0  0  0  0  0  0  0  0  0
  150.4899  138.3698  154.8562 C   0  0  0  0  0  0  0  0  0  0  0  0
  150.6129  136.8736  154.5944 C   0  0  0  0  0  0  0  0  0  0  0  0
  149.0943  138.2250  152.3614 H   0  0  0  0  0  0  0  0  0  0  0  0
  147.9324  139.4549  152.8564 H   0  0  0  0  0  0  0  0  0  0  0  0
  147.9396  137.8884  153.6623 H   0  0  0  0  0  0  0  0  0  0  0  0
  150.3122  142.1289  155.6173 H   0  0  0  0  0  0  0  0  0  0  0  0
  152.5439  140.2991  157.7128 H   0  0  0  0  0  0  0  0  0  0  0  0
  153.0395  141.4281  156.5117 H   0  0  0  0  0  0  0  0  0  0  0  0
  150.3123  141.9857  157.6498 H   0  0  0  0  0  0  0  0  0  0  0  0
  151.3623  143.3989  156.3011 H   0  0  0  0  0  0  0  0  0  0  0  0
  152.0725  139.9489  159.3073 H   0  0  0  0  0  0  0  0  0  0  0  0
  152.6155  139.8988  161.7227 H   0  0  0  0  0  0  0  0  0  0  0  0
  152.5776  141.9989  163.0568 H   0  0  0  0  0  0  0  0  0  0  0  0
  151.9875  144.1537  161.9633 H   0  0  0  0  0  0  0  0  0  0  0  0
  150.4551  136.3160  155.5180 H   0  0  0  0  0  0  0  0  0  0  0  0
  151.6104  136.6371  154.2225 H   0  0  0  0  0  0  0  0  0  0  0  0
  149.8956  136.5046  153.8633 H   0  0  0  0  0  0  0  0  0  0  0  0
  1  2  1  0  0  0  0
  1 20  1  0  0  0  0
  1 21  1  0  0  0  0
  1 22  1  0  0  0  0
  2 18  2  0  0  0  0
  2  3  1  0  0  0  0
  3  4  2  0  0  0  0
  4  5  1  0  0  0  0
  4 23  1  0  0  0  0
  5  6  1  0  0  0  0
  5 16  1  0  0  0  0
  6  7  1  0  0  0  0
  6 24  1  0  0  0  0
  6 25  1  0  0  0  0
  7  8  1  0  0  0  0
  7  9  1  0  0  0  0
  7 26  1  0  0  0  0
  8 27  1  0  0  0  0
  9 14  1  0  0  0  0
  9 10  2  0  0  0  0
 10 11  1  0  0  0  0
 10 28  1  0  0  0  0
 11 12  2  0  0  0  0
 11 29  1  0  0  0  0
 12 13  1  0  0  0  0
 12 30  1  0  0  0  0
 13 14  2  0  0  0  0
 13 31  1  0  0  0  0
 14 15  1  0  0  0  0
 16 17  2  0  0  0  0
 16 18  1  0  0  0  0
 18 19  1  0  0  0  0
 19 32  1  0  0  0  0
 19 33  1  0  0  0  0
 19 34  1  0  0  0  0
M  END
> <s_m_source_file>
AV-unprocessed.smi

> <i_m_source_file_index>
2294

> <i_lp_mmshare_version>
43012

> <i_f3d_flags>
0

> <s_epik_input>
W0NIM11jMW5bY0hdbihjKD1PKWMxW0NIM10pW0NIMl1bQ0BIXShbT0hdKWMyW2NIXVtjSF1bY0hdW2NIXWMyRg==

> <s_epik_cmdline>
J2VwaWtfcHl0aG9uJywgJy1waCcsICc3LjAnLCAnLXRuJywgJzgnLCAnLW1hJywgJzIwMCcsICctbWV0YWxfYmluZGluZycsICctaW1hZScsICc8aW5maWxlLm1hZT4nLCAnLW9tYWUnLCAnPG91dGZpbGUubWFlPic=

> <r_lp_tautomer_probability>
1

> <r_epik_Ionization_Penalty>
5.07259e-05

> <r_epik_Ionization_Penalty_Charging>
7.56727e-08

> <r_epik_Ionization_Penalty_Neutral>
5.06502e-05

> <r_epik_State_Penalty>
-0

> <r_epik_Charging_Adjusted_Penalty>
7.56727e-08

> <i_epik_Tot_Q>
0

> <i_epik_Tot_abs_Q>
0

> <r_epik_Metal_State_Penalty>
-0

> <b_epik_Metal_Only>
0

> <s_lp_Force_Field>
OPLS_2005

> <r_lp_Energy>
20.4384

> <b_lp_Chiralities_Consistent>
1

> <s_lp_Variant>
AV-unprocessed.smi:2294-1

> <Gold.Version>
5.8.1

> <Gold.Id.Protein>
6NUR|6NUR_protein|mol2

> <Gold.PLP.Fitness>
50.9943

> <Gold.PLP.PLP>
-45.3608

> <Gold.PLP.part.hbond>
-2.0000

> <Gold.PLP.part.metal>
0.0000

> <Gold.PLP.part.buried>
-5.6119

> <Gold.PLP.part.nonpolar>
-37.7905

> <Gold.PLP.part.repulsive>
0.1106

> <Gold.PLP.ligand.clash>
0.0000

> <Gold.PLP.ligand.torsion>
1.6887

> <Gold.PLP.Chemscore.Hbond>
2.0000

> <Gold.PLP.Chemscore.CHOScore>
1.0000

> <Gold.PLP.Chemscore.Metal>
0.0000

> <Gold.PLP.Chemscore.Internal.Correction>
0.0110

> <Gold.Rescore>
     Score         DG    S(hbond)    S(metal)    S(lipo)     H(rot)  DE(clash)    DE(int)     intcor
     14.12     -18.72       1.92        0.00     102.46       2.02       1.51       3.08       ----

> <Gold.Chemscore.Fitness>
14.1191

> <Gold.Chemscore.DG>
-18.7176

> <Gold.Chemscore.ZeroCoef>
-5.4800

> <Gold.Chemscore.Hbond>
1.9209

> <Gold.Chemscore.Metal>
0.0000

> <Gold.Chemscore.Lipo>
102.4623

> <Gold.Chemscore.Internal_Hbond>
0.0000

> <Gold.Chemscore.DEClash>
1.5142

> <Gold.Chemscore.DEInternal>
3.0844

> <Gold.Chemscore.Rot>
2.0181

> <Gold.Chemscore.Internal.Correction>
   9.000000E+99

> <Gold.Chemscore.Hbond.Weighted>
-6.4159

> <Gold.Chemscore.Metal.Weighted>
-0.0000

> <Gold.Chemscore.Lipo.Weighted>
-11.9881

> <Gold.Chemscore.Internal_Hbond.Weighted>
0.0000

> <Gold.Chemscore.DEClash.Weighted>
1.5142

> <Gold.Chemscore.DEInternal.Weighted>
3.0844

> <Gold.Chemscore.Rot.Weighted>
5.1663

> <Gold.Chemscore.Internal.Correction.Weighted>
   9.000000E+99

> <Gold.Protein.RotatedTorsions>
[ 6907 6896 6895 6894 ] final -143.00 input  -60.11 | X-H torsion
[ 7974 7965 7964 7962 ] final -104.47 input  175.53 | X-H torsion
[ 8008 7997 7996 7995 ] final   79.55 input   59.86 | X-H torsion
[ 10167 10162 10161 10158 ] final  159.04 input  -65.29 | X-H torsion
[ 10718 10713 10712 10709 ] final -116.74 input   66.30 | X-H torsion
[ 10763 10752 10751 10750 ] final  158.72 input  -60.55 | X-H torsion
[ 11005 11000 10999 10996 ] final   32.10 input  -57.11 | X-H torsion

> <Gold.Protein.ActiveResidues>
 VAL166  LYS551  ARG553  GLY616  TRP617  ASP618  TYR619  PRO620  LYS621  CYS622 
 ASP623  PHE694  ASN695  SER759  ASP760  ASP761  ALA762  ILE779  LEU786  VAL792 
 PHE793  MET794  SER795  GLU796  ALA797  LYS798  CYS799  TRP800  GLU811  SER814 

> <Gold.Protein.RotatedAtoms>
  151.0946  133.5289  159.2612 H   0  0  0  0  0  0  0  0  0  0  0  0  # atno 6907 bound_to 6896
  151.2144  135.0493  159.8934 H   0  0  0  0  0  0  0  0  0  0  0  0  # atno 6908 bound_to 6896
  152.5437  134.0757  159.8267 H   0  0  0  0  0  0  0  0  0  0  0  0  # atno 6909 bound_to 6896
  145.2427  140.9211  143.3140 H   0  0  0  0  0  0  0  0  0  0  0  0  # atno 7974 bound_to 7965
  155.8713  140.3449  155.5823 H   0  0  0  0  0  0  0  0  0  0  0  0  # atno 8008 bound_to 7997
  155.7824  140.0860  157.2071 H   0  0  0  0  0  0  0  0  0  0  0  0  # atno 8009 bound_to 7997
  154.4017  140.1498  156.3055 H   0  0  0  0  0  0  0  0  0  0  0  0  # atno 8010 bound_to 7997
  139.4830  144.4768  151.8500 H   0  0  0  0  0  0  0  0  0  0  0  0  # atno 10167 bound_to 10162
  156.0985  130.6152  150.9075 H   0  0  0  0  0  0  0  0  0  0  0  0  # atno 10718 bound_to 10713
  154.2205  135.2782  155.2926 H   0  0  0  0  0  0  0  0  0  0  0  0  # atno 10763 bound_to 10752
  154.5706  135.5620  153.7094 H   0  0  0  0  0  0  0  0  0  0  0  0  # atno 10764 bound_to 10752
  153.0043  135.6320  154.2345 H   0  0  0  0  0  0  0  0  0  0  0  0  # atno 10765 bound_to 10752
  140.2770  134.3016  155.7811 H   0  0  0  0  0  0  0  0  0  0  0  0  # atno 11005 bound_to 11000
  144.9574  139.4017  143.6373 LP  0  0  0  0  0  0  0  0  0  0  0  0  # atno 17320 bound_to 7965
  146.3324  139.8610  142.8856 LP  0  0  0  0  0  0  0  0  0  0  0  0  # atno 17321 bound_to 7965
  140.4241  144.2204  150.5887 LP  0  0  0  0  0  0  0  0  0  0  0  0  # atno 17342 bound_to 10162
  140.4845  143.2368  151.8908 LP  0  0  0  0  0  0  0  0  0  0  0  0  # atno 17343 bound_to 10162
  157.6150  131.0934  150.8726 LP  0  0  0  0  0  0  0  0  0  0  0  0  # atno 17370 bound_to 10713
  156.8859  130.5195  149.5288 LP  0  0  0  0  0  0  0  0  0  0  0  0  # atno 17371 bound_to 10713
  141.2169  133.7502  156.9422 LP  0  0  0  0  0  0  0  0  0  0  0  0  # atno 17394 bound_to 11000
  140.1319  134.9350  157.2348 LP  0  0  0  0  0  0  0  0  0  0  0  0  # atno 17395 bound_to 11000

$$$$
