#       Name:                AV-unprocessed.smi:2482
#       Creating user name   scv26
#       Creation time:       Fri Mar 27 13:41:59 2020


#       File generated by GOLD software.
#

@<TRIPOS>MOLECULE
AV-unprocessed.smi:2482
    40    41     1
SMALL
NO_CHARGES


@<TRIPOS>ATOM
      1 ****        -4.8550   2.4212  -1.3775 C.3            1 S1                 0.0000
      2 ****        -4.0034   1.1641  -1.3180 C.ar           1 S1                 0.0000
      3 ****        -4.7109   0.0132  -1.2952 N.ar           1 S1                 0.0000
      4 ****        -4.0362  -1.1532  -1.2460 C.ar           1 S1                 0.0000
      5 ****        -2.6318  -1.2321  -1.2089 C.ar           1 S1                 0.0000
      6 ****        -1.8866  -0.0303  -1.2176 C.ar           1 S1                 0.0000
      7 ****        -0.4662  -0.0096  -1.2103 N.am           1 S1                 0.0000
      8 ****         0.3715  -0.8636  -0.5946 C.2            1 S1                 0.0000
      9 ****         0.0054  -1.8379   0.0634 O.2            1 S1                 0.0000
     10 ****         1.8733  -0.5455  -0.7406 C.3            1 S1                 0.0000
     11 ****         2.7947  -1.3330   0.2214 C.3            1 S1                 0.0000
     12 ****         2.6341  -0.8645   1.6184 N.4            1 S1                 1.0000
     13 ****         3.4491  -1.6401   2.5775 C.3            1 S1                 0.0000
     14 ****         2.8722   0.5935   1.7122 C.3            1 S1                 0.0000
     15 ****         1.9457   1.3502   0.7466 C.3            1 S1                 0.0000
     16 ****         2.1216   0.8561  -0.5819 O.3            1 S1                 0.0000
     17 ****        -2.5860   1.1973  -1.2885 C.ar           1 S1                 0.0000
     18 ****        -1.7117   2.6933  -1.3229 Cl             1 S1                 0.0000
     19 ****        -4.2708   3.3394  -1.3687 H              1 S1                 0.0000
     20 ****        -5.5315   2.4534  -0.5231 H              1 S1                 0.0000
     21 ****        -5.4583   2.4208  -2.2857 H              1 S1                 0.0000
     22 ****        -4.6345  -2.0523  -1.2427 H              1 S1                 0.0000
     23 ****        -2.1544  -2.2002  -1.1892 H              1 S1                 0.0000
     24 ****        -0.0421   0.8057  -1.6294 H              1 S1                 0.0000
     25 ****         2.1441  -0.8073  -1.7639 H              1 S1                 0.0000
     26 ****         2.5883  -2.4028   0.1622 H              1 S1                 0.0000
     27 ****         3.8346  -1.2043  -0.0830 H              1 S1                 0.0000
     28 ****         4.5137  -1.5303   2.3669 H              1 S1                 0.0000
     29 ****         3.1970  -2.6998   2.5256 H              1 S1                 0.0000
     30 ****         3.2650  -1.3042   3.5986 H              1 S1                 0.0000
     31 ****         2.6970   0.9324   2.7338 H              1 S1                 0.0000
     32 ****         3.9151   0.8103   1.4758 H              1 S1                 0.0000
     33 ****         0.9050   1.2667   1.0623 H              1 S1                 0.0000
     34 ****         2.1860   2.4135   0.7562 H              1 S1                 0.0000
     35 ****         1.6675  -1.0207   1.8681 H              1 S1                 0.0000
     36 ****        -5.7107   0.0262  -1.3144 LP             1 S1                 0.0000
     37 ****        -0.9698  -2.0343   0.1657 LP             1 S1                 0.0000
     38 ****         0.6832  -2.4327   0.4954 LP             1 S1                 0.0000
     39 ****         1.4960   1.3527  -1.1837 LP             1 S1                 0.0000
     40 ****         3.0651   1.0380  -0.8588 LP             1 S1                 0.0000
@<TRIPOS>BOND
    1    1    2 1     
    2    1   19 1     
    3    1   20 1     
    4    1   21 1     
    5    2   17 ar    
    6    2    3 ar    
    7    3    4 ar    
    8    4    5 ar    
    9    4   22 1     
   10    5    6 ar    
   11    5   23 1     
   12    6    7 1     
   13    6   17 ar    
   14    7    8 am    
   15    7   24 1     
   16    8    9 2     
   17    8   10 1     
   18   10   16 1     
   19   10   11 1     
   20   10   25 1     
   21   11   12 1     
   22   11   26 1     
   23   11   27 1     
   24   12   13 1     
   25   12   14 1     
   26   12   35 1     
   27   13   28 1     
   28   13   29 1     
   29   13   30 1     
   30   14   15 1     
   31   14   31 1     
   32   14   32 1     
   33   15   16 1     
   34   15   33 1     
   35   15   34 1     
   36   17   18 1     
   37    3   36 1     
   38    9   37 1     
   39    9   38 1     
   40   16   39 1     
   41   16   40 1     
@<TRIPOS>SUBSTRUCTURE
      1 S1             1
@<TRIPOS>SET
LONE_PAIRS      STATIC     ATOMS    <user>   **** ""
5 36 37 38 39 40
DONOR_HYDROGENS      STATIC     ATOMS    <user>   **** ""
2 24 35
ATOM$BLUE        STATIC     ATOMS    COLORGROUP SYSTEM
5 36 37 38 39 40
ATOM$RED        STATIC     ATOMS    COLORGROUP SYSTEM
2 24 35
