AV-unprocessed.smi:234|AV-procd|sdf|1799|dock1
  -GOLD-   2262020363D 1   1.00000     0.00000
 Structure written by MMmdl.
 59 62  0  0  0  0  0  0  0  0  1 V2000
  153.0083  142.5200  161.9776 C   0  0  0  0  0  0  0  0  0  0  0  0
  153.0576  141.7952  160.6258 C   0  0  0  0  0  0  0  0  0  0  0  0
  151.8957  142.0458  159.8469 O   0  0  0  0  0  0  0  0  0  0  0  0
  152.1007  142.0240  158.4401 C   0  0  2  0  0  0  0  0  0  0  0  0
  151.1177  142.9408  157.7159 C   0  0  0  0  0  0  0  0  0  0  0  0
  151.1093  141.8804  156.6065 C   0  0  2  0  0  0  0  0  0  0  0  0
  149.8038  141.6870  155.9683 N   0  0  0  0  0  0  0  0  0  0  0  0
  148.6059  141.9528  156.7561 C   0  0  0  0  0  0  0  0  0  0  0  0
  149.6406  140.6087  155.1636 C   0  0  0  0  0  0  0  0  0  0  0  0
  150.6961  139.7632  155.0485 N   0  0  0  0  0  0  0  0  0  0  0  0
  150.6106  138.6833  154.2669 C   0  0  0  0  0  0  0  0  0  0  0  0
  149.5832  138.2719  153.5221 N   0  0  0  0  0  0  0  0  0  0  0  0
  148.5221  139.1230  153.6248 C   0  0  0  0  0  0  0  0  0  0  0  0
  148.4675  140.3098  154.4098 C   0  0  0  0  0  0  0  0  0  0  0  0
  147.2359  140.9293  154.2344 N   0  0  0  0  0  0  0  0  0  0  0  0
  146.5955  140.1462  153.4108 C   0  0  0  0  0  0  0  0  0  0  0  0
  147.2877  139.0280  153.0028 N   0  0  0  0  0  0  0  0  0  0  0  0
  146.8326  137.9845  152.0916 C   0  0  0  0  0  0  0  0  0  0  0  0
  145.4923  137.3175  152.5042 C   0  0  2  0  0  0  0  0  0  0  0  0
  144.4624  138.2858  152.3921 O   0  0  0  0  0  0  0  0  0  0  0  0
  145.4955  136.7854  153.9271 C   0  0  0  0  0  0  0  0  0  0  0  0
  144.3475  135.7773  153.9266 C   0  0  0  0  0  0  0  0  0  0  0  0
  144.1411  135.3999  152.5666 O   0  0  0  0  0  0  0  0  0  0  0  0
  145.0499  136.0772  151.7003 C   0  0  2  0  0  0  0  0  0  0  0  0
  146.1552  135.0508  151.3877 C   0  0  0  0  0  0  0  0  0  0  0  0
  151.4762  140.8199  157.6853 C   0  0  0  0  0  0  0  0  0  0  0  0
  152.4661  139.7362  157.2513 C   0  0  0  0  0  0  0  0  0  0  0  0
  150.3129  140.1141  158.4051 C   0  0  0  0  0  0  0  0  0  0  0  0
  153.8569  142.2320  162.5984 H   0  0  0  0  0  0  0  0  0  0  0  0
  152.0978  142.2693  162.5223 H   0  0  0  0  0  0  0  0  0  0  0  0
  153.0440  143.6028  161.8609 H   0  0  0  0  0  0  0  0  0  0  0  0
  153.9635  142.0521  160.0776 H   0  0  0  0  0  0  0  0  0  0  0  0
  153.1024  140.7210  160.8056 H   0  0  0  0  0  0  0  0  0  0  0  0
  153.1275  142.2380  158.1372 H   0  0  0  0  0  0  0  0  0  0  0  0
  150.1637  143.0492  158.2349 H   0  0  0  0  0  0  0  0  0  0  0  0
  151.5317  143.9071  157.4278 H   0  0  0  0  0  0  0  0  0  0  0  0
  151.9255  142.0304  155.8972 H   0  0  0  0  0  0  0  0  0  0  0  0
  148.2180  141.0352  157.2006 H   0  0  0  0  0  0  0  0  0  0  0  0
  147.8271  142.3861  156.1276 H   0  0  0  0  0  0  0  0  0  0  0  0
  148.8063  142.6533  157.5646 H   0  0  0  0  0  0  0  0  0  0  0  0
  151.4921  138.0602  154.2326 H   0  0  0  0  0  0  0  0  0  0  0  0
  145.5974  140.3797  153.0761 H   0  0  0  0  0  0  0  0  0  0  0  0
  146.7756  138.3987  151.0851 H   0  0  0  0  0  0  0  0  0  0  0  0
  147.6132  137.2236  152.0495 H   0  0  0  0  0  0  0  0  0  0  0  0
  144.3700  138.5190  151.4810 H   0  0  0  0  0  0  0  0  0  0  0  0
  146.4342  136.2689  154.1317 H   0  0  0  0  0  0  0  0  0  0  0  0
  145.3784  137.5633  154.6830 H   0  0  0  0  0  0  0  0  0  0  0  0
  144.5692  134.9080  154.5463 H   0  0  0  0  0  0  0  0  0  0  0  0
  143.4319  136.2344  154.3029 H   0  0  0  0  0  0  0  0  0  0  0  0
  144.5516  136.3562  150.7708 H   0  0  0  0  0  0  0  0  0  0  0  0
  146.9053  135.4452  150.7076 H   0  0  0  0  0  0  0  0  0  0  0  0
  145.7296  134.1659  150.9142 H   0  0  0  0  0  0  0  0  0  0  0  0
  146.6690  134.7204  152.2905 H   0  0  0  0  0  0  0  0  0  0  0  0
  151.9998  138.9940  156.6040 H   0  0  0  0  0  0  0  0  0  0  0  0
  152.8780  139.2011  158.1065 H   0  0  0  0  0  0  0  0  0  0  0  0
  153.3073  140.1599  156.7020 H   0  0  0  0  0  0  0  0  0  0  0  0
  149.8164  139.3918  157.7571 H   0  0  0  0  0  0  0  0  0  0  0  0
  149.5516  140.8172  158.7436 H   0  0  0  0  0  0  0  0  0  0  0  0
  150.6585  139.5714  159.2852 H   0  0  0  0  0  0  0  0  0  0  0  0
  1  2  1  0  0  0  0
  1 29  1  0  0  0  0
  1 30  1  0  0  0  0
  1 31  1  0  0  0  0
  2  3  1  0  0  0  0
  2 32  1  0  0  0  0
  2 33  1  0  0  0  0
  3  4  1  0  0  0  0
  4 26  1  0  0  0  0
  4  5  1  0  0  0  0
  4 34  1  0  0  0  0
  5  6  1  0  0  0  0
  5 35  1  0  0  0  0
  5 36  1  0  0  0  0
  6  7  1  0  0  0  0
  6 26  1  0  0  0  0
  6 37  1  0  0  0  0
  7  8  1  0  0  0  0
  7  9  1  0  0  0  0
  8 38  1  0  0  0  0
  8 39  1  0  0  0  0
  8 40  1  0  0  0  0
  9 14  1  0  0  0  0
  9 10  2  0  0  0  0
 10 11  1  0  0  0  0
 11 12  2  0  0  0  0
 11 41  1  0  0  0  0
 12 13  1  0  0  0  0
 13 17  1  0  0  0  0
 13 14  2  0  0  0  0
 14 15  1  0  0  0  0
 15 16  2  0  0  0  0
 16 17  1  0  0  0  0
 16 42  1  0  0  0  0
 17 18  1  0  0  0  0
 18 19  1  0  0  0  0
 18 43  1  0  0  0  0
 18 44  1  0  0  0  0
 19 24  1  0  0  0  0
 19 20  1  0  0  0  0
 19 21  1  0  0  0  0
 20 45  1  0  0  0  0
 21 22  1  0  0  0  0
 21 46  1  0  0  0  0
 21 47  1  0  0  0  0
 22 23  1  0  0  0  0
 22 48  1  0  0  0  0
 22 49  1  0  0  0  0
 23 24  1  0  0  0  0
 24 25  1  0  0  0  0
 24 50  1  0  0  0  0
 25 51  1  0  0  0  0
 25 52  1  0  0  0  0
 25 53  1  0  0  0  0
 26 27  1  0  0  0  0
 26 28  1  0  0  0  0
 27 54  1  0  0  0  0
 27 55  1  0  0  0  0
 27 56  1  0  0  0  0
 28 57  1  0  0  0  0
 28 58  1  0  0  0  0
 28 59  1  0  0  0  0
M  END
> <s_m_source_file>
AV-unprocessed.smi

> <i_m_source_file_index>
234

> <i_lp_mmshare_version>
43012

> <i_f3d_flags>
0

> <s_epik_input>
W0NIM11bQ0gyXU9bQ0BASF0oQzEoW0NIM10pW0NIM10pW0NIMl1bQ0BIXTFOKFtDSDNdKWMobltjSF1uMiljKGMyMyluW2NIXW4zW0NIMl1bQ0BAXTQoW09IXSlbQ0gyXVtDSDJdT1tDQEhdNFtDSDNd

> <s_epik_cmdline>
J2VwaWtfcHl0aG9uJywgJy1waCcsICc3LjAnLCAnLXRuJywgJzgnLCAnLW1hJywgJzIwMCcsICctbWV0YWxfYmluZGluZycsICctaW1hZScsICc8aW5maWxlLm1hZT4nLCAnLW9tYWUnLCAnPG91dGZpbGUubWFlPic=

> <r_lp_tautomer_probability>
1

> <r_epik_Ionization_Penalty>
0.00349132

> <r_epik_Ionization_Penalty_Charging>
0

> <r_epik_Ionization_Penalty_Neutral>
0.00349132

> <r_epik_State_Penalty>
0.00242418

> <r_epik_Charging_Adjusted_Penalty>
0.00242418

> <i_epik_Tot_Q>
0

> <i_epik_Tot_abs_Q>
0

> <r_epik_Metal_State_Penalty>
-0

> <b_epik_Metal_Only>
0

> <s_lp_Force_Field>
OPLS_2005

> <r_lp_Energy>
51.2497

> <b_lp_Chiralities_Consistent>
1

> <s_lp_Variant>
AV-unprocessed.smi:234-15

> <Gold.Version>
5.8.1

> <Gold.Id.Protein>
6NUR|6NUR_protein|mol2

> <Gold.PLP.Fitness>
40.4598

> <Gold.PLP.PLP>
-35.3089

> <Gold.PLP.part.hbond>
-2.1470

> <Gold.PLP.part.metal>
0.0000

> <Gold.PLP.part.buried>
3.4124

> <Gold.PLP.part.nonpolar>
-40.4259

> <Gold.PLP.part.repulsive>
4.2558

> <Gold.PLP.ligand.clash>
0.0000

> <Gold.PLP.ligand.torsion>
1.3472

> <Gold.PLP.Chemscore.Hbond>
1.2681

> <Gold.PLP.Chemscore.CHOScore>
0.9328

> <Gold.PLP.Chemscore.Metal>
0.0000

> <Gold.Chemscore.Hbonds>
donor molecule, donor type, donor heavy atom, donor atom, acceptor molecule, acceptor atom, score
      L1  H    20    45       P1 10171  1.00
      P1  H  7989  7998       L1    10  0.32
      L1  C    16    42       P1 10175  0.94

> <Gold.PLP.Chemscore.Internal.Correction>
1.2424

> <Gold.Rescore>
     Score         DG    S(hbond)    S(metal)    S(lipo)     H(rot)  DE(clash)    DE(int)     intcor
      5.58     -13.33       1.00        0.00      95.91       2.62       2.30       5.45       ----

> <Gold.Chemscore.Fitness>
5.5830

> <Gold.Chemscore.DG>
-13.3277

> <Gold.Chemscore.ZeroCoef>
-5.4800

> <Gold.Chemscore.Hbond>
0.9995

> <Gold.Chemscore.Metal>
0.0000

> <Gold.Chemscore.Lipo>
95.9111

> <Gold.Chemscore.Internal_Hbond>
0.0000

> <Gold.Chemscore.DEClash>
2.2963

> <Gold.Chemscore.DEInternal>
5.4484

> <Gold.Chemscore.Rot>
2.6219

> <Gold.Chemscore.Internal.Correction>
   9.000000E+99

> <Gold.Chemscore.Hbonds>
donor molecule, donor type, donor heavy atom, donor atom, acceptor molecule, acceptor atom, score
      L1  H    20    45       P1 10171  1.00

> <Gold.Chemscore.Hbond.Weighted>
-3.3382

> <Gold.Chemscore.Metal.Weighted>
-0.0000

> <Gold.Chemscore.Lipo.Weighted>
-11.2216

> <Gold.Chemscore.Internal_Hbond.Weighted>
0.0000

> <Gold.Chemscore.DEClash.Weighted>
2.2963

> <Gold.Chemscore.DEInternal.Weighted>
5.4484

> <Gold.Chemscore.Rot.Weighted>
6.7121

> <Gold.Chemscore.Internal.Correction.Weighted>
   9.000000E+99

> <Gold.Protein.RotatedTorsions>
[ 6907 6896 6895 6894 ] final  169.99 input  -60.11 | X-H torsion
[ 7974 7965 7964 7962 ] final  -11.47 input  175.53 | X-H torsion
[ 8008 7997 7996 7995 ] final  143.32 input   59.86 | X-H torsion
[ 10167 10162 10161 10158 ] final   74.39 input  -65.29 | X-H torsion
[ 10718 10713 10712 10709 ] final   97.89 input   66.30 | X-H torsion
[ 10763 10752 10751 10750 ] final  119.21 input  -60.55 | X-H torsion
[ 11005 11000 10999 10996 ] final  -29.43 input  -57.11 | X-H torsion

> <Gold.Protein.ActiveResidues>
 VAL166  LYS551  ARG553  GLY616  TRP617  ASP618  TYR619  PRO620  LYS621  CYS622 
 ASP623  PHE694  ASN695  SER759  ASP760  ASP761  ALA762  ILE779  LEU786  VAL792 
 PHE793  MET794  SER795  GLU796  ALA797  LYS798  CYS799  TRP800  GLU811  SER814 

> <Gold.Protein.RotatedAtoms>
  151.8231  133.3397  159.3590 H   0  0  0  0  0  0  0  0  0  0  0  0  # atno 6907 bound_to 6896
  150.7288  134.5554  159.5825 H   0  0  0  0  0  0  0  0  0  0  0  0  # atno 6908 bound_to 6896
  152.2991  134.7633  160.0413 H   0  0  0  0  0  0  0  0  0  0  0  0  # atno 6909 bound_to 6896
  146.2186  140.2916  142.8369 H   0  0  0  0  0  0  0  0  0  0  0  0  # atno 7974 bound_to 7965
  156.2932  140.2265  156.4871 H   0  0  0  0  0  0  0  0  0  0  0  0  # atno 8008 bound_to 7997
  154.7802  140.0461  157.1142 H   0  0  0  0  0  0  0  0  0  0  0  0  # atno 8009 bound_to 7997
  154.9767  140.3073  155.4967 H   0  0  0  0  0  0  0  0  0  0  0  0  # atno 8010 bound_to 7997
  140.0142  144.5590  150.7634 H   0  0  0  0  0  0  0  0  0  0  0  0  # atno 10167 bound_to 10162
  157.6905  131.0623  150.4712 H   0  0  0  0  0  0  0  0  0  0  0  0  # atno 10718 bound_to 10713
  153.5795  135.3486  155.2869 H   0  0  0  0  0  0  0  0  0  0  0  0  # atno 10763 bound_to 10752
  154.8670  135.4179  154.2636 H   0  0  0  0  0  0  0  0  0  0  0  0  # atno 10764 bound_to 10752
  153.3419  135.7050  153.6930 H   0  0  0  0  0  0  0  0  0  0  0  0  # atno 10765 bound_to 10752
  140.9295  133.7347  156.0916 H   0  0  0  0  0  0  0  0  0  0  0  0  # atno 11005 bound_to 11000
  144.9122  140.7771  143.5800 LP  0  0  0  0  0  0  0  0  0  0  0  0  # atno 17320 bound_to 7965
  145.2848  139.1905  143.4772 LP  0  0  0  0  0  0  0  0  0  0  0  0  # atno 17321 bound_to 7965
  140.7369  143.2759  151.3745 LP  0  0  0  0  0  0  0  0  0  0  0  0  # atno 17342 bound_to 10162
  139.6184  144.0957  152.2367 LP  0  0  0  0  0  0  0  0  0  0  0  0  # atno 17343 bound_to 10162
  156.5050  130.4126  149.6332 LP  0  0  0  0  0  0  0  0  0  0  0  0  # atno 17370 bound_to 10713
  156.3293  130.7323  151.2249 LP  0  0  0  0  0  0  0  0  0  0  0  0  # atno 17371 bound_to 10713
  140.7881  134.3649  157.5471 LP  0  0  0  0  0  0  0  0  0  0  0  0  # atno 17394 bound_to 11000
  139.8793  134.9123  156.3057 LP  0  0  0  0  0  0  0  0  0  0  0  0  # atno 17395 bound_to 11000

$$$$
