AV-unprocessed.smi:2305|AV-procd|sdf|9247|dock1
  -GOLD-   2272012463D 1   1.00000     0.00000
 Structure written by MMmdl.
 40 41  0  0  0  0  0  0  0  0  1 V2000
  152.0306  143.8777  160.1974 C   0  0  0  0  0  0  0  0  0  0  0  0
  151.8690  142.8940  159.0521 C   0  0  0  0  0  0  0  0  0  0  0  0
  151.0811  143.3338  157.9850 N   0  0  0  0  0  0  0  0  0  0  0  0
  150.8958  142.5671  156.9608 C   0  0  0  0  0  0  0  0  0  0  0  0
  151.4692  141.2860  156.8833 N   0  0  0  0  0  0  0  0  0  0  0  0
  151.1877  140.5087  155.6621 C   0  0  0  0  0  0  0  0  0  0  0  0
  149.7710  140.7572  155.0937 C   0  0  1  0  0  0  0  0  0  0  0  0
  149.5792  139.8639  154.0160 O   0  0  0  0  0  0  0  0  0  0  0  0
  148.6399  140.5491  156.1215 C   0  0  0  0  0  0  0  0  0  0  0  0
  147.4656  141.4848  155.8973 C   0  0  0  0  0  0  0  0  0  0  0  0
  147.2628  142.0734  154.6323 C   0  0  0  0  0  0  0  0  0  0  0  0
  146.1736  142.9403  154.4196 C   0  0  0  0  0  0  0  0  0  0  0  0
  145.2775  143.2307  155.4720 C   0  0  0  0  0  0  0  0  0  0  0  0
  144.0926  144.1618  155.2613 C   0  0  0  0  0  0  0  0  0  0  0  0
  142.9616  143.4643  155.3616 F   0  0  0  0  0  0  0  0  0  0  0  0
  144.0930  145.1159  156.1925 F   0  0  0  0  0  0  0  0  0  0  0  0
  144.1285  144.7461  154.0630 F   0  0  0  0  0  0  0  0  0  0  0  0
  145.4820  142.6367  156.7357 C   0  0  0  0  0  0  0  0  0  0  0  0
  146.5707  141.7692  156.9490 C   0  0  0  0  0  0  0  0  0  0  0  0
  152.2333  140.7720  157.8904 C   0  0  0  0  0  0  0  0  0  0  0  0
  152.7114  139.6379  157.8258 O   0  0  0  0  0  0  0  0  0  0  0  0
  152.4453  141.6612  159.0440 C   0  0  0  0  0  0  0  0  0  0  0  0
  153.3181  141.1306  160.1744 C   0  0  0  0  0  0  0  0  0  0  0  0
  151.6671  143.4438  161.1291 H   0  0  0  0  0  0  0  0  0  0  0  0
  151.4688  144.7946  160.0158 H   0  0  0  0  0  0  0  0  0  0  0  0
  153.0793  144.1477  160.3233 H   0  0  0  0  0  0  0  0  0  0  0  0
  150.2940  142.8683  156.1018 H   0  0  0  0  0  0  0  0  0  0  0  0
  151.9322  140.7696  154.9070 H   0  0  0  0  0  0  0  0  0  0  0  0
  151.3282  139.4382  155.8257 H   0  0  0  0  0  0  0  0  0  0  0  0
  149.7191  141.7710  154.6961 H   0  0  0  0  0  0  0  0  0  0  0  0
  149.9119  140.2690  153.2293 H   0  0  0  0  0  0  0  0  0  0  0  0
  148.3044  139.5109  156.1203 H   0  0  0  0  0  0  0  0  0  0  0  0
  149.0056  140.7445  157.1291 H   0  0  0  0  0  0  0  0  0  0  0  0
  147.9421  141.8586  153.8198 H   0  0  0  0  0  0  0  0  0  0  0  0
  146.0333  143.3778  153.4424 H   0  0  0  0  0  0  0  0  0  0  0  0
  144.8002  142.8462  157.5468 H   0  0  0  0  0  0  0  0  0  0  0  0
  146.7143  141.3212  157.9215 H   0  0  0  0  0  0  0  0  0  0  0  0
  154.3127  140.8880  159.7991 H   0  0  0  0  0  0  0  0  0  0  0  0
  152.8830  140.2218  160.5913 H   0  0  0  0  0  0  0  0  0  0  0  0
  153.4408  141.8399  160.9911 H   0  0  0  0  0  0  0  0  0  0  0  0
  1  2  1  0  0  0  0
  1 24  1  0  0  0  0
  1 25  1  0  0  0  0
  1 26  1  0  0  0  0
  2 22  2  0  0  0  0
  2  3  1  0  0  0  0
  3  4  2  0  0  0  0
  4  5  1  0  0  0  0
  4 27  1  0  0  0  0
  5  6  1  0  0  0  0
  5 20  1  0  0  0  0
  6  7  1  0  0  0  0
  6 28  1  0  0  0  0
  6 29  1  0  0  0  0
  7  8  1  0  0  0  0
  7  9  1  0  0  0  0
  7 30  1  0  0  0  0
  8 31  1  0  0  0  0
  9 10  1  0  0  0  0
  9 32  1  0  0  0  0
  9 33  1  0  0  0  0
 10 19  1  0  0  0  0
 10 11  2  0  0  0  0
 11 12  1  0  0  0  0
 11 34  1  0  0  0  0
 12 13  2  0  0  0  0
 12 35  1  0  0  0  0
 13 14  1  0  0  0  0
 13 18  1  0  0  0  0
 14 15  1  0  0  0  0
 14 16  1  0  0  0  0
 14 17  1  0  0  0  0
 18 19  2  0  0  0  0
 18 36  1  0  0  0  0
 19 37  1  0  0  0  0
 20 21  2  0  0  0  0
 20 22  1  0  0  0  0
 22 23  1  0  0  0  0
 23 38  1  0  0  0  0
 23 39  1  0  0  0  0
 23 40  1  0  0  0  0
M  END
> <s_m_source_file>
AV-unprocessed.smi

> <i_m_source_file_index>
2305

> <i_lp_mmshare_version>
43012

> <i_f3d_flags>
0

> <s_epik_input>
W0NIM11jMW5bY0hdbihjKD1PKWMxW0NIM10pW0NIMl1bQ0BIXShbT0hdKVtDSDJdYzJbY0hdW2NIXWMoQyhGKShGKUYpW2NIXVtjSF0y

> <s_epik_cmdline>
J2VwaWtfcHl0aG9uJywgJy1waCcsICc3LjAnLCAnLXRuJywgJzgnLCAnLW1hJywgJzIwMCcsICctbWV0YWxfYmluZGluZycsICctaW1hZScsICc8aW5maWxlLm1hZT4nLCAnLW9tYWUnLCAnPG91dGZpbGUubWFlPic=

> <r_lp_tautomer_probability>
1

> <r_epik_Ionization_Penalty>
8.92636e-05

> <r_epik_Ionization_Penalty_Charging>
8.63033e-08

> <r_epik_Ionization_Penalty_Neutral>
8.91773e-05

> <r_epik_State_Penalty>
-0

> <r_epik_Charging_Adjusted_Penalty>
8.63033e-08

> <i_epik_Tot_Q>
0

> <i_epik_Tot_abs_Q>
0

> <r_epik_Metal_State_Penalty>
-0

> <b_epik_Metal_Only>
0

> <s_lp_Force_Field>
OPLS_2005

> <r_lp_Energy>
18.7292

> <b_lp_Chiralities_Consistent>
1

> <s_lp_Variant>
AV-unprocessed.smi:2305-2

> <Gold.Version>
5.8.1

> <Gold.Id.Protein>
6NUR|6NUR_protein|mol2

> <Gold.PLP.Fitness>
49.6549

> <Gold.PLP.PLP>
-43.6047

> <Gold.PLP.part.hbond>
-2.3124

> <Gold.PLP.part.metal>
0.0000

> <Gold.PLP.part.buried>
-3.9762

> <Gold.PLP.part.nonpolar>
-36.6111

> <Gold.PLP.part.repulsive>
0.1370

> <Gold.PLP.ligand.clash>
0.0000

> <Gold.PLP.ligand.torsion>
1.2600

> <Gold.PLP.Chemscore.Hbond>
1.7564

> <Gold.PLP.Chemscore.CHOScore>
1.0000

> <Gold.PLP.Chemscore.Metal>
0.0000

> <Gold.Chemscore.Hbonds>
donor molecule, donor type, donor heavy atom, donor atom, acceptor molecule, acceptor atom, score
      L1  H     8    31       P1  7957  0.61
      P1  H  7997  8010       L1    21  0.91
      L1  C     4    27       P1  8028  1.00

> <Gold.PLP.Chemscore.Internal.Correction>
0.3009

> <Gold.Rescore>
     Score         DG    S(hbond)    S(metal)    S(lipo)     H(rot)  DE(clash)    DE(int)     intcor
     10.86     -13.45       1.12        0.00      87.88       2.37       0.35       2.24       ----

> <Gold.Chemscore.Fitness>
10.8645

> <Gold.Chemscore.DG>
-13.4480

> <Gold.Chemscore.ZeroCoef>
-5.4800

> <Gold.Chemscore.Hbond>
1.1223

> <Gold.Chemscore.Metal>
0.0000

> <Gold.Chemscore.Lipo>
87.8807

> <Gold.Chemscore.Internal_Hbond>
0.0000

> <Gold.Chemscore.DEClash>
0.3480

> <Gold.Chemscore.DEInternal>
2.2355

> <Gold.Chemscore.Rot>
2.3681

> <Gold.Chemscore.Internal.Correction>
   9.000000E+99

> <Gold.Chemscore.Hbonds>
donor molecule, donor type, donor heavy atom, donor atom, acceptor molecule, acceptor atom, score
      L1  H     8    31       P1  7957  0.61
      P1  H  7997  8010       L1    21  0.26

> <Gold.Chemscore.Hbond.Weighted>
-3.7484

> <Gold.Chemscore.Metal.Weighted>
-0.0000

> <Gold.Chemscore.Lipo.Weighted>
-10.2820

> <Gold.Chemscore.Internal_Hbond.Weighted>
0.0000

> <Gold.Chemscore.DEClash.Weighted>
0.3480

> <Gold.Chemscore.DEInternal.Weighted>
2.2355

> <Gold.Chemscore.Rot.Weighted>
6.0624

> <Gold.Chemscore.Internal.Correction.Weighted>
   9.000000E+99

> <Gold.Protein.RotatedTorsions>
[ 6907 6896 6895 6894 ] final  -50.38 input  -60.11 | X-H torsion
[ 7974 7965 7964 7962 ] final  143.22 input  175.53 | X-H torsion
[ 8008 7997 7996 7995 ] final   38.07 input   59.86 | X-H torsion
[ 10167 10162 10161 10158 ] final  -37.74 input  -65.29 | X-H torsion
[ 10718 10713 10712 10709 ] final  -72.71 input   66.30 | X-H torsion
[ 10763 10752 10751 10750 ] final  164.12 input  -60.55 | X-H torsion
[ 11005 11000 10999 10996 ] final  -99.60 input  -57.11 | X-H torsion

> <Gold.Protein.ActiveResidues>
 VAL166  LYS551  ARG553  GLY616  TRP617  ASP618  TYR619  PRO620  LYS621  CYS622 
 ASP623  PHE694  ASN695  SER759  ASP760  ASP761  ALA762  ILE779  LEU786  VAL792 
 PHE793  MET794  SER795  GLU796  ALA797  LYS798  CYS799  TRP800  GLU811  SER814 

> <Gold.Protein.RotatedAtoms>
  150.8713  134.8087  159.7156 H   0  0  0  0  0  0  0  0  0  0  0  0  # atno 6907 bound_to 6896
  152.4716  134.4942  159.9714 H   0  0  0  0  0  0  0  0  0  0  0  0  # atno 6908 bound_to 6896
  151.5030  133.3462  159.2907 H   0  0  0  0  0  0  0  0  0  0  0  0  # atno 6909 bound_to 6896
  144.8940  139.5518  143.5785 H   0  0  0  0  0  0  0  0  0  0  0  0  # atno 7974 bound_to 7965
  155.2141  140.3326  155.4324 H   0  0  0  0  0  0  0  0  0  0  0  0  # atno 8008 bound_to 7997
  156.2359  140.1872  156.7168 H   0  0  0  0  0  0  0  0  0  0  0  0  # atno 8009 bound_to 7997
  154.6059  140.0616  156.9415 H   0  0  0  0  0  0  0  0  0  0  0  0  # atno 8010 bound_to 7997
  140.7110  143.3322  151.2543 H   0  0  0  0  0  0  0  0  0  0  0  0  # atno 10167 bound_to 10162
  156.0309  130.4378  150.2633 H   0  0  0  0  0  0  0  0  0  0  0  0  # atno 10718 bound_to 10713
  154.3041  135.2758  155.2597 H   0  0  0  0  0  0  0  0  0  0  0  0  # atno 10763 bound_to 10752
  154.5021  135.5805  153.6542 H   0  0  0  0  0  0  0  0  0  0  0  0  # atno 10764 bound_to 10752
  152.9896  135.6160  154.3214 H   0  0  0  0  0  0  0  0  0  0  0  0  # atno 10765 bound_to 10752
  141.1302  133.8334  157.0992 H   0  0  0  0  0  0  0  0  0  0  0  0  # atno 11005 bound_to 11000
  146.3070  139.7615  142.9048 LP  0  0  0  0  0  0  0  0  0  0  0  0  # atno 17320 bound_to 7965
  145.3733  141.0346  143.3219 LP  0  0  0  0  0  0  0  0  0  0  0  0  # atno 17321 bound_to 7965
  139.6807  143.9859  152.2807 LP  0  0  0  0  0  0  0  0  0  0  0  0  # atno 17342 bound_to 10162
  139.9488  144.6634  150.8192 LP  0  0  0  0  0  0  0  0  0  0  0  0  # atno 17343 bound_to 10162
  157.0735  131.0123  151.3182 LP  0  0  0  0  0  0  0  0  0  0  0  0  # atno 17370 bound_to 10713
  157.4981  130.7863  149.7576 LP  0  0  0  0  0  0  0  0  0  0  0  0  # atno 17371 bound_to 10713
  140.0344  134.9885  157.0842 LP  0  0  0  0  0  0  0  0  0  0  0  0  # atno 17394 bound_to 11000
  140.4234  134.1856  155.7165 LP  0  0  0  0  0  0  0  0  0  0  0  0  # atno 17395 bound_to 11000

$$$$
