AV-unprocessed.smi:451|AV-procd|sdf|2609|dock3
  -GOLD-   2262023 03D 1   1.00000     0.00000
 Structure written by MMmdl.
 38 38  0  0  0  0  0  0  0  0  1 V2000
  147.2714  141.7865  153.9669 C   0  0  0  0  0  0  0  0  0  0  0  0
  148.1622  141.4351  155.1657 C   0  0  0  0  0  0  0  0  0  0  0  0
  149.4511  142.2752  155.2727 C   0  0  0  0  0  0  0  0  0  0  0  0
  150.4823  141.6721  156.0988 N   0  0  0  0  0  0  0  0  0  0  0  0
  151.0036  142.2891  157.2398 C   0  0  0  0  0  0  0  0  0  0  0  0
  150.5187  143.5431  157.5790 N   0  0  0  0  0  0  0  0  0  0  0  0
  151.9698  141.7007  158.0051 C   0  0  0  0  0  0  0  0  0  0  0  0
  152.4998  142.2845  159.1548 N   0  0  0  0  0  0  0  0  0  0  0  0
  152.0477  143.5887  159.6250 C   0  0  0  0  0  0  0  0  0  0  0  0
  153.6085  141.6797  159.8893 C   0  0  0  0  0  0  0  0  0  0  0  0
  153.5521  141.9954  161.3955 C   0  0  0  0  0  0  0  0  0  0  0  0
  154.7553  141.6354  162.0601 O   0  0  0  0  0  0  0  0  0  0  0  0
  155.0182  140.2408  162.0751 C   0  0  0  0  0  0  0  0  0  0  0  0
  152.4908  140.3751  157.6476 C   0  0  0  0  0  0  0  0  0  0  0  0
  153.3497  139.7483  158.2676 O   0  0  0  0  0  0  0  0  0  0  0  0
  151.9301  139.8100  156.5054 N   0  0  0  0  0  0  0  0  0  0  0  0
  150.9466  140.3907  155.7134 C   0  0  0  0  0  0  0  0  0  0  0  0
  150.5236  139.7749  154.7345 O   0  0  0  0  0  0  0  0  0  0  0  0
  152.2621  138.8964  156.2332 H   0  0  0  0  0  0  0  0  0  0  0  0
  146.3479  141.2076  153.9891 H   0  0  0  0  0  0  0  0  0  0  0  0
  147.7703  141.5709  153.0220 H   0  0  0  0  0  0  0  0  0  0  0  0
  147.0019  142.8431  153.9730 H   0  0  0  0  0  0  0  0  0  0  0  0
  147.5843  141.5717  156.0802 H   0  0  0  0  0  0  0  0  0  0  0  0
  148.4125  140.3748  155.1267 H   0  0  0  0  0  0  0  0  0  0  0  0
  149.8659  142.5048  154.2905 H   0  0  0  0  0  0  0  0  0  0  0  0
  149.2434  143.2481  155.7186 H   0  0  0  0  0  0  0  0  0  0  0  0
  149.8112  144.0036  157.0249 H   0  0  0  0  0  0  0  0  0  0  0  0
  150.8373  144.0348  158.4015 H   0  0  0  0  0  0  0  0  0  0  0  0
  151.0535  143.8158  159.2380 H   0  0  0  0  0  0  0  0  0  0  0  0
  152.7253  144.3766  159.2964 H   0  0  0  0  0  0  0  0  0  0  0  0
  151.9932  143.6154  160.7138 H   0  0  0  0  0  0  0  0  0  0  0  0
  153.5947  140.6003  159.7340 H   0  0  0  0  0  0  0  0  0  0  0  0
  154.5509  142.0325  159.4710 H   0  0  0  0  0  0  0  0  0  0  0  0
  153.3147  143.0464  161.5678 H   0  0  0  0  0  0  0  0  0  0  0  0
  152.7520  141.4185  161.8589 H   0  0  0  0  0  0  0  0  0  0  0  0
  155.9906  140.0619  162.5339 H   0  0  0  0  0  0  0  0  0  0  0  0
  155.0463  139.8313  161.0646 H   0  0  0  0  0  0  0  0  0  0  0  0
  154.2762  139.6929  162.6551 H   0  0  0  0  0  0  0  0  0  0  0  0
  1  2  1  0  0  0  0
  1 20  1  0  0  0  0
  1 21  1  0  0  0  0
  1 22  1  0  0  0  0
  2  3  1  0  0  0  0
  2 23  1  0  0  0  0
  2 24  1  0  0  0  0
  3  4  1  0  0  0  0
  3 25  1  0  0  0  0
  3 26  1  0  0  0  0
  4 17  1  0  0  0  0
  4  5  1  0  0  0  0
  5  6  1  0  0  0  0
  5  7  2  0  0  0  0
  6 27  1  0  0  0  0
  6 28  1  0  0  0  0
  7  8  1  0  0  0  0
  7 14  1  0  0  0  0
  8  9  1  0  0  0  0
  8 10  1  0  0  0  0
  9 29  1  0  0  0  0
  9 30  1  0  0  0  0
  9 31  1  0  0  0  0
 10 11  1  0  0  0  0
 10 32  1  0  0  0  0
 10 33  1  0  0  0  0
 11 12  1  0  0  0  0
 11 34  1  0  0  0  0
 11 35  1  0  0  0  0
 12 13  1  0  0  0  0
 13 36  1  0  0  0  0
 13 37  1  0  0  0  0
 13 38  1  0  0  0  0
 14 15  2  0  0  0  0
 14 16  1  0  0  0  0
 16 19  1  0  0  0  0
 16 17  1  0  0  0  0
 17 18  2  0  0  0  0
M  END
> <s_m_source_file>
AV-unprocessed.smi

> <i_m_source_file_index>
451

> <i_lp_mmshare_version>
43012

> <i_f3d_flags>
0

> <s_epik_input>
W0NIM11bQ0gyXVtDSDJdbjFjKFtOSDJdKWMoYyg9TylbbkhdYzE9TylOKFtDSDNdKVtDSDJdW0NIMl1PW0NIM10=

> <s_epik_cmdline>
J2VwaWtfcHl0aG9uJywgJy1waCcsICc3LjAnLCAnLXRuJywgJzgnLCAnLW1hJywgJzIwMCcsICctbWV0YWxfYmluZGluZycsICctaW1hZScsICc8aW5maWxlLm1hZT4nLCAnLW9tYWUnLCAnPG91dGZpbGUubWFlPic=

> <r_lp_tautomer_probability>
1

> <r_epik_Ionization_Penalty>
2.19941e-05

> <r_epik_Ionization_Penalty_Charging>
2.62604e-06

> <r_epik_Ionization_Penalty_Neutral>
1.93681e-05

> <r_epik_State_Penalty>
-0

> <r_epik_Charging_Adjusted_Penalty>
2.62604e-06

> <i_epik_Tot_Q>
0

> <i_epik_Tot_abs_Q>
0

> <r_epik_Metal_State_Penalty>
-0

> <b_epik_Metal_Only>
0

> <s_epik_Chemistry_Notes>
This compound has an imine and may undergo hydrolysis.

> <s_lp_Force_Field>
OPLS_2005

> <r_lp_Energy>
22.0879

> <b_lp_Chiralities_Consistent>
1

> <s_lp_Variant>
AV-unprocessed.smi:451-1

> <Gold.Version>
5.8.1

> <Gold.Id.Protein>
6NUR|6NUR_protein|mol2

> <Gold.PLP.Fitness>
44.4822

> <Gold.PLP.PLP>
-37.3129

> <Gold.PLP.part.hbond>
-4.0000

> <Gold.PLP.part.metal>
0.0000

> <Gold.PLP.part.buried>
0.7952

> <Gold.PLP.part.nonpolar>
-32.5729

> <Gold.PLP.part.repulsive>
0.2255

> <Gold.PLP.ligand.clash>
21.2512

> <Gold.PLP.ligand.torsion>
0.5021

> <Gold.PLP.Chemscore.Hbond>
2.7000

> <Gold.PLP.Chemscore.CHOScore>
0.0000

> <Gold.PLP.Chemscore.Metal>
0.0000

> <Gold.Chemscore.Hbonds>
donor molecule, donor type, donor heavy atom, donor atom, acceptor molecule, acceptor atom, score
      L1  H     6    27       P1  8028  1.00
      P1  H  7989  7998       L1    18  0.60
      P1  H  7997  8009       L1    15  1.00

> <Gold.PLP.Chemscore.Internal.Correction>
21.3246

> <Gold.Rescore>
     Score         DG    S(hbond)    S(metal)    S(lipo)     H(rot)  DE(clash)    DE(int)     intcor
      5.82     -12.81       1.33        0.00      68.44       2.00       2.85       4.14       ----

> <Gold.Chemscore.Fitness>
5.8192

> <Gold.Chemscore.DG>
-12.8086

> <Gold.Chemscore.ZeroCoef>
-5.4800

> <Gold.Chemscore.Hbond>
1.3321

> <Gold.Chemscore.Metal>
0.0000

> <Gold.Chemscore.Lipo>
68.4372

> <Gold.Chemscore.Internal_Hbond>
0.0000

> <Gold.Chemscore.DEClash>
2.8513

> <Gold.Chemscore.DEInternal>
4.1382

> <Gold.Chemscore.Rot>
2.0031

> <Gold.Chemscore.Internal.Correction>
   9.000000E+99

> <Gold.Chemscore.Hbonds>
donor molecule, donor type, donor heavy atom, donor atom, acceptor molecule, acceptor atom, score
      L1  H     6    27       P1  8028  0.85
      P1  H  7989  7998       L1    18  0.04
      P1  H  7997  8009       L1    15  0.28

> <Gold.Chemscore.Hbond.Weighted>
-4.4493

> <Gold.Chemscore.Metal.Weighted>
-0.0000

> <Gold.Chemscore.Lipo.Weighted>
-8.0072

> <Gold.Chemscore.Internal_Hbond.Weighted>
0.0000

> <Gold.Chemscore.DEClash.Weighted>
2.8513

> <Gold.Chemscore.DEInternal.Weighted>
4.1382

> <Gold.Chemscore.Rot.Weighted>
5.1278

> <Gold.Chemscore.Internal.Correction.Weighted>
   9.000000E+99

> <Gold.Protein.RotatedTorsions>
[ 6907 6896 6895 6894 ] final   56.02 input  -60.11 | X-H torsion
[ 7974 7965 7964 7962 ] final  146.02 input  175.53 | X-H torsion
[ 8008 7997 7996 7995 ] final  136.22 input   59.86 | X-H torsion
[ 10167 10162 10161 10158 ] final   73.76 input  -65.29 | X-H torsion
[ 10718 10713 10712 10709 ] final   90.38 input   66.30 | X-H torsion
[ 10763 10752 10751 10750 ] final  -97.45 input  -60.55 | X-H torsion
[ 11005 11000 10999 10996 ] final  163.08 input  -57.11 | X-H torsion

> <Gold.Protein.ActiveResidues>
 VAL166  LYS551  ARG553  GLY616  TRP617  ASP618  TYR619  PRO620  LYS621  CYS622 
 ASP623  PHE694  ASN695  SER759  ASP760  ASP761  ALA762  ILE779  LEU786  VAL792 
 PHE793  MET794  SER795  GLU796  ALA797  LYS798  CYS799  TRP800  GLU811  SER814 

> <Gold.Protein.RotatedAtoms>
  152.3595  134.6892  160.0211 H   0  0  0  0  0  0  0  0  0  0  0  0  # atno 6907 bound_to 6896
  151.7219  133.3309  159.3325 H   0  0  0  0  0  0  0  0  0  0  0  0  # atno 6908 bound_to 6896
  150.7595  134.6374  159.6263 H   0  0  0  0  0  0  0  0  0  0  0  0  # atno 6909 bound_to 6896
  144.8705  139.5854  143.5889 H   0  0  0  0  0  0  0  0  0  0  0  0  # atno 7974 bound_to 7965
  156.3004  140.2450  156.3710 H   0  0  0  0  0  0  0  0  0  0  0  0  # atno 8008 bound_to 7997
  154.8789  140.0413  157.1790 H   0  0  0  0  0  0  0  0  0  0  0  0  # atno 8009 bound_to 7997
  154.8717  140.2936  155.5481 H   0  0  0  0  0  0  0  0  0  0  0  0  # atno 8010 bound_to 7997
  140.0210  144.5540  150.7582 H   0  0  0  0  0  0  0  0  0  0  0  0  # atno 10167 bound_to 10162
  157.6959  131.0368  150.3569 H   0  0  0  0  0  0  0  0  0  0  0  0  # atno 10718 bound_to 10713
  154.7329  135.5046  153.8994 H   0  0  0  0  0  0  0  0  0  0  0  0  # atno 10763 bound_to 10752
  153.0967  135.6674  153.9758 H   0  0  0  0  0  0  0  0  0  0  0  0  # atno 10764 bound_to 10752
  153.9555  135.3053  155.3415 H   0  0  0  0  0  0  0  0  0  0  0  0  # atno 10765 bound_to 10752
  140.2322  134.8115  157.3328 H   0  0  0  0  0  0  0  0  0  0  0  0  # atno 11005 bound_to 11000
  146.2927  139.7185  142.9149 LP  0  0  0  0  0  0  0  0  0  0  0  0  # atno 17320 bound_to 7965
  145.4139  141.0399  143.3001 LP  0  0  0  0  0  0  0  0  0  0  0  0  # atno 17321 bound_to 7965
  140.7342  143.2726  151.3839 LP  0  0  0  0  0  0  0  0  0  0  0  0  # atno 17342 bound_to 10162
  139.6140  144.1041  152.2327 LP  0  0  0  0  0  0  0  0  0  0  0  0  # atno 17343 bound_to 10162
  156.4010  130.3916  149.6960 LP  0  0  0  0  0  0  0  0  0  0  0  0  # atno 17370 bound_to 10713
  156.4277  130.7800  151.2819 LP  0  0  0  0  0  0  0  0  0  0  0  0  # atno 17371 bound_to 10713
  140.1739  134.4574  155.7814 LP  0  0  0  0  0  0  0  0  0  0  0  0  # atno 17394 bound_to 11000
  141.2217  133.6953  156.7754 LP  0  0  0  0  0  0  0  0  0  0  0  0  # atno 17395 bound_to 11000

$$$$
