AV-unprocessed.smi:2086|AV-procd|sdf|8518|dock4
  -GOLD-   2272011233D 1   1.00000     0.00000
 Structure written by MMmdl.
 34 35  0  0  0  0  0  0  0  0  1 V2000
  150.8813  140.6097  157.8989 O   0  0  0  0  0  0  0  0  0  0  0  0
  150.2240  141.4320  157.2611 C   0  0  0  0  0  0  0  0  0  0  0  0
  150.0649  142.7095  157.6417 N   0  0  0  0  0  0  0  0  0  0  0  0
  150.5944  143.2973  158.8672 C   0  0  0  0  0  0  0  0  0  0  0  0
  151.8710  144.1157  158.6114 C   0  0  0  0  0  0  0  0  0  0  0  0
  151.9235  144.4502  157.3228 F   0  0  0  0  0  0  0  0  0  0  0  0
  151.8763  145.2315  159.3406 F   0  0  0  0  0  0  0  0  0  0  0  0
  152.9501  143.3917  158.9089 F   0  0  0  0  0  0  0  0  0  0  0  0
  149.5985  141.0552  155.9433 C   0  0  0  0  0  0  0  0  0  0  0  0
  148.7061  141.9676  155.3370 C   0  0  0  0  0  0  0  0  0  0  0  0
  148.1014  141.6395  154.1108 C   0  0  0  0  0  0  0  0  0  0  0  0
  148.4179  140.4028  153.5241 C   0  0  0  0  0  0  0  0  0  0  0  0
  149.2812  139.5261  154.0750 N   0  0  0  0  0  0  0  0  0  0  0  0
  149.8760  139.8350  155.2542 C   0  0  0  0  0  0  0  0  0  0  0  0
  150.8186  138.9063  155.7399 N   0  0  0  0  0  0  0  0  0  0  0  0
  152.0820  138.9093  155.0132 C   0  0  0  0  0  0  0  0  0  0  0  0
  153.1316  138.0970  155.7907 C   0  0  0  0  0  0  0  0  0  0  0  0
  152.6388  136.7813  156.0306 O   0  0  0  0  0  0  0  0  0  0  0  0
  151.4412  136.7876  156.8032 C   0  0  0  0  0  0  0  0  0  0  0  0
  150.3454  137.5619  156.0508 C   0  0  0  0  0  0  0  0  0  0  0  0
  149.5302  143.3182  157.0392 H   0  0  0  0  0  0  0  0  0  0  0  0
  149.8220  143.9443  159.2840 H   0  0  0  0  0  0  0  0  0  0  0  0
  150.7806  142.5233  159.6137 H   0  0  0  0  0  0  0  0  0  0  0  0
  148.4729  142.9102  155.8113 H   0  0  0  0  0  0  0  0  0  0  0  0
  147.4096  142.3181  153.6341 H   0  0  0  0  0  0  0  0  0  0  0  0
  147.9728  140.1118  152.5842 H   0  0  0  0  0  0  0  0  0  0  0  0
  151.9266  138.4730  154.0255 H   0  0  0  0  0  0  0  0  0  0  0  0
  152.4397  139.9275  154.8591 H   0  0  0  0  0  0  0  0  0  0  0  0
  154.0567  138.0316  155.2180 H   0  0  0  0  0  0  0  0  0  0  0  0
  153.3750  138.5838  156.7368 H   0  0  0  0  0  0  0  0  0  0  0  0
  151.1240  135.7594  156.9769 H   0  0  0  0  0  0  0  0  0  0  0  0
  151.6300  137.2332  157.7812 H   0  0  0  0  0  0  0  0  0  0  0  0
  149.4408  137.6170  156.6576 H   0  0  0  0  0  0  0  0  0  0  0  0
  150.0897  137.0378  155.1288 H   0  0  0  0  0  0  0  0  0  0  0  0
  1  2  2  0  0  0  0
  2  3  1  0  0  0  0
  2  9  1  0  0  0  0
  3  4  1  0  0  0  0
  3 21  1  0  0  0  0
  4  5  1  0  0  0  0
  4 22  1  0  0  0  0
  4 23  1  0  0  0  0
  5  6  1  0  0  0  0
  5  7  1  0  0  0  0
  5  8  1  0  0  0  0
  9 14  1  0  0  0  0
  9 10  2  0  0  0  0
 10 11  1  0  0  0  0
 10 24  1  0  0  0  0
 11 12  2  0  0  0  0
 11 25  1  0  0  0  0
 12 13  1  0  0  0  0
 12 26  1  0  0  0  0
 13 14  2  0  0  0  0
 14 15  1  0  0  0  0
 15 20  1  0  0  0  0
 15 16  1  0  0  0  0
 16 17  1  0  0  0  0
 16 27  1  0  0  0  0
 16 28  1  0  0  0  0
 17 18  1  0  0  0  0
 17 29  1  0  0  0  0
 17 30  1  0  0  0  0
 18 19  1  0  0  0  0
 19 20  1  0  0  0  0
 19 31  1  0  0  0  0
 19 32  1  0  0  0  0
 20 33  1  0  0  0  0
 20 34  1  0  0  0  0
M  END
> <s_m_source_file>
AV-unprocessed.smi

> <i_m_source_file_index>
2086

> <i_lp_mmshare_version>
43012

> <i_f3d_flags>
0

> <s_epik_input>
RkMoRikoRilbQ0gyXVtOSF1DKD1PKWMxW2NIXVtjSF1bY0hdbmMxTjJbQ0gyXVtDSDJdT1tDSDJdW0NIMl0y

> <s_epik_cmdline>
J2VwaWtfcHl0aG9uJywgJy1waCcsICc3LjAnLCAnLXRuJywgJzgnLCAnLW1hJywgJzIwMCcsICctbWV0YWxfYmluZGluZycsICctaW1hZScsICc8aW5maWxlLm1hZT4nLCAnLW9tYWUnLCAnPG91dGZpbGUubWFlPic=

> <r_lp_tautomer_probability>
1

> <r_epik_Ionization_Penalty>
1.36166e-05

> <r_epik_Ionization_Penalty_Charging>
0

> <r_epik_Ionization_Penalty_Neutral>
1.36166e-05

> <r_epik_State_Penalty>
-0

> <r_epik_Charging_Adjusted_Penalty>
0

> <i_epik_Tot_Q>
0

> <i_epik_Tot_abs_Q>
0

> <r_epik_Metal_State_Penalty>
0.00705299

> <b_epik_Metal_Only>
0

> <s_lp_Force_Field>
OPLS_2005

> <r_lp_Energy>
23.9064

> <b_lp_Chiralities_Consistent>
1

> <s_lp_Variant>
AV-unprocessed.smi:2086-1

> <Gold.Version>
5.8.1

> <Gold.Id.Protein>
6NUR|6NUR_protein|mol2

> <Gold.PLP.Fitness>
41.2305

> <Gold.PLP.PLP>
-36.0433

> <Gold.PLP.part.hbond>
-2.0000

> <Gold.PLP.part.metal>
0.0000

> <Gold.PLP.part.buried>
0.9832

> <Gold.PLP.part.nonpolar>
-35.8947

> <Gold.PLP.part.repulsive>
1.0294

> <Gold.PLP.ligand.clash>
0.0000

> <Gold.PLP.ligand.torsion>
1.1907

> <Gold.PLP.Chemscore.Hbond>
1.8800

> <Gold.PLP.Chemscore.CHOScore>
0.5456

> <Gold.PLP.Chemscore.Metal>
0.0000

> <Gold.Chemscore.Hbonds>
donor molecule, donor type, donor heavy atom, donor atom, acceptor molecule, acceptor atom, score
      L1  H     3    21       P1  8028  0.93
      P1  H 10752 10764       L1    18  0.88
      L1  C    12    26       P1  7957  0.53

> <Gold.PLP.Chemscore.Internal.Correction>
0.2918

> <Gold.Rescore>
     Score         DG    S(hbond)    S(metal)    S(lipo)     H(rot)  DE(clash)    DE(int)     intcor
     10.64     -16.21       1.66        0.00      73.55       1.33       2.85       2.72       ----

> <Gold.Chemscore.Fitness>
10.6436

> <Gold.Chemscore.DG>
-16.2106

> <Gold.Chemscore.ZeroCoef>
-5.4800

> <Gold.Chemscore.Hbond>
1.6552

> <Gold.Chemscore.Metal>
0.0000

> <Gold.Chemscore.Lipo>
73.5523

> <Gold.Chemscore.Internal_Hbond>
0.0000

> <Gold.Chemscore.DEClash>
2.8493

> <Gold.Chemscore.DEInternal>
2.7177

> <Gold.Chemscore.Rot>
1.3294

> <Gold.Chemscore.Internal.Correction>
   9.000000E+99

> <Gold.Chemscore.Hbonds>
donor molecule, donor type, donor heavy atom, donor atom, acceptor molecule, acceptor atom, score
      L1  H     3    21       P1  8028  0.86
      P1  H 10752 10764       L1    18  0.84

> <Gold.Chemscore.Hbond.Weighted>
-5.5283

> <Gold.Chemscore.Metal.Weighted>
-0.0000

> <Gold.Chemscore.Lipo.Weighted>
-8.6056

> <Gold.Chemscore.Internal_Hbond.Weighted>
0.0000

> <Gold.Chemscore.DEClash.Weighted>
2.8493

> <Gold.Chemscore.DEInternal.Weighted>
2.7177

> <Gold.Chemscore.Rot.Weighted>
3.4033

> <Gold.Chemscore.Internal.Correction.Weighted>
   9.000000E+99

> <Gold.Protein.RotatedTorsions>
[ 6907 6896 6895 6894 ] final  106.74 input  -60.11 | X-H torsion
[ 7974 7965 7964 7962 ] final  -99.70 input  175.53 | X-H torsion
[ 8008 7997 7996 7995 ] final   -9.91 input   59.86 | X-H torsion
[ 10167 10162 10161 10158 ] final  -76.16 input  -65.29 | X-H torsion
[ 10718 10713 10712 10709 ] final -129.41 input   66.30 | X-H torsion
[ 10763 10752 10751 10750 ] final  -23.91 input  -60.55 | X-H torsion
[ 11005 11000 10999 10996 ] final  149.82 input  -57.11 | X-H torsion

> <Gold.Protein.ActiveResidues>
 VAL166  LYS551  ARG553  GLY616  TRP617  ASP618  TYR619  PRO620  LYS621  CYS622 
 ASP623  PHE694  ASN695  SER759  ASP760  ASP761  ALA762  ILE779  LEU786  VAL792 
 PHE793  MET794  SER795  GLU796  ALA797  LYS798  CYS799  TRP800  GLU811  SER814 

> <Gold.Protein.RotatedAtoms>
  152.5182  133.9337  159.7592 H   0  0  0  0  0  0  0  0  0  0  0  0  # atno 6907 bound_to 6896
  150.9682  133.6364  159.2749 H   0  0  0  0  0  0  0  0  0  0  0  0  # atno 6908 bound_to 6896
  151.3585  135.0905  159.9479 H   0  0  0  0  0  0  0  0  0  0  0  0  # atno 6909 bound_to 6896
  145.3041  140.9384  143.2806 H   0  0  0  0  0  0  0  0  0  0  0  0  # atno 7974 bound_to 7965
  154.5603  140.2343  155.8346 H   0  0  0  0  0  0  0  0  0  0  0  0  # atno 8008 bound_to 7997
  156.2024  140.3049  155.9513 H   0  0  0  0  0  0  0  0  0  0  0  0  # atno 8009 bound_to 7997
  155.2901  140.0426  157.3013 H   0  0  0  0  0  0  0  0  0  0  0  0  # atno 8010 bound_to 7997
  140.4881  143.2386  151.7951 H   0  0  0  0  0  0  0  0  0  0  0  0  # atno 10167 bound_to 10162
  156.2044  130.6878  151.0577 H   0  0  0  0  0  0  0  0  0  0  0  0  # atno 10718 bound_to 10713
  153.6754  135.6969  153.5134 H   0  0  0  0  0  0  0  0  0  0  0  0  # atno 10763 bound_to 10752
  153.2526  135.4270  155.0812 H   0  0  0  0  0  0  0  0  0  0  0  0  # atno 10764 bound_to 10752
  154.8415  135.3535  154.6297 H   0  0  0  0  0  0  0  0  0  0  0  0  # atno 10765 bound_to 10752
  140.1078  134.8943  157.1892 H   0  0  0  0  0  0  0  0  0  0  0  0  # atno 11005 bound_to 11000
  144.9069  139.4578  143.6606 LP  0  0  0  0  0  0  0  0  0  0  0  0  # atno 17320 bound_to 7965
  146.3141  139.7855  142.8997 LP  0  0  0  0  0  0  0  0  0  0  0  0  # atno 17321 bound_to 7965
  139.4846  144.4685  151.9454 LP  0  0  0  0  0  0  0  0  0  0  0  0  # atno 17342 bound_to 10162
  140.3771  144.2782  150.5913 LP  0  0  0  0  0  0  0  0  0  0  0  0  # atno 17343 bound_to 10162
  157.7004  131.0778  150.6838 LP  0  0  0  0  0  0  0  0  0  0  0  0  # atno 17370 bound_to 10713
  156.6896  130.4591  149.5603 LP  0  0  0  0  0  0  0  0  0  0  0  0  # atno 17371 bound_to 10713
  140.3132  134.3000  155.7262 LP  0  0  0  0  0  0  0  0  0  0  0  0  # atno 17394 bound_to 11000
  141.2122  133.7663  156.9806 LP  0  0  0  0  0  0  0  0  0  0  0  0  # atno 17395 bound_to 11000

$$$$
