AV-unprocessed.smi:749|AV-procd|sdf|3584|dock9
  -GOLD-   22720 0583D 1   1.00000     0.00000
 Structure written by MMmdl.
 43 44  0  0  0  0  0  0  0  0  1 V2000
  143.9879  132.5597  149.1698 C   0  0  0  0  0  0  0  0  0  0  0  0
  144.6843  133.3870  150.1563 N   0  0  0  0  0  0  0  0  0  0  0  0
  144.0575  134.6912  150.4222 C   0  0  0  0  0  0  0  0  0  0  0  0
  144.9617  135.6843  151.1778 C   0  0  1  0  0  0  0  0  0  0  0  0
  144.1838  136.8050  151.6952 N   0  0  0  0  0  0  0  0  0  0  0  0
  143.2185  136.7232  152.6259 C   0  0  0  0  0  0  0  0  0  0  0  0
  142.8848  135.6601  153.1467 O   0  0  0  0  0  0  0  0  0  0  0  0
  142.6171  137.8834  152.9637 N   0  0  0  0  0  0  0  0  0  0  0  0
  141.5758  138.1570  153.8954 C   0  0  0  0  0  0  0  0  0  0  0  0
  140.2596  137.6781  153.6600 C   0  0  0  0  0  0  0  0  0  0  0  0
  139.5608  138.1181  154.7514 C   0  0  0  0  0  0  0  0  0  0  0  0
  138.1275  137.9859  155.1852 C   0  0  0  0  0  0  0  0  0  0  0  0
  137.5045  139.3707  155.4519 C   0  0  0  0  0  0  0  0  0  0  0  0
  138.0429  137.1581  156.4812 C   0  0  0  0  0  0  0  0  0  0  0  0
  137.3071  137.2892  154.0833 C   0  0  0  0  0  0  0  0  0  0  0  0
  140.3904  138.8058  155.5853 O   0  0  0  0  0  0  0  0  0  0  0  0
  141.6757  138.8269  155.0335 N   0  0  0  0  0  0  0  0  0  0  0  0
  145.6640  134.9669  152.3318 C   0  0  0  0  0  0  0  0  0  0  0  0
  146.5164  133.8085  151.8009 C   0  0  0  0  0  0  0  0  0  0  0  0
  145.7763  132.9080  150.8002 C   0  0  0  0  0  0  0  0  0  0  0  0
  146.2253  131.7803  150.5930 O   0  0  0  0  0  0  0  0  0  0  0  0
  144.6372  132.3545  148.3174 H   0  0  0  0  0  0  0  0  0  0  0  0
  143.0860  133.0418  148.7904 H   0  0  0  0  0  0  0  0  0  0  0  0
  143.6864  131.6070  149.6075 H   0  0  0  0  0  0  0  0  0  0  0  0
  143.7349  135.1438  149.4832 H   0  0  0  0  0  0  0  0  0  0  0  0
  143.1532  134.5024  151.0031 H   0  0  0  0  0  0  0  0  0  0  0  0
  145.7266  136.0632  150.4968 H   0  0  0  0  0  0  0  0  0  0  0  0
  144.3960  137.7181  151.3186 H   0  0  0  0  0  0  0  0  0  0  0  0
  142.9462  138.6911  152.4551 H   0  0  0  0  0  0  0  0  0  0  0  0
  139.8868  137.1034  152.8254 H   0  0  0  0  0  0  0  0  0  0  0  0
  136.4635  139.2852  155.7658 H   0  0  0  0  0  0  0  0  0  0  0  0
  137.5246  139.9963  154.5586 H   0  0  0  0  0  0  0  0  0  0  0  0
  138.0393  139.9033  156.2395 H   0  0  0  0  0  0  0  0  0  0  0  0
  138.6115  137.6246  157.2866 H   0  0  0  0  0  0  0  0  0  0  0  0
  138.4401  136.1522  156.3402 H   0  0  0  0  0  0  0  0  0  0  0  0
  137.0121  137.0562  156.8229 H   0  0  0  0  0  0  0  0  0  0  0  0
  136.2596  137.1874  154.3694 H   0  0  0  0  0  0  0  0  0  0  0  0
  137.6868  136.2884  153.8743 H   0  0  0  0  0  0  0  0  0  0  0  0
  137.3397  137.8532  153.1502 H   0  0  0  0  0  0  0  0  0  0  0  0
  146.2980  135.6648  152.8803 H   0  0  0  0  0  0  0  0  0  0  0  0
  144.9288  134.5891  153.0443 H   0  0  0  0  0  0  0  0  0  0  0  0
  147.3976  134.2067  151.2963 H   0  0  0  0  0  0  0  0  0  0  0  0
  146.8808  133.2045  152.6325 H   0  0  0  0  0  0  0  0  0  0  0  0
  1  2  1  0  0  0  0
  1 22  1  0  0  0  0
  1 23  1  0  0  0  0
  1 24  1  0  0  0  0
  2 20  1  0  0  0  0
  2  3  1  0  0  0  0
  3  4  1  0  0  0  0
  3 25  1  0  0  0  0
  3 26  1  0  0  0  0
  4  5  1  0  0  0  0
  4 18  1  0  0  0  0
  4 27  1  0  0  0  0
  5  6  1  0  0  0  0
  5 28  1  0  0  0  0
  6  7  2  0  0  0  0
  6  8  1  0  0  0  0
  8  9  1  0  0  0  0
  8 29  1  0  0  0  0
  9 17  2  0  0  0  0
  9 10  1  0  0  0  0
 10 11  2  0  0  0  0
 10 30  1  0  0  0  0
 11 12  1  0  0  0  0
 11 16  1  0  0  0  0
 12 13  1  0  0  0  0
 12 14  1  0  0  0  0
 12 15  1  0  0  0  0
 13 31  1  0  0  0  0
 13 32  1  0  0  0  0
 13 33  1  0  0  0  0
 14 34  1  0  0  0  0
 14 35  1  0  0  0  0
 14 36  1  0  0  0  0
 15 37  1  0  0  0  0
 15 38  1  0  0  0  0
 15 39  1  0  0  0  0
 16 17  1  0  0  0  0
 18 19  1  0  0  0  0
 18 40  1  0  0  0  0
 18 41  1  0  0  0  0
 19 20  1  0  0  0  0
 19 42  1  0  0  0  0
 19 43  1  0  0  0  0
 20 21  2  0  0  0  0
M  END
> <s_m_source_file>
AV-unprocessed.smi

> <i_m_source_file_index>
749

> <i_lp_mmshare_version>
43012

> <i_f3d_flags>
0

> <s_epik_input>
Tz1DMVtDSDJdW0NIMl1bQ0BASF0oW0NIMl1OMVtDSDNdKVtOSF1DKD1PKVtOSF1jMltjSF1jKG9uMilDKFtDSDNdKShbQ0gzXSlbQ0gzXQ==

> <s_epik_cmdline>
J2VwaWtfcHl0aG9uJywgJy1waCcsICc3LjAnLCAnLXRuJywgJzgnLCAnLW1hJywgJzIwMCcsICctbWV0YWxfYmluZGluZycsICctaW1hZScsICc8aW5maWxlLm1hZT4nLCAnLW9tYWUnLCAnPG91dGZpbGUubWFlPic=

> <r_lp_tautomer_probability>
1

> <r_epik_Ionization_Penalty>
2.91905e-05

> <r_epik_Ionization_Penalty_Charging>
0

> <r_epik_Ionization_Penalty_Neutral>
2.91905e-05

> <r_epik_State_Penalty>
-0

> <r_epik_Charging_Adjusted_Penalty>
0

> <i_epik_Tot_Q>
0

> <i_epik_Tot_abs_Q>
0

> <r_epik_Metal_State_Penalty>
0.0102923

> <b_epik_Metal_Only>
0

> <s_lp_Force_Field>
OPLS_2005

> <r_lp_Energy>
15.3283

> <b_lp_Chiralities_Consistent>
1

> <s_lp_Variant>
AV-unprocessed.smi:749-1

> <Gold.Version>
5.8.1

> <Gold.Id.Protein>
6NUR|6NUR_protein|mol2

> <Gold.PLP.Fitness>
35.0598

> <Gold.PLP.PLP>
-31.5200

> <Gold.PLP.part.hbond>
-2.0000

> <Gold.PLP.part.metal>
0.0000

> <Gold.PLP.part.buried>
-6.8604

> <Gold.PLP.part.nonpolar>
-25.5752

> <Gold.PLP.part.repulsive>
1.8481

> <Gold.PLP.ligand.clash>
0.0000

> <Gold.PLP.ligand.torsion>
0.7285

> <Gold.PLP.Chemscore.Hbond>
1.6640

> <Gold.PLP.Chemscore.CHOScore>
0.0000

> <Gold.PLP.Chemscore.Metal>
0.0000

> <Gold.Chemscore.Hbonds>
donor molecule, donor type, donor heavy atom, donor atom, acceptor molecule, acceptor atom, score
      L1  H     5    28       P1 10171  0.66
      L1  H     8    29       P1 10175  1.00

> <Gold.PLP.Chemscore.Internal.Correction>
0.0048

> <Gold.Rescore>
     Score         DG    S(hbond)    S(metal)    S(lipo)     H(rot)  DE(clash)    DE(int)     intcor
     13.73     -15.59       1.66        0.00      65.91       1.23       0.08       1.78       ----

> <Gold.Chemscore.Fitness>
13.7275

> <Gold.Chemscore.DG>
-15.5883

> <Gold.Chemscore.ZeroCoef>
-5.4800

> <Gold.Chemscore.Hbond>
1.6616

> <Gold.Chemscore.Metal>
0.0000

> <Gold.Chemscore.Lipo>
65.9117

> <Gold.Chemscore.Internal_Hbond>
0.0000

> <Gold.Chemscore.DEClash>
0.0785

> <Gold.Chemscore.DEInternal>
1.7822

> <Gold.Chemscore.Rot>
1.2317

> <Gold.Chemscore.Internal.Correction>
   9.000000E+99

> <Gold.Chemscore.Hbonds>
donor molecule, donor type, donor heavy atom, donor atom, acceptor molecule, acceptor atom, score
      L1  H     5    28       P1 10171  0.66
      L1  H     8    29       P1 10175  0.94

> <Gold.Chemscore.Hbond.Weighted>
-5.5497

> <Gold.Chemscore.Metal.Weighted>
-0.0000

> <Gold.Chemscore.Lipo.Weighted>
-7.7117

> <Gold.Chemscore.Internal_Hbond.Weighted>
0.0000

> <Gold.Chemscore.DEClash.Weighted>
0.0785

> <Gold.Chemscore.DEInternal.Weighted>
1.7822

> <Gold.Chemscore.Rot.Weighted>
3.1531

> <Gold.Chemscore.Internal.Correction.Weighted>
   9.000000E+99

> <Gold.Protein.RotatedTorsions>
[ 6907 6896 6895 6894 ] final -138.37 input  -60.11 | X-H torsion
[ 7974 7965 7964 7962 ] final  150.50 input  175.53 | X-H torsion
[ 8008 7997 7996 7995 ] final  129.67 input   59.86 | X-H torsion
[ 10167 10162 10161 10158 ] final  -46.90 input  -65.29 | X-H torsion
[ 10718 10713 10712 10709 ] final  -91.77 input   66.30 | X-H torsion
[ 10763 10752 10751 10750 ] final   14.85 input  -60.55 | X-H torsion
[ 11005 11000 10999 10996 ] final  -80.76 input  -57.11 | X-H torsion

> <Gold.Protein.ActiveResidues>
 VAL166  LYS551  ARG553  GLY616  TRP617  ASP618  TYR619  PRO620  LYS621  CYS622 
 ASP623  PHE694  ASN695  SER759  ASP760  ASP761  ALA762  ILE779  LEU786  VAL792 
 PHE793  MET794  SER795  GLU796  ALA797  LYS798  CYS799  TRP800  GLU811  SER814 

> <Gold.Protein.RotatedAtoms>
  151.0342  133.5763  159.2657 H   0  0  0  0  0  0  0  0  0  0  0  0  # atno 6907 bound_to 6896
  151.2833  135.0719  159.9187 H   0  0  0  0  0  0  0  0  0  0  0  0  # atno 6908 bound_to 6896
  152.5351  134.0053  159.7967 H   0  0  0  0  0  0  0  0  0  0  0  0  # atno 6909 bound_to 6896
  144.8360  139.6416  143.6038 H   0  0  0  0  0  0  0  0  0  0  0  0  # atno 7974 bound_to 7965
  156.2940  140.2614  156.2637 H   0  0  0  0  0  0  0  0  0  0  0  0  # atno 8008 bound_to 7997
  154.9763  140.0390  157.2276 H   0  0  0  0  0  0  0  0  0  0  0  0  # atno 8009 bound_to 7997
  154.7813  140.2795  155.6066 H   0  0  0  0  0  0  0  0  0  0  0  0  # atno 8010 bound_to 7997
  140.6798  143.2809  151.3850 H   0  0  0  0  0  0  0  0  0  0  0  0  # atno 10167 bound_to 10162
  155.9996  130.4961  150.5524 H   0  0  0  0  0  0  0  0  0  0  0  0  # atno 10718 bound_to 10713
  153.1582  135.6791  153.8781 H   0  0  0  0  0  0  0  0  0  0  0  0  # atno 10763 bound_to 10752
  153.8186  135.3133  155.3409 H   0  0  0  0  0  0  0  0  0  0  0  0  # atno 10764 bound_to 10752
  154.7913  135.4833  154.0147 H   0  0  0  0  0  0  0  0  0  0  0  0  # atno 10765 bound_to 10752
  141.1667  133.7165  156.8321 H   0  0  0  0  0  0  0  0  0  0  0  0  # atno 11005 bound_to 11000
  146.2658  139.6518  142.9330 LP  0  0  0  0  0  0  0  0  0  0  0  0  # atno 17320 bound_to 7965
  145.4794  141.0437  143.2654 LP  0  0  0  0  0  0  0  0  0  0  0  0  # atno 17321 bound_to 7965
  139.6113  144.1093  152.2301 LP  0  0  0  0  0  0  0  0  0  0  0  0  # atno 17342 bound_to 10162
  140.0508  144.5934  150.7337 LP  0  0  0  0  0  0  0  0  0  0  0  0  # atno 17343 bound_to 10162
  157.3445  131.0722  151.1762 LP  0  0  0  0  0  0  0  0  0  0  0  0  # atno 17370 bound_to 10713
  157.2599  130.6654  149.5970 LP  0  0  0  0  0  0  0  0  0  0  0  0  # atno 17371 bound_to 10713
  140.2043  134.8874  157.3204 LP  0  0  0  0  0  0  0  0  0  0  0  0  # atno 17394 bound_to 11000
  140.2154  134.4088  155.7592 LP  0  0  0  0  0  0  0  0  0  0  0  0  # atno 17395 bound_to 11000

$$$$
