AV-unprocessed.smi:157|AV-procd|sdf|1309|dock4
  -GOLD-   2262019 03D 1   1.00000     0.00000
 Structure written by MMmdl.
 36 38  0  0  0  0  0  0  0  0  2 V2000
  145.9253  131.2890  153.6046 O   0  0  0  0  0  0  0  0  0  0  0  0
  145.7382  131.1804  152.2099 C   0  0  0  0  0  0  0  0  0  0  0  0
  144.9251  132.3785  151.6985 C   0  0  1  0  0  0  0  0  0  0  0  0
  145.7040  133.5677  151.7953 O   0  0  0  0  0  0  0  0  0  0  0  0
  145.2882  134.4959  150.8367 C   0  0  2  0  0  0  0  0  0  0  0  0
  144.5835  135.6206  151.5276 N   0  0  0  0  0  0  0  0  0  0  0  0
  144.9996  136.9020  151.6233 C   0  0  0  0  0  0  0  0  0  0  0  0
  144.1821  137.6912  152.2994 N   0  3  0  0  0  0  0  0  0  0  0  0
  143.1235  136.9049  152.7020 C   0  0  0  0  0  0  0  0  0  0  0  0
  143.3963  135.6213  152.2224 C   0  0  0  0  0  0  0  0  0  0  0  0
  142.6584  134.4351  152.3555 N   0  0  0  0  0  0  0  0  0  0  0  0
  141.6981  134.2943  153.2107 C   0  0  0  0  0  0  0  0  0  0  0  0
  141.1471  135.2313  154.0691 N   0  0  0  0  0  0  0  0  0  0  0  0
  140.7899  136.5767  153.6554 C   0  0  0  0  0  0  0  0  0  0  0  0
  141.9967  137.5076  153.4809 C   0  0  1  0  0  0  0  0  0  0  0  0
  142.4013  137.9653  154.7547 O   0  0  0  0  0  0  0  0  0  0  0  0
  144.3213  133.7742  149.8927 C   0  0  0  0  0  0  0  0  0  0  0  0
  144.6132  132.3198  150.2023 C   0  0  2  0  0  0  0  0  0  0  0  0
  143.4954  131.5053  149.9136 O   0  0  0  0  0  0  0  0  0  0  0  0
  143.9987  132.5002  152.2637 H   0  0  0  0  0  0  0  0  0  0  0  0
  146.1478  134.9492  150.3416 H   0  0  0  0  0  0  0  0  0  0  0  0
  141.6565  138.3908  152.9391 H   0  0  0  0  0  0  0  0  0  0  0  0
  145.4837  131.9813  149.6381 H   0  0  0  0  0  0  0  0  0  0  0  0
  145.1383  130.9937  154.0367 H   0  0  0  0  0  0  0  0  0  0  0  0
  146.6995  131.1052  151.7008 H   0  0  0  0  0  0  0  0  0  0  0  0
  145.1984  130.2517  152.0227 H   0  0  0  0  0  0  0  0  0  0  0  0
  145.9169  137.2507  151.1838 H   0  0  0  0  0  0  0  0  0  0  0  0
  141.2145  133.3209  153.3043 H   0  0  0  0  0  0  0  0  0  0  0  0
  140.5582  134.9085  154.8237 H   0  0  0  0  0  0  0  0  0  0  0  0
  140.2635  136.4969  152.7029 H   0  0  0  0  0  0  0  0  0  0  0  0
  140.0745  136.9992  154.3618 H   0  0  0  0  0  0  0  0  0  0  0  0
  142.6762  137.2236  155.2712 H   0  0  0  0  0  0  0  0  0  0  0  0
  143.2909  134.0302  150.1483 H   0  0  0  0  0  0  0  0  0  0  0  0
  144.5065  134.0470  148.8533 H   0  0  0  0  0  0  0  0  0  0  0  0
  142.7342  131.8735  150.3355 H   0  0  0  0  0  0  0  0  0  0  0  0
  144.3104  138.6795  152.4760 H   0  0  0  0  0  0  0  0  0  0  0  0
  1  2  1  0  0  0  0
  1 24  1  0  0  0  0
  2  3  1  0  0  0  0
  2 25  1  0  0  0  0
  2 26  1  0  0  0  0
  3 20  1  0  0  0  0
  3 18  1  0  0  0  0
  3  4  1  0  0  0  0
  4  5  1  0  0  0  0
  5 21  1  0  0  0  0
  5  6  1  0  0  0  0
  5 17  1  0  0  0  0
  6 10  1  0  0  0  0
  6  7  1  0  0  0  0
  7  8  2  0  0  0  0
  7 27  1  0  0  0  0
  8  9  1  0  0  0  0
  8 36  1  0  0  0  0
  9 15  1  0  0  0  0
  9 10  2  0  0  0  0
 10 11  1  0  0  0  0
 11 12  2  0  0  0  0
 12 13  1  0  0  0  0
 12 28  1  0  0  0  0
 13 14  1  0  0  0  0
 13 29  1  0  0  0  0
 14 15  1  0  0  0  0
 14 30  1  0  0  0  0
 14 31  1  0  0  0  0
 15 22  1  0  0  0  0
 15 16  1  0  0  0  0
 16 32  1  0  0  0  0
 17 18  1  0  0  0  0
 17 33  1  0  0  0  0
 17 34  1  0  0  0  0
 18 23  1  0  0  0  0
 18 19  1  0  0  0  0
 19 35  1  0  0  0  0
M  CHG  1   8   1
M  END
> <s_m_source_file>
AV-unprocessed.smi

> <i_m_source_file_index>
157

> <i_lp_mmshare_version>
43012

> <i_f3d_flags>
0

> <s_epik_input>
W09IXVtDSDJdW0NASF0xT1tDQEhdKFtDSDJdW0NAQEhdMVtPSF0pbihbY0hdbjIpYyhjMjMpTj1bQ0hdW05IXVtDSDJdW0NASF0zW09IXQ==

> <s_epik_cmdline>
J2VwaWtfcHl0aG9uJywgJy1waCcsICc3LjAnLCAnLXRuJywgJzgnLCAnLW1hJywgJzIwMCcsICctbWV0YWxfYmluZGluZycsICctaW1hZScsICc8aW5maWxlLm1hZT4nLCAnLW9tYWUnLCAnPG91dGZpbGUubWFlPic=

> <r_epik_Ionization_Penalty>
1.68594

> <r_epik_Ionization_Penalty_Charging>
0

> <r_epik_Ionization_Penalty_Neutral>
1.68594

> <r_epik_State_Penalty>
1.79006

> <r_epik_Charging_Adjusted_Penalty>
1.79006

> <i_epik_Tot_Q>
1

> <i_epik_Tot_abs_Q>
1

> <r_epik_Metal_State_Penalty>
5.85324

> <b_epik_Metal_Only>
0

> <s_epik_Chemistry_Notes>
This compound has an imine and may undergo hydrolysis. This compound contains an acetal/aminal-like group ( X-CH(R)-Y where X, Y are N, S, or O) that may be acid/base labile, releasing an aldehyde.

> <s_lp_Force_Field>
OPLS_2005

> <r_lp_Energy>
51.4634

> <b_lp_Chiralities_Consistent>
1

> <s_lp_Variant>
AV-unprocessed.smi:157-19

> <Gold.Version>
5.8.1

> <Gold.Id.Protein>
6NUR|6NUR_protein|mol2

> <Gold.PLP.Fitness>
46.4410

> <Gold.PLP.PLP>
-32.8808

> <Gold.PLP.part.hbond>
-5.0000

> <Gold.PLP.part.metal>
0.0000

> <Gold.PLP.part.buried>
-2.9048

> <Gold.PLP.part.nonpolar>
-25.7424

> <Gold.PLP.part.repulsive>
0.4827

> <Gold.PLP.ligand.clash>
0.0000

> <Gold.PLP.ligand.torsion>
0.1447

> <Gold.PLP.Chemscore.Hbond>
3.9920

> <Gold.PLP.Chemscore.CHOScore>
0.6184

> <Gold.PLP.Chemscore.Metal>
0.0000

> <Gold.Chemscore.Hbonds>
donor molecule, donor type, donor heavy atom, donor atom, acceptor molecule, acceptor atom, score
      L1  H     8    36       P1 10175  2.00
      L1  H    13    29       P1 11000  1.00
      P1  H 10785 10796       L1    19  0.96
      L1  C    12    28       P1 10957  0.59

> <Gold.PLP.Chemscore.Internal.Correction>
0.0185

> <Gold.Rescore>
     Score         DG    S(hbond)    S(metal)    S(lipo)     H(rot)  DE(clash)    DE(int)     intcor
      8.56     -11.57       2.97        0.00      47.55       3.67       2.12       0.89       ----

> <Gold.Chemscore.Fitness>
8.5578

> <Gold.Chemscore.DG>
-11.5741

> <Gold.Chemscore.ZeroCoef>
-5.4800

> <Gold.Chemscore.Hbond>
2.9689

> <Gold.Chemscore.Metal>
0.0000

> <Gold.Chemscore.Lipo>
47.5452

> <Gold.Chemscore.Internal_Hbond>
0.0000

> <Gold.Chemscore.DEClash>
2.1246

> <Gold.Chemscore.DEInternal>
0.8917

> <Gold.Chemscore.Rot>
3.6659

> <Gold.Chemscore.Internal.Correction>
   9.000000E+99

> <Gold.Chemscore.Hbonds>
donor molecule, donor type, donor heavy atom, donor atom, acceptor molecule, acceptor atom, score
      L1  H     8    36       P1 10175  0.94
      L1  H    13    29       P1 11000  0.92
      P1  H 10785 10796       L1    19  0.87

> <Gold.Chemscore.Hbond.Weighted>
-9.9161

> <Gold.Chemscore.Metal.Weighted>
-0.0000

> <Gold.Chemscore.Lipo.Weighted>
-5.5628

> <Gold.Chemscore.Internal_Hbond.Weighted>
0.0000

> <Gold.Chemscore.DEClash.Weighted>
2.1246

> <Gold.Chemscore.DEInternal.Weighted>
0.8917

> <Gold.Chemscore.Rot.Weighted>
9.3848

> <Gold.Chemscore.Internal.Correction.Weighted>
   9.000000E+99

> <Gold.Protein.RotatedTorsions>
[ 6907 6896 6895 6894 ] final -107.64 input  -60.11 | X-H torsion
[ 7974 7965 7964 7962 ] final -165.30 input  175.53 | X-H torsion
[ 8008 7997 7996 7995 ] final  -81.88 input   59.86 | X-H torsion
[ 10167 10162 10161 10158 ] final -161.57 input  -65.29 | X-H torsion
[ 10718 10713 10712 10709 ] final  -89.35 input   66.30 | X-H torsion
[ 10763 10752 10751 10750 ] final    9.59 input  -60.55 | X-H torsion
[ 11005 11000 10999 10996 ] final -144.48 input  -57.11 | X-H torsion

> <Gold.Protein.ActiveResidues>
 VAL166  LYS551  ARG553  GLY616  TRP617  ASP618  TYR619  PRO620  LYS621  CYS622 
 ASP623  PHE694  ASN695  SER759  ASP760  ASP761  ALA762  ILE779  LEU786  VAL792 
 PHE793  MET794  SER795  GLU796  ALA797  LYS798  CYS799  TRP800  GLU811  SER814 

> <Gold.Protein.RotatedAtoms>
  150.7456  133.9796  159.3571 H   0  0  0  0  0  0  0  0  0  0  0  0  # atno 6907 bound_to 6896
  151.7736  135.0778  160.0373 H   0  0  0  0  0  0  0  0  0  0  0  0  # atno 6908 bound_to 6896
  152.3322  133.5934  159.5854 H   0  0  0  0  0  0  0  0  0  0  0  0  # atno 6909 bound_to 6896
  144.7273  140.2834  143.6232 H   0  0  0  0  0  0  0  0  0  0  0  0  # atno 7974 bound_to 7965
  154.6029  140.0641  156.9392 H   0  0  0  0  0  0  0  0  0  0  0  0  # atno 8008 bound_to 7997
  155.2102  140.3322  155.4311 H   0  0  0  0  0  0  0  0  0  0  0  0  # atno 8009 bound_to 7997
  156.2329  140.1849  156.7179 H   0  0  0  0  0  0  0  0  0  0  0  0  # atno 8010 bound_to 7997
  139.6455  144.0180  152.2124 H   0  0  0  0  0  0  0  0  0  0  0  0  # atno 10167 bound_to 10162
  155.9984  130.4869  150.5157 H   0  0  0  0  0  0  0  0  0  0  0  0  # atno 10718 bound_to 10713
  153.2123  135.6870  153.8099 H   0  0  0  0  0  0  0  0  0  0  0  0  # atno 10763 bound_to 10752
  153.7327  135.3250  155.3290 H   0  0  0  0  0  0  0  0  0  0  0  0  # atno 10764 bound_to 10752
  154.8228  135.4639  154.0936 H   0  0  0  0  0  0  0  0  0  0  0  0  # atno 10765 bound_to 10752
  140.8020  134.2845  157.4975 H   0  0  0  0  0  0  0  0  0  0  0  0  # atno 11005 bound_to 11000
  145.7927  139.1933  143.2093 LP  0  0  0  0  0  0  0  0  0  0  0  0  # atno 17320 bound_to 7965
  146.0742  140.7835  142.9673 LP  0  0  0  0  0  0  0  0  0  0  0  0  # atno 17321 bound_to 7965
  139.9881  144.6381  150.7839 LP  0  0  0  0  0  0  0  0  0  0  0  0  # atno 17342 bound_to 10162
  140.7512  143.2969  151.3181 LP  0  0  0  0  0  0  0  0  0  0  0  0  # atno 17343 bound_to 10162
  157.3125  131.0666  151.1990 LP  0  0  0  0  0  0  0  0  0  0  0  0  # atno 17370 bound_to 10713
  157.2932  130.6806  149.6125 LP  0  0  0  0  0  0  0  0  0  0  0  0  # atno 17371 bound_to 10713
  139.8721  134.9435  156.3854 LP  0  0  0  0  0  0  0  0  0  0  0  0  # atno 17394 bound_to 11000
  140.9285  133.7596  155.9994 LP  0  0  0  0  0  0  0  0  0  0  0  0  # atno 17395 bound_to 11000

$$$$
