#       Name:                AV-unprocessed.smi:722
#       Creating user name   scv26
#       Creation time:       Fri Mar 27 00:50:02 2020


#       File generated by GOLD software.
#

@<TRIPOS>MOLECULE
AV-unprocessed.smi:722
    42    43     1
SMALL
NO_CHARGES


@<TRIPOS>ATOM
      1 ****        -4.6859   1.3499  -2.2695 C.3            1 S1                 0.0000
      2 ****        -3.6628   0.2618  -2.2169 C.2            1 S1                 0.0000
      3 ****        -3.9675  -1.0299  -2.0716 N.2            1 S1                 0.0000
      4 ****        -2.7595  -1.6920  -2.0654 N.2            1 S1                 0.0000
      5 ****        -1.8321  -0.7428  -2.2093 C.2            1 S1                 0.0000
      6 ****        -0.1037  -1.0732  -2.2466 S.3            1 S1                 0.0000
      7 ****         0.1320  -1.2495  -0.4580 C.3            1 S1                 0.0000
      8 ****         1.6197  -1.3271  -0.0920 C.3            1 S1                 0.0000
      9 ****         1.8634  -1.4344   1.4232 C.3            1 S1                 0.0000
     10 ****         1.4662  -0.1861   2.2196 C.3            1 S1                 0.0000
     11 ****         2.2637  -0.2647   3.5274 C.3            1 S1                 0.0000
     12 ****         3.4211  -1.2418   3.2718 C.3            1 S1                 0.0000
     13 ****         3.3364  -1.6235   1.7913 C.3            1 S1                 0.0000
     14 ****        -2.3389   0.5032  -2.3111 N.pl3          1 S1                 0.0000
     15 ****        -1.6381   1.7718  -2.4658 C.3            1 S1                 0.0000
     16 ****        -1.1657   2.3141  -1.1145 C.2            1 S1                 0.0000
     17 ****         0.1520   2.4275  -0.9299 N.am           1 S1                 0.0000
     18 ****        -1.9789   2.6197  -0.2449 O.2            1 S1                 0.0000
     19 ****        -5.6830   0.9448  -2.0948 H              1 S1                 0.0000
     20 ****        -4.6740   1.8292  -3.2486 H              1 S1                 0.0000
     21 ****        -4.4805   2.1000  -1.5057 H              1 S1                 0.0000
     22 ****        -0.3336  -0.3976   0.0375 H              1 S1                 0.0000
     23 ****        -0.3929  -2.1427  -0.1180 H              1 S1                 0.0000
     24 ****         2.0607  -2.1930  -0.5871 H              1 S1                 0.0000
     25 ****         2.1391  -0.4526  -0.4862 H              1 S1                 0.0000
     26 ****         1.3064  -2.2873   1.8151 H              1 S1                 0.0000
     27 ****         1.7578   0.7118   1.6729 H              1 S1                 0.0000
     28 ****         0.3917  -0.1275   2.3959 H              1 S1                 0.0000
     29 ****         2.6252   0.7205   3.8243 H              1 S1                 0.0000
     30 ****         1.6343  -0.6379   4.3363 H              1 S1                 0.0000
     31 ****         4.3897  -0.8080   3.5219 H              1 S1                 0.0000
     32 ****         3.2920  -2.1303   3.8910 H              1 S1                 0.0000
     33 ****         3.6884  -2.6381   1.6021 H              1 S1                 0.0000
     34 ****         3.9565  -0.9437   1.2050 H              1 S1                 0.0000
     35 ****        -0.7965   1.6332  -3.1459 H              1 S1                 0.0000
     36 ****        -2.2996   2.4993  -2.9361 H              1 S1                 0.0000
     37 ****         0.5113   2.7840  -0.0559 H              1 S1                 0.0000
     38 ****         0.7860   2.1590  -1.6686 H              1 S1                 0.0000
     39 ****        -4.8792  -1.4316  -1.9855 LP             1 S1                 0.0000
     40 ****        -2.6091  -2.6763  -1.9727 LP             1 S1                 0.0000
     41 ****        -2.9583   2.5148  -0.4172 LP             1 S1                 0.0000
     42 ****        -1.6610   2.9731   0.6349 LP             1 S1                 0.0000
@<TRIPOS>BOND
    1    1    2 1     
    2    1   19 1     
    3    1   20 1     
    4    1   21 1     
    5    2   14 1     
    6    2    3 2     
    7    3    4 1     
    8    4    5 2     
    9    5    6 1     
   10    5   14 1     
   11    6    7 1     
   12    7    8 1     
   13    7   22 1     
   14    7   23 1     
   15    8    9 1     
   16    8   24 1     
   17    8   25 1     
   18    9   13 1     
   19    9   10 1     
   20    9   26 1     
   21   10   11 1     
   22   10   27 1     
   23   10   28 1     
   24   11   12 1     
   25   11   29 1     
   26   11   30 1     
   27   12   13 1     
   28   12   31 1     
   29   12   32 1     
   30   13   33 1     
   31   13   34 1     
   32   14   15 1     
   33   15   16 1     
   34   15   35 1     
   35   15   36 1     
   36   16   17 am    
   37   16   18 2     
   38   17   37 1     
   39   17   38 1     
   40    3   39 1     
   41    4   40 1     
   42   18   41 1     
   43   18   42 1     
@<TRIPOS>SUBSTRUCTURE
      1 S1             1
@<TRIPOS>SET
LONE_PAIRS      STATIC     ATOMS    <user>   **** ""
4 39 40 41 42
DONOR_HYDROGENS      STATIC     ATOMS    <user>   **** ""
2 37 38
ATOM$BLUE        STATIC     ATOMS    COLORGROUP SYSTEM
4 39 40 41 42
ATOM$RED        STATIC     ATOMS    COLORGROUP SYSTEM
2 37 38
