AV-unprocessed.smi:809|AV-procd|sdf|3808|dock4
  -GOLD-   22720 1243D 1   1.00000     0.00000
 Structure written by MMmdl.
 39 40  0  0  0  0  0  0  0  0  3 V2000
  147.0576  137.7870  163.4119 C   0  0  0  0  0  0  0  0  0  0  0  0
  147.3982  136.6307  162.5254 C   0  0  0  0  0  0  0  0  0  0  0  0
  147.0916  135.3113  162.7344 C   0  0  0  0  0  0  0  0  0  0  0  0
  147.6855  134.3018  161.4469 S   0  0  0  0  0  0  0  0  0  0  0  0
  148.3395  135.7310  160.6437 C   0  0  0  0  0  0  0  0  0  0  0  0
  149.0072  135.7195  159.4786 N   0  5  0  0  0  0  0  0  0  0  0  0
  149.3435  136.8846  158.8820 C   0  0  0  0  0  0  0  0  0  0  0  0
  148.8197  137.9828  159.0823 O   0  0  0  0  0  0  0  0  0  0  0  0
  150.3357  136.7626  157.9879 N   0  0  0  0  0  0  0  0  0  0  0  0
  150.8742  137.8175  157.1306 C   0  0  0  0  0  0  0  0  0  0  0  0
  151.0437  137.3656  155.6540 C   0  0  1  0  0  0  0  0  0  0  0  0
  152.3756  136.9035  155.5282 O   0  0  0  0  0  0  0  0  0  0  0  0
  150.0918  136.2381  155.1892 C   0  0  0  0  0  0  0  0  0  0  0  0
  148.6438  136.7350  155.0396 C   0  0  0  0  0  0  0  0  0  0  0  0
  148.5698  137.8758  154.0944 N   0  3  1  0  0  0  0  0  0  0  0  0
  147.1771  138.3022  153.8390 C   0  0  0  0  0  0  0  0  0  0  0  0
  149.4390  139.0054  154.5081 C   0  0  0  0  0  0  0  0  0  0  0  0
  150.9033  138.5542  154.6775 C   0  0  0  0  0  0  0  0  0  0  0  0
  148.1085  136.8479  161.3424 N   0  0  0  0  0  0  0  0  0  0  0  0
  146.3070  137.5126  164.1534 H   0  0  0  0  0  0  0  0  0  0  0  0
  146.6596  138.6226  162.8356 H   0  0  0  0  0  0  0  0  0  0  0  0
  147.9378  138.1423  163.9480 H   0  0  0  0  0  0  0  0  0  0  0  0
  146.5568  134.8726  163.5631 H   0  0  0  0  0  0  0  0  0  0  0  0
  150.7315  135.8412  157.8676 H   0  0  0  0  0  0  0  0  0  0  0  0
  150.2366  138.6989  157.1868 H   0  0  0  0  0  0  0  0  0  0  0  0
  151.8328  138.1365  157.5419 H   0  0  0  0  0  0  0  0  0  0  0  0
  152.8815  137.2302  156.2560 H   0  0  0  0  0  0  0  0  0  0  0  0
  150.4251  135.8602  154.2211 H   0  0  0  0  0  0  0  0  0  0  0  0
  150.1282  135.3809  155.8618 H   0  0  0  0  0  0  0  0  0  0  0  0
  148.0187  135.9193  154.6741 H   0  0  0  0  0  0  0  0  0  0  0  0
  148.2356  137.0341  156.0045 H   0  0  0  0  0  0  0  0  0  0  0  0
  146.7095  138.6753  154.7511 H   0  0  0  0  0  0  0  0  0  0  0  0
  146.5814  137.4687  153.4651 H   0  0  0  0  0  0  0  0  0  0  0  0
  147.1480  139.0942  153.0899 H   0  0  0  0  0  0  0  0  0  0  0  0
  149.3909  139.7907  153.7528 H   0  0  0  0  0  0  0  0  0  0  0  0
  149.0576  139.4423  155.4314 H   0  0  0  0  0  0  0  0  0  0  0  0
  151.5150  139.3939  155.0103 H   0  0  0  0  0  0  0  0  0  0  0  0
  151.2887  138.2698  153.6966 H   0  0  0  0  0  0  0  0  0  0  0  0
  148.9329  137.5405  153.2137 H   0  0  0  0  0  0  0  0  0  0  0  0
  1  2  1  0  0  0  0
  1 20  1  0  0  0  0
  1 21  1  0  0  0  0
  1 22  1  0  0  0  0
  2 19  1  0  0  0  0
  2  3  2  0  0  0  0
  3  4  1  0  0  0  0
  3 23  1  0  0  0  0
  4  5  1  0  0  0  0
  5  6  1  0  0  0  0
  5 19  2  0  0  0  0
  6  7  1  0  0  0  0
  7  8  2  0  0  0  0
  7  9  1  0  0  0  0
  9 10  1  0  0  0  0
  9 24  1  0  0  0  0
 10 11  1  0  0  0  0
 10 25  1  0  0  0  0
 10 26  1  0  0  0  0
 11 18  1  0  0  0  0
 11 12  1  0  0  0  0
 11 13  1  0  0  0  0
 12 27  1  0  0  0  0
 13 14  1  0  0  0  0
 13 28  1  0  0  0  0
 13 29  1  0  0  0  0
 14 15  1  0  0  0  0
 14 30  1  0  0  0  0
 14 31  1  0  0  0  0
 15 16  1  0  0  0  0
 15 17  1  0  0  0  0
 15 39  1  0  0  0  0
 16 32  1  0  0  0  0
 16 33  1  0  0  0  0
 16 34  1  0  0  0  0
 17 18  1  0  0  0  0
 17 35  1  0  0  0  0
 17 36  1  0  0  0  0
 18 37  1  0  0  0  0
 18 38  1  0  0  0  0
M  CHG  1   6  -1
M  CHG  1  15   1
M  END
> <s_m_source_file>
AV-unprocessed.smi

> <i_m_source_file_index>
809

> <i_lp_mmshare_version>
43012

> <i_f3d_flags>
0

> <s_epik_input>
W0NIM11jMVtjSF1zYyhuMSlbTkhdQyg9TylbTkhdW0NIMl1DMihbT0hdKVtDSDJdW0NIMl1OKFtDSDNdKVtDSDJdW0NIMl0y

> <s_epik_cmdline>
J2VwaWtfcHl0aG9uJywgJy1waCcsICc3LjAnLCAnLXRuJywgJzgnLCAnLW1hJywgJzIwMCcsICctbWV0YWxfYmluZGluZycsICctaW1hZScsICc8aW5maWxlLm1hZT4nLCAnLW9tYWUnLCAnPG91dGZpbGUubWFlPic=

> <r_lp_tautomer_probability>
0.999

> <r_epik_Ionization_Penalty>
8.50704

> <r_epik_Ionization_Penalty_Charging>
6.65046

> <r_epik_Ionization_Penalty_Neutral>
1.85657

> <r_epik_State_Penalty>
6.64992

> <r_epik_Charging_Adjusted_Penalty>
13.3004

> <i_epik_Tot_Q>
0

> <i_epik_Tot_abs_Q>
2

> <r_epik_Metal_State_Penalty>
2.57297

> <b_epik_Metal_Only>
1

> <s_lp_Force_Field>
OPLS_2005

> <r_lp_Energy>
8.4344

> <b_lp_Chiralities_Consistent>
1

> <s_lp_Variant>
AV-unprocessed.smi:809-4

> <Gold.Version>
5.8.1

> <Gold.Id.Protein>
6NUR|6NUR_protein|mol2

> <Gold.PLP.Fitness>
47.6396

> <Gold.PLP.PLP>
-31.8443

> <Gold.PLP.part.hbond>
-5.8103

> <Gold.PLP.part.metal>
0.0000

> <Gold.PLP.part.buried>
-3.3327

> <Gold.PLP.part.nonpolar>
-22.7420

> <Gold.PLP.part.repulsive>
0.0917

> <Gold.PLP.ligand.clash>
0.0000

> <Gold.PLP.ligand.torsion>
0.7964

> <Gold.PLP.Chemscore.Hbond>
5.7915

> <Gold.PLP.Chemscore.CHOScore>
0.0000

> <Gold.PLP.Chemscore.Metal>
0.0000

> <Gold.Chemscore.Hbonds>
donor molecule, donor type, donor heavy atom, donor atom, acceptor molecule, acceptor atom, score
      L1  H    15    39       P1  7948  2.00
      P1  H  6896  6908       L1     6  2.00
      P1  H  6931  6943       L1    19  0.85
      P1  H  6934  6947       L1    19  0.05
      P1  H 10752 10765       L1    12  0.86

> <Gold.PLP.Chemscore.Internal.Correction>
0.0137

> <Gold.Rescore>
     Score         DG    S(hbond)    S(metal)    S(lipo)     H(rot)  DE(clash)    DE(int)     intcor
     16.91     -19.40       3.19        0.00      67.88       1.82       0.20       2.29       ----

> <Gold.Chemscore.Fitness>
16.9108

> <Gold.Chemscore.DG>
-19.4049

> <Gold.Chemscore.ZeroCoef>
-5.4800

> <Gold.Chemscore.Hbond>
3.1853

> <Gold.Chemscore.Metal>
0.0000

> <Gold.Chemscore.Lipo>
67.8770

> <Gold.Chemscore.Internal_Hbond>
0.0000

> <Gold.Chemscore.DEClash>
0.2005

> <Gold.Chemscore.DEInternal>
2.2935

> <Gold.Chemscore.Rot>
1.8186

> <Gold.Chemscore.Internal.Correction>
   9.000000E+99

> <Gold.Chemscore.Hbonds>
donor molecule, donor type, donor heavy atom, donor atom, acceptor molecule, acceptor atom, score
      L1  H    15    39       P1  7948  0.95
      P1  H  6896  6908       L1     6  0.47
      P1  H  6931  6943       L1    19  0.15
      P1  H  6934  6947       L1    19  0.01
      P1  H 10752 10765       L1    12  0.66

> <Gold.Chemscore.Hbond.Weighted>
-10.6390

> <Gold.Chemscore.Metal.Weighted>
-0.0000

> <Gold.Chemscore.Lipo.Weighted>
-7.9416

> <Gold.Chemscore.Internal_Hbond.Weighted>
0.0000

> <Gold.Chemscore.DEClash.Weighted>
0.2005

> <Gold.Chemscore.DEInternal.Weighted>
2.2935

> <Gold.Chemscore.Rot.Weighted>
4.6557

> <Gold.Chemscore.Internal.Correction.Weighted>
   9.000000E+99

> <Gold.Protein.RotatedTorsions>
[ 6907 6896 6895 6894 ] final  170.40 input  -60.11 | X-H torsion
[ 7974 7965 7964 7962 ] final   28.09 input  175.53 | X-H torsion
[ 8008 7997 7996 7995 ] final  -54.50 input   59.86 | X-H torsion
[ 10167 10162 10161 10158 ] final   -3.70 input  -65.29 | X-H torsion
[ 10718 10713 10712 10709 ] final  173.30 input   66.30 | X-H torsion
[ 10763 10752 10751 10750 ] final -161.14 input  -60.55 | X-H torsion
[ 11005 11000 10999 10996 ] final  -84.81 input  -57.11 | X-H torsion

> <Gold.Protein.ActiveResidues>
 VAL166  LYS551  ARG553  GLY616  TRP617  ASP618  TYR619  PRO620  LYS621  CYS622 
 ASP623  PHE694  ASN695  SER759  ASP760  ASP761  ALA762  ILE779  LEU786  VAL792 
 PHE793  MET794  SER795  GLU796  ALA797  LYS798  CYS799  TRP800  GLU811  SER814 

> <Gold.Protein.RotatedAtoms>
  151.8167  133.3389  159.3571 H   0  0  0  0  0  0  0  0  0  0  0  0  # atno 6907 bound_to 6896
  150.7308  134.5612  159.5852 H   0  0  0  0  0  0  0  0  0  0  0  0  # atno 6908 bound_to 6896
  152.3035  134.7584  160.0403 H   0  0  0  0  0  0  0  0  0  0  0  0  # atno 6909 bound_to 6896
  146.1748  139.7103  142.8942 H   0  0  0  0  0  0  0  0  0  0  0  0  # atno 7974 bound_to 7965
  154.4165  140.1175  156.5325 H   0  0  0  0  0  0  0  0  0  0  0  0  # atno 8008 bound_to 7997
  155.6590  140.3496  155.4756 H   0  0  0  0  0  0  0  0  0  0  0  0  # atno 8009 bound_to 7997
  155.9729  140.1145  157.0786 H   0  0  0  0  0  0  0  0  0  0  0  0  # atno 8010 bound_to 7997
  140.6900  143.6510  150.8350 H   0  0  0  0  0  0  0  0  0  0  0  0  # atno 10167 bound_to 10162
  156.9663  131.0076  151.2916 H   0  0  0  0  0  0  0  0  0  0  0  0  # atno 10718 bound_to 10713
  154.7330  135.3051  154.8859 H   0  0  0  0  0  0  0  0  0  0  0  0  # atno 10763 bound_to 10752
  153.9697  135.6743  153.4751 H   0  0  0  0  0  0  0  0  0  0  0  0  # atno 10764 bound_to 10752
  153.0936  135.4947  154.8658 H   0  0  0  0  0  0  0  0  0  0  0  0  # atno 10765 bound_to 10752
  141.1647  133.7366  156.8922 H   0  0  0  0  0  0  0  0  0  0  0  0  # atno 11005 bound_to 11000
  145.4241  141.0409  143.2947 LP  0  0  0  0  0  0  0  0  0  0  0  0  # atno 17320 bound_to 7965
  144.8219  139.5776  143.6983 LP  0  0  0  0  0  0  0  0  0  0  0  0  # atno 17321 bound_to 7965
  140.0221  143.5531  152.2796 LP  0  0  0  0  0  0  0  0  0  0  0  0  # atno 17342 bound_to 10162
  139.6293  144.7642  151.2570 LP  0  0  0  0  0  0  0  0  0  0  0  0  # atno 17343 bound_to 10162
  157.5623  130.8254  149.8282 LP  0  0  0  0  0  0  0  0  0  0  0  0  # atno 17370 bound_to 10713
  156.0301  130.3767  150.1712 LP  0  0  0  0  0  0  0  0  0  0  0  0  # atno 17371 bound_to 10713
  140.1640  134.9146  157.2751 LP  0  0  0  0  0  0  0  0  0  0  0  0  # atno 17394 bound_to 11000
  140.2578  134.3607  155.7418 LP  0  0  0  0  0  0  0  0  0  0  0  0  # atno 17395 bound_to 11000

$$$$
