AV-unprocessed.smi:3046|AV-procd|sdf|11620|dock8
  -GOLD-   2272017 03D 1   1.00000     0.00000
 Structure written by MMmdl.
 37 37  0  0  0  0  0  0  0  0  1 V2000
  153.0718  138.3086  154.4448 C   0  0  0  0  0  0  0  0  0  0  0  0
  151.8219  137.9408  154.1261 C   0  0  0  0  0  0  0  0  0  0  0  0
  150.8497  137.2861  155.0874 C   0  0  0  0  0  0  0  0  0  0  0  0
  150.2290  136.1078  154.4962 N   0  0  0  0  0  0  0  0  0  0  0  0
  150.0320  134.9383  155.1265 C   0  0  0  0  0  0  0  0  0  0  0  0
  150.3804  134.7390  156.2912 O   0  0  0  0  0  0  0  0  0  0  0  0
  149.3361  133.8401  154.3068 C   0  0  1  0  0  0  0  0  0  0  0  0
  149.3217  132.4875  155.0477 C   0  0  0  0  0  0  0  0  0  0  0  0
  147.9647  134.2589  153.9721 N   0  0  0  0  0  0  0  0  0  0  0  0
  147.2486  133.3872  153.0429 C   0  0  1  0  0  0  0  0  0  0  0  0
  146.5247  132.2432  153.7794 C   0  0  0  0  0  0  0  0  0  0  0  0
  146.2931  134.2561  152.1922 C   0  0  0  0  0  0  0  0  0  0  0  0
  145.5464  133.5108  151.1902 N   0  0  0  0  0  0  0  0  0  0  0  0
  145.8314  132.2710  150.6562 C   0  0  0  0  0  0  0  0  0  0  0  0
  144.8505  131.9814  149.7518 C   0  0  0  0  0  0  0  0  0  0  0  0
  144.0007  133.1218  149.7987 C   0  0  0  0  0  0  0  0  0  0  0  0
  144.4211  134.0359  150.6579 N   0  0  0  0  0  0  0  0  0  0  0  0
  153.4654  138.1558  155.4390 H   0  0  0  0  0  0  0  0  0  0  0  0
  153.7182  138.7698  153.7125 H   0  0  0  0  0  0  0  0  0  0  0  0
  151.4633  138.1087  153.1209 H   0  0  0  0  0  0  0  0  0  0  0  0
  151.3968  136.9765  155.9778 H   0  0  0  0  0  0  0  0  0  0  0  0
  150.0900  137.9986  155.4137 H   0  0  0  0  0  0  0  0  0  0  0  0
  149.9076  136.1894  153.5426 H   0  0  0  0  0  0  0  0  0  0  0  0
  149.9238  133.7267  153.3943 H   0  0  0  0  0  0  0  0  0  0  0  0
  150.3315  132.1674  155.3070 H   0  0  0  0  0  0  0  0  0  0  0  0
  148.8846  131.6978  154.4381 H   0  0  0  0  0  0  0  0  0  0  0  0
  148.7427  132.5427  155.9707 H   0  0  0  0  0  0  0  0  0  0  0  0
  147.4085  134.4539  154.7929 H   0  0  0  0  0  0  0  0  0  0  0  0
  147.9802  132.9553  152.3584 H   0  0  0  0  0  0  0  0  0  0  0  0
  145.9039  131.6718  153.0890 H   0  0  0  0  0  0  0  0  0  0  0  0
  145.8786  132.6169  154.5746 H   0  0  0  0  0  0  0  0  0  0  0  0
  147.2308  131.5423  154.2241 H   0  0  0  0  0  0  0  0  0  0  0  0
  145.5899  134.7961  152.8286 H   0  0  0  0  0  0  0  0  0  0  0  0
  146.8718  135.0195  151.6708 H   0  0  0  0  0  0  0  0  0  0  0  0
  146.6973  131.7033  150.9638 H   0  0  0  0  0  0  0  0  0  0  0  0
  144.7547  131.0912  149.1482 H   0  0  0  0  0  0  0  0  0  0  0  0
  143.0978  133.3119  149.2375 H   0  0  0  0  0  0  0  0  0  0  0  0
  1  2  2  0  0  0  0
  1 18  1  0  0  0  0
  1 19  1  0  0  0  0
  2  3  1  0  0  0  0
  2 20  1  0  0  0  0
  3  4  1  0  0  0  0
  3 21  1  0  0  0  0
  3 22  1  0  0  0  0
  4  5  1  0  0  0  0
  4 23  1  0  0  0  0
  5  6  2  0  0  0  0
  5  7  1  0  0  0  0
  7  8  1  0  0  0  0
  7  9  1  0  0  0  0
  7 24  1  0  0  0  0
  8 25  1  0  0  0  0
  8 26  1  0  0  0  0
  8 27  1  0  0  0  0
  9 10  1  0  0  0  0
  9 28  1  0  0  0  0
 10 11  1  0  0  0  0
 10 12  1  0  0  0  0
 10 29  1  0  0  0  0
 11 30  1  0  0  0  0
 11 31  1  0  0  0  0
 11 32  1  0  0  0  0
 12 13  1  0  0  0  0
 12 33  1  0  0  0  0
 12 34  1  0  0  0  0
 13 17  1  0  0  0  0
 13 14  1  0  0  0  0
 14 15  2  0  0  0  0
 14 35  1  0  0  0  0
 15 16  1  0  0  0  0
 15 36  1  0  0  0  0
 16 17  2  0  0  0  0
 16 37  1  0  0  0  0
M  END
> <s_m_source_file>
AV-unprocessed.smi

> <i_m_source_file_index>
3046

> <i_lp_mmshare_version>
43012

> <i_f3d_flags>
0

> <s_epik_input>
W0NIMl09W0NIXVtDSDJdW05IXUMoPU8pW0NASF0oW0NIM10pW05IXVtDQEhdKFtDSDNdKVtDSDJdbjFbY0hdW2NIXVtjSF1uMQ==

> <s_epik_cmdline>
J2VwaWtfcHl0aG9uJywgJy1waCcsICc3LjAnLCAnLXRuJywgJzgnLCAnLW1hJywgJzIwMCcsICctbWV0YWxfYmluZGluZycsICctaW1hZScsICc8aW5maWxlLm1hZT4nLCAnLW9tYWUnLCAnPG91dGZpbGUubWFlPic=

> <r_lp_tautomer_probability>
1

> <r_epik_Ionization_Penalty>
0.950627

> <r_epik_Ionization_Penalty_Charging>
0

> <r_epik_Ionization_Penalty_Neutral>
0.950627

> <r_epik_State_Penalty>
0.994814

> <r_epik_Charging_Adjusted_Penalty>
0.994814

> <i_epik_Tot_Q>
0

> <i_epik_Tot_abs_Q>
0

> <r_epik_Metal_State_Penalty>
0.994788

> <b_epik_Metal_Only>
0

> <s_lp_Force_Field>
OPLS_2005

> <r_lp_Energy>
8.07161

> <b_lp_Chiralities_Consistent>
1

> <s_lp_Variant>
AV-unprocessed.smi:3046-8

> <Gold.Version>
5.8.1

> <Gold.Id.Protein>
6NUR|6NUR_protein|mol2

> <Gold.PLP.Fitness>
42.7564

> <Gold.PLP.PLP>
-35.3884

> <Gold.PLP.part.hbond>
-2.5381

> <Gold.PLP.part.metal>
0.0000

> <Gold.PLP.part.buried>
-4.7884

> <Gold.PLP.part.nonpolar>
-29.0451

> <Gold.PLP.part.repulsive>
0.2417

> <Gold.PLP.ligand.clash>
0.0000

> <Gold.PLP.ligand.torsion>
0.9124

> <Gold.PLP.Chemscore.Hbond>
1.0000

> <Gold.PLP.Chemscore.CHOScore>
2.0000

> <Gold.PLP.Chemscore.Metal>
0.0000

> <Gold.Chemscore.Hbonds>
donor molecule, donor type, donor heavy atom, donor atom, acceptor molecule, acceptor atom, score
      L1  H     4    23       P1  7948  0.75
      L1  C    14    35       P1 10747  1.00
      L1  C    16    37       P1 10186  1.00

> <Gold.PLP.Chemscore.Internal.Correction>
0.1928

> <Gold.Rescore>
     Score         DG    S(hbond)    S(metal)    S(lipo)     H(rot)  DE(clash)    DE(int)     intcor
     11.41     -12.40       0.92        0.00      80.43       2.17       0.03       0.96       ----

> <Gold.Chemscore.Fitness>
11.4124

> <Gold.Chemscore.DG>
-12.4039

> <Gold.Chemscore.ZeroCoef>
-5.4800

> <Gold.Chemscore.Hbond>
0.9219

> <Gold.Chemscore.Metal>
0.0000

> <Gold.Chemscore.Lipo>
80.4269

> <Gold.Chemscore.Internal_Hbond>
0.0000

> <Gold.Chemscore.DEClash>
0.0305

> <Gold.Chemscore.DEInternal>
0.9610

> <Gold.Chemscore.Rot>
2.1739

> <Gold.Chemscore.Internal.Correction>
   9.000000E+99

> <Gold.Chemscore.Hbonds>
donor molecule, donor type, donor heavy atom, donor atom, acceptor molecule, acceptor atom, score
      L1  H     4    23       P1  7948  0.09

> <Gold.Chemscore.Hbond.Weighted>
-3.0791

> <Gold.Chemscore.Metal.Weighted>
-0.0000

> <Gold.Chemscore.Lipo.Weighted>
-9.4099

> <Gold.Chemscore.Internal_Hbond.Weighted>
0.0000

> <Gold.Chemscore.DEClash.Weighted>
0.0305

> <Gold.Chemscore.DEInternal.Weighted>
0.9610

> <Gold.Chemscore.Rot.Weighted>
5.5652

> <Gold.Chemscore.Internal.Correction.Weighted>
   9.000000E+99

> <Gold.Protein.RotatedTorsions>
[ 6907 6896 6895 6894 ] final  -28.48 input  -60.11 | X-H torsion
[ 7974 7965 7964 7962 ] final   41.22 input  175.53 | X-H torsion
[ 8008 7997 7996 7995 ] final -161.18 input   59.86 | X-H torsion
[ 10167 10162 10161 10158 ] final -101.78 input  -65.29 | X-H torsion
[ 10718 10713 10712 10709 ] final  -43.98 input   66.30 | X-H torsion
[ 10763 10752 10751 10750 ] final  163.42 input  -60.55 | X-H torsion
[ 11005 11000 10999 10996 ] final -115.87 input  -57.11 | X-H torsion

> <Gold.Protein.ActiveResidues>
 VAL166  LYS551  ARG553  GLY616  TRP617  ASP618  TYR619  PRO620  LYS621  CYS622 
 ASP623  PHE694  ASN695  SER759  ASP760  ASP761  ALA762  ILE779  LEU786  VAL792 
 PHE793  MET794  SER795  GLU796  ALA797  LYS798  CYS799  TRP800  GLU811  SER814 

> <Gold.Protein.RotatedAtoms>
  151.1323  135.0137  159.8587 H   0  0  0  0  0  0  0  0  0  0  0  0  # atno 6907 bound_to 6896
  152.5451  134.1595  159.8562 H   0  0  0  0  0  0  0  0  0  0  0  0  # atno 6908 bound_to 6896
  151.1663  133.4767  159.2627 H   0  0  0  0  0  0  0  0  0  0  0  0  # atno 6909 bound_to 6896
  146.0841  139.5441  142.9518 H   0  0  0  0  0  0  0  0  0  0  0  0  # atno 7974 bound_to 7965
  155.7885  140.0875  157.2022 H   0  0  0  0  0  0  0  0  0  0  0  0  # atno 8008 bound_to 7997
  154.3986  140.1494  156.3193 H   0  0  0  0  0  0  0  0  0  0  0  0  # atno 8009 bound_to 7997
  155.8583  140.3431  155.5742 H   0  0  0  0  0  0  0  0  0  0  0  0  # atno 8010 bound_to 7997
  140.2376  143.3561  152.0830 H   0  0  0  0  0  0  0  0  0  0  0  0  # atno 10167 bound_to 10162
  156.2434  130.4182  149.8734 H   0  0  0  0  0  0  0  0  0  0  0  0  # atno 10718 bound_to 10713
  154.2934  135.2760  155.2644 H   0  0  0  0  0  0  0  0  0  0  0  0  # atno 10763 bound_to 10752
  154.5113  135.5781  153.6610 H   0  0  0  0  0  0  0  0  0  0  0  0  # atno 10764 bound_to 10752
  152.9911  135.6182  154.3100 H   0  0  0  0  0  0  0  0  0  0  0  0  # atno 10765 bound_to 10752
  141.0459  133.9763  157.2918 H   0  0  0  0  0  0  0  0  0  0  0  0  # atno 11005 bound_to 11000
  145.6163  141.0331  143.1939 LP  0  0  0  0  0  0  0  0  0  0  0  0  # atno 17320 bound_to 7965
  144.7313  139.7716  143.7346 LP  0  0  0  0  0  0  0  0  0  0  0  0  # atno 17321 bound_to 7965
  139.5088  144.6856  151.5895 LP  0  0  0  0  0  0  0  0  0  0  0  0  # atno 17342 bound_to 10162
  140.6138  143.9387  150.6473 LP  0  0  0  0  0  0  0  0  0  0  0  0  # atno 17343 bound_to 10162
  156.6308  130.8665  151.3495 LP  0  0  0  0  0  0  0  0  0  0  0  0  # atno 17370 bound_to 10713
  157.7185  130.9527  150.1345 LP  0  0  0  0  0  0  0  0  0  0  0  0  # atno 17371 bound_to 10713
  139.9311  135.0200  156.8404 LP  0  0  0  0  0  0  0  0  0  0  0  0  # atno 17394 bound_to 11000
  140.6147  134.0049  155.7592 LP  0  0  0  0  0  0  0  0  0  0  0  0  # atno 17395 bound_to 11000

$$$$
