AV-unprocessed.smi:2627|AV-procd|sdf|10240|dock7
  -GOLD-   2272014253D 1   1.00000     0.00000
 Structure written by MMmdl.
 39 41  0  0  0  0  0  0  0  0  1 V2000
  151.1808  138.3085  158.5997 C   0  0  0  0  0  0  0  0  0  0  0  0
  152.4304  139.1836  158.4260 C   0  0  1  0  0  0  0  0  0  0  0  0
  152.8025  139.1710  157.0638 O   0  0  0  0  0  0  0  0  0  0  0  0
  152.2137  140.5838  158.9324 C   0  0  0  0  0  0  0  0  0  0  0  0
  152.9165  141.0593  159.9638 N   0  0  0  0  0  0  0  0  0  0  0  0
  152.4338  142.3445  160.1011 C   0  0  0  0  0  0  0  0  0  0  0  0
  152.7877  143.3658  161.0115 C   0  0  0  0  0  0  0  0  0  0  0  0
  152.1475  144.6212  160.9599 C   0  0  0  0  0  0  0  0  0  0  0  0
  151.1462  144.8721  159.9996 C   0  0  0  0  0  0  0  0  0  0  0  0
  150.7776  143.8670  159.0848 C   0  0  0  0  0  0  0  0  0  0  0  0
  151.4201  142.6152  159.1402 C   0  0  0  0  0  0  0  0  0  0  0  0
  151.2938  141.4381  158.4078 N   0  0  0  0  0  0  0  0  0  0  0  0
  150.3480  141.2264  157.3192 C   0  0  0  0  0  0  0  0  0  0  0  0
  150.9830  141.4411  155.9382 C   0  0  0  0  0  0  0  0  0  0  0  0
  150.6650  140.3523  155.0820 O   0  0  0  0  0  0  0  0  0  0  0  0
  149.3903  140.2830  154.5615 C   0  0  0  0  0  0  0  0  0  0  0  0
  148.6876  141.4979  154.4203 C   0  0  0  0  0  0  0  0  0  0  0  0
  147.3799  141.5193  153.8984 C   0  0  0  0  0  0  0  0  0  0  0  0
  146.7584  140.3187  153.5089 C   0  0  0  0  0  0  0  0  0  0  0  0
  147.4476  139.0990  153.6425 C   0  0  0  0  0  0  0  0  0  0  0  0
  148.7552  139.0777  154.1662 C   0  0  0  0  0  0  0  0  0  0  0  0
  150.8640  138.2824  159.6419 H   0  0  0  0  0  0  0  0  0  0  0  0
  151.3725  137.2822  158.2856 H   0  0  0  0  0  0  0  0  0  0  0  0
  150.3431  138.6852  158.0119 H   0  0  0  0  0  0  0  0  0  0  0  0
  153.2406  138.7066  158.9721 H   0  0  0  0  0  0  0  0  0  0  0  0
  152.1995  139.7220  156.5882 H   0  0  0  0  0  0  0  0  0  0  0  0
  153.5539  143.1831  161.7504 H   0  0  0  0  0  0  0  0  0  0  0  0
  152.4262  145.3951  161.6599 H   0  0  0  0  0  0  0  0  0  0  0  0
  150.6610  145.8365  159.9660 H   0  0  0  0  0  0  0  0  0  0  0  0
  150.0111  144.0576  158.3487 H   0  0  0  0  0  0  0  0  0  0  0  0
  149.9001  140.2369  157.3988 H   0  0  0  0  0  0  0  0  0  0  0  0
  149.5226  141.9273  157.4464 H   0  0  0  0  0  0  0  0  0  0  0  0
  150.6040  142.3712  155.5120 H   0  0  0  0  0  0  0  0  0  0  0  0
  152.0647  141.5367  156.0455 H   0  0  0  0  0  0  0  0  0  0  0  0
  149.1568  142.4261  154.7114 H   0  0  0  0  0  0  0  0  0  0  0  0
  146.8545  142.4575  153.7958 H   0  0  0  0  0  0  0  0  0  0  0  0
  145.7558  140.3332  153.1077 H   0  0  0  0  0  0  0  0  0  0  0  0
  146.9720  138.1767  153.3431 H   0  0  0  0  0  0  0  0  0  0  0  0
  149.2494  138.1223  154.2553 H   0  0  0  0  0  0  0  0  0  0  0  0
  1  2  1  0  0  0  0
  1 22  1  0  0  0  0
  1 23  1  0  0  0  0
  1 24  1  0  0  0  0
  2  3  1  0  0  0  0
  2  4  1  0  0  0  0
  2 25  1  0  0  0  0
  3 26  1  0  0  0  0
  4 12  1  0  0  0  0
  4  5  2  0  0  0  0
  5  6  1  0  0  0  0
  6 11  2  0  0  0  0
  6  7  1  0  0  0  0
  7  8  2  0  0  0  0
  7 27  1  0  0  0  0
  8  9  1  0  0  0  0
  8 28  1  0  0  0  0
  9 10  2  0  0  0  0
  9 29  1  0  0  0  0
 10 11  1  0  0  0  0
 10 30  1  0  0  0  0
 11 12  1  0  0  0  0
 12 13  1  0  0  0  0
 13 14  1  0  0  0  0
 13 31  1  0  0  0  0
 13 32  1  0  0  0  0
 14 15  1  0  0  0  0
 14 33  1  0  0  0  0
 14 34  1  0  0  0  0
 15 16  1  0  0  0  0
 16 21  1  0  0  0  0
 16 17  2  0  0  0  0
 17 18  1  0  0  0  0
 17 35  1  0  0  0  0
 18 19  2  0  0  0  0
 18 36  1  0  0  0  0
 19 20  1  0  0  0  0
 19 37  1  0  0  0  0
 20 21  2  0  0  0  0
 20 38  1  0  0  0  0
 21 39  1  0  0  0  0
M  END
> <s_m_source_file>
AV-unprocessed.smi

> <i_m_source_file_index>
2627

> <i_lp_mmshare_version>
43012

> <i_f3d_flags>
0

> <s_epik_input>
W2NIXTFbY0hdW2NIXVtjSF1jKGMxMiluKGMobjIpW0NASF0oW0NIM10pW09IXSlbQ0gyXVtDSDJdT2MzW2NIXVtjSF1bY0hdW2NIXVtjSF0z

> <s_epik_cmdline>
J2VwaWtfcHl0aG9uJywgJy1waCcsICc3LjAnLCAnLXRuJywgJzgnLCAnLW1hJywgJzIwMCcsICctbWV0YWxfYmluZGluZycsICctaW1hZScsICc8aW5maWxlLm1hZT4nLCAnLW9tYWUnLCAnPG91dGZpbGUubWFlPic=

> <r_lp_tautomer_probability>
1

> <r_epik_Ionization_Penalty>
0.0472514

> <r_epik_Ionization_Penalty_Charging>
0

> <r_epik_Ionization_Penalty_Neutral>
0.0472514

> <r_epik_State_Penalty>
0.040225

> <r_epik_Charging_Adjusted_Penalty>
0.040225

> <i_epik_Tot_Q>
0

> <i_epik_Tot_abs_Q>
0

> <r_epik_Metal_State_Penalty>
4.16204e-05

> <b_epik_Metal_Only>
0

> <s_lp_Force_Field>
OPLS_2005

> <r_lp_Energy>
14.021

> <b_lp_Chiralities_Consistent>
1

> <s_lp_Variant>
AV-unprocessed.smi:2627-2

> <Gold.Version>
5.8.1

> <Gold.Id.Protein>
6NUR|6NUR_protein|mol2

> <Gold.PLP.Fitness>
50.3006

> <Gold.PLP.PLP>
-46.4289

> <Gold.PLP.part.hbond>
-2.0000

> <Gold.PLP.part.metal>
0.0000

> <Gold.PLP.part.buried>
-4.8539

> <Gold.PLP.part.nonpolar>
-37.1279

> <Gold.PLP.part.repulsive>
0.0655

> <Gold.PLP.ligand.clash>
0.0000

> <Gold.PLP.ligand.torsion>
1.0946

> <Gold.PLP.Chemscore.Hbond>
2.0000

> <Gold.PLP.Chemscore.CHOScore>
0.0000

> <Gold.PLP.Chemscore.Metal>
0.0000

> <Gold.Chemscore.Hbonds>
donor molecule, donor type, donor heavy atom, donor atom, acceptor molecule, acceptor atom, score
      P1  H  7989  7998       L1    15  1.00
      P1  H  7997  8008       L1     3  1.00

> <Gold.PLP.Chemscore.Internal.Correction>
0.0610

> <Gold.Rescore>
     Score         DG    S(hbond)    S(metal)    S(lipo)     H(rot)  DE(clash)    DE(int)     intcor
     17.24     -18.49       1.19        0.00     122.29       2.06       0.11       1.14       ----

> <Gold.Chemscore.Fitness>
17.2382

> <Gold.Chemscore.DG>
-18.4887

> <Gold.Chemscore.ZeroCoef>
-5.4800

> <Gold.Chemscore.Hbond>
1.1882

> <Gold.Chemscore.Metal>
0.0000

> <Gold.Chemscore.Lipo>
122.2911

> <Gold.Chemscore.Internal_Hbond>
0.0000

> <Gold.Chemscore.DEClash>
0.1124

> <Gold.Chemscore.DEInternal>
1.1381

> <Gold.Chemscore.Rot>
2.0577

> <Gold.Chemscore.Internal.Correction>
   9.000000E+99

> <Gold.Chemscore.Hbonds>
donor molecule, donor type, donor heavy atom, donor atom, acceptor molecule, acceptor atom, score
      P1  H  7989  7998       L1    15  0.06
      P1  H  7997  8008       L1     3  0.23

> <Gold.Chemscore.Hbond.Weighted>
-3.9685

> <Gold.Chemscore.Metal.Weighted>
-0.0000

> <Gold.Chemscore.Lipo.Weighted>
-14.3081

> <Gold.Chemscore.Internal_Hbond.Weighted>
0.0000

> <Gold.Chemscore.DEClash.Weighted>
0.1124

> <Gold.Chemscore.DEInternal.Weighted>
1.1381

> <Gold.Chemscore.Rot.Weighted>
5.2678

> <Gold.Chemscore.Internal.Correction.Weighted>
   9.000000E+99

> <Gold.Protein.RotatedTorsions>
[ 6907 6896 6895 6894 ] final   78.10 input  -60.11 | X-H torsion
[ 7974 7965 7964 7962 ] final   87.81 input  175.53 | X-H torsion
[ 8008 7997 7996 7995 ] final  -63.93 input   59.86 | X-H torsion
[ 10167 10162 10161 10158 ] final  -90.54 input  -65.29 | X-H torsion
[ 10718 10713 10712 10709 ] final  -86.39 input   66.30 | X-H torsion
[ 10763 10752 10751 10750 ] final   46.56 input  -60.55 | X-H torsion
[ 11005 11000 10999 10996 ] final -141.90 input  -57.11 | X-H torsion

> <Gold.Protein.ActiveResidues>
 VAL166  LYS551  ARG553  GLY616  TRP617  ASP618  TYR619  PRO620  LYS621  CYS622 
 ASP623  PHE694  ASN695  SER759  ASP760  ASP761  ALA762  ILE779  LEU786  VAL792 
 PHE793  MET794  SER795  GLU796  ALA797  LYS798  CYS799  TRP800  GLU811  SER814 

> <Gold.Protein.RotatedAtoms>
  152.5145  134.3716  159.9319 H   0  0  0  0  0  0  0  0  0  0  0  0  # atno 6907 bound_to 6896
  151.3671  133.3862  159.2703 H   0  0  0  0  0  0  0  0  0  0  0  0  # atno 6908 bound_to 6896
  150.9607  134.9014  159.7787 H   0  0  0  0  0  0  0  0  0  0  0  0  # atno 6909 bound_to 6896
  145.5540  139.2298  143.2496 H   0  0  0  0  0  0  0  0  0  0  0  0  # atno 7974 bound_to 7965
  154.4582  140.0964  156.6818 H   0  0  0  0  0  0  0  0  0  0  0  0  # atno 8008 bound_to 7997
  155.5073  140.3475  155.4363 H   0  0  0  0  0  0  0  0  0  0  0  0  # atno 8009 bound_to 7997
  156.0819  140.1375  156.9690 H   0  0  0  0  0  0  0  0  0  0  0  0  # atno 8010 bound_to 7997
  140.3539  143.2877  151.9694 H   0  0  0  0  0  0  0  0  0  0  0  0  # atno 10167 bound_to 10162
  155.9990  130.4763  150.4708 H   0  0  0  0  0  0  0  0  0  0  0  0  # atno 10718 bound_to 10713
  152.9809  135.6004  154.3619 H   0  0  0  0  0  0  0  0  0  0  0  0  # atno 10763 bound_to 10752
  154.3300  135.2768  155.2478 H   0  0  0  0  0  0  0  0  0  0  0  0  # atno 10764 bound_to 10752
  154.4606  135.5967  153.6309 H   0  0  0  0  0  0  0  0  0  0  0  0  # atno 10765 bound_to 10752
  140.8278  134.2553  157.4871 H   0  0  0  0  0  0  0  0  0  0  0  0  # atno 11005 bound_to 11000
  146.1897  140.6364  142.9151 LP  0  0  0  0  0  0  0  0  0  0  0  0  # atno 17320 bound_to 7965
  144.7515  140.5203  143.6798 LP  0  0  0  0  0  0  0  0  0  0  0  0  # atno 17321 bound_to 7965
  139.4823  144.6052  151.7534 LP  0  0  0  0  0  0  0  0  0  0  0  0  # atno 17342 bound_to 10162
  140.5193  144.0904  150.6017 LP  0  0  0  0  0  0  0  0  0  0  0  0  # atno 17343 bound_to 10162
  157.2723  131.0589  151.2252 LP  0  0  0  0  0  0  0  0  0  0  0  0  # atno 17370 bound_to 10713
  157.3328  130.6993  149.6334 LP  0  0  0  0  0  0  0  0  0  0  0  0  # atno 17371 bound_to 10713
  139.8706  134.9570  156.4255 LP  0  0  0  0  0  0  0  0  0  0  0  0  # atno 17394 bound_to 11000
  140.9030  133.7766  155.9702 LP  0  0  0  0  0  0  0  0  0  0  0  0  # atno 17395 bound_to 11000

$$$$
