#       Name:                AV-unprocessed.smi:1667
#       Creating user name   scv26
#       Creation time:       Fri Mar 27 07:39:43 2020


#       File generated by GOLD software.
#

@<TRIPOS>MOLECULE
AV-unprocessed.smi:1667
    50    52     1
SMALL
NO_CHARGES


@<TRIPOS>ATOM
      1 ****        -2.7161   3.6538   0.7872 C.3            1 S1                 0.0000
      2 ****        -2.0143   2.3443   0.4459 C.2            1 S1                 0.0000
      3 ****        -1.3252   2.2597  -0.5686 O.2            1 S1                 0.0000
      4 ****        -2.1933   1.3304   1.3063 N.am           1 S1                 0.0000
      5 ****        -1.6539  -0.0198   1.1529 C.3            1 S1                 0.0000
      6 ****        -2.3168  -0.9441   2.1841 C.3            1 S1                 0.0000
      7 ****        -0.1569  -0.0830   1.2807 C.2            1 S1                 0.0000
      8 ****         0.6328   0.8042   1.9532 N.pl3          1 S1                 1.0000
      9 ****         1.9668   0.4064   1.8793 C.ar           1 S1                 0.0000
     10 ****         3.1202   0.9852   2.3994 C.ar           1 S1                 0.0000
     11 ****         4.3338   0.3116   2.1493 C.ar           1 S1                 0.0000
     12 ****         4.3681  -0.8893   1.4112 C.ar           1 S1                 0.0000
     13 ****         3.1914  -1.4656   0.8888 C.ar           1 S1                 0.0000
     14 ****         1.9964  -0.7897   1.1351 C.ar           1 S1                 0.0000
     15 ****         0.6679  -1.0504   0.7798 N.pl3          1 S1                 0.0000
     16 ****         0.3643  -2.2587  -0.0048 C.3            1 S1                 0.0000
     17 ****         0.7579  -2.1393  -1.4919 C.3            1 S1                 0.0000
     18 ****         0.5668  -3.4028  -2.0925 O.3            1 S1                 0.0000
     19 ****        -0.0028  -1.0421  -2.2217 C.ar           1 S1                 0.0000
     20 ****        -1.3712  -1.2004  -2.5337 C.ar           1 S1                 0.0000
     21 ****        -2.0647  -0.1850  -3.2204 C.ar           1 S1                 0.0000
     22 ****        -1.3930   0.9914  -3.6042 C.ar           1 S1                 0.0000
     23 ****        -0.0293   1.1558  -3.2935 C.ar           1 S1                 0.0000
     24 ****         0.6162   2.2895  -3.6559 F              1 S1                 0.0000
     25 ****         0.6625   0.1436  -2.6005 C.ar           1 S1                 0.0000
     26 ****        -1.9254  -0.3701   0.1566 H              1 S1                 0.0000
     27 ****        -2.5521   3.9188   1.8321 H              1 S1                 0.0000
     28 ****        -3.7891   3.5625   0.6171 H              1 S1                 0.0000
     29 ****        -2.3392   4.4678   0.1666 H              1 S1                 0.0000
     30 ****        -2.7769   1.4959   2.1136 H              1 S1                 0.0000
     31 ****        -1.9887  -1.9764   2.0616 H              1 S1                 0.0000
     32 ****        -3.4024  -0.9327   2.0818 H              1 S1                 0.0000
     33 ****        -2.0749  -0.6398   3.2031 H              1 S1                 0.0000
     34 ****         3.0954   1.9027   2.9689 H              1 S1                 0.0000
     35 ****         5.2560   0.7226   2.5339 H              1 S1                 0.0000
     36 ****         5.3161  -1.3793   1.2429 H              1 S1                 0.0000
     37 ****         3.2288  -2.3871   0.3266 H              1 S1                 0.0000
     38 ****         0.8849  -3.0949   0.4647 H              1 S1                 0.0000
     39 ****        -0.7002  -2.4721   0.0913 H              1 S1                 0.0000
     40 ****         1.8244  -1.9277  -1.5693 H              1 S1                 0.0000
     41 ****         0.8814  -3.3621  -2.9829 H              1 S1                 0.0000
     42 ****        -1.8931  -2.1015  -2.2460 H              1 S1                 0.0000
     43 ****        -3.1116  -0.3094  -3.4553 H              1 S1                 0.0000
     44 ****        -1.9246   1.7697  -4.1317 H              1 S1                 0.0000
     45 ****         1.7075   0.2804  -2.3641 H              1 S1                 0.0000
     46 ****         0.2779   1.6263   2.4242 H              1 S1                 0.0000
     47 ****        -1.2242   3.0509  -1.1718 LP             1 S1                 0.0000
     48 ****        -0.8657   1.3997  -0.7907 LP             1 S1                 0.0000
     49 ****        -0.4060  -3.6345  -2.0887 LP             1 S1                 0.0000
     50 ****         1.0769  -4.0978  -1.5859 LP             1 S1                 0.0000
@<TRIPOS>BOND
    1    1    2 1     
    2    1   27 1     
    3    1   28 1     
    4    1   29 1     
    5    2    3 2     
    6    2    4 am    
    7    4    5 1     
    8    4   30 1     
    9    5   26 1     
   10    5    6 1     
   11    5    7 1     
   12    6   31 1     
   13    6   32 1     
   14    6   33 1     
   15    7   15 1     
   16    7    8 2     
   17    8    9 1     
   18    8   46 1     
   19    9   14 ar    
   20    9   10 ar    
   21   10   11 ar    
   22   10   34 1     
   23   11   12 ar    
   24   11   35 1     
   25   12   13 ar    
   26   12   36 1     
   27   13   14 ar    
   28   13   37 1     
   29   14   15 1     
   30   15   16 1     
   31   16   17 1     
   32   16   38 1     
   33   16   39 1     
   34   17   18 1     
   35   17   19 1     
   36   17   40 1     
   37   18   41 1     
   38   19   25 ar    
   39   19   20 ar    
   40   20   21 ar    
   41   20   42 1     
   42   21   22 ar    
   43   21   43 1     
   44   22   23 ar    
   45   22   44 1     
   46   23   24 1     
   47   23   25 ar    
   48   25   45 1     
   49    3   47 1     
   50    3   48 1     
   51   18   49 1     
   52   18   50 1     
@<TRIPOS>SUBSTRUCTURE
      1 S1             1
@<TRIPOS>SET
LONE_PAIRS      STATIC     ATOMS    <user>   **** ""
4 47 48 49 50
DONOR_HYDROGENS      STATIC     ATOMS    <user>   **** ""
3 30 46 41
ATOM$BLUE        STATIC     ATOMS    COLORGROUP SYSTEM
4 47 48 49 50
ATOM$RED        STATIC     ATOMS    COLORGROUP SYSTEM
3 30 46 41
