AV-unprocessed.smi:203|AV-procd|sdf|1582|dock3
  -GOLD-   2262019473D 1   1.00000     0.00000
 Structure written by MMmdl.
 57 61  0  0  0  0  0  0  0  0  1 V2000
  153.0097  139.3580  156.5349 O   0  0  0  0  0  0  0  0  0  0  0  0
  151.9773  140.0234  156.5010 C   0  0  0  0  0  0  0  0  0  0  0  0
  151.1787  140.3957  157.7382 C   0  0  0  0  0  0  0  0  0  0  0  0
  150.1400  141.4063  157.2094 C   0  0  1  0  0  0  0  0  0  0  0  0
  150.3559  142.8736  157.6989 C   0  0  2  0  0  0  0  0  0  0  0  0
  151.8043  143.1367  158.1903 C   0  0  0  0  0  0  0  0  0  0  0  0
  151.9909  144.5856  158.6588 C   0  0  0  0  0  0  0  0  0  0  0  0
  150.9610  144.9189  159.7430 C   0  0  0  0  0  0  0  0  0  0  0  0
  149.5400  144.6536  159.2290 C   0  0  0  0  0  0  0  0  0  0  0  0
  149.3965  143.2821  158.7409 N   0  0  0  0  0  0  0  0  0  0  0  0
  148.0947  143.0065  158.5033 C   0  0  0  0  0  0  0  0  0  0  0  0
  147.7399  142.7530  157.2198 N   0  0  0  0  0  0  0  0  0  0  0  0
  146.4667  142.4755  156.9227 C   0  0  0  0  0  0  0  0  0  0  0  0
  145.4157  142.3959  157.7423 N   0  0  0  0  0  0  0  0  0  0  0  0
  145.7742  142.6415  159.0352 C   0  0  0  0  0  0  0  0  0  0  0  0
  147.0811  142.9560  159.5012 C   0  0  0  0  0  0  0  0  0  0  0  0
  147.0622  143.1469  160.8774 N   0  0  0  0  0  0  0  0  0  0  0  0
  145.8149  142.9522  161.2072 C   0  0  0  0  0  0  0  0  0  0  0  0
  144.9759  142.6254  160.1656 N   0  0  0  0  0  0  0  0  0  0  0  0
  143.5535  142.3436  160.2501 C   0  0  0  0  0  0  0  0  0  0  0  0
  142.7838  143.3188  161.1711 C   0  0  2  0  0  0  0  0  0  0  0  0
  142.2835  142.5930  162.2749 O   0  0  0  0  0  0  0  0  0  0  0  0
  141.6226  144.1201  160.5352 C   0  0  2  0  0  0  0  0  0  0  0  0
  141.9777  145.0308  159.3574 C   0  0  0  0  0  0  0  0  0  0  0  0
  140.8094  145.9910  159.3641 C   0  0  0  0  0  0  0  0  0  0  0  0
  140.5517  146.1720  160.8586 C   0  0  0  0  0  0  0  0  0  0  0  0
  140.9695  144.9605  161.4830 O   0  0  0  0  0  0  0  0  0  0  0  0
  150.1906  141.2613  155.6732 C   0  0  0  0  0  0  0  0  0  0  0  0
  151.4027  140.5127  155.4042 N   0  0  0  0  0  0  0  0  0  0  0  0
  150.6917  139.5033  158.1326 H   0  0  0  0  0  0  0  0  0  0  0  0
  151.8206  140.8022  158.5200 H   0  0  0  0  0  0  0  0  0  0  0  0
  149.1481  141.0737  157.5160 H   0  0  0  0  0  0  0  0  0  0  0  0
  150.1898  143.5277  156.8424 H   0  0  0  0  0  0  0  0  0  0  0  0
  152.0509  142.4691  159.0160 H   0  0  0  0  0  0  0  0  0  0  0  0
  152.5273  142.9263  157.4032 H   0  0  0  0  0  0  0  0  0  0  0  0
  153.0014  144.7309  159.0417 H   0  0  0  0  0  0  0  0  0  0  0  0
  151.8739  145.2658  157.8142 H   0  0  0  0  0  0  0  0  0  0  0  0
  151.1495  144.3133  160.6304 H   0  0  0  0  0  0  0  0  0  0  0  0
  151.0604  145.9608  160.0482 H   0  0  0  0  0  0  0  0  0  0  0  0
  148.8235  144.8415  160.0301 H   0  0  0  0  0  0  0  0  0  0  0  0
  149.3050  145.3512  158.4236 H   0  0  0  0  0  0  0  0  0  0  0  0
  146.2610  142.2881  155.8791 H   0  0  0  0  0  0  0  0  0  0  0  0
  145.4749  143.0285  162.2298 H   0  0  0  0  0  0  0  0  0  0  0  0
  143.1383  142.3641  159.2417 H   0  0  0  0  0  0  0  0  0  0  0  0
  143.4333  141.3201  160.6076 H   0  0  0  0  0  0  0  0  0  0  0  0
  143.4942  144.0377  161.5794 H   0  0  0  0  0  0  0  0  0  0  0  0
  142.2017  141.6857  162.0249 H   0  0  0  0  0  0  0  0  0  0  0  0
  140.8582  143.4167  160.1996 H   0  0  0  0  0  0  0  0  0  0  0  0
  142.9013  145.5805  159.5349 H   0  0  0  0  0  0  0  0  0  0  0  0
  142.0791  144.4885  158.4172 H   0  0  0  0  0  0  0  0  0  0  0  0
  141.0204  146.9298  158.8516 H   0  0  0  0  0  0  0  0  0  0  0  0
  139.9438  145.5282  158.8878 H   0  0  0  0  0  0  0  0  0  0  0  0
  141.1539  146.9902  161.2542 H   0  0  0  0  0  0  0  0  0  0  0  0
  139.5056  146.3893  161.0747 H   0  0  0  0  0  0  0  0  0  0  0  0
  149.3378  140.6862  155.3098 H   0  0  0  0  0  0  0  0  0  0  0  0
  150.1878  142.2168  155.1483 H   0  0  0  0  0  0  0  0  0  0  0  0
  151.7660  140.3839  154.4708 H   0  0  0  0  0  0  0  0  0  0  0  0
  1  2  2  0  0  0  0
  2 29  1  0  0  0  0
  2  3  1  0  0  0  0
  3  4  1  0  0  0  0
  3 30  1  0  0  0  0
  3 31  1  0  0  0  0
  4  5  1  0  0  0  0
  4 28  1  0  0  0  0
  4 32  1  0  0  0  0
  5 10  1  0  0  0  0
  5  6  1  0  0  0  0
  5 33  1  0  0  0  0
  6  7  1  0  0  0  0
  6 34  1  0  0  0  0
  6 35  1  0  0  0  0
  7  8  1  0  0  0  0
  7 36  1  0  0  0  0
  7 37  1  0  0  0  0
  8  9  1  0  0  0  0
  8 38  1  0  0  0  0
  8 39  1  0  0  0  0
  9 10  1  0  0  0  0
  9 40  1  0  0  0  0
  9 41  1  0  0  0  0
 10 11  1  0  0  0  0
 11 16  1  0  0  0  0
 11 12  2  0  0  0  0
 12 13  1  0  0  0  0
 13 14  2  0  0  0  0
 13 42  1  0  0  0  0
 14 15  1  0  0  0  0
 15 19  1  0  0  0  0
 15 16  2  0  0  0  0
 16 17  1  0  0  0  0
 17 18  2  0  0  0  0
 18 19  1  0  0  0  0
 18 43  1  0  0  0  0
 19 20  1  0  0  0  0
 20 21  1  0  0  0  0
 20 44  1  0  0  0  0
 20 45  1  0  0  0  0
 21 22  1  0  0  0  0
 21 23  1  0  0  0  0
 21 46  1  0  0  0  0
 22 47  1  0  0  0  0
 23 27  1  0  0  0  0
 23 24  1  0  0  0  0
 23 48  1  0  0  0  0
 24 25  1  0  0  0  0
 24 49  1  0  0  0  0
 24 50  1  0  0  0  0
 25 26  1  0  0  0  0
 25 51  1  0  0  0  0
 25 52  1  0  0  0  0
 26 27  1  0  0  0  0
 26 53  1  0  0  0  0
 26 54  1  0  0  0  0
 28 29  1  0  0  0  0
 28 55  1  0  0  0  0
 28 56  1  0  0  0  0
 29 57  1  0  0  0  0
M  END
> <s_m_source_file>
AV-unprocessed.smi

> <i_m_source_file_index>
203

> <i_lp_mmshare_version>
43012

> <i_f3d_flags>
0

> <s_epik_input>
Tz1DMVtDSDJdW0NASF0oW0NIMl1bTkhdMSlbQ0BASF0yW0NIMl1bQ0gyXVtDSDJdW0NIMl1OMmMobltjSF1uMyljKGMzNCluW2NIXW40W0NIMl1bQ0BIXShbT0hdKVtDQEBIXTVbQ0gyXVtDSDJdW0NIMl1PNQ==

> <s_epik_cmdline>
J2VwaWtfcHl0aG9uJywgJy1waCcsICc3LjAnLCAnLXRuJywgJzgnLCAnLW1hJywgJzIwMCcsICctbWV0YWxfYmluZGluZycsICctaW1hZScsICc8aW5maWxlLm1hZT4nLCAnLW9tYWUnLCAnPG91dGZpbGUubWFlPic=

> <r_lp_tautomer_probability>
1

> <r_epik_Ionization_Penalty>
0.00175146

> <r_epik_Ionization_Penalty_Charging>
0

> <r_epik_Ionization_Penalty_Neutral>
0.00175146

> <r_epik_State_Penalty>
0.00109045

> <r_epik_Charging_Adjusted_Penalty>
0.00109045

> <i_epik_Tot_Q>
0

> <i_epik_Tot_abs_Q>
0

> <r_epik_Metal_State_Penalty>
-0

> <b_epik_Metal_Only>
0

> <s_lp_Force_Field>
OPLS_2005

> <r_lp_Energy>
56.5802

> <b_lp_Chiralities_Consistent>
1

> <s_lp_Variant>
AV-unprocessed.smi:203-1

> <Gold.Version>
5.8.1

> <Gold.Id.Protein>
6NUR|6NUR_protein|mol2

> <Gold.PLP.Fitness>
40.8171

> <Gold.PLP.PLP>
-39.4172

> <Gold.PLP.part.hbond>
-5.7053

> <Gold.PLP.part.metal>
0.0000

> <Gold.PLP.part.buried>
-4.7658

> <Gold.PLP.part.nonpolar>
-31.3601

> <Gold.PLP.part.repulsive>
2.4112

> <Gold.PLP.ligand.clash>
0.0000

> <Gold.PLP.ligand.torsion>
2.4478

> <Gold.PLP.Chemscore.Hbond>
2.0000

> <Gold.PLP.Chemscore.CHOScore>
0.0000

> <Gold.PLP.Chemscore.Metal>
0.0000

> <Gold.Chemscore.Hbonds>
donor molecule, donor type, donor heavy atom, donor atom, acceptor molecule, acceptor atom, score
      P1  H  6933  6944       L1    17  1.00
      P1  H  7997  8010       L1     1  0.99

> <Gold.PLP.Chemscore.Internal.Correction>
0.2955

> <Gold.Rescore>
     Score         DG    S(hbond)    S(metal)    S(lipo)     H(rot)  DE(clash)    DE(int)     intcor
      5.09     -13.30       1.45        0.00      84.88       2.72       3.48       4.73       ----

> <Gold.Chemscore.Fitness>
5.0934

> <Gold.Chemscore.DG>
-13.3010

> <Gold.Chemscore.ZeroCoef>
-5.4800

> <Gold.Chemscore.Hbond>
1.4508

> <Gold.Chemscore.Metal>
0.0000

> <Gold.Chemscore.Lipo>
84.8815

> <Gold.Chemscore.Internal_Hbond>
0.0000

> <Gold.Chemscore.DEClash>
3.4769

> <Gold.Chemscore.DEInternal>
4.7307

> <Gold.Chemscore.Rot>
2.7171

> <Gold.Chemscore.Internal.Correction>
   9.000000E+99

> <Gold.Chemscore.Hbonds>
donor molecule, donor type, donor heavy atom, donor atom, acceptor molecule, acceptor atom, score
      P1  H  6933  6944       L1    17  0.49
      P1  H  7997  8010       L1     1  0.88

> <Gold.Chemscore.Hbond.Weighted>
-4.8456

> <Gold.Chemscore.Metal.Weighted>
-0.0000

> <Gold.Chemscore.Lipo.Weighted>
-9.9311

> <Gold.Chemscore.Internal_Hbond.Weighted>
0.0000

> <Gold.Chemscore.DEClash.Weighted>
3.4769

> <Gold.Chemscore.DEInternal.Weighted>
4.7307

> <Gold.Chemscore.Rot.Weighted>
6.9557

> <Gold.Chemscore.Internal.Correction.Weighted>
   9.000000E+99

> <Gold.Protein.RotatedTorsions>
[ 6907 6896 6895 6894 ] final  -48.38 input  -60.11 | X-H torsion
[ 7974 7965 7964 7962 ] final  -87.92 input  175.53 | X-H torsion
[ 8008 7997 7996 7995 ] final   72.26 input   59.86 | X-H torsion
[ 10167 10162 10161 10158 ] final -145.28 input  -65.29 | X-H torsion
[ 10718 10713 10712 10709 ] final -157.39 input   66.30 | X-H torsion
[ 10763 10752 10751 10750 ] final   93.34 input  -60.55 | X-H torsion
[ 11005 11000 10999 10996 ] final   91.95 input  -57.11 | X-H torsion

> <Gold.Protein.ActiveResidues>
 VAL166  LYS551  ARG553  GLY616  TRP617  ASP618  TYR619  PRO620  LYS621  CYS622 
 ASP623  PHE694  ASN695  SER759  ASP760  ASP761  ALA762  ILE779  LEU786  VAL792 
 PHE793  MET794  SER795  GLU796  ALA797  LYS798  CYS799  TRP800  GLU811  SER814 

> <Gold.Protein.RotatedAtoms>
  150.8911  134.8315  159.7293 H   0  0  0  0  0  0  0  0  0  0  0  0  # atno 6907 bound_to 6896
  152.4838  134.4646  159.9626 H   0  0  0  0  0  0  0  0  0  0  0  0  # atno 6908 bound_to 6896
  151.4709  133.3530  159.2858 H   0  0  0  0  0  0  0  0  0  0  0  0  # atno 6909 bound_to 6896
  145.4601  140.9561  143.1974 H   0  0  0  0  0  0  0  0  0  0  0  0  # atno 7974 bound_to 7965
  155.7662  140.3485  155.5223 H   0  0  0  0  0  0  0  0  0  0  0  0  # atno 8008 bound_to 7997
  155.8866  140.1011  157.1469 H   0  0  0  0  0  0  0  0  0  0  0  0  # atno 8009 bound_to 7997
  154.4029  140.1312  156.4251 H   0  0  0  0  0  0  0  0  0  0  0  0  # atno 8010 bound_to 7997
  139.7820  143.8087  152.2640 H   0  0  0  0  0  0  0  0  0  0  0  0  # atno 10167 bound_to 10162
  156.5396  130.8557  151.2744 H   0  0  0  0  0  0  0  0  0  0  0  0  # atno 10718 bound_to 10713
  153.2292  135.4329  155.0576 H   0  0  0  0  0  0  0  0  0  0  0  0  # atno 10763 bound_to 10752
  154.8288  135.3375  154.6813 H   0  0  0  0  0  0  0  0  0  0  0  0  # atno 10764 bound_to 10752
  153.7241  135.7015  153.5061 H   0  0  0  0  0  0  0  0  0  0  0  0  # atno 10765 bound_to 10752
  139.8830  134.8704  156.3503 H   0  0  0  0  0  0  0  0  0  0  0  0  # atno 11005 bound_to 11000
  144.8008  139.6145  143.7072 LP  0  0  0  0  0  0  0  0  0  0  0  0  # atno 17320 bound_to 7965
  146.2456  139.6091  142.9462 LP  0  0  0  0  0  0  0  0  0  0  0  0  # atno 17321 bound_to 7965
  139.8153  144.7319  150.9643 LP  0  0  0  0  0  0  0  0  0  0  0  0  # atno 17342 bound_to 10162
  140.7818  143.4211  151.0840 LP  0  0  0  0  0  0  0  0  0  0  0  0  # atno 17343 bound_to 10162
  157.7407  130.9856  150.2399 LP  0  0  0  0  0  0  0  0  0  0  0  0  # atno 17370 bound_to 10713
  156.2984  130.3755  149.7774 LP  0  0  0  0  0  0  0  0  0  0  0  0  # atno 17371 bound_to 10713
  140.9599  133.7395  156.0387 LP  0  0  0  0  0  0  0  0  0  0  0  0  # atno 17394 bound_to 11000
  140.8002  134.3517  157.5441 LP  0  0  0  0  0  0  0  0  0  0  0  0  # atno 17395 bound_to 11000

$$$$
