AV-unprocessed.smi:2783|AV-procd|sdf|10725|dock3
  -GOLD-   2272015163D 1   1.00000     0.00000
 Structure written by MMmdl.
 28 28  0  0  0  0  0  0  0  0  2 V2000
  152.9867  142.4830  161.2112 C   0  0  0  0  0  0  0  0  0  0  0  0
  151.7680  143.1395  160.8669 O   0  0  0  0  0  0  0  0  0  0  0  0
  151.5088  143.4069  159.4805 C   0  0  0  0  0  0  0  0  0  0  0  0
  150.1548  144.1377  159.4490 C   0  0  0  0  0  0  0  0  0  0  0  0
  152.6022  144.3294  158.8923 C   0  0  0  0  0  0  0  0  0  0  0  0
  151.3815  142.0913  158.6765 C   0  0  0  0  0  0  0  0  0  0  0  0
  151.5578  141.0152  159.2483 O   0  0  0  0  0  0  0  0  0  0  0  0
  151.1043  142.2225  157.3646 N   0  0  0  0  0  0  0  0  0  0  0  0
  150.9065  141.2368  156.3551 C   0  0  0  0  0  0  0  0  0  0  0  0
  149.9313  141.3254  155.3312 C   0  0  0  0  0  0  0  0  0  0  0  0
  149.8440  140.2835  154.3871 C   0  0  0  0  0  0  0  0  0  0  0  0
  150.6442  139.1980  154.3967 N   0  0  0  0  0  0  0  0  0  0  0  0
  151.5774  139.1169  155.3675 C   0  0  0  0  0  0  0  0  0  0  0  0
  151.7516  140.1009  156.3628 C   0  0  0  0  0  0  0  0  0  0  0  0
  152.7273  139.9399  157.3085 O   0  5  0  0  0  0  0  0  0  0  0  0
  152.9733  142.2457  162.2746 H   0  0  0  0  0  0  0  0  0  0  0  0
  153.8497  143.1249  161.0358 H   0  0  0  0  0  0  0  0  0  0  0  0
  153.1330  141.5485  160.6699 H   0  0  0  0  0  0  0  0  0  0  0  0
  149.8617  144.3980  158.4310 H   0  0  0  0  0  0  0  0  0  0  0  0
  150.1949  145.0622  160.0258 H   0  0  0  0  0  0  0  0  0  0  0  0
  149.3603  143.5234  159.8753 H   0  0  0  0  0  0  0  0  0  0  0  0
  152.3256  144.6950  157.9026 H   0  0  0  0  0  0  0  0  0  0  0  0
  153.5591  143.8168  158.7885 H   0  0  0  0  0  0  0  0  0  0  0  0
  152.7603  145.2019  159.5267 H   0  0  0  0  0  0  0  0  0  0  0  0
  151.0292  143.1736  157.0322 H   0  0  0  0  0  0  0  0  0  0  0  0
  149.2558  142.1598  155.2384 H   0  0  0  0  0  0  0  0  0  0  0  0
  149.1090  140.3264  153.5970 H   0  0  0  0  0  0  0  0  0  0  0  0
  152.2064  138.2388  155.3471 H   0  0  0  0  0  0  0  0  0  0  0  0
  1  2  1  0  0  0  0
  1 16  1  0  0  0  0
  1 17  1  0  0  0  0
  1 18  1  0  0  0  0
  2  3  1  0  0  0  0
  3  4  1  0  0  0  0
  3  5  1  0  0  0  0
  3  6  1  0  0  0  0
  4 19  1  0  0  0  0
  4 20  1  0  0  0  0
  4 21  1  0  0  0  0
  5 22  1  0  0  0  0
  5 23  1  0  0  0  0
  5 24  1  0  0  0  0
  6  7  2  0  0  0  0
  6  8  1  0  0  0  0
  8 25  1  0  0  0  0
  8  9  1  0  0  0  0
  9 10  2  0  0  0  0
  9 14  1  0  0  0  0
 10 11  1  0  0  0  0
 10 26  1  0  0  0  0
 11 12  2  0  0  0  0
 11 27  1  0  0  0  0
 12 13  1  0  0  0  0
 13 14  2  0  0  0  0
 13 28  1  0  0  0  0
 14 15  1  0  0  0  0
M  CHG  1  15  -1
M  END
> <s_m_source_file>
AV-unprocessed.smi

> <i_m_source_file_index>
2783

> <i_lp_mmshare_version>
43012

> <i_f3d_flags>
0

> <s_epik_input>
W0NIM11PQyhbQ0gzXSkoW0NIM10pQyg9TylbTkhdYzFbY0hdW2NIXW5bY0hdYzFbT0hd

> <s_epik_cmdline>
J2VwaWtfcHl0aG9uJywgJy1waCcsICc3LjAnLCAnLXRuJywgJzgnLCAnLW1hJywgJzIwMCcsICctbWV0YWxfYmluZGluZycsICctaW1hZScsICc8aW5maWxlLm1hZT4nLCAnLW9tYWUnLCAnPG91dGZpbGUubWFlPic=

> <r_lp_tautomer_probability>
0.56342

> <r_epik_Ionization_Penalty>
4.44895

> <r_epik_Ionization_Penalty_Charging>
2.11839

> <r_epik_Ionization_Penalty_Neutral>
2.33056

> <r_epik_State_Penalty>
2.66573

> <r_epik_Charging_Adjusted_Penalty>
4.78411

> <i_epik_Tot_Q>
-1

> <i_epik_Tot_abs_Q>
1

> <r_epik_Metal_State_Penalty>
0.617134

> <b_epik_Metal_Only>
1

> <s_lp_Force_Field>
OPLS_2005

> <r_lp_Energy>
12.8614

> <b_lp_Chiralities_Consistent>
1

> <s_lp_Variant>
AV-unprocessed.smi:2783-3

> <Gold.Version>
5.8.1

> <Gold.Id.Protein>
6NUR|6NUR_protein|mol2

> <Gold.PLP.Fitness>
39.6875

> <Gold.PLP.PLP>
-31.6782

> <Gold.PLP.part.hbond>
-2.1337

> <Gold.PLP.part.metal>
0.0000

> <Gold.PLP.part.buried>
-2.6554

> <Gold.PLP.part.nonpolar>
-27.0197

> <Gold.PLP.part.repulsive>
0.2832

> <Gold.PLP.ligand.clash>
0.0000

> <Gold.PLP.ligand.torsion>
0.3264

> <Gold.PLP.Chemscore.Hbond>
2.0000

> <Gold.PLP.Chemscore.CHOScore>
0.8767

> <Gold.PLP.Chemscore.Metal>
0.0000

> <Gold.Chemscore.Hbonds>
donor molecule, donor type, donor heavy atom, donor atom, acceptor molecule, acceptor atom, score
      P1  H  7997  8010       L1    15  2.00
      L1  C    11    27       P1  7957  0.90

> <Gold.PLP.Chemscore.Internal.Correction>
0.0321

> <Gold.Rescore>
     Score         DG    S(hbond)    S(metal)    S(lipo)     H(rot)  DE(clash)    DE(int)     intcor
      9.69     -15.30       1.00        0.00      82.56       1.24       0.01       5.60       ----

> <Gold.Chemscore.Fitness>
9.6898

> <Gold.Chemscore.DG>
-15.2972

> <Gold.Chemscore.ZeroCoef>
-5.4800

> <Gold.Chemscore.Hbond>
0.9978

> <Gold.Chemscore.Metal>
0.0000

> <Gold.Chemscore.Lipo>
82.5593

> <Gold.Chemscore.Internal_Hbond>
0.0000

> <Gold.Chemscore.DEClash>
0.0089

> <Gold.Chemscore.DEInternal>
5.5986

> <Gold.Chemscore.Rot>
1.2402

> <Gold.Chemscore.Internal.Correction>
   9.000000E+99

> <Gold.Chemscore.Hbonds>
donor molecule, donor type, donor heavy atom, donor atom, acceptor molecule, acceptor atom, score
      P1  H  7997  8010       L1    15  0.88

> <Gold.Chemscore.Hbond.Weighted>
-3.3327

> <Gold.Chemscore.Metal.Weighted>
-0.0000

> <Gold.Chemscore.Lipo.Weighted>
-9.6594

> <Gold.Chemscore.Internal_Hbond.Weighted>
0.0000

> <Gold.Chemscore.DEClash.Weighted>
0.0089

> <Gold.Chemscore.DEInternal.Weighted>
5.5986

> <Gold.Chemscore.Rot.Weighted>
3.1750

> <Gold.Chemscore.Internal.Correction.Weighted>
   9.000000E+99

> <Gold.Protein.RotatedTorsions>
[ 6907 6896 6895 6894 ] final  -11.37 input  -60.11 | X-H torsion
[ 7974 7965 7964 7962 ] final -141.08 input  175.53 | X-H torsion
[ 8008 7997 7996 7995 ] final   58.70 input   59.86 | X-H torsion
[ 10167 10162 10161 10158 ] final   23.47 input  -65.29 | X-H torsion
[ 10718 10713 10712 10709 ] final   80.04 input   66.30 | X-H torsion
[ 10763 10752 10751 10750 ] final   31.63 input  -60.55 | X-H torsion
[ 11005 11000 10999 10996 ] final  121.65 input  -57.11 | X-H torsion

> <Gold.Protein.ActiveResidues>
 VAL166  LYS551  ARG553  GLY616  TRP617  ASP618  TYR619  PRO620  LYS621  CYS622 
 ASP623  PHE694  ASN695  SER759  ASP760  ASP761  ALA762  ILE779  LEU786  VAL792 
 PHE793  MET794  SER795  GLU796  ALA797  LYS798  CYS799  TRP800  GLU811  SER814 

> <Gold.Protein.RotatedAtoms>
  151.3873  135.0950  159.9514 H   0  0  0  0  0  0  0  0  0  0  0  0  # atno 6907 bound_to 6896
  152.5090  133.9014  159.7453 H   0  0  0  0  0  0  0  0  0  0  0  0  # atno 6908 bound_to 6896
  150.9460  133.6547  159.2810 H   0  0  0  0  0  0  0  0  0  0  0  0  # atno 6909 bound_to 6896
  144.8547  140.6122  143.5367 H   0  0  0  0  0  0  0  0  0  0  0  0  # atno 7974 bound_to 7965
  155.5543  140.3487  155.4476 H   0  0  0  0  0  0  0  0  0  0  0  0  # atno 8008 bound_to 7997
  156.0560  140.1329  157.0021 H   0  0  0  0  0  0  0  0  0  0  0  0  # atno 8009 bound_to 7997
  154.4457  140.0995  156.6432 H   0  0  0  0  0  0  0  0  0  0  0  0  # atno 8010 bound_to 7997
  140.5266  143.9912  150.6444 H   0  0  0  0  0  0  0  0  0  0  0  0  # atno 10167 bound_to 10162
  157.6794  130.9941  150.2020 H   0  0  0  0  0  0  0  0  0  0  0  0  # atno 10718 bound_to 10713
  153.0305  135.6434  154.1229 H   0  0  0  0  0  0  0  0  0  0  0  0  # atno 10763 bound_to 10752
  154.0952  135.2863  155.3265 H   0  0  0  0  0  0  0  0  0  0  0  0  # atno 10764 bound_to 10752
  154.6437  135.5450  153.7883 H   0  0  0  0  0  0  0  0  0  0  0  0  # atno 10765 bound_to 10752
  139.9234  134.9639  156.7989 H   0  0  0  0  0  0  0  0  0  0  0  0  # atno 11005 bound_to 11000
  145.4430  139.1533  143.3960 LP  0  0  0  0  0  0  0  0  0  0  0  0  # atno 17320 bound_to 7965
  146.2813  140.4553  142.8775 LP  0  0  0  0  0  0  0  0  0  0  0  0  # atno 17321 bound_to 7965
  140.3276  143.3098  152.0720 LP  0  0  0  0  0  0  0  0  0  0  0  0  # atno 17342 bound_to 10162
  139.4940  144.6531  151.6631 LP  0  0  0  0  0  0  0  0  0  0  0  0  # atno 17343 bound_to 10162
  156.2709  130.3721  149.8033 LP  0  0  0  0  0  0  0  0  0  0  0  0  # atno 17370 bound_to 10713
  156.5750  130.8441  151.3367 LP  0  0  0  0  0  0  0  0  0  0  0  0  # atno 17371 bound_to 10713
  140.6406  133.9822  155.7705 LP  0  0  0  0  0  0  0  0  0  0  0  0  # atno 17394 bound_to 11000
  141.0774  134.0114  157.3437 LP  0  0  0  0  0  0  0  0  0  0  0  0  # atno 17395 bound_to 11000

$$$$
