AV-unprocessed.smi:1199|AV-procd|sdf|5015|dock10
  -GOLD-   22720 4 33D 1   1.00000     0.00000
 Structure written by MMmdl.
 40 41  0  0  0  0  0  0  0  0  2 V2000
  151.0299  138.5361  155.8753 C   0  0  0  0  0  0  0  0  0  0  0  0
  151.2589  137.9518  157.2805 C   0  0  1  0  0  0  0  0  0  0  0  0
  152.2996  138.7560  158.0989 C   0  0  0  0  0  0  0  0  0  0  0  0
  151.8451  140.0427  158.6316 N   0  0  0  0  0  0  0  0  0  0  0  0
  152.7936  140.6588  159.5553 C   0  0  0  0  0  0  0  0  0  0  0  0
  152.3080  142.0303  160.0579 C   0  0  0  0  0  0  0  0  0  0  0  0
  152.0379  142.8838  158.9514 O   0  0  0  0  0  0  0  0  0  0  0  0
  151.0663  142.3367  158.0669 C   0  0  0  0  0  0  0  0  0  0  0  0
  151.5587  140.9759  157.5464 C   0  0  0  0  0  0  0  0  0  0  0  0
  149.9701  137.9619  157.9676 N   0  0  0  0  0  0  0  0  0  0  0  0
  149.3117  136.8757  158.4016 C   0  0  0  0  0  0  0  0  0  0  0  0
  149.7385  135.7287  158.2580 O   0  0  0  0  0  0  0  0  0  0  0  0
  147.9652  137.1452  159.0918 C   0  0  0  0  0  0  0  0  0  0  0  0
  147.7580  136.3723  160.3252 N   0  0  0  0  0  0  0  0  0  0  0  0
  147.6803  137.1933  161.5300 N   0  5  0  0  0  0  0  0  0  0  0  0
  147.4569  136.5914  162.7283 C   0  0  0  0  0  0  0  0  0  0  0  0
  147.3569  137.2183  163.7805 O   0  0  0  0  0  0  0  0  0  0  0  0
  147.3392  135.1429  162.7549 C   0  0  0  0  0  0  0  0  0  0  0  0
  147.4452  134.4075  161.6306 C   0  0  0  0  0  0  0  0  0  0  0  0
  147.6756  135.0110  160.3236 C   0  0  0  0  0  0  0  0  0  0  0  0
  147.7826  134.3448  159.2937 O   0  0  0  0  0  0  0  0  0  0  0  0
  151.9383  138.5472  155.2764 H   0  0  0  0  0  0  0  0  0  0  0  0
  150.6630  139.5619  155.9284 H   0  0  0  0  0  0  0  0  0  0  0  0
  150.2915  137.9504  155.3266 H   0  0  0  0  0  0  0  0  0  0  0  0
  151.5892  136.9161  157.1802 H   0  0  0  0  0  0  0  0  0  0  0  0
  152.6948  138.1362  158.9055 H   0  0  0  0  0  0  0  0  0  0  0  0
  153.1558  138.9574  157.4532 H   0  0  0  0  0  0  0  0  0  0  0  0
  152.9387  140.0173  160.4229 H   0  0  0  0  0  0  0  0  0  0  0  0
  153.7650  140.7706  159.0712 H   0  0  0  0  0  0  0  0  0  0  0  0
  151.4098  141.9205  160.6678 H   0  0  0  0  0  0  0  0  0  0  0  0
  153.0671  142.4932  160.6884 H   0  0  0  0  0  0  0  0  0  0  0  0
  150.1101  142.2316  158.5822 H   0  0  0  0  0  0  0  0  0  0  0  0
  150.9097  143.0265  157.2376 H   0  0  0  0  0  0  0  0  0  0  0  0
  152.4551  141.1262  156.9423 H   0  0  0  0  0  0  0  0  0  0  0  0
  150.8038  140.5524  156.8831 H   0  0  0  0  0  0  0  0  0  0  0  0
  149.5437  138.8635  158.1239 H   0  0  0  0  0  0  0  0  0  0  0  0
  147.8847  138.2106  159.3151 H   0  0  0  0  0  0  0  0  0  0  0  0
  147.1707  136.9365  158.3732 H   0  0  0  0  0  0  0  0  0  0  0  0
  147.1658  134.6454  163.6978 H   0  0  0  0  0  0  0  0  0  0  0  0
  147.3530  133.3338  161.6975 H   0  0  0  0  0  0  0  0  0  0  0  0
  1  2  1  0  0  0  0
  1 22  1  0  0  0  0
  1 23  1  0  0  0  0
  1 24  1  0  0  0  0
  2  3  1  0  0  0  0
  2 10  1  0  0  0  0
  2 25  1  0  0  0  0
  3  4  1  0  0  0  0
  3 26  1  0  0  0  0
  3 27  1  0  0  0  0
  4  9  1  0  0  0  0
  4  5  1  0  0  0  0
  5  6  1  0  0  0  0
  5 28  1  0  0  0  0
  5 29  1  0  0  0  0
  6  7  1  0  0  0  0
  6 30  1  0  0  0  0
  6 31  1  0  0  0  0
  7  8  1  0  0  0  0
  8  9  1  0  0  0  0
  8 32  1  0  0  0  0
  8 33  1  0  0  0  0
  9 34  1  0  0  0  0
  9 35  1  0  0  0  0
 10 11  1  0  0  0  0
 10 36  1  0  0  0  0
 11 12  2  0  0  0  0
 11 13  1  0  0  0  0
 13 37  1  0  0  0  0
 13 38  1  0  0  0  0
 13 14  1  0  0  0  0
 14 15  1  0  0  0  0
 14 20  1  0  0  0  0
 15 16  1  0  0  0  0
 16 17  2  0  0  0  0
 16 18  1  0  0  0  0
 18 39  1  0  0  0  0
 18 19  2  0  0  0  0
 19 40  1  0  0  0  0
 19 20  1  0  0  0  0
 20 21  2  0  0  0  0
M  CHG  1  15  -1
M  END
> <s_m_source_file>
AV-unprocessed.smi

> <i_m_source_file_index>
1199

> <i_lp_mmshare_version>
43012

> <i_f3d_flags>
0

> <s_epik_input>
W0NIMl0xW0NIMl1PW0NIMl1bQ0gyXU4xW0NIMl1bQ0BASF0oW0NIM10pW05IXUMoPU8pW0NIMl1uMltuSF1jKD1PKVtjSF1bY0hdYzI9Tw==

> <s_epik_cmdline>
J2VwaWtfcHl0aG9uJywgJy1waCcsICc3LjAnLCAnLXRuJywgJzgnLCAnLW1hJywgJzIwMCcsICctbWV0YWxfYmluZGluZycsICctaW1hZScsICc8aW5maWxlLm1hZT4nLCAnLW9tYWUnLCAnPG91dGZpbGUubWFlPic=

> <r_lp_tautomer_probability>
1

> <r_epik_Ionization_Penalty>
0.334996

> <r_epik_Ionization_Penalty_Charging>
0.0976136

> <r_epik_Ionization_Penalty_Neutral>
0.237382

> <r_epik_State_Penalty>
0.26804

> <r_epik_Charging_Adjusted_Penalty>
0.365653

> <i_epik_Tot_Q>
-1

> <i_epik_Tot_abs_Q>
1

> <r_epik_Metal_State_Penalty>
0.26804

> <b_epik_Metal_Only>
0

> <s_lp_Force_Field>
OPLS_2005

> <r_lp_Energy>
39.9629

> <b_lp_Chiralities_Consistent>
1

> <s_lp_Variant>
AV-unprocessed.smi:1199-2

> <Gold.Version>
5.8.1

> <Gold.Id.Protein>
6NUR|6NUR_protein|mol2

> <Gold.PLP.Fitness>
45.7287

> <Gold.PLP.PLP>
-32.9686

> <Gold.PLP.part.hbond>
-3.5250

> <Gold.PLP.part.metal>
0.0000

> <Gold.PLP.part.buried>
-3.6500

> <Gold.PLP.part.nonpolar>
-26.1137

> <Gold.PLP.part.repulsive>
0.1389

> <Gold.PLP.ligand.clash>
0.0000

> <Gold.PLP.ligand.torsion>
0.3612

> <Gold.PLP.Chemscore.Hbond>
4.4800

> <Gold.PLP.Chemscore.CHOScore>
0.0000

> <Gold.PLP.Chemscore.Metal>
0.0000

> <Gold.Chemscore.Hbonds>
donor molecule, donor type, donor heavy atom, donor atom, acceptor molecule, acceptor atom, score
      P1  H  6896  6907       L1    12  0.98
      P1  H  6931  6943       L1    15  2.00
      P1  H  6934  6947       L1    15  1.54

> <Gold.PLP.Chemscore.Internal.Correction>
0.0425

> <Gold.Rescore>
     Score         DG    S(hbond)    S(metal)    S(lipo)     H(rot)  DE(clash)    DE(int)     intcor
     10.11     -12.23       1.62        0.00      61.62       2.30       0.18       1.94       ----

> <Gold.Chemscore.Fitness>
10.1111

> <Gold.Chemscore.DG>
-12.2318

> <Gold.Chemscore.ZeroCoef>
-5.4800

> <Gold.Chemscore.Hbond>
1.6224

> <Gold.Chemscore.Metal>
0.0000

> <Gold.Chemscore.Lipo>
61.6194

> <Gold.Chemscore.Internal_Hbond>
0.0000

> <Gold.Chemscore.DEClash>
0.1787

> <Gold.Chemscore.DEInternal>
1.9421

> <Gold.Chemscore.Rot>
2.2955

> <Gold.Chemscore.Internal.Correction>
   9.000000E+99

> <Gold.Chemscore.Hbonds>
donor molecule, donor type, donor heavy atom, donor atom, acceptor molecule, acceptor atom, score
      P1  H  6896  6907       L1    12  0.90
      P1  H  6931  6943       L1    15  0.32
      P1  H  6934  6947       L1    15  0.45

> <Gold.Chemscore.Hbond.Weighted>
-5.4189

> <Gold.Chemscore.Metal.Weighted>
-0.0000

> <Gold.Chemscore.Lipo.Weighted>
-7.2095

> <Gold.Chemscore.Internal_Hbond.Weighted>
0.0000

> <Gold.Chemscore.DEClash.Weighted>
0.1787

> <Gold.Chemscore.DEInternal.Weighted>
1.9421

> <Gold.Chemscore.Rot.Weighted>
5.8766

> <Gold.Chemscore.Internal.Correction.Weighted>
   9.000000E+99

> <Gold.Protein.RotatedTorsions>
[ 6907 6896 6895 6894 ] final  -80.10 input  -60.11 | X-H torsion
[ 7974 7965 7964 7962 ] final -174.91 input  175.53 | X-H torsion
[ 8008 7997 7996 7995 ] final   37.81 input   59.86 | X-H torsion
[ 10167 10162 10161 10158 ] final   70.68 input  -65.29 | X-H torsion
[ 10718 10713 10712 10709 ] final -120.42 input   66.30 | X-H torsion
[ 10763 10752 10751 10750 ] final  -21.94 input  -60.55 | X-H torsion
[ 11005 11000 10999 10996 ] final   87.12 input  -57.11 | X-H torsion

> <Gold.Protein.ActiveResidues>
 VAL166  LYS551  ARG553  GLY616  TRP617  ASP618  TYR619  PRO620  LYS621  CYS622 
 ASP623  PHE694  ASN695  SER759  ASP760  ASP761  ALA762  ILE779  LEU786  VAL792 
 PHE793  MET794  SER795  GLU796  ALA797  LYS798  CYS799  TRP800  GLU811  SER814 

> <Gold.Protein.RotatedAtoms>
  150.6936  134.4021  159.5123 H   0  0  0  0  0  0  0  0  0  0  0  0  # atno 6907 bound_to 6896
  152.1793  134.8765  160.0537 H   0  0  0  0  0  0  0  0  0  0  0  0  # atno 6908 bound_to 6896
  151.9762  133.3707  159.4127 H   0  0  0  0  0  0  0  0  0  0  0  0  # atno 6909 bound_to 6896
  144.7130  140.1400  143.6392 H   0  0  0  0  0  0  0  0  0  0  0  0  # atno 7974 bound_to 7965
  155.2098  140.3322  155.4330 H   0  0  0  0  0  0  0  0  0  0  0  0  # atno 8008 bound_to 7997
  156.2375  140.1879  156.7129 H   0  0  0  0  0  0  0  0  0  0  0  0  # atno 8009 bound_to 7997
  154.6085  140.0612  156.9449 H   0  0  0  0  0  0  0  0  0  0  0  0  # atno 8010 bound_to 7997
  140.0544  144.5285  150.7340 H   0  0  0  0  0  0  0  0  0  0  0  0  # atno 10167 bound_to 10162
  156.1256  130.6357  150.9537 H   0  0  0  0  0  0  0  0  0  0  0  0  # atno 10718 bound_to 10713
  153.6441  135.6984  153.5231 H   0  0  0  0  0  0  0  0  0  0  0  0  # atno 10763 bound_to 10752
  153.2759  135.4200  155.1032 H   0  0  0  0  0  0  0  0  0  0  0  0  # atno 10764 bound_to 10752
  154.8492  135.3590  154.5985 H   0  0  0  0  0  0  0  0  0  0  0  0  # atno 10765 bound_to 10752
  139.8927  134.8401  156.2816 H   0  0  0  0  0  0  0  0  0  0  0  0  # atno 11005 bound_to 11000
  145.9210  139.2546  143.1381 LP  0  0  0  0  0  0  0  0  0  0  0  0  # atno 17320 bound_to 7965
  145.9620  140.8828  143.0206 LP  0  0  0  0  0  0  0  0  0  0  0  0  # atno 17321 bound_to 7965
  140.7202  143.2581  151.4304 LP  0  0  0  0  0  0  0  0  0  0  0  0  # atno 17342 bound_to 10162
  139.5933  144.1452  152.2114 LP  0  0  0  0  0  0  0  0  0  0  0  0  # atno 17343 bound_to 10162
  157.6438  131.0907  150.8196 LP  0  0  0  0  0  0  0  0  0  0  0  0  # atno 17370 bound_to 10713
  156.8287  130.5008  149.5334 LP  0  0  0  0  0  0  0  0  0  0  0  0  # atno 17371 bound_to 10713
  141.0035  133.7137  156.0997 LP  0  0  0  0  0  0  0  0  0  0  0  0  # atno 17394 bound_to 11000
  140.7466  134.4092  157.5547 LP  0  0  0  0  0  0  0  0  0  0  0  0  # atno 17395 bound_to 11000

$$$$
