AV-unprocessed.smi:1116|AV-procd|sdf|4810|dock9
  -GOLD-   22720 3363D 1   1.00000     0.00000
 Structure written by MMmdl.
 35 36  0  0  0  0  0  0  0  0  2 V2000
  152.3050  142.5079  162.5055 C   0  0  0  0  0  0  0  0  0  0  0  0
  151.7702  142.6441  161.1212 C   0  0  0  0  0  0  0  0  0  0  0  0
  151.6059  141.6134  160.2881 N   0  0  0  0  0  0  0  0  0  0  0  0
  151.0930  142.0006  159.0462 C   0  0  0  0  0  0  0  0  0  0  0  0
  150.8491  140.9709  157.9854 C   0  0  0  0  0  0  0  0  0  0  0  0
  152.0654  140.0530  157.7762 C   0  0  0  0  0  0  0  0  0  0  0  0
  151.8442  139.1017  156.6936 N   0  0  0  0  0  0  0  0  0  0  0  0
  151.2731  139.3927  155.5147 C   0  0  0  0  0  0  0  0  0  0  0  0
  150.8758  140.5196  155.2173 O   0  0  0  0  0  0  0  0  0  0  0  0
  151.1443  138.2343  154.5223 C   0  0  0  0  0  0  0  0  0  0  0  0
  150.2886  137.0721  155.0619 C   0  0  0  0  0  0  0  0  0  0  0  0
  150.7023  135.7048  154.4784 C   0  0  1  0  0  0  0  0  0  0  0  0
  151.7466  135.0808  155.2728 N   0  5  0  0  0  0  0  0  0  0  0  0
  151.2975  133.8781  155.7033 C   0  0  0  0  0  0  0  0  0  0  0  0
  151.8964  133.0541  156.3910 O   0  0  0  0  0  0  0  0  0  0  0  0
  150.0481  133.6603  155.2799 N   0  0  0  0  0  0  0  0  0  0  0  0
  149.5883  134.6788  154.5604 C   0  0  0  0  0  0  0  0  0  0  0  0
  148.4763  134.7893  154.0460 O   0  0  0  0  0  0  0  0  0  0  0  0
  150.8666  143.3513  158.9519 C   0  0  0  0  0  0  0  0  0  0  0  0
  151.2920  144.1856  160.4213 S   0  0  0  0  0  0  0  0  0  0  0  0
  152.6163  141.4807  162.6983 H   0  0  0  0  0  0  0  0  0  0  0  0
  151.5379  142.7826  163.2294 H   0  0  0  0  0  0  0  0  0  0  0  0
  153.1653  143.1639  162.6388 H   0  0  0  0  0  0  0  0  0  0  0  0
  149.9763  140.3729  158.2504 H   0  0  0  0  0  0  0  0  0  0  0  0
  150.5993  141.4610  157.0435 H   0  0  0  0  0  0  0  0  0  0  0  0
  152.9418  140.6511  157.5248 H   0  0  0  0  0  0  0  0  0  0  0  0
  152.3075  139.5190  158.6968 H   0  0  0  0  0  0  0  0  0  0  0  0
  152.1389  138.1491  156.8531 H   0  0  0  0  0  0  0  0  0  0  0  0
  150.7087  138.6187  153.5995 H   0  0  0  0  0  0  0  0  0  0  0  0
  152.1406  137.8698  154.2678 H   0  0  0  0  0  0  0  0  0  0  0  0
  150.3420  137.0453  156.1522 H   0  0  0  0  0  0  0  0  0  0  0  0
  149.2422  137.2626  154.8164 H   0  0  0  0  0  0  0  0  0  0  0  0
  150.9855  135.8166  153.4308 H   0  0  0  0  0  0  0  0  0  0  0  0
  149.5170  132.8287  155.4903 H   0  0  0  0  0  0  0  0  0  0  0  0
  150.4777  143.9046  158.1100 H   0  0  0  0  0  0  0  0  0  0  0  0
  1  2  1  0  0  0  0
  1 21  1  0  0  0  0
  1 22  1  0  0  0  0
  1 23  1  0  0  0  0
  2 20  1  0  0  0  0
  2  3  2  0  0  0  0
  3  4  1  0  0  0  0
  4  5  1  0  0  0  0
  4 19  2  0  0  0  0
  5  6  1  0  0  0  0
  5 24  1  0  0  0  0
  5 25  1  0  0  0  0
  6  7  1  0  0  0  0
  6 26  1  0  0  0  0
  6 27  1  0  0  0  0
  7  8  1  0  0  0  0
  7 28  1  0  0  0  0
  8  9  2  0  0  0  0
  8 10  1  0  0  0  0
 10 11  1  0  0  0  0
 10 29  1  0  0  0  0
 10 30  1  0  0  0  0
 11 12  1  0  0  0  0
 11 31  1  0  0  0  0
 11 32  1  0  0  0  0
 12 17  1  0  0  0  0
 12 13  1  0  0  0  0
 12 33  1  0  0  0  0
 13 14  1  0  0  0  0
 14 15  2  0  0  0  0
 14 16  1  0  0  0  0
 16 17  1  0  0  0  0
 16 34  1  0  0  0  0
 17 18  2  0  0  0  0
 19 20  1  0  0  0  0
 19 35  1  0  0  0  0
M  CHG  1  13  -1
M  END
> <s_m_source_file>
AV-unprocessed.smi

> <i_m_source_file_index>
1116

> <i_lp_mmshare_version>
43012

> <i_f3d_flags>
0

> <s_epik_input>
W0NIM11jMW5jKFtjSF1zMSlbQ0gyXVtDSDJdW05IXUMoPU8pW0NIMl1bQ0gyXVtDQEBIXTJbTkhdQyg9TylbTkhdQzI9Tw==

> <s_epik_cmdline>
J2VwaWtfcHl0aG9uJywgJy1waCcsICc3LjAnLCAnLXRuJywgJzgnLCAnLW1hJywgJzIwMCcsICctbWV0YWxfYmluZGluZycsICctaW1hZScsICc8aW5maWxlLm1hZT4nLCAnLW9tYWUnLCAnPG91dGZpbGUubWFlPic=

> <r_lp_tautomer_probability>
1

> <r_epik_Ionization_Penalty>
5.7962

> <r_epik_Ionization_Penalty_Charging>
5.79516

> <r_epik_Ionization_Penalty_Neutral>
0.00104588

> <r_epik_State_Penalty>
5.80096

> <r_epik_Charging_Adjusted_Penalty>
11.5961

> <i_epik_Tot_Q>
-1

> <i_epik_Tot_abs_Q>
1

> <r_epik_Metal_State_Penalty>
2.1448

> <b_epik_Metal_Only>
1

> <s_lp_Force_Field>
OPLS_2005

> <r_lp_Energy>
5.74046

> <b_lp_Chiralities_Consistent>
1

> <s_lp_Variant>
AV-unprocessed.smi:1116-4

> <Gold.Version>
5.8.1

> <Gold.Id.Protein>
6NUR|6NUR_protein|mol2

> <Gold.PLP.Fitness>
49.6702

> <Gold.PLP.PLP>
-36.9739

> <Gold.PLP.part.hbond>
-2.8813

> <Gold.PLP.part.metal>
0.0000

> <Gold.PLP.part.buried>
-5.2761

> <Gold.PLP.part.nonpolar>
-29.5308

> <Gold.PLP.part.repulsive>
0.4511

> <Gold.PLP.ligand.clash>
0.0000

> <Gold.PLP.ligand.torsion>
0.6838

> <Gold.PLP.Chemscore.Hbond>
3.6720

> <Gold.PLP.Chemscore.CHOScore>
1.0000

> <Gold.PLP.Chemscore.Metal>
0.0000

> <Gold.Chemscore.Hbonds>
donor molecule, donor type, donor heavy atom, donor atom, acceptor molecule, acceptor atom, score
      P1  H  7989  7998       L1     9  0.98
      P1  H 10752 10763       L1    13  1.10

> <Gold.PLP.Chemscore.Internal.Correction>
0.0479

> <Gold.Rescore>
     Score         DG    S(hbond)    S(metal)    S(lipo)     H(rot)  DE(clash)    DE(int)     intcor
     15.21     -15.61       2.31        0.00      81.17       2.77       0.04       0.36       ----

> <Gold.Chemscore.Fitness>
15.2141

> <Gold.Chemscore.DG>
-15.6068

> <Gold.Chemscore.ZeroCoef>
-5.4800

> <Gold.Chemscore.Hbond>
2.3111

> <Gold.Chemscore.Metal>
0.0000

> <Gold.Chemscore.Lipo>
81.1681

> <Gold.Chemscore.Internal_Hbond>
0.0000

> <Gold.Chemscore.DEClash>
0.0354

> <Gold.Chemscore.DEInternal>
0.3573

> <Gold.Chemscore.Rot>
2.7691

> <Gold.Chemscore.Internal.Correction>
   9.000000E+99

> <Gold.Chemscore.Hbonds>
donor molecule, donor type, donor heavy atom, donor atom, acceptor molecule, acceptor atom, score
      P1  H  7989  7998       L1     9  0.47
      P1  H 10752 10763       L1    13  0.44

> <Gold.Chemscore.Hbond.Weighted>
-7.7190

> <Gold.Chemscore.Metal.Weighted>
-0.0000

> <Gold.Chemscore.Lipo.Weighted>
-9.4967

> <Gold.Chemscore.Internal_Hbond.Weighted>
0.0000

> <Gold.Chemscore.DEClash.Weighted>
0.0354

> <Gold.Chemscore.DEInternal.Weighted>
0.3573

> <Gold.Chemscore.Rot.Weighted>
7.0889

> <Gold.Chemscore.Internal.Correction.Weighted>
   9.000000E+99

> <Gold.Protein.RotatedTorsions>
[ 6907 6896 6895 6894 ] final   68.98 input  -60.11 | X-H torsion
[ 7974 7965 7964 7962 ] final -154.04 input  175.53 | X-H torsion
[ 8008 7997 7996 7995 ] final  114.58 input   59.86 | X-H torsion
[ 10167 10162 10161 10158 ] final  -95.67 input  -65.29 | X-H torsion
[ 10718 10713 10712 10709 ] final -136.79 input   66.30 | X-H torsion
[ 10763 10752 10751 10750 ] final   76.82 input  -60.55 | X-H torsion
[ 11005 11000 10999 10996 ] final  155.27 input  -57.11 | X-H torsion

> <Gold.Protein.ActiveResidues>
 VAL166  LYS551  ARG553  GLY616  TRP617  ASP618  TYR619  PRO620  LYS621  CYS622 
 ASP623  PHE694  ASN695  SER759  ASP760  ASP761  ALA762  ILE779  LEU786  VAL792 
 PHE793  MET794  SER795  GLU796  ALA797  LYS798  CYS799  TRP800  GLU811  SER814 

> <Gold.Protein.RotatedAtoms>
  152.4656  134.5082  159.9745 H   0  0  0  0  0  0  0  0  0  0  0  0  # atno 6907 bound_to 6896
  151.5120  133.3477  159.2894 H   0  0  0  0  0  0  0  0  0  0  0  0  # atno 6908 bound_to 6896
  150.8639  134.8027  159.7166 H   0  0  0  0  0  0  0  0  0  0  0  0  # atno 6909 bound_to 6896
  144.7709  140.4443  143.5907 H   0  0  0  0  0  0  0  0  0  0  0  0  # atno 7974 bound_to 7965
  156.2330  140.2956  156.0238 H   0  0  0  0  0  0  0  0  0  0  0  0  # atno 8008 bound_to 7997
  155.2172  140.0414  157.2960 H   0  0  0  0  0  0  0  0  0  0  0  0  # atno 8009 bound_to 7997
  154.6029  140.2431  155.7777 H   0  0  0  0  0  0  0  0  0  0  0  0  # atno 8010 bound_to 7997
  140.3017  143.3158  152.0241 H   0  0  0  0  0  0  0  0  0  0  0  0  # atno 10167 bound_to 10162
  156.2809  130.7320  151.1317 H   0  0  0  0  0  0  0  0  0  0  0  0  # atno 10718 bound_to 10713
  153.0753  135.4937  154.8392 H   0  0  0  0  0  0  0  0  0  0  0  0  # atno 10763 bound_to 10752
  154.7079  135.3014  154.9244 H   0  0  0  0  0  0  0  0  0  0  0  0  # atno 10764 bound_to 10752
  153.9947  135.6774  153.4809 H   0  0  0  0  0  0  0  0  0  0  0  0  # atno 10765 bound_to 10752
  140.1565  134.8639  157.2521 H   0  0  0  0  0  0  0  0  0  0  0  0  # atno 11005 bound_to 11000
  145.6326  139.1538  143.2960 LP  0  0  0  0  0  0  0  0  0  0  0  0  # atno 17320 bound_to 7965
  146.1855  140.6428  142.9169 LP  0  0  0  0  0  0  0  0  0  0  0  0  # atno 17321 bound_to 7965
  139.4913  144.6450  151.6796 LP  0  0  0  0  0  0  0  0  0  0  0  0  # atno 17342 bound_to 10162
  140.5645  144.0213  150.6185 LP  0  0  0  0  0  0  0  0  0  0  0  0  # atno 17343 bound_to 10162
  157.7314  131.0608  150.5679 LP  0  0  0  0  0  0  0  0  0  0  0  0  # atno 17370 bound_to 10713
  156.5785  130.4298  149.5988 LP  0  0  0  0  0  0  0  0  0  0  0  0  # atno 17371 bound_to 10713
  140.2541  134.3649  155.7431 LP  0  0  0  0  0  0  0  0  0  0  0  0  # atno 17394 bound_to 11000
  141.2205  133.7333  156.8980 LP  0  0  0  0  0  0  0  0  0  0  0  0  # atno 17395 bound_to 11000

$$$$
