AV-unprocessed.smi:928|AV-procd|sdf|4192|dock9
  -GOLD-   22720 2 93D 1   1.00000     0.00000
 Structure written by MMmdl.
 43 44  0  0  0  0  0  0  0  0  1 V2000
  150.6853  141.5068  157.6513 C   0  0  0  0  0  0  0  0  0  0  0  0
  150.6451  142.0246  156.2084 C   0  0  0  0  0  0  0  0  0  0  0  0
  149.8824  141.1272  155.2917 C   0  0  0  0  0  0  0  0  0  0  0  0
  150.1454  139.8131  154.9919 C   0  0  0  0  0  0  0  0  0  0  0  0
  149.2050  139.2281  154.1409 N   0  0  0  0  0  0  0  0  0  0  0  0
  148.2374  140.0784  153.7906 C   0  0  0  0  0  0  0  0  0  0  0  0
  147.0361  139.6779  152.9949 C   0  0  0  0  0  0  0  0  0  0  0  0
  146.2502  138.4951  153.6014 C   0  0  0  0  0  0  0  0  0  0  0  0
  146.6614  137.2062  153.0465 N   0  0  0  0  0  0  0  0  0  0  0  0
  145.9463  136.0731  153.1116 C   0  0  0  0  0  0  0  0  0  0  0  0
  144.8968  135.9523  153.7437 O   0  0  0  0  0  0  0  0  0  0  0  0
  146.4797  135.1044  152.3557 N   0  0  0  0  0  0  0  0  0  0  0  0
  145.8506  133.8135  152.0865 C   0  0  1  0  0  0  0  0  0  0  0  0
  145.3993  133.7288  150.6163 C   0  0  0  0  0  0  0  0  0  0  0  0
  144.7057  132.3873  150.3308 C   0  0  0  0  0  0  0  0  0  0  0  0
  145.6143  131.2017  150.6939 C   0  0  0  0  0  0  0  0  0  0  0  0
  146.0912  131.2814  152.1562 C   0  0  0  0  0  0  0  0  0  0  0  0
  146.7664  132.6292  152.4785 C   0  0  1  0  0  0  0  0  0  0  0  0
  148.0044  132.7032  151.7961 O   0  0  0  0  0  0  0  0  0  0  0  0
  148.4564  141.6917  154.4619 S   0  0  0  0  0  0  0  0  0  0  0  0
  151.2591  142.1784  158.2899 H   0  0  0  0  0  0  0  0  0  0  0  0
  151.1486  140.5209  157.7021 H   0  0  0  0  0  0  0  0  0  0  0  0
  149.6822  141.4253  158.0707 H   0  0  0  0  0  0  0  0  0  0  0  0
  150.2011  143.0204  156.1931 H   0  0  0  0  0  0  0  0  0  0  0  0
  151.6646  142.1418  155.8398 H   0  0  0  0  0  0  0  0  0  0  0  0
  150.9626  139.2105  155.3597 H   0  0  0  0  0  0  0  0  0  0  0  0
  146.3810  140.5453  152.9069 H   0  0  0  0  0  0  0  0  0  0  0  0
  147.3535  139.4299  151.9816 H   0  0  0  0  0  0  0  0  0  0  0  0
  146.4040  138.4685  154.6802 H   0  0  0  0  0  0  0  0  0  0  0  0
  145.1797  138.6472  153.4529 H   0  0  0  0  0  0  0  0  0  0  0  0
  147.5128  137.1977  152.5041 H   0  0  0  0  0  0  0  0  0  0  0  0
  147.3448  135.2973  151.8727 H   0  0  0  0  0  0  0  0  0  0  0  0
  144.9469  133.7514  152.6968 H   0  0  0  0  0  0  0  0  0  0  0  0
  144.7166  134.5482  150.3876 H   0  0  0  0  0  0  0  0  0  0  0  0
  146.2564  133.8469  149.9517 H   0  0  0  0  0  0  0  0  0  0  0  0
  143.7791  132.3269  150.9035 H   0  0  0  0  0  0  0  0  0  0  0  0
  144.4234  132.3312  149.2793 H   0  0  0  0  0  0  0  0  0  0  0  0
  145.0834  130.2638  150.5289 H   0  0  0  0  0  0  0  0  0  0  0  0
  146.4768  131.1862  150.0265 H   0  0  0  0  0  0  0  0  0  0  0  0
  145.2323  131.1487  152.8153 H   0  0  0  0  0  0  0  0  0  0  0  0
  146.7706  130.4565  152.3745 H   0  0  0  0  0  0  0  0  0  0  0  0
  146.9812  132.6685  153.5471 H   0  0  0  0  0  0  0  0  0  0  0  0
  148.2011  131.8479  151.4454 H   0  0  0  0  0  0  0  0  0  0  0  0
  1  2  1  0  0  0  0
  1 21  1  0  0  0  0
  1 22  1  0  0  0  0
  1 23  1  0  0  0  0
  2  3  1  0  0  0  0
  2 24  1  0  0  0  0
  2 25  1  0  0  0  0
  3 20  1  0  0  0  0
  3  4  2  0  0  0  0
  4  5  1  0  0  0  0
  4 26  1  0  0  0  0
  5  6  2  0  0  0  0
  6  7  1  0  0  0  0
  6 20  1  0  0  0  0
  7  8  1  0  0  0  0
  7 27  1  0  0  0  0
  7 28  1  0  0  0  0
  8  9  1  0  0  0  0
  8 29  1  0  0  0  0
  8 30  1  0  0  0  0
  9 10  1  0  0  0  0
  9 31  1  0  0  0  0
 10 11  2  0  0  0  0
 10 12  1  0  0  0  0
 12 13  1  0  0  0  0
 12 32  1  0  0  0  0
 13 18  1  0  0  0  0
 13 14  1  0  0  0  0
 13 33  1  0  0  0  0
 14 15  1  0  0  0  0
 14 34  1  0  0  0  0
 14 35  1  0  0  0  0
 15 16  1  0  0  0  0
 15 36  1  0  0  0  0
 15 37  1  0  0  0  0
 16 17  1  0  0  0  0
 16 38  1  0  0  0  0
 16 39  1  0  0  0  0
 17 18  1  0  0  0  0
 17 40  1  0  0  0  0
 17 41  1  0  0  0  0
 18 19  1  0  0  0  0
 18 42  1  0  0  0  0
 19 43  1  0  0  0  0
M  END
> <s_m_source_file>
AV-unprocessed.smi

> <i_m_source_file_index>
928

> <i_lp_mmshare_version>
43012

> <i_f3d_flags>
0

> <s_epik_input>
W0NIM11bQ0gyXWMxW2NIXW5jKHMxKVtDSDJdW0NIMl1bTkhdQyg9TylbTkhdW0NAQEhdMltDSDJdW0NIMl1bQ0gyXVtDSDJdW0NASF0yW09IXQ==

> <s_epik_cmdline>
J2VwaWtfcHl0aG9uJywgJy1waCcsICc3LjAnLCAnLXRuJywgJzgnLCAnLW1hJywgJzIwMCcsICctbWV0YWxfYmluZGluZycsICctaW1hZScsICc8aW5maWxlLm1hZT4nLCAnLW9tYWUnLCAnPG91dGZpbGUubWFlPic=

> <r_epik_Ionization_Penalty>
0.000957396

> <r_epik_Ionization_Penalty_Charging>
0

> <r_epik_Ionization_Penalty_Neutral>
0.000957396

> <r_epik_State_Penalty>
0.000586538

> <r_epik_Charging_Adjusted_Penalty>
0.000586538

> <i_epik_Tot_Q>
0

> <i_epik_Tot_abs_Q>
0

> <r_epik_Metal_State_Penalty>
-0

> <b_epik_Metal_Only>
0

> <s_lp_Force_Field>
OPLS_2005

> <r_lp_Energy>
0.733769

> <b_lp_Chiralities_Consistent>
1

> <s_lp_Variant>
AV-unprocessed.smi:928-2

> <Gold.Version>
5.8.1

> <Gold.Id.Protein>
6NUR|6NUR_protein|mol2

> <Gold.PLP.Fitness>
43.8653

> <Gold.PLP.PLP>
-35.8121

> <Gold.PLP.part.hbond>
-3.0000

> <Gold.PLP.part.metal>
0.0000

> <Gold.PLP.part.buried>
-1.9575

> <Gold.PLP.part.nonpolar>
-29.9510

> <Gold.PLP.part.repulsive>
0.4000

> <Gold.PLP.ligand.clash>
0.0000

> <Gold.PLP.ligand.torsion>
0.4283

> <Gold.PLP.Chemscore.Hbond>
2.9520

> <Gold.PLP.Chemscore.CHOScore>
0.0000

> <Gold.PLP.Chemscore.Metal>
0.0000

> <Gold.Chemscore.Hbonds>
donor molecule, donor type, donor heavy atom, donor atom, acceptor molecule, acceptor atom, score
      L1  H     9    31       P1  7948  0.98
      L1  H    12    32       P1  7948  0.98
      L1  H    19    43       P1 10747  0.99

> <Gold.PLP.Chemscore.Internal.Correction>
0.0537

> <Gold.Rescore>
     Score         DG    S(hbond)    S(metal)    S(lipo)     H(rot)  DE(clash)    DE(int)     intcor
     20.01     -20.51       2.84        0.00      95.78       2.21       0.06       0.44       ----

> <Gold.Chemscore.Fitness>
20.0070

> <Gold.Chemscore.DG>
-20.5093

> <Gold.Chemscore.ZeroCoef>
-5.4800

> <Gold.Chemscore.Hbond>
2.8374

> <Gold.Chemscore.Metal>
0.0000

> <Gold.Chemscore.Lipo>
95.7782

> <Gold.Chemscore.Internal_Hbond>
0.0000

> <Gold.Chemscore.DEClash>
0.0579

> <Gold.Chemscore.DEInternal>
0.4444

> <Gold.Chemscore.Rot>
2.2084

> <Gold.Chemscore.Internal.Correction>
   9.000000E+99

> <Gold.Chemscore.Hbonds>
donor molecule, donor type, donor heavy atom, donor atom, acceptor molecule, acceptor atom, score
      L1  H     9    31       P1  7948  0.93
      L1  H    12    32       P1  7948  0.92
      L1  H    19    43       P1 10747  0.94

> <Gold.Chemscore.Hbond.Weighted>
-9.4768

> <Gold.Chemscore.Metal.Weighted>
-0.0000

> <Gold.Chemscore.Lipo.Weighted>
-11.2061

> <Gold.Chemscore.Internal_Hbond.Weighted>
0.0000

> <Gold.Chemscore.DEClash.Weighted>
0.0579

> <Gold.Chemscore.DEInternal.Weighted>
0.4444

> <Gold.Chemscore.Rot.Weighted>
5.6535

> <Gold.Chemscore.Internal.Correction.Weighted>
   9.000000E+99

> <Gold.Protein.RotatedTorsions>
[ 6907 6896 6895 6894 ] final -106.34 input  -60.11 | X-H torsion
[ 7974 7965 7964 7962 ] final  120.23 input  175.53 | X-H torsion
[ 8008 7997 7996 7995 ] final  177.50 input   59.86 | X-H torsion
[ 10167 10162 10161 10158 ] final  156.32 input  -65.29 | X-H torsion
[ 10718 10713 10712 10709 ] final   62.81 input   66.30 | X-H torsion
[ 10763 10752 10751 10750 ] final  -81.80 input  -60.55 | X-H torsion
[ 11005 11000 10999 10996 ] final  -98.39 input  -57.11 | X-H torsion

> <Gold.Protein.ActiveResidues>
 VAL166  LYS551  ARG553  GLY616  TRP617  ASP618  TYR619  PRO620  LYS621  CYS622 
 ASP623  PHE694  ASN695  SER759  ASP760  ASP761  ALA762  ILE779  LEU786  VAL792 
 PHE793  MET794  SER795  GLU796  ALA797  LYS798  CYS799  TRP800  GLU811  SER814 

> <Gold.Protein.RotatedAtoms>
  150.7384  133.9991  159.3631 H   0  0  0  0  0  0  0  0  0  0  0  0  # atno 6907 bound_to 6896
  151.7943  135.0725  160.0401 H   0  0  0  0  0  0  0  0  0  0  0  0  # atno 6908 bound_to 6896
  152.3185  133.5792  159.5765 H   0  0  0  0  0  0  0  0  0  0  0  0  # atno 6909 bound_to 6896
  145.1336  139.3312  143.4652 H   0  0  0  0  0  0  0  0  0  0  0  0  # atno 7974 bound_to 7965
  156.0649  140.1357  156.9897 H   0  0  0  0  0  0  0  0  0  0  0  0  # atno 8008 bound_to 7997
  154.4501  140.0984  156.6644 H   0  0  0  0  0  0  0  0  0  0  0  0  # atno 8009 bound_to 7997
  155.5319  140.3459  155.4430 H   0  0  0  0  0  0  0  0  0  0  0  0  # atno 8010 bound_to 7997
  139.4821  144.5019  151.8156 H   0  0  0  0  0  0  0  0  0  0  0  0  # atno 10167 bound_to 10162
  157.5927  130.9071  149.9635 H   0  0  0  0  0  0  0  0  0  0  0  0  # atno 10718 bound_to 10713
  154.5680  135.5613  153.7069 H   0  0  0  0  0  0  0  0  0  0  0  0  # atno 10763 bound_to 10752
  153.0039  135.6290  154.2153 H   0  0  0  0  0  0  0  0  0  0  0  0  # atno 10764 bound_to 10752
  154.2092  135.2874  155.2944 H   0  0  0  0  0  0  0  0  0  0  0  0  # atno 10765 bound_to 10752
  141.1346  133.8242  157.0834 H   0  0  0  0  0  0  0  0  0  0  0  0  # atno 11005 bound_to 11000
  146.3512  140.1345  142.8596 LP  0  0  0  0  0  0  0  0  0  0  0  0  # atno 17320 bound_to 7965
  145.0608  140.9086  143.4940 LP  0  0  0  0  0  0  0  0  0  0  0  0  # atno 17321 bound_to 7965
  140.4513  144.1851  150.5897 LP  0  0  0  0  0  0  0  0  0  0  0  0  # atno 17342 bound_to 10162
  140.4582  143.2459  151.9256 LP  0  0  0  0  0  0  0  0  0  0  0  0  # atno 17343 bound_to 10162
  156.0984  130.3657  150.0263 LP  0  0  0  0  0  0  0  0  0  0  0  0  # atno 17370 bound_to 10713
  156.8383  130.9416  151.3633 LP  0  0  0  0  0  0  0  0  0  0  0  0  # atno 17371 bound_to 10713
  140.0437  134.9841  157.1010 LP  0  0  0  0  0  0  0  0  0  0  0  0  # atno 17394 bound_to 11000
  140.4095  134.1996  155.7163 LP  0  0  0  0  0  0  0  0  0  0  0  0  # atno 17395 bound_to 11000

$$$$
