AV-unprocessed.smi:3037|AV-procd|sdf|11586|dock7
  -GOLD-   2272016563D 1   1.00000     0.00000
 Structure written by MMmdl.
 47 48  0  0  0  0  0  0  0  0  2 V2000
  143.9090  132.1799  150.4432 C   0  0  0  0  0  0  0  0  0  0  0  0
  145.0314  132.5021  151.3873 C   0  0  0  0  0  0  0  0  0  0  0  0
  145.8424  133.6722  151.4136 C   0  0  0  0  0  0  0  0  0  0  0  0
  146.7509  133.6463  152.3752 N   0  0  0  0  0  0  0  0  0  0  0  0
  146.5519  132.4642  152.9956 N   0  0  0  0  0  0  0  0  0  0  0  0
  147.3870  132.0893  154.1228 C   0  0  0  0  0  0  0  0  0  0  0  0
  148.7851  132.7400  154.0816 C   0  0  2  0  0  0  0  0  0  0  0  0
  149.8086  132.0018  154.9676 C   0  0  0  0  0  0  0  0  0  0  0  0
  148.6663  134.1630  154.4726 N   0  3  0  0  0  0  0  0  0  0  0  0
  149.8626  134.7507  155.1122 C   0  0  0  0  0  0  0  0  0  0  0  0
  149.6951  136.2703  155.2958 C   0  0  0  0  0  0  0  0  0  0  0  0
  151.0236  137.0200  155.5005 C   0  0  0  0  0  0  0  0  0  0  0  0
  151.9841  136.4070  155.9688 O   0  0  0  0  0  0  0  0  0  0  0  0
  151.0993  138.3306  155.1616 N   0  0  0  0  0  0  0  0  0  0  0  0
  149.9472  139.0827  154.6449 C   0  0  0  0  0  0  0  0  0  0  0  0
  149.5019  140.1082  155.7037 C   0  0  0  0  0  0  0  0  0  0  0  0
  150.6674  141.0339  156.0984 C   0  0  0  0  0  0  0  0  0  0  0  0
  151.9290  140.2311  156.4661 C   0  0  0  0  0  0  0  0  0  0  0  0
  152.2647  139.2021  155.3710 C   0  0  0  0  0  0  0  0  0  0  0  0
  145.5226  131.7515  152.4176 C   0  0  0  0  0  0  0  0  0  0  0  0
  143.5437  133.0694  149.9294 H   0  0  0  0  0  0  0  0  0  0  0  0
  143.0585  131.7383  150.9628 H   0  0  0  0  0  0  0  0  0  0  0  0
  144.2214  131.4716  149.6757 H   0  0  0  0  0  0  0  0  0  0  0  0
  145.7980  134.5344  150.7645 H   0  0  0  0  0  0  0  0  0  0  0  0
  146.8645  132.3783  155.0357 H   0  0  0  0  0  0  0  0  0  0  0  0
  147.4764  131.0016  154.1487 H   0  0  0  0  0  0  0  0  0  0  0  0
  149.1337  132.7053  153.0482 H   0  0  0  0  0  0  0  0  0  0  0  0
  149.9235  130.9617  154.6628 H   0  0  0  0  0  0  0  0  0  0  0  0
  149.5018  132.0073  156.0139 H   0  0  0  0  0  0  0  0  0  0  0  0
  150.7989  132.4521  154.9082 H   0  0  0  0  0  0  0  0  0  0  0  0
  148.4878  134.6936  153.6319 H   0  0  0  0  0  0  0  0  0  0  0  0
  150.0264  134.2769  156.0802 H   0  0  0  0  0  0  0  0  0  0  0  0
  150.7375  134.5424  154.4943 H   0  0  0  0  0  0  0  0  0  0  0  0
  149.1896  136.6850  154.4225 H   0  0  0  0  0  0  0  0  0  0  0  0
  149.0566  136.4534  156.1610 H   0  0  0  0  0  0  0  0  0  0  0  0
  150.2336  139.5936  153.7245 H   0  0  0  0  0  0  0  0  0  0  0  0
  149.1064  138.4418  154.3765 H   0  0  0  0  0  0  0  0  0  0  0  0
  148.6670  140.6992  155.3267 H   0  0  0  0  0  0  0  0  0  0  0  0
  149.1365  139.5835  156.5874 H   0  0  0  0  0  0  0  0  0  0  0  0
  150.8967  141.6943  155.2611 H   0  0  0  0  0  0  0  0  0  0  0  0
  150.3740  141.6781  156.9276 H   0  0  0  0  0  0  0  0  0  0  0  0
  152.7704  140.9078  156.6169 H   0  0  0  0  0  0  0  0  0  0  0  0
  151.7714  139.7160  157.4146 H   0  0  0  0  0  0  0  0  0  0  0  0
  153.1741  138.6674  155.6384 H   0  0  0  0  0  0  0  0  0  0  0  0
  152.4964  139.7167  154.4372 H   0  0  0  0  0  0  0  0  0  0  0  0
  145.2267  130.7795  152.7839 H   0  0  0  0  0  0  0  0  0  0  0  0
  147.8735  134.2662  155.0897 H   0  0  0  0  0  0  0  0  0  0  0  0
  1  2  1  0  0  0  0
  1 21  1  0  0  0  0
  1 22  1  0  0  0  0
  1 23  1  0  0  0  0
  2 20  2  0  0  0  0
  2  3  1  0  0  0  0
  3  4  2  0  0  0  0
  3 24  1  0  0  0  0
  4  5  1  0  0  0  0
  5  6  1  0  0  0  0
  5 20  1  0  0  0  0
  6  7  1  0  0  0  0
  6 25  1  0  0  0  0
  6 26  1  0  0  0  0
  7  8  1  0  0  0  0
  7  9  1  0  0  0  0
  7 27  1  0  0  0  0
  8 28  1  0  0  0  0
  8 29  1  0  0  0  0
  8 30  1  0  0  0  0
  9 10  1  0  0  0  0
  9 31  1  0  0  0  0
  9 47  1  0  0  0  0
 10 11  1  0  0  0  0
 10 32  1  0  0  0  0
 10 33  1  0  0  0  0
 11 12  1  0  0  0  0
 11 34  1  0  0  0  0
 11 35  1  0  0  0  0
 12 13  2  0  0  0  0
 12 14  1  0  0  0  0
 14 19  1  0  0  0  0
 14 15  1  0  0  0  0
 15 16  1  0  0  0  0
 15 36  1  0  0  0  0
 15 37  1  0  0  0  0
 16 17  1  0  0  0  0
 16 38  1  0  0  0  0
 16 39  1  0  0  0  0
 17 18  1  0  0  0  0
 17 40  1  0  0  0  0
 17 41  1  0  0  0  0
 18 19  1  0  0  0  0
 18 42  1  0  0  0  0
 18 43  1  0  0  0  0
 19 44  1  0  0  0  0
 19 45  1  0  0  0  0
 20 46  1  0  0  0  0
M  CHG  1   9   1
M  END
> <s_m_source_file>
AV-unprocessed.smi

> <i_m_source_file_index>
3037

> <i_lp_mmshare_version>
43012

> <i_f3d_flags>
0

> <s_epik_input>
W0NIM11jMVtjSF1ubihbY0hdMSlbQ0gyXVtDQEhdKFtDSDNdKVtOSF1bQ0gyXVtDSDJdQyg9TylOMltDSDJdW0NIMl1bQ0gyXVtDSDJdW0NIMl0y

> <s_epik_cmdline>
J2VwaWtfcHl0aG9uJywgJy1waCcsICc3LjAnLCAnLXRuJywgJzgnLCAnLW1hJywgJzIwMCcsICctbWV0YWxfYmluZGluZycsICctaW1hZScsICc8aW5maWxlLm1hZT4nLCAnLW9tYWUnLCAnPG91dGZpbGUubWFlPic=

> <r_lp_tautomer_probability>
1

> <r_epik_Ionization_Penalty>
0.00574983

> <r_epik_Ionization_Penalty_Charging>
0.00574185

> <r_epik_Ionization_Penalty_Neutral>
7.97936e-06

> <r_epik_State_Penalty>
0.00421386

> <r_epik_Charging_Adjusted_Penalty>
0.00995571

> <i_epik_Tot_Q>
1

> <i_epik_Tot_abs_Q>
1

> <r_epik_Metal_State_Penalty>
-0

> <b_epik_Metal_Only>
0

> <s_lp_Force_Field>
OPLS_2005

> <r_lp_Energy>
27.2307

> <b_lp_Chiralities_Consistent>
1

> <s_lp_Variant>
AV-unprocessed.smi:3037-1

> <Gold.Version>
5.8.1

> <Gold.Id.Protein>
6NUR|6NUR_protein|mol2

> <Gold.PLP.Fitness>
51.4469

> <Gold.PLP.PLP>
-42.1871

> <Gold.PLP.part.hbond>
-2.0000

> <Gold.PLP.part.metal>
0.0000

> <Gold.PLP.part.buried>
-5.7148

> <Gold.PLP.part.nonpolar>
-35.6168

> <Gold.PLP.part.repulsive>
0.8559

> <Gold.PLP.ligand.clash>
0.0000

> <Gold.PLP.ligand.torsion>
1.3726

> <Gold.PLP.Chemscore.Hbond>
3.0000

> <Gold.PLP.Chemscore.CHOScore>
0.9706

> <Gold.PLP.Chemscore.Metal>
0.0000

> <Gold.Chemscore.Hbonds>
donor molecule, donor type, donor heavy atom, donor atom, acceptor molecule, acceptor atom, score
      L1  H     9    31       P1  7948  0.36
      P1  H 10752 10764       L1    13  1.00

> <Gold.PLP.Chemscore.Internal.Correction>
0.0931

> <Gold.Rescore>
     Score         DG    S(hbond)    S(metal)    S(lipo)     H(rot)  DE(clash)    DE(int)     intcor
     16.13     -17.37       1.81        0.00      90.05       1.84       0.04       1.20       ----

> <Gold.Chemscore.Fitness>
16.1272

> <Gold.Chemscore.DG>
-17.3664

> <Gold.Chemscore.ZeroCoef>
-5.4800

> <Gold.Chemscore.Hbond>
1.8132

> <Gold.Chemscore.Metal>
0.0000

> <Gold.Chemscore.Lipo>
90.0540

> <Gold.Chemscore.Internal_Hbond>
0.0000

> <Gold.Chemscore.DEClash>
0.0436

> <Gold.Chemscore.DEInternal>
1.1957

> <Gold.Chemscore.Rot>
1.8383

> <Gold.Chemscore.Internal.Correction>
   9.000000E+99

> <Gold.Chemscore.Hbonds>
donor molecule, donor type, donor heavy atom, donor atom, acceptor molecule, acceptor atom, score
      L1  H     9    31       P1  7948  0.13
      P1  H 10752 10764       L1    13  0.92

> <Gold.Chemscore.Hbond.Weighted>
-6.0563

> <Gold.Chemscore.Metal.Weighted>
-0.0000

> <Gold.Chemscore.Lipo.Weighted>
-10.5363

> <Gold.Chemscore.Internal_Hbond.Weighted>
0.0000

> <Gold.Chemscore.DEClash.Weighted>
0.0436

> <Gold.Chemscore.DEInternal.Weighted>
1.1957

> <Gold.Chemscore.Rot.Weighted>
4.7062

> <Gold.Chemscore.Internal.Correction.Weighted>
   9.000000E+99

> <Gold.Protein.RotatedTorsions>
[ 6907 6896 6895 6894 ] final  -59.06 input  -60.11 | X-H torsion
[ 7974 7965 7964 7962 ] final   14.40 input  175.53 | X-H torsion
[ 8008 7997 7996 7995 ] final  -62.15 input   59.86 | X-H torsion
[ 10167 10162 10161 10158 ] final -128.79 input  -65.29 | X-H torsion
[ 10718 10713 10712 10709 ] final  136.70 input   66.30 | X-H torsion
[ 10763 10752 10751 10750 ] final  -47.65 input  -60.55 | X-H torsion
[ 11005 11000 10999 10996 ] final  171.60 input  -57.11 | X-H torsion

> <Gold.Protein.ActiveResidues>
 VAL166  LYS551  ARG553  GLY616  TRP617  ASP618  TYR619  PRO620  LYS621  CYS622 
 ASP623  PHE694  ASN695  SER759  ASP760  ASP761  ALA762  ILE779  LEU786  VAL792 
 PHE793  MET794  SER795  GLU796  ALA797  LYS798  CYS799  TRP800  GLU811  SER814 

> <Gold.Protein.RotatedAtoms>
  150.7959  134.7017  159.6553 H   0  0  0  0  0  0  0  0  0  0  0  0  # atno 6907 bound_to 6896
  152.4070  134.6186  160.0054 H   0  0  0  0  0  0  0  0  0  0  0  0  # atno 6908 bound_to 6896
  151.6440  133.3287  159.3173 H   0  0  0  0  0  0  0  0  0  0  0  0  # atno 6909 bound_to 6896
  146.2306  139.9046  142.8534 H   0  0  0  0  0  0  0  0  0  0  0  0  # atno 7974 bound_to 7965
  154.4484  140.1002  156.6542 H   0  0  0  0  0  0  0  0  0  0  0  0  # atno 8008 bound_to 7997
  155.5364  140.3482  155.4419 H   0  0  0  0  0  0  0  0  0  0  0  0  # atno 8009 bound_to 7997
  156.0628  140.1330  156.9910 H   0  0  0  0  0  0  0  0  0  0  0  0  # atno 8010 bound_to 7997
  139.9466  143.6103  152.2488 H   0  0  0  0  0  0  0  0  0  0  0  0  # atno 10167 bound_to 10162
  157.4438  131.1060  151.0112 H   0  0  0  0  0  0  0  0  0  0  0  0  # atno 10718 bound_to 10713
  154.0648  135.6613  153.4816 H   0  0  0  0  0  0  0  0  0  0  0  0  # atno 10763 bound_to 10752
  153.0413  135.5143  154.7624 H   0  0  0  0  0  0  0  0  0  0  0  0  # atno 10764 bound_to 10752
  154.6672  135.3024  154.9757 H   0  0  0  0  0  0  0  0  0  0  0  0  # atno 10765 bound_to 10752
  140.3207  134.7439  157.4062 H   0  0  0  0  0  0  0  0  0  0  0  0  # atno 11005 bound_to 11000
  145.2289  140.9965  143.4002 LP  0  0  0  0  0  0  0  0  0  0  0  0  # atno 17320 bound_to 7965
  144.9547  139.4044  143.6385 LP  0  0  0  0  0  0  0  0  0  0  0  0  # atno 17321 bound_to 7965
  139.6662  144.7662  151.1869 LP  0  0  0  0  0  0  0  0  0  0  0  0  # atno 17342 bound_to 10162
  140.7595  143.5934  150.8773 LP  0  0  0  0  0  0  0  0  0  0  0  0  # atno 17343 bound_to 10162
  157.0966  130.5964  149.5451 LP  0  0  0  0  0  0  0  0  0  0  0  0  # atno 17370 bound_to 10713
  155.9959  130.5027  150.7477 LP  0  0  0  0  0  0  0  0  0  0  0  0  # atno 17371 bound_to 10713
  140.0944  134.5557  155.8413 LP  0  0  0  0  0  0  0  0  0  0  0  0  # atno 17394 bound_to 11000
  141.2087  133.6676  156.6389 LP  0  0  0  0  0  0  0  0  0  0  0  0  # atno 17395 bound_to 11000

$$$$
