AV-unprocessed.smi:1645|AV-procd|sdf|6609|dock6
  -GOLD-   22720 7313D 1   1.00000     0.00000
 Structure written by MMmdl.
 56 59  0  0  0  0  0  0  0  0  3 V2000
  146.9758  139.5743  154.6330 O   0  0  0  0  0  0  0  0  0  0  0  0
  147.8530  139.5925  153.7708 C   0  0  0  0  0  0  0  0  0  0  0  0
  149.0919  140.0916  153.9256 N   0  0  0  0  0  0  0  0  0  0  0  0
  149.6531  140.7627  155.0474 C   0  0  0  0  0  0  0  0  0  0  0  0
  150.9856  140.4540  155.3921 C   0  0  0  0  0  0  0  0  0  0  0  0
  151.5959  141.0946  156.4896 C   0  0  0  0  0  0  0  0  0  0  0  0
  150.8660  142.0430  157.2491 C   0  0  0  0  0  0  0  0  0  0  0  0
  151.4003  142.7516  158.3491 N   0  0  0  0  0  0  0  0  0  0  0  0
  150.7161  143.9896  158.7356 C   0  0  0  0  0  0  0  0  0  0  0  0
  151.6281  144.8915  159.5843 C   0  0  0  0  0  0  0  0  0  0  0  0
  152.2002  144.1264  160.7860 C   0  0  0  0  0  0  0  0  0  0  0  0
  152.9255  142.8630  160.3028 C   0  0  0  0  0  0  0  0  0  0  0  0
  152.0025  141.9841  159.4409 C   0  0  0  0  0  0  0  0  0  0  0  0
  149.5840  142.2934  156.8886 N   0  3  0  0  0  0  0  0  0  0  0  0
  148.9606  141.7046  155.8453 C   0  0  0  0  0  0  0  0  0  0  0  0
  147.6778  139.1059  152.5333 N   0  0  0  0  0  0  0  0  0  0  0  0
  146.4320  138.5376  152.0188 C   0  0  1  0  0  0  0  0  0  0  0  0
  146.5099  138.1733  150.5237 C   0  0  0  0  0  0  0  0  0  0  0  0
  145.7596  136.8422  150.4102 C   0  0  0  0  0  0  0  0  0  0  0  0
  146.0527  136.1916  151.6925 N   0  3  2  0  0  0  0  0  0  0  0  0
  145.2989  134.9752  152.0575 C   0  0  0  0  0  0  0  0  0  0  0  0
  145.9192  134.3855  153.3425 C   0  0  0  0  0  0  0  0  0  0  0  0
  146.0303  135.4337  154.4736 C   0  0  0  0  0  0  0  0  0  0  0  0
  146.7120  136.7324  153.9900 C   0  0  0  0  0  0  0  0  0  0  0  0
  145.9877  137.2367  152.7289 C   0  0  1  0  0  0  0  0  0  0  0  0
  149.6877  140.0466  153.1119 H   0  0  0  0  0  0  0  0  0  0  0  0
  151.5463  139.7329  154.8151 H   0  0  0  0  0  0  0  0  0  0  0  0
  152.6164  140.8383  156.7308 H   0  0  0  0  0  0  0  0  0  0  0  0
  150.3809  144.5567  157.8675 H   0  0  0  0  0  0  0  0  0  0  0  0
  149.8219  143.7281  159.3027 H   0  0  0  0  0  0  0  0  0  0  0  0
  152.4461  145.2665  158.9674 H   0  0  0  0  0  0  0  0  0  0  0  0
  151.0737  145.7655  159.9269 H   0  0  0  0  0  0  0  0  0  0  0  0
  152.8849  144.7630  161.3473 H   0  0  0  0  0  0  0  0  0  0  0  0
  151.3947  143.8528  161.4686 H   0  0  0  0  0  0  0  0  0  0  0  0
  153.8035  143.1480  159.7213 H   0  0  0  0  0  0  0  0  0  0  0  0
  153.2932  142.2924  161.1562 H   0  0  0  0  0  0  0  0  0  0  0  0
  151.2094  141.5558  160.0553 H   0  0  0  0  0  0  0  0  0  0  0  0
  152.5927  141.1572  159.0453 H   0  0  0  0  0  0  0  0  0  0  0  0
  147.9376  142.0166  155.7026 H   0  0  0  0  0  0  0  0  0  0  0  0
  148.4533  139.1589  151.8890 H   0  0  0  0  0  0  0  0  0  0  0  0
  145.6353  139.2754  152.1353 H   0  0  0  0  0  0  0  0  0  0  0  0
  146.0879  138.9457  149.8798 H   0  0  0  0  0  0  0  0  0  0  0  0
  147.5484  138.0261  150.2227 H   0  0  0  0  0  0  0  0  0  0  0  0
  144.6856  137.0122  150.3184 H   0  0  0  0  0  0  0  0  0  0  0  0
  146.0912  136.2426  149.5619 H   0  0  0  0  0  0  0  0  0  0  0  0
  144.2454  135.2156  152.2077 H   0  0  0  0  0  0  0  0  0  0  0  0
  145.3540  134.2491  151.2456 H   0  0  0  0  0  0  0  0  0  0  0  0
  145.3343  133.5299  153.6812 H   0  0  0  0  0  0  0  0  0  0  0  0
  146.9152  134.0031  153.1144 H   0  0  0  0  0  0  0  0  0  0  0  0
  145.0309  135.6689  154.8421 H   0  0  0  0  0  0  0  0  0  0  0  0
  146.5774  135.0158  155.3192 H   0  0  0  0  0  0  0  0  0  0  0  0
  146.6752  137.4830  154.7800 H   0  0  0  0  0  0  0  0  0  0  0  0
  147.7650  136.5451  153.7756 H   0  0  0  0  0  0  0  0  0  0  0  0
  144.9351  137.3764  152.9853 H   0  0  0  0  0  0  0  0  0  0  0  0
  147.0233  135.9184  151.6360 H   0  0  0  0  0  0  0  0  0  0  0  0
  149.0569  142.9747  157.4353 H   0  0  0  0  0  0  0  0  0  0  0  0
  1  2  2  0  0  0  0
  2  3  1  0  0  0  0
  2 16  1  0  0  0  0
  3  4  1  0  0  0  0
  3 26  1  0  0  0  0
  4 15  1  0  0  0  0
  4  5  2  0  0  0  0
  5  6  1  0  0  0  0
  5 27  1  0  0  0  0
  6  7  2  0  0  0  0
  6 28  1  0  0  0  0
  7  8  1  0  0  0  0
  7 14  1  0  0  0  0
  8 13  1  0  0  0  0
  8  9  1  0  0  0  0
  9 10  1  0  0  0  0
  9 29  1  0  0  0  0
  9 30  1  0  0  0  0
 10 11  1  0  0  0  0
 10 31  1  0  0  0  0
 10 32  1  0  0  0  0
 11 12  1  0  0  0  0
 11 33  1  0  0  0  0
 11 34  1  0  0  0  0
 12 13  1  0  0  0  0
 12 35  1  0  0  0  0
 12 36  1  0  0  0  0
 13 37  1  0  0  0  0
 13 38  1  0  0  0  0
 14 15  2  0  0  0  0
 14 56  1  0  0  0  0
 15 39  1  0  0  0  0
 16 17  1  0  0  0  0
 16 40  1  0  0  0  0
 17 25  1  0  0  0  0
 17 18  1  0  0  0  0
 17 41  1  0  0  0  0
 18 19  1  0  0  0  0
 18 42  1  0  0  0  0
 18 43  1  0  0  0  0
 19 20  1  0  0  0  0
 19 44  1  0  0  0  0
 19 45  1  0  0  0  0
 20 25  1  0  0  0  0
 20 21  1  0  0  0  0
 20 55  1  0  0  0  0
 21 22  1  0  0  0  0
 21 46  1  0  0  0  0
 21 47  1  0  0  0  0
 22 23  1  0  0  0  0
 22 48  1  0  0  0  0
 22 49  1  0  0  0  0
 23 24  1  0  0  0  0
 23 50  1  0  0  0  0
 23 51  1  0  0  0  0
 24 25  1  0  0  0  0
 24 52  1  0  0  0  0
 24 53  1  0  0  0  0
 25 54  1  0  0  0  0
M  CHG  1  14   1
M  CHG  1  20   1
M  END
> <s_m_source_file>
AV-unprocessed.smi

> <i_m_source_file_index>
1645

> <i_lp_mmshare_version>
43012

> <i_f3d_flags>
0

> <s_epik_input>
W0NIMl0xW0NIMl1bQ0gyXVtDSDJdW0NASF0oTjEyKVtDQEBIXShbQ0gyXVtDSDJdMilbTkhdQyg9TylbTkhdYzNbY0hdW2NIXWMobltjSF0zKU40W0NIMl1bQ0gyXVtDSDJdW0NIMl1bQ0gyXTQ=

> <s_epik_cmdline>
J2VwaWtfcHl0aG9uJywgJy1waCcsICc3LjAnLCAnLXRuJywgJzgnLCAnLW1hJywgJzIwMCcsICctbWV0YWxfYmluZGluZycsICctaW1hZScsICc8aW5maWxlLm1hZT4nLCAnLW9tYWUnLCAnPG91dGZpbGUubWFlPic=

> <r_lp_tautomer_probability>
0.999994

> <r_epik_Ionization_Penalty>
1.26838

> <r_epik_Ionization_Penalty_Charging>
1.26836

> <r_epik_Ionization_Penalty_Neutral>
1.95562e-05

> <r_epik_State_Penalty>
1.33841

> <r_epik_Charging_Adjusted_Penalty>
2.60677

> <i_epik_Tot_Q>
2

> <i_epik_Tot_abs_Q>
2

> <r_epik_Metal_State_Penalty>
1.40601

> <b_epik_Metal_Only>
0

> <s_lp_Force_Field>
OPLS_2005

> <r_lp_Energy>
64.599

> <b_lp_Chiralities_Consistent>
1

> <s_lp_Variant>
AV-unprocessed.smi:1645-10

> <Gold.Version>
5.8.1

> <Gold.Id.Protein>
6NUR|6NUR_protein|mol2

> <Gold.PLP.Fitness>
52.1012

> <Gold.PLP.PLP>
-42.5313

> <Gold.PLP.part.hbond>
-4.6210

> <Gold.PLP.part.metal>
0.0000

> <Gold.PLP.part.buried>
6.0163

> <Gold.PLP.part.nonpolar>
-44.8695

> <Gold.PLP.part.repulsive>
0.3420

> <Gold.PLP.ligand.clash>
0.0000

> <Gold.PLP.ligand.torsion>
0.9117

> <Gold.PLP.Chemscore.Hbond>
3.7120

> <Gold.PLP.Chemscore.CHOScore>
0.0000

> <Gold.PLP.Chemscore.Metal>
0.0000

> <Gold.Chemscore.Hbonds>
donor molecule, donor type, donor heavy atom, donor atom, acceptor molecule, acceptor atom, score
      L1  H     3    26       P1  7957  0.83
      L1  H    16    40       P1  7957  1.00
      L1  H    20    55       P1  7948  2.00

> <Gold.PLP.Chemscore.Internal.Correction>
0.2574

> <Gold.Rescore>
     Score         DG    S(hbond)    S(metal)    S(lipo)     H(rot)  DE(clash)    DE(int)     intcor
     20.49     -26.25       2.56        0.00     126.23       1.00       4.91       0.84       ----

> <Gold.Chemscore.Fitness>
20.4923

> <Gold.Chemscore.DG>
-26.2467

> <Gold.Chemscore.ZeroCoef>
-5.4800

> <Gold.Chemscore.Hbond>
2.5622

> <Gold.Chemscore.Metal>
0.0000

> <Gold.Chemscore.Lipo>
126.2296

> <Gold.Chemscore.Internal_Hbond>
0.0000

> <Gold.Chemscore.DEClash>
4.9113

> <Gold.Chemscore.DEInternal>
0.8431

> <Gold.Chemscore.Rot>
1.0000

> <Gold.Chemscore.Internal.Correction>
   9.000000E+99

> <Gold.Chemscore.Hbonds>
donor molecule, donor type, donor heavy atom, donor atom, acceptor molecule, acceptor atom, score
      L1  H     3    26       P1  7957  0.82
      L1  H    16    40       P1  7957  0.93
      L1  H    20    55       P1  7948  0.97

> <Gold.Chemscore.Hbond.Weighted>
-8.5578

> <Gold.Chemscore.Metal.Weighted>
-0.0000

> <Gold.Chemscore.Lipo.Weighted>
-14.7689

> <Gold.Chemscore.Internal_Hbond.Weighted>
0.0000

> <Gold.Chemscore.DEClash.Weighted>
4.9113

> <Gold.Chemscore.DEInternal.Weighted>
0.8431

> <Gold.Chemscore.Rot.Weighted>
2.5600

> <Gold.Chemscore.Internal.Correction.Weighted>
   9.000000E+99

> <Gold.Protein.RotatedTorsions>
[ 6907 6896 6895 6894 ] final  -39.48 input  -60.11 | X-H torsion
[ 7974 7965 7964 7962 ] final   98.20 input  175.53 | X-H torsion
[ 8008 7997 7996 7995 ] final   40.89 input   59.86 | X-H torsion
[ 10167 10162 10161 10158 ] final -135.53 input  -65.29 | X-H torsion
[ 10718 10713 10712 10709 ] final  -12.49 input   66.30 | X-H torsion
[ 10763 10752 10751 10750 ] final -126.97 input  -60.55 | X-H torsion
[ 11005 11000 10999 10996 ] final   11.47 input  -57.11 | X-H torsion

> <Gold.Protein.ActiveResidues>
 VAL166  LYS551  ARG553  GLY616  TRP617  ASP618  TYR619  PRO620  LYS621  CYS622 
 ASP623  PHE694  ASN695  SER759  ASP760  ASP761  ALA762  ILE779  LEU786  VAL792 
 PHE793  MET794  SER795  GLU796  ALA797  LYS798  CYS799  TRP800  GLU811  SER814 

> <Gold.Protein.RotatedAtoms>
  150.9899  134.9236  159.7893 H   0  0  0  0  0  0  0  0  0  0  0  0  # atno 6907 bound_to 6896
  152.5248  134.3296  159.9188 H   0  0  0  0  0  0  0  0  0  0  0  0  # atno 6908 bound_to 6896
  151.3302  133.3962  159.2696 H   0  0  0  0  0  0  0  0  0  0  0  0  # atno 6909 bound_to 6896
  145.4153  139.2328  143.3225 H   0  0  0  0  0  0  0  0  0  0  0  0  # atno 7974 bound_to 7965
  155.2606  140.3359  155.4273 H   0  0  0  0  0  0  0  0  0  0  0  0  # atno 8008 bound_to 7997
  156.2176  140.1795  156.7595 H   0  0  0  0  0  0  0  0  0  0  0  0  # atno 8009 bound_to 7997
  154.5777  140.0659  156.9043 H   0  0  0  0  0  0  0  0  0  0  0  0  # atno 8010 bound_to 7997
  139.8769  143.6887  152.2632 H   0  0  0  0  0  0  0  0  0  0  0  0  # atno 10167 bound_to 10162
  156.6438  130.4935  149.6085 H   0  0  0  0  0  0  0  0  0  0  0  0  # atno 10718 bound_to 10713
  154.8749  135.3977  154.3518 H   0  0  0  0  0  0  0  0  0  0  0  0  # atno 10763 bound_to 10752
  153.4303  135.7025  153.6241 H   0  0  0  0  0  0  0  0  0  0  0  0  # atno 10764 bound_to 10752
  153.4865  135.3757  155.2439 H   0  0  0  0  0  0  0  0  0  0  0  0  # atno 10765 bound_to 10752
  140.5029  134.0728  155.7798 H   0  0  0  0  0  0  0  0  0  0  0  0  # atno 11005 bound_to 11000
  146.2684  140.4870  142.8824 LP  0  0  0  0  0  0  0  0  0  0  0  0  # atno 17320 bound_to 7965
  144.8281  140.6662  143.6309 LP  0  0  0  0  0  0  0  0  0  0  0  0  # atno 17321 bound_to 7965
  139.7232  144.7598  151.0922 LP  0  0  0  0  0  0  0  0  0  0  0  0  # atno 17342 bound_to 10162
  140.7751  143.5181  150.9569 LP  0  0  0  0  0  0  0  0  0  0  0  0  # atno 17343 bound_to 10162
  156.2138  130.6695  151.1297 LP  0  0  0  0  0  0  0  0  0  0  0  0  # atno 17370 bound_to 10713
  157.7162  131.0708  150.6316 LP  0  0  0  0  0  0  0  0  0  0  0  0  # atno 17371 bound_to 10713
  141.1426  133.9111  157.2290 LP  0  0  0  0  0  0  0  0  0  0  0  0  # atno 17394 bound_to 11000
  139.9703  135.0130  156.9495 LP  0  0  0  0  0  0  0  0  0  0  0  0  # atno 17395 bound_to 11000

$$$$
