AV-unprocessed.smi:1712|AV-procd|sdf|6904|dock5
  -GOLD-   22720 8103D 1   1.00000     0.00000
 Structure written by MMmdl.
 38 39  0  0  0  0  0  0  0  0  2 V2000
  147.4183  139.2331  153.4470 C   0  0  0  0  0  0  0  0  0  0  0  0
  147.6463  138.1451  154.5258 C   0  0  1  0  0  0  0  0  0  0  0  0
  146.5819  137.0216  154.4095 C   0  0  0  0  0  0  0  0  0  0  0  0
  146.8103  136.1284  153.2757 N   0  0  0  0  0  0  0  0  0  0  0  0
  145.9254  135.2433  152.7940 C   0  0  0  0  0  0  0  0  0  0  0  0
  144.8058  135.0694  153.2756 O   0  0  0  0  0  0  0  0  0  0  0  0
  146.4241  134.5784  151.7394 N   0  0  0  0  0  0  0  0  0  0  0  0
  145.7829  133.5690  150.9779 C   0  0  0  0  0  0  0  0  0  0  0  0
  144.3812  133.4907  150.7553 C   0  0  0  0  0  0  0  0  0  0  0  0
  144.0682  132.4414  150.0085 N   0  0  0  0  0  0  0  0  0  0  0  0
  145.2567  131.8488  149.7532 N   0  0  0  0  0  0  0  0  0  0  0  0
  146.3280  132.5006  150.3228 C   0  0  0  0  0  0  0  0  0  0  0  0
  149.0255  137.5540  154.4892 N   0  3  0  0  0  0  0  0  0  0  0  0
  150.1473  138.5324  154.5499 C   0  0  0  0  0  0  0  0  0  0  0  0
  151.5100  137.8225  154.4735 C   0  0  0  0  0  0  0  0  0  0  0  0
  151.6161  136.8625  155.5140 O   0  0  0  0  0  0  0  0  0  0  0  0
  150.6186  135.8597  155.3975 C   0  0  0  0  0  0  0  0  0  0  0  0
  149.2285  136.5032  155.5245 C   0  0  0  0  0  0  0  0  0  0  0  0
  145.3196  131.0090  149.1954 H   0  0  0  0  0  0  0  0  0  0  0  0
  146.4120  139.6472  153.4956 H   0  0  0  0  0  0  0  0  0  0  0  0
  147.5596  138.8338  152.4421 H   0  0  0  0  0  0  0  0  0  0  0  0
  148.0831  140.0871  153.5747 H   0  0  0  0  0  0  0  0  0  0  0  0
  147.5235  138.6365  155.4925 H   0  0  0  0  0  0  0  0  0  0  0  0
  146.5302  136.4614  155.3449 H   0  0  0  0  0  0  0  0  0  0  0  0
  145.5869  137.4349  154.2572 H   0  0  0  0  0  0  0  0  0  0  0  0
  147.7063  136.1989  152.8154 H   0  0  0  0  0  0  0  0  0  0  0  0
  147.3614  134.8168  151.4499 H   0  0  0  0  0  0  0  0  0  0  0  0
  143.5969  134.1463  151.1035 H   0  0  0  0  0  0  0  0  0  0  0  0
  147.3436  132.1506  150.2112 H   0  0  0  0  0  0  0  0  0  0  0  0
  150.1008  139.2297  153.7141 H   0  0  0  0  0  0  0  0  0  0  0  0
  150.0782  139.1146  155.4702 H   0  0  0  0  0  0  0  0  0  0  0  0
  151.6440  137.3410  153.5033 H   0  0  0  0  0  0  0  0  0  0  0  0
  152.3165  138.5482  154.5807 H   0  0  0  0  0  0  0  0  0  0  0  0
  150.7203  135.3298  154.4489 H   0  0  0  0  0  0  0  0  0  0  0  0
  150.7644  135.1248  156.1893 H   0  0  0  0  0  0  0  0  0  0  0  0
  149.1163  136.9424  156.5172 H   0  0  0  0  0  0  0  0  0  0  0  0
  148.4821  135.7159  155.4422 H   0  0  0  0  0  0  0  0  0  0  0  0
  149.1106  137.0997  153.5910 H   0  0  0  0  0  0  0  0  0  0  0  0
  1  2  1  0  0  0  0
  1 20  1  0  0  0  0
  1 21  1  0  0  0  0
  1 22  1  0  0  0  0
  2  3  1  0  0  0  0
  2 13  1  0  0  0  0
  2 23  1  0  0  0  0
  3  4  1  0  0  0  0
  3 24  1  0  0  0  0
  3 25  1  0  0  0  0
  4  5  1  0  0  0  0
  4 26  1  0  0  0  0
  5  6  2  0  0  0  0
  5  7  1  0  0  0  0
  7  8  1  0  0  0  0
  7 27  1  0  0  0  0
  8 12  2  0  0  0  0
  8  9  1  0  0  0  0
  9 10  2  0  0  0  0
  9 28  1  0  0  0  0
 10 11  1  0  0  0  0
 11 19  1  0  0  0  0
 11 12  1  0  0  0  0
 12 29  1  0  0  0  0
 13 18  1  0  0  0  0
 13 14  1  0  0  0  0
 13 38  1  0  0  0  0
 14 15  1  0  0  0  0
 14 30  1  0  0  0  0
 14 31  1  0  0  0  0
 15 16  1  0  0  0  0
 15 32  1  0  0  0  0
 15 33  1  0  0  0  0
 16 17  1  0  0  0  0
 17 18  1  0  0  0  0
 17 34  1  0  0  0  0
 17 35  1  0  0  0  0
 18 36  1  0  0  0  0
 18 37  1  0  0  0  0
M  CHG  1  13   1
M  END
> <s_m_source_file>
AV-unprocessed.smi

> <i_m_source_file_index>
1712

> <i_lp_mmshare_version>
43012

> <i_f3d_flags>
0

> <s_epik_input>
W0NIMl0xW0NIMl1PW0NIMl1bQ0gyXU4xW0NASF0oW0NIM10pW0NIMl1bTkhdQyg9TylbTkhdYzJbY0hdbltuSF1bY0hdMg==

> <s_epik_cmdline>
J2VwaWtfcHl0aG9uJywgJy1waCcsICc3LjAnLCAnLXRuJywgJzgnLCAnLW1hJywgJzIwMCcsICctbWV0YWxfYmluZGluZycsICctaW1hZScsICc8aW5maWxlLm1hZT4nLCAnLW9tYWUnLCAnPG91dGZpbGUubWFlPic=

> <r_lp_tautomer_probability>
0.5

> <r_epik_Ionization_Penalty>
0.646007

> <r_epik_Ionization_Penalty_Charging>
0.645968

> <r_epik_Ionization_Penalty_Neutral>
3.91929e-05

> <r_epik_State_Penalty>
0.664063

> <r_epik_Charging_Adjusted_Penalty>
1.31003

> <i_epik_Tot_Q>
1

> <i_epik_Tot_abs_Q>
1

> <r_epik_Metal_State_Penalty>
0.664064

> <b_epik_Metal_Only>
0

> <s_lp_Force_Field>
OPLS_2005

> <r_lp_Energy>
23.8856

> <b_lp_Chiralities_Consistent>
1

> <s_lp_Variant>
AV-unprocessed.smi:1712-4

> <Gold.Version>
5.8.1

> <Gold.Id.Protein>
6NUR|6NUR_protein|mol2

> <Gold.PLP.Fitness>
41.2468

> <Gold.PLP.PLP>
-25.3544

> <Gold.PLP.part.hbond>
-3.9828

> <Gold.PLP.part.metal>
0.0000

> <Gold.PLP.part.buried>
-4.7196

> <Gold.PLP.part.nonpolar>
-17.7716

> <Gold.PLP.part.repulsive>
0.5892

> <Gold.PLP.ligand.clash>
0.0000

> <Gold.PLP.ligand.torsion>
0.3623

> <Gold.PLP.Chemscore.Hbond>
4.3440

> <Gold.PLP.Chemscore.CHOScore>
1.1729

> <Gold.PLP.Chemscore.Metal>
0.0000

> <Gold.Chemscore.Hbonds>
donor molecule, donor type, donor heavy atom, donor atom, acceptor molecule, acceptor atom, score
      L1  H     4    26       P1  7948  1.00
      L1  H     7    27       P1  7948  0.69
      L1  H    13    38       P1  7948  2.00
      P1  H 10752 10763       L1    16  0.45
      L1  C    12    29       P1 10747  1.00

> <Gold.PLP.Chemscore.Internal.Correction>
0.0662

> <Gold.Rescore>
     Score         DG    S(hbond)    S(metal)    S(lipo)     H(rot)  DE(clash)    DE(int)     intcor
     15.45     -16.77       2.68        0.00      56.60       1.68       0.02       1.30       ----

> <Gold.Chemscore.Fitness>
15.4475

> <Gold.Chemscore.DG>
-16.7669

> <Gold.Chemscore.ZeroCoef>
-5.4800

> <Gold.Chemscore.Hbond>
2.6821

> <Gold.Chemscore.Metal>
0.0000

> <Gold.Chemscore.Lipo>
56.5985

> <Gold.Chemscore.Internal_Hbond>
0.0000

> <Gold.Chemscore.DEClash>
0.0243

> <Gold.Chemscore.DEInternal>
1.2951

> <Gold.Chemscore.Rot>
1.6771

> <Gold.Chemscore.Internal.Correction>
   9.000000E+99

> <Gold.Chemscore.Hbonds>
donor molecule, donor type, donor heavy atom, donor atom, acceptor molecule, acceptor atom, score
      L1  H     4    26       P1  7948  0.97
      L1  H     7    27       P1  7948  0.33
      L1  H    13    38       P1  7948  0.99

> <Gold.Chemscore.Hbond.Weighted>
-8.9583

> <Gold.Chemscore.Metal.Weighted>
-0.0000

> <Gold.Chemscore.Lipo.Weighted>
-6.6220

> <Gold.Chemscore.Internal_Hbond.Weighted>
0.0000

> <Gold.Chemscore.DEClash.Weighted>
0.0243

> <Gold.Chemscore.DEInternal.Weighted>
1.2951

> <Gold.Chemscore.Rot.Weighted>
4.2935

> <Gold.Chemscore.Internal.Correction.Weighted>
   9.000000E+99

> <Gold.Protein.RotatedTorsions>
[ 6907 6896 6895 6894 ] final -127.91 input  -60.11 | X-H torsion
[ 7974 7965 7964 7962 ] final  107.02 input  175.53 | X-H torsion
[ 8008 7997 7996 7995 ] final  -36.12 input   59.86 | X-H torsion
[ 10167 10162 10161 10158 ] final   74.56 input  -65.29 | X-H torsion
[ 10718 10713 10712 10709 ] final  171.48 input   66.30 | X-H torsion
[ 10763 10752 10751 10750 ] final   64.95 input  -60.55 | X-H torsion
[ 11005 11000 10999 10996 ] final -127.26 input  -57.11 | X-H torsion

> <Gold.Protein.ActiveResidues>
 VAL166  LYS551  ARG553  GLY616  TRP617  ASP618  TYR619  PRO620  LYS621  CYS622 
 ASP623  PHE694  ASN695  SER759  ASP760  ASP761  ALA762  ILE779  LEU786  VAL792 
 PHE793  MET794  SER795  GLU796  ALA797  LYS798  CYS799  TRP800  GLU811  SER814 

> <Gold.Protein.RotatedAtoms>
  150.9123  133.6982  159.2851 H   0  0  0  0  0  0  0  0  0  0  0  0  # atno 6907 bound_to 6896
  151.4464  135.1024  159.9695 H   0  0  0  0  0  0  0  0  0  0  0  0  # atno 6908 bound_to 6896
  152.4936  133.8519  159.7261 H   0  0  0  0  0  0  0  0  0  0  0  0  # atno 6909 bound_to 6896
  145.2991  139.2575  143.3823 H   0  0  0  0  0  0  0  0  0  0  0  0  # atno 7974 bound_to 7965
  154.4080  140.1639  156.2323 H   0  0  0  0  0  0  0  0  0  0  0  0  # atno 8008 bound_to 7997
  155.9272  140.3417  155.6197 H   0  0  0  0  0  0  0  0  0  0  0  0  # atno 8009 bound_to 7997
  155.7150  140.0761  157.2345 H   0  0  0  0  0  0  0  0  0  0  0  0  # atno 8010 bound_to 7997
  140.0124  144.5604  150.7648 H   0  0  0  0  0  0  0  0  0  0  0  0  # atno 10167 bound_to 10162
  156.9929  131.0153  151.2852 H   0  0  0  0  0  0  0  0  0  0  0  0  # atno 10718 bound_to 10713
  153.0076  135.5374  154.6590 H   0  0  0  0  0  0  0  0  0  0  0  0  # atno 10763 bound_to 10752
  154.5803  135.2849  155.0741 H   0  0  0  0  0  0  0  0  0  0  0  0  # atno 10764 bound_to 10752
  154.1873  135.6506  153.5103 H   0  0  0  0  0  0  0  0  0  0  0  0  # atno 10765 bound_to 10752
  140.9614  134.0931  157.3964 H   0  0  0  0  0  0  0  0  0  0  0  0  # atno 11005 bound_to 11000
  146.3158  140.3501  142.8655 LP  0  0  0  0  0  0  0  0  0  0  0  0  # atno 17320 bound_to 7965
  144.9108  140.7755  143.5808 LP  0  0  0  0  0  0  0  0  0  0  0  0  # atno 17321 bound_to 7965
  140.7376  143.2768  151.3719 LP  0  0  0  0  0  0  0  0  0  0  0  0  # atno 17342 bound_to 10162
  139.6196  144.0933  152.2378 LP  0  0  0  0  0  0  0  0  0  0  0  0  # atno 17343 bound_to 10162
  157.5446  130.8142  149.8070 LP  0  0  0  0  0  0  0  0  0  0  0  0  # atno 17370 bound_to 10713
  156.0200  130.3799  150.1991 LP  0  0  0  0  0  0  0  0  0  0  0  0  # atno 17371 bound_to 10713
  139.8879  135.0094  156.6590 LP  0  0  0  0  0  0  0  0  0  0  0  0  # atno 17394 bound_to 11000
  140.7462  133.8936  155.8313 LP  0  0  0  0  0  0  0  0  0  0  0  0  # atno 17395 bound_to 11000

$$$$
