#       Name:                AV-unprocessed.smi:3100
#       Creating user name   scv26
#       Creation time:       Fri Mar 27 17:18:11 2020


#       File generated by GOLD software.
#

@<TRIPOS>MOLECULE
AV-unprocessed.smi:3100
    34    35     1
SMALL
NO_CHARGES


@<TRIPOS>ATOM
      1 ****        -3.1756   1.7121   0.3680 C.3            1 S1                 0.0000
      2 ****        -2.1702   0.6221   0.7527 C.3            1 S1                 0.0000
      3 ****        -2.7263  -0.4400   1.6930 C.3            1 S1                 0.0000
      4 ****        -1.7822  -1.6086   1.4701 C.3            1 S1                 0.0000
      5 ****        -1.2195  -1.3758   0.0522 C.3            1 S1                 0.0000
      6 ****         0.3170  -1.2856   0.0051 C.2            1 S1                 0.0000
      7 ****         0.9904  -2.1081   0.6267 O.2            1 S1                 0.0000
      8 ****         0.8364  -0.3023  -0.7546 N.am           1 S1                 0.0000
      9 ****         2.2028   0.0174  -0.9668 C.ar           1 S1                 0.0000
     10 ****         2.4501   1.1199  -1.8186 C.ar           1 S1                 0.0000
     11 ****         3.6975   1.5473  -2.1150 N.ar           1 S1                 0.0000
     12 ****         4.7185   0.8652  -1.5539 C.ar           1 S1                 0.0000
     13 ****         4.4913  -0.2352  -0.7034 C.ar           1 S1                 0.0000
     14 ****         3.2417  -0.6569  -0.4110 N.ar           1 S1                 0.0000
     15 ****        -1.8023  -0.1448  -0.3838 O.3            1 S1                 0.0000
     16 ****        -3.4901   2.2806   1.2434 H              1 S1                 0.0000
     17 ****        -4.0669   1.2847  -0.0922 H              1 S1                 0.0000
     18 ****        -2.7367   2.4117  -0.3436 H              1 S1                 0.0000
     19 ****        -1.2740   1.0717   1.1838 H              1 S1                 0.0000
     20 ****        -2.7613  -0.1120   2.7324 H              1 S1                 0.0000
     21 ****        -3.7363  -0.7211   1.3913 H              1 S1                 0.0000
     22 ****        -1.0003  -1.5954   2.2312 H              1 S1                 0.0000
     23 ****        -2.3016  -2.5639   1.5529 H              1 S1                 0.0000
     24 ****        -1.5395  -2.1676  -0.6259 H              1 S1                 0.0000
     25 ****         0.1695   0.2933  -1.2240 H              1 S1                 0.0000
     26 ****         1.6367   1.6692  -2.2698 H              1 S1                 0.0000
     27 ****         5.7197   1.1979  -1.7841 H              1 S1                 0.0000
     28 ****         5.3119  -0.7771  -0.2572 H              1 S1                 0.0000
     29 ****         0.5388  -2.8264   1.1560 LP             1 S1                 0.0000
     30 ****         1.9888  -2.0577   0.6023 LP             1 S1                 0.0000
     31 ****         3.8560   2.3286  -2.7188 LP             1 S1                 0.0000
     32 ****         3.0873  -1.4383   0.1937 LP             1 S1                 0.0000
     33 ****        -1.1385   0.3648  -0.9312 LP             1 S1                 0.0000
     34 ****        -2.6137  -0.3354  -0.9363 LP             1 S1                 0.0000
@<TRIPOS>BOND
    1    1    2 1     
    2    1   16 1     
    3    1   17 1     
    4    1   18 1     
    5    2   15 1     
    6    2    3 1     
    7    2   19 1     
    8    3    4 1     
    9    3   20 1     
   10    3   21 1     
   11    4    5 1     
   12    4   22 1     
   13    4   23 1     
   14    5    6 1     
   15    5   15 1     
   16    5   24 1     
   17    6    7 2     
   18    6    8 am    
   19    8    9 1     
   20    8   25 1     
   21    9   14 ar    
   22    9   10 ar    
   23   10   11 ar    
   24   10   26 1     
   25   11   12 ar    
   26   12   13 ar    
   27   12   27 1     
   28   13   14 ar    
   29   13   28 1     
   30    7   29 1     
   31    7   30 1     
   32   11   31 1     
   33   14   32 1     
   34   15   33 1     
   35   15   34 1     
@<TRIPOS>SUBSTRUCTURE
      1 S1             1
@<TRIPOS>SET
LONE_PAIRS      STATIC     ATOMS    <user>   **** ""
6 29 30 31 32 33 34
DONOR_HYDROGENS      STATIC     ATOMS    <user>   **** ""
1 25
ATOM$BLUE        STATIC     ATOMS    COLORGROUP SYSTEM
6 29 30 31 32 33 34
ATOM$RED        STATIC     ATOMS    COLORGROUP SYSTEM
1 25
