#       Name:                AV-unprocessed.smi:3105
#       Creating user name   scv26
#       Creation time:       Fri Mar 27 17:19:40 2020


#       File generated by GOLD software.
#

@<TRIPOS>MOLECULE
AV-unprocessed.smi:3105
    37    37     1
SMALL
NO_CHARGES


@<TRIPOS>ATOM
      1 ****        -1.4052  -0.7847   2.5048 C.3            1 S1                 0.0000
      2 ****        -1.0617  -0.2422   1.1049 C.3            1 S1                 0.0000
      3 ****         0.4092  -0.1697   0.9423 N.4            1 S1                 1.0000
      4 ****         1.0523   1.0349   1.5118 C.3            1 S1                 0.0000
      5 ****         2.5583   1.0923   1.1872 C.3            1 S1                 0.0000
      6 ****         2.8854   1.3101  -0.2973 C.2            1 S1                 0.0000
      7 ****         4.1317   1.6923  -0.5836 N.am           1 S1                 0.0000
      8 ****         2.0404   1.1355  -1.1739 O.2            1 S1                 0.0000
      9 ****        -1.6755  -1.1004  -0.0348 C.3            1 S1                 0.0000
     10 ****        -3.2147  -1.1437  -0.0012 C.3            1 S1                 0.0000
     11 ****        -1.2289  -0.6478  -1.3485 N.pl3          1 S1                 0.0000
     12 ****        -0.6035  -1.3816  -2.3357 C.2            1 S1                 0.0000
     13 ****        -0.3777  -0.5421  -3.3885 C.2            1 S1                 0.0000
     14 ****        -0.9150   0.7005  -2.9519 C.2            1 S1                 0.0000
     15 ****        -1.4262   0.6337  -1.7335 N.2            1 S1                 0.0000
     16 ****        -2.4783  -0.7643   2.6923 H              1 S1                 0.0000
     17 ****        -0.9417  -0.1889   3.2910 H              1 S1                 0.0000
     18 ****        -1.0648  -1.8136   2.6260 H              1 S1                 0.0000
     19 ****        -1.4649   0.7683   1.0204 H              1 S1                 0.0000
     20 ****         0.8310  -1.0014   1.3293 H              1 S1                 0.0000
     21 ****         0.5581   1.9295   1.1294 H              1 S1                 0.0000
     22 ****         0.9160   1.0382   2.5931 H              1 S1                 0.0000
     23 ****         3.0071   1.9080   1.7558 H              1 S1                 0.0000
     24 ****         3.0478   0.1778   1.5241 H              1 S1                 0.0000
     25 ****         4.4075   1.8486  -1.5425 H              1 S1                 0.0000
     26 ****         4.7998   1.8222   0.1629 H              1 S1                 0.0000
     27 ****        -1.3165  -2.1242   0.0831 H              1 S1                 0.0000
     28 ****        -3.5868  -1.6330   0.8983 H              1 S1                 0.0000
     29 ****        -3.6073  -1.7025  -0.8514 H              1 S1                 0.0000
     30 ****        -3.6435  -0.1417  -0.0386 H              1 S1                 0.0000
     31 ****        -0.3706  -2.4286  -2.2084 H              1 S1                 0.0000
     32 ****         0.0965  -0.7800  -4.3291 H              1 S1                 0.0000
     33 ****        -0.9490   1.6419  -3.4801 H              1 S1                 0.0000
     34 ****         0.5953  -0.1484  -0.0510 H              1 S1                 0.0000
     35 ****         1.1160   0.8451  -0.9265 LP             1 S1                 0.0000
     36 ****         2.2778   1.2839  -2.1339 LP             1 S1                 0.0000
     37 ****        -1.8619   1.3678  -1.2127 LP             1 S1                 0.0000
@<TRIPOS>BOND
    1    1    2 1     
    2    1   16 1     
    3    1   17 1     
    4    1   18 1     
    5    2    3 1     
    6    2    9 1     
    7    2   19 1     
    8    3    4 1     
    9    3   20 1     
   10    3   34 1     
   11    4    5 1     
   12    4   21 1     
   13    4   22 1     
   14    5    6 1     
   15    5   23 1     
   16    5   24 1     
   17    6    7 am    
   18    6    8 2     
   19    7   25 1     
   20    7   26 1     
   21    9   10 1     
   22    9   11 1     
   23    9   27 1     
   24   10   28 1     
   25   10   29 1     
   26   10   30 1     
   27   11   15 1     
   28   11   12 1     
   29   12   13 2     
   30   12   31 1     
   31   13   14 1     
   32   13   32 1     
   33   14   15 2     
   34   14   33 1     
   35    8   35 1     
   36    8   36 1     
   37   15   37 1     
@<TRIPOS>SUBSTRUCTURE
      1 S1             1
@<TRIPOS>SET
LONE_PAIRS      STATIC     ATOMS    <user>   **** ""
3 35 36 37
DONOR_HYDROGENS      STATIC     ATOMS    <user>   **** ""
4 20 34 25 26
ATOM$BLUE        STATIC     ATOMS    COLORGROUP SYSTEM
3 35 36 37
ATOM$RED        STATIC     ATOMS    COLORGROUP SYSTEM
4 20 34 25 26
