AV-unprocessed.smi:49|AV-procd|sdf|472|dock2
  -GOLD-   2262016333D 1   1.00000     0.00000
 Structure written by MMmdl.
 27 28  0  0  0  0  0  0  0  0  1 V2000
  152.6791  138.8920  154.7903 C   0  0  0  0  0  0  0  0  0  0  0  0
  151.5298  138.0629  154.2072 C   0  0  0  0  0  0  0  0  0  0  0  0
  150.2586  138.8395  154.1023 C   0  0  0  0  0  0  0  0  0  0  0  0
  150.1062  140.1101  154.4596 N   0  0  0  0  0  0  0  0  0  0  0  0
  148.7892  140.2966  154.1422 C   0  0  0  0  0  0  0  0  0  0  0  0
  148.1095  141.6209  154.3128 C   0  0  1  0  0  0  0  0  0  0  0  0
  146.6770  141.6216  153.7605 C   0  0  0  0  0  0  0  0  0  0  0  0
  145.9858  142.6644  154.6269 C   0  0  1  0  0  0  0  0  0  0  0  0
  144.5833  142.5075  154.6643 O   0  0  0  0  0  0  0  0  0  0  0  0
  146.6340  142.4270  155.9875 C   0  0  0  0  0  0  0  0  0  0  0  0
  148.0242  142.0768  155.7069 N   0  0  0  0  0  0  0  0  0  0  0  0
  148.1664  139.2466  153.6042 N   0  0  0  0  0  0  0  0  0  0  0  0
  149.1410  138.3135  153.5976 N   0  0  0  0  0  0  0  0  0  0  0  0
  148.6812  142.3635  153.7545 H   0  0  0  0  0  0  0  0  0  0  0  0
  146.2286  143.6657  154.2683 H   0  0  0  0  0  0  0  0  0  0  0  0
  149.0055  137.3765  153.2460 H   0  0  0  0  0  0  0  0  0  0  0  0
  153.5924  138.3003  154.8532 H   0  0  0  0  0  0  0  0  0  0  0  0
  152.4401  139.2432  155.7945 H   0  0  0  0  0  0  0  0  0  0  0  0
  152.8882  139.7646  154.1709 H   0  0  0  0  0  0  0  0  0  0  0  0
  151.8039  137.6923  153.2187 H   0  0  0  0  0  0  0  0  0  0  0  0
  151.3519  137.1855  154.8300 H   0  0  0  0  0  0  0  0  0  0  0  0
  146.6299  141.8387  152.6931 H   0  0  0  0  0  0  0  0  0  0  0  0
  146.2112  140.6479  153.9248 H   0  0  0  0  0  0  0  0  0  0  0  0
  144.3002  142.1379  153.8419 H   0  0  0  0  0  0  0  0  0  0  0  0
  146.5562  143.2915  156.6471 H   0  0  0  0  0  0  0  0  0  0  0  0
  146.1471  141.5866  156.4845 H   0  0  0  0  0  0  0  0  0  0  0  0
  148.5944  142.9104  155.8056 H   0  0  0  0  0  0  0  0  0  0  0  0
  1  2  1  0  0  0  0
  1 17  1  0  0  0  0
  1 18  1  0  0  0  0
  1 19  1  0  0  0  0
  2  3  1  0  0  0  0
  2 20  1  0  0  0  0
  2 21  1  0  0  0  0
  3 13  1  0  0  0  0
  3  4  2  0  0  0  0
  4  5  1  0  0  0  0
  5  6  1  0  0  0  0
  5 12  2  0  0  0  0
  6 14  1  0  0  0  0
  6 11  1  0  0  0  0
  6  7  1  0  0  0  0
  7  8  1  0  0  0  0
  7 22  1  0  0  0  0
  7 23  1  0  0  0  0
  8 15  1  0  0  0  0
  8  9  1  0  0  0  0
  8 10  1  0  0  0  0
  9 24  1  0  0  0  0
 10 11  1  0  0  0  0
 10 25  1  0  0  0  0
 10 26  1  0  0  0  0
 11 27  1  0  0  0  0
 12 13  1  0  0  0  0
 13 16  1  0  0  0  0
M  END
> <s_m_source_file>
AV-unprocessed.smi

> <i_m_source_file_index>
49

> <i_lp_mmshare_version>
43012

> <i_f3d_flags>
0

> <s_epik_input>
W0NIM11bQ0gyXWMxbmMobltuSF0xKVtDQEBIXTJbQ0gyXVtDQEBIXShbT0hdKVtDSDJdW05IXTI=

> <s_epik_cmdline>
J2VwaWtfcHl0aG9uJywgJy1waCcsICc3LjAnLCAnLXRuJywgJzgnLCAnLW1hJywgJzIwMCcsICctbWV0YWxfYmluZGluZycsICctaW1hZScsICc8aW5maWxlLm1hZT4nLCAnLW9tYWUnLCAnPG91dGZpbGUubWFlPic=

> <r_lp_tautomer_probability>
0.948284

> <r_epik_Ionization_Penalty>
1.6657

> <r_epik_Ionization_Penalty_Charging>
0

> <r_epik_Ionization_Penalty_Neutral>
1.6657

> <r_epik_State_Penalty>
2.01417

> <r_epik_Charging_Adjusted_Penalty>
2.01417

> <i_epik_Tot_Q>
0

> <i_epik_Tot_abs_Q>
0

> <r_epik_Metal_State_Penalty>
2.28256

> <b_epik_Metal_Only>
0

> <s_lp_Force_Field>
OPLS_2005

> <r_lp_Energy>
18.9273

> <b_lp_Chiralities_Consistent>
1

> <s_lp_Variant>
AV-unprocessed.smi:49-10

> <Gold.Version>
5.8.1

> <Gold.Id.Protein>
6NUR|6NUR_protein|mol2

> <Gold.PLP.Fitness>
36.4642

> <Gold.PLP.PLP>
-27.3709

> <Gold.PLP.part.hbond>
-5.4055

> <Gold.PLP.part.metal>
0.0000

> <Gold.PLP.part.buried>
-3.3049

> <Gold.PLP.part.nonpolar>
-20.2051

> <Gold.PLP.part.repulsive>
1.4758

> <Gold.PLP.ligand.clash>
0.0000

> <Gold.PLP.ligand.torsion>
0.0273

> <Gold.PLP.Chemscore.Hbond>
3.0433

> <Gold.PLP.Chemscore.CHOScore>
0.0000

> <Gold.PLP.Chemscore.Metal>
0.0000

> <Gold.Chemscore.Hbonds>
donor molecule, donor type, donor heavy atom, donor atom, acceptor molecule, acceptor atom, score
      L1  H     9    24       P1 10175  0.06
      L1  H    11    27       P1  8028  1.00
      L1  H    13    16       P1  7948  0.98
      P1  H  7989  7998       L1     4  0.95

> <Gold.PLP.Chemscore.Internal.Correction>
0.0182

> <Gold.Rescore>
     Score         DG    S(hbond)    S(metal)    S(lipo)     H(rot)  DE(clash)    DE(int)     intcor
     12.46     -12.74       2.15        0.00      41.32       1.86       0.22       0.06       ----

> <Gold.Chemscore.Fitness>
12.4578

> <Gold.Chemscore.DG>
-12.7367

> <Gold.Chemscore.ZeroCoef>
-5.4800

> <Gold.Chemscore.Hbond>
2.1477

> <Gold.Chemscore.Metal>
0.0000

> <Gold.Chemscore.Lipo>
41.3171

> <Gold.Chemscore.Internal_Hbond>
0.0000

> <Gold.Chemscore.DEClash>
0.2216

> <Gold.Chemscore.DEInternal>
0.0573

> <Gold.Chemscore.Rot>
1.8558

> <Gold.Chemscore.Internal.Correction>
   9.000000E+99

> <Gold.Chemscore.Hbonds>
donor molecule, donor type, donor heavy atom, donor atom, acceptor molecule, acceptor atom, score
      L1  H    11    27       P1  8028  0.96
      L1  H    13    16       P1  7948  0.93
      P1  H  7989  7998       L1     4  0.21

> <Gold.Chemscore.Hbond.Weighted>
-7.1733

> <Gold.Chemscore.Metal.Weighted>
-0.0000

> <Gold.Chemscore.Lipo.Weighted>
-4.8341

> <Gold.Chemscore.Internal_Hbond.Weighted>
0.0000

> <Gold.Chemscore.DEClash.Weighted>
0.2216

> <Gold.Chemscore.DEInternal.Weighted>
0.0573

> <Gold.Chemscore.Rot.Weighted>
4.7507

> <Gold.Chemscore.Internal.Correction.Weighted>
   9.000000E+99

> <Gold.Protein.RotatedTorsions>
[ 6907 6896 6895 6894 ] final   53.64 input  -60.11 | X-H torsion
[ 7974 7965 7964 7962 ] final -178.20 input  175.53 | X-H torsion
[ 8008 7997 7996 7995 ] final -105.08 input   59.86 | X-H torsion
[ 10167 10162 10161 10158 ] final -165.01 input  -65.29 | X-H torsion
[ 10718 10713 10712 10709 ] final   90.86 input   66.30 | X-H torsion
[ 10763 10752 10751 10750 ] final  -81.27 input  -60.55 | X-H torsion
[ 11005 11000 10999 10996 ] final  123.67 input  -57.11 | X-H torsion

> <Gold.Protein.ActiveResidues>
 VAL166  LYS551  ARG553  GLY616  TRP617  ASP618  TYR619  PRO620  LYS621  CYS622 
 ASP623  PHE694  ASN695  SER759  ASP760  ASP761  ALA762  ILE779  LEU786  VAL792 
 PHE793  MET794  SER795  GLU796  ALA797  LYS798  CYS799  TRP800  GLU811  SER814 

> <Gold.Protein.RotatedAtoms>
  152.3358  134.7200  160.0277 H   0  0  0  0  0  0  0  0  0  0  0  0  # atno 6907 bound_to 6896
  151.7601  133.3328  159.3423 H   0  0  0  0  0  0  0  0  0  0  0  0  # atno 6908 bound_to 6896
  150.7450  134.6045  159.6098 H   0  0  0  0  0  0  0  0  0  0  0  0  # atno 6909 bound_to 6896
  144.7130  140.0904  143.6421 H   0  0  0  0  0  0  0  0  0  0  0  0  # atno 7974 bound_to 7965
  154.8946  140.0415  157.1858 H   0  0  0  0  0  0  0  0  0  0  0  0  # atno 8008 bound_to 7997
  154.8506  140.2928  155.5580 H   0  0  0  0  0  0  0  0  0  0  0  0  # atno 8009 bound_to 7997
  156.2996  140.2465  156.3464 H   0  0  0  0  0  0  0  0  0  0  0  0  # atno 8010 bound_to 7997
  139.6211  144.0622  152.1933 H   0  0  0  0  0  0  0  0  0  0  0  0  # atno 10167 bound_to 10162
  157.6959  131.0386  150.3642 H   0  0  0  0  0  0  0  0  0  0  0  0  # atno 10718 bound_to 10713
  154.5615  135.5632  153.7012 H   0  0  0  0  0  0  0  0  0  0  0  0  # atno 10763 bound_to 10752
  153.0019  135.6275  154.2238 H   0  0  0  0  0  0  0  0  0  0  0  0  # atno 10764 bound_to 10752
  154.2176  135.2871  155.2916 H   0  0  0  0  0  0  0  0  0  0  0  0  # atno 10765 bound_to 10752
  139.9323  134.9641  156.8295 H   0  0  0  0  0  0  0  0  0  0  0  0  # atno 11005 bound_to 11000
  145.9625  139.2811  143.1147 LP  0  0  0  0  0  0  0  0  0  0  0  0  # atno 17320 bound_to 7965
  145.9205  140.9118  143.0407 LP  0  0  0  0  0  0  0  0  0  0  0  0  # atno 17321 bound_to 7965
  140.0264  144.6114  150.7523 LP  0  0  0  0  0  0  0  0  0  0  0  0  # atno 17342 bound_to 10162
  140.7382  143.2776  151.3695 LP  0  0  0  0  0  0  0  0  0  0  0  0  # atno 17343 bound_to 10162
  156.4074  130.3927  149.6915 LP  0  0  0  0  0  0  0  0  0  0  0  0  # atno 17370 bound_to 10713
  156.4211  130.7769  151.2786 LP  0  0  0  0  0  0  0  0  0  0  0  0  # atno 17371 bound_to 10713
  140.6168  134.0031  155.7600 LP  0  0  0  0  0  0  0  0  0  0  0  0  # atno 17394 bound_to 11000
  141.0919  133.9904  157.3223 LP  0  0  0  0  0  0  0  0  0  0  0  0  # atno 17395 bound_to 11000

$$$$
