AV-unprocessed.smi:21|AV-procd|sdf|133|dock9
  -GOLD-   2262015323D 1   1.00000     0.00000
 Structure written by MMmdl.
 62 65  0  0  0  0  0  0  0  0  2 V2000
  143.8515  132.7182  149.0232 C   0  0  0  0  0  0  0  0  0  0  0  0
  145.1289  132.5575  149.6182 O   0  0  0  0  0  0  0  0  0  0  0  0
  145.1994  133.0581  150.9447 C   0  0  1  0  0  0  0  0  0  0  0  0
  146.4750  132.5857  151.6286 C   0  0  0  0  0  0  0  0  0  0  0  0
  146.6565  133.6124  152.7487 C   0  0  1  0  0  0  0  0  0  0  0  0
  148.1098  133.7135  153.2638 C   0  0  0  0  0  0  0  0  0  0  0  0
  148.2116  134.1552  154.6544 N   0  0  0  0  0  0  0  0  0  0  0  0
  147.6265  133.2880  155.6662 C   0  0  0  0  0  0  0  0  0  0  0  0
  149.3765  134.7096  155.0645 C   0  0  0  0  0  0  0  0  0  0  0  0
  150.4340  133.8743  155.2173 N   0  0  0  0  0  0  0  0  0  0  0  0
  151.6039  134.3461  155.6580 C   0  0  0  0  0  0  0  0  0  0  0  0
  151.9237  135.5957  156.0004 N   0  0  0  0  0  0  0  0  0  0  0  0
  150.8680  136.4418  155.8312 C   0  0  0  0  0  0  0  0  0  0  0  0
  149.5704  136.0893  155.3641 C   0  0  0  0  0  0  0  0  0  0  0  0
  148.7621  137.2203  155.3209 N   0  0  0  0  0  0  0  0  0  0  0  0
  149.5318  138.1820  155.7514 C   0  0  0  0  0  0  0  0  0  0  0  0
  150.8067  137.7982  156.0980 N   0  0  0  0  0  0  0  0  0  0  0  0
  151.8509  138.6533  156.6325 C   0  0  0  0  0  0  0  0  0  0  0  0
  151.5943  139.1132  158.0930 C   0  0  1  0  0  0  0  0  0  0  0  0
  152.1378  138.1048  159.1389 C   0  0  0  0  0  0  0  0  0  0  0  0
  151.3726  136.9170  159.1793 O   0  0  0  0  0  0  0  0  0  0  0  0
  152.1882  140.5272  158.3255 C   0  0  1  0  0  0  0  0  0  0  0  0
  151.2006  141.6719  158.1682 C   0  0  0  0  0  0  0  0  0  0  0  0
  151.9069  142.8078  158.8960 C   0  0  0  0  0  0  0  0  0  0  0  0
  152.5746  142.1886  159.9869 O   0  0  0  0  0  0  0  0  0  0  0  0
  152.6971  140.7885  159.7511 C   0  0  0  0  0  0  0  0  0  0  0  0
  146.1889  134.8949  152.1736 N   0  3  2  0  0  0  0  0  0  0  0  0
  145.5682  135.8067  153.1597 C   0  0  0  0  0  0  0  0  0  0  0  0
  145.3209  134.5868  151.0119 C   0  0  0  0  0  0  0  0  0  0  0  0
  144.3435  132.7222  151.5340 H   0  0  0  0  0  0  0  0  0  0  0  0
  145.9729  133.3475  153.5567 H   0  0  0  0  0  0  0  0  0  0  0  0
  143.8649  132.3039  148.0152 H   0  0  0  0  0  0  0  0  0  0  0  0
  143.5726  133.7700  148.9486 H   0  0  0  0  0  0  0  0  0  0  0  0
  143.0832  132.1917  149.5909 H   0  0  0  0  0  0  0  0  0  0  0  0
  146.4024  131.5622  151.9979 H   0  0  0  0  0  0  0  0  0  0  0  0
  147.3129  132.6339  150.9311 H   0  0  0  0  0  0  0  0  0  0  0  0
  148.5870  132.7364  153.1785 H   0  0  0  0  0  0  0  0  0  0  0  0
  148.6945  134.3818  152.6323 H   0  0  0  0  0  0  0  0  0  0  0  0
  147.5016  133.8160  156.6126 H   0  0  0  0  0  0  0  0  0  0  0  0
  148.2600  132.4170  155.8387 H   0  0  0  0  0  0  0  0  0  0  0  0
  146.6439  132.9374  155.3492 H   0  0  0  0  0  0  0  0  0  0  0  0
  152.3943  133.6165  155.7576 H   0  0  0  0  0  0  0  0  0  0  0  0
  149.1853  139.2012  155.8442 H   0  0  0  0  0  0  0  0  0  0  0  0
  152.8024  138.1244  156.5680 H   0  0  0  0  0  0  0  0  0  0  0  0
  151.9323  139.5122  155.9664 H   0  0  0  0  0  0  0  0  0  0  0  0
  150.5153  139.1922  158.2359 H   0  0  0  0  0  0  0  0  0  0  0  0
  153.1812  137.8613  158.9366 H   0  0  0  0  0  0  0  0  0  0  0  0
  152.1044  138.5212  160.1447 H   0  0  0  0  0  0  0  0  0  0  0  0
  150.7578  136.9865  159.8935 H   0  0  0  0  0  0  0  0  0  0  0  0
  153.0123  140.6915  157.6289 H   0  0  0  0  0  0  0  0  0  0  0  0
  150.9880  141.9192  157.1278 H   0  0  0  0  0  0  0  0  0  0  0  0
  150.2583  141.4371  158.6661 H   0  0  0  0  0  0  0  0  0  0  0  0
  152.6505  143.2717  158.2468 H   0  0  0  0  0  0  0  0  0  0  0  0
  151.2189  143.5831  159.2343 H   0  0  0  0  0  0  0  0  0  0  0  0
  152.0842  140.2665  160.4872 H   0  0  0  0  0  0  0  0  0  0  0  0
  153.7301  140.4670  159.8864 H   0  0  0  0  0  0  0  0  0  0  0  0
  144.6657  135.3687  153.5884 H   0  0  0  0  0  0  0  0  0  0  0  0
  145.2990  136.7518  152.6872 H   0  0  0  0  0  0  0  0  0  0  0  0
  146.2616  136.0243  153.9723 H   0  0  0  0  0  0  0  0  0  0  0  0
  145.8171  134.9689  150.1191 H   0  0  0  0  0  0  0  0  0  0  0  0
  144.3418  135.0646  151.0724 H   0  0  0  0  0  0  0  0  0  0  0  0
  147.0030  135.3627  151.8008 H   0  0  0  0  0  0  0  0  0  0  0  0
  1  2  1  0  0  0  0
  1 32  1  0  0  0  0
  1 33  1  0  0  0  0
  1 34  1  0  0  0  0
  2  3  1  0  0  0  0
  3 30  1  0  0  0  0
  3 29  1  0  0  0  0
  3  4  1  0  0  0  0
  4  5  1  0  0  0  0
  4 35  1  0  0  0  0
  4 36  1  0  0  0  0
  5 31  1  0  0  0  0
  5  6  1  0  0  0  0
  5 27  1  0  0  0  0
  6  7  1  0  0  0  0
  6 37  1  0  0  0  0
  6 38  1  0  0  0  0
  7  8  1  0  0  0  0
  7  9  1  0  0  0  0
  8 39  1  0  0  0  0
  8 40  1  0  0  0  0
  8 41  1  0  0  0  0
  9 14  1  0  0  0  0
  9 10  2  0  0  0  0
 10 11  1  0  0  0  0
 11 12  2  0  0  0  0
 11 42  1  0  0  0  0
 12 13  1  0  0  0  0
 13 17  1  0  0  0  0
 13 14  2  0  0  0  0
 14 15  1  0  0  0  0
 15 16  2  0  0  0  0
 16 17  1  0  0  0  0
 16 43  1  0  0  0  0
 17 18  1  0  0  0  0
 18 19  1  0  0  0  0
 18 44  1  0  0  0  0
 18 45  1  0  0  0  0
 19 20  1  0  0  0  0
 19 22  1  0  0  0  0
 19 46  1  0  0  0  0
 20 21  1  0  0  0  0
 20 47  1  0  0  0  0
 20 48  1  0  0  0  0
 21 49  1  0  0  0  0
 22 26  1  0  0  0  0
 22 23  1  0  0  0  0
 22 50  1  0  0  0  0
 23 24  1  0  0  0  0
 23 51  1  0  0  0  0
 23 52  1  0  0  0  0
 24 25  1  0  0  0  0
 24 53  1  0  0  0  0
 24 54  1  0  0  0  0
 25 26  1  0  0  0  0
 26 55  1  0  0  0  0
 26 56  1  0  0  0  0
 27 28  1  0  0  0  0
 27 29  1  0  0  0  0
 27 62  1  0  0  0  0
 28 57  1  0  0  0  0
 28 58  1  0  0  0  0
 28 59  1  0  0  0  0
 29 60  1  0  0  0  0
 29 61  1  0  0  0  0
M  CHG  1  27   1
M  END
> <s_m_source_file>
AV-unprocessed.smi

> <i_m_source_file_index>
21

> <i_lp_mmshare_version>
43012

> <i_f3d_flags>
0

> <s_epik_input>
W0NIM11PW0NASF0xW0NIMl1bQ0BIXShOKFtDSDNdKVtDSDJdMSlbQ0gyXU4oW0NIM10pYyhuW2NIXW4yKWMoYzIzKW5bY0hdbjNbQ0gyXVtDQEhdKFtDSDJdW09IXSlbQ0BASF00W0NIMl1bQ0gyXU9bQ0gyXTQ=

> <s_epik_cmdline>
J2VwaWtfcHl0aG9uJywgJy1waCcsICc3LjAnLCAnLXRuJywgJzgnLCAnLW1hJywgJzIwMCcsICctbWV0YWxfYmluZGluZycsICctaW1hZScsICc8aW5maWxlLm1hZT4nLCAnLW9tYWUnLCAnPG91dGZpbGUubWFlPic=

> <r_lp_tautomer_probability>
1

> <r_epik_Ionization_Penalty>
0.0157465

> <r_epik_Ionization_Penalty_Charging>
0.015354

> <r_epik_Ionization_Penalty_Neutral>
0.000392529

> <r_epik_State_Penalty>
0.0120612

> <r_epik_Charging_Adjusted_Penalty>
0.0274152

> <i_epik_Tot_Q>
1

> <i_epik_Tot_abs_Q>
1

> <r_epik_Metal_State_Penalty>
0.0121253

> <b_epik_Metal_Only>
0

> <s_lp_Force_Field>
OPLS_2005

> <r_lp_Energy>
58.1484

> <b_lp_Chiralities_Consistent>
1

> <s_lp_Variant>
AV-unprocessed.smi:21-13

> <Gold.Version>
5.8.1

> <Gold.Id.Protein>
6NUR|6NUR_protein|mol2

> <Gold.PLP.Fitness>
46.9480

> <Gold.PLP.PLP>
-38.9271

> <Gold.PLP.part.hbond>
-3.0000

> <Gold.PLP.part.metal>
0.0000

> <Gold.PLP.part.buried>
-6.5836

> <Gold.PLP.part.nonpolar>
-27.7846

> <Gold.PLP.part.repulsive>
0.3665

> <Gold.PLP.ligand.clash>
0.0000

> <Gold.PLP.ligand.torsion>
2.3376

> <Gold.PLP.Chemscore.Hbond>
4.0000

> <Gold.PLP.Chemscore.CHOScore>
0.0000

> <Gold.PLP.Chemscore.Metal>
0.0000

> <Gold.Chemscore.Hbonds>
donor molecule, donor type, donor heavy atom, donor atom, acceptor molecule, acceptor atom, score
      L1  H    27    62       P1  7948  1.66
      P1  H 10752 10764       L1    12  0.40

> <Gold.PLP.Chemscore.Internal.Correction>
0.6962

> <Gold.Rescore>
     Score         DG    S(hbond)    S(metal)    S(lipo)     H(rot)  DE(clash)    DE(int)     intcor
     11.60     -14.55       1.95        0.00      95.19       3.35       0.03       2.92       ----

> <Gold.Chemscore.Fitness>
11.6022

> <Gold.Chemscore.DG>
-14.5524

> <Gold.Chemscore.ZeroCoef>
-5.4800

> <Gold.Chemscore.Hbond>
1.9459

> <Gold.Chemscore.Metal>
0.0000

> <Gold.Chemscore.Lipo>
95.1859

> <Gold.Chemscore.Internal_Hbond>
0.0000

> <Gold.Chemscore.DEClash>
0.0266

> <Gold.Chemscore.DEInternal>
2.9235

> <Gold.Chemscore.Rot>
3.3452

> <Gold.Chemscore.Internal.Correction>
   9.000000E+99

> <Gold.Chemscore.Hbonds>
donor molecule, donor type, donor heavy atom, donor atom, acceptor molecule, acceptor atom, score
      L1  H    27    62       P1  7948  0.81
      P1  H 10752 10764       L1    12  0.01

> <Gold.Chemscore.Hbond.Weighted>
-6.4993

> <Gold.Chemscore.Metal.Weighted>
-0.0000

> <Gold.Chemscore.Lipo.Weighted>
-11.1368

> <Gold.Chemscore.Internal_Hbond.Weighted>
0.0000

> <Gold.Chemscore.DEClash.Weighted>
0.0266

> <Gold.Chemscore.DEInternal.Weighted>
2.9235

> <Gold.Chemscore.Rot.Weighted>
8.5636

> <Gold.Chemscore.Internal.Correction.Weighted>
   9.000000E+99

> <Gold.Protein.RotatedTorsions>
[ 6907 6896 6895 6894 ] final   -8.99 input  -60.11 | X-H torsion
[ 7974 7965 7964 7962 ] final -175.19 input  175.53 | X-H torsion
[ 8008 7997 7996 7995 ] final -123.04 input   59.86 | X-H torsion
[ 10167 10162 10161 10158 ] final  137.01 input  -65.29 | X-H torsion
[ 10718 10713 10712 10709 ] final -130.72 input   66.30 | X-H torsion
[ 10763 10752 10751 10750 ] final  -18.38 input  -60.55 | X-H torsion
[ 11005 11000 10999 10996 ] final   36.21 input  -57.11 | X-H torsion

> <Gold.Protein.ActiveResidues>
 VAL166  LYS551  ARG553  GLY616  TRP617  ASP618  TYR619  PRO620  LYS621  CYS622 
 ASP623  PHE694  ASN695  SER759  ASP760  ASP761  ALA762  ILE779  LEU786  VAL792 
 PHE793  MET794  SER795  GLU796  ALA797  LYS798  CYS799  TRP800  GLU811  SER814 

> <Gold.Protein.RotatedAtoms>
  151.4248  135.1002  159.9624 H   0  0  0  0  0  0  0  0  0  0  0  0  # atno 6907 bound_to 6896
  152.4976  133.8673  159.7291 H   0  0  0  0  0  0  0  0  0  0  0  0  # atno 6908 bound_to 6896
  150.9197  133.6838  159.2863 H   0  0  0  0  0  0  0  0  0  0  0  0  # atno 6909 bound_to 6896
  144.7129  140.1358  143.6395 H   0  0  0  0  0  0  0  0  0  0  0  0  # atno 7974 bound_to 7965
  155.1741  140.0409  157.2869 H   0  0  0  0  0  0  0  0  0  0  0  0  # atno 8008 bound_to 7997
  154.6249  140.2510  155.7476 H   0  0  0  0  0  0  0  0  0  0  0  0  # atno 8009 bound_to 7997
  156.2454  140.2887  156.0574 H   0  0  0  0  0  0  0  0  0  0  0  0  # atno 8010 bound_to 7997
  139.5159  144.6433  151.5509 H   0  0  0  0  0  0  0  0  0  0  0  0  # atno 10167 bound_to 10162
  156.2172  130.6956  151.0716 H   0  0  0  0  0  0  0  0  0  0  0  0  # atno 10718 bound_to 10713
  153.5884  135.7003  153.5433 H   0  0  0  0  0  0  0  0  0  0  0  0  # atno 10763 bound_to 10752
  153.3199  135.4077  155.1408 H   0  0  0  0  0  0  0  0  0  0  0  0  # atno 10764 bound_to 10752
  154.8605  135.3693  154.5415 H   0  0  0  0  0  0  0  0  0  0  0  0  # atno 10765 bound_to 10752
  140.2348  134.3484  155.7949 H   0  0  0  0  0  0  0  0  0  0  0  0  # atno 11005 bound_to 11000
  145.9246  139.2567  143.1361 LP  0  0  0  0  0  0  0  0  0  0  0  0  # atno 17320 bound_to 7965
  145.9585  140.8854  143.0223 LP  0  0  0  0  0  0  0  0  0  0  0  0  # atno 17321 bound_to 7965
  140.6208  143.9262  150.6525 LP  0  0  0  0  0  0  0  0  0  0  0  0  # atno 17342 bound_to 10162
  140.2534  143.3576  152.1385 LP  0  0  0  0  0  0  0  0  0  0  0  0  # atno 17343 bound_to 10162
  157.7069  131.0752  150.6635 LP  0  0  0  0  0  0  0  0  0  0  0  0  # atno 17370 bound_to 10713
  156.6697  130.4536  149.5661 LP  0  0  0  0  0  0  0  0  0  0  0  0  # atno 17371 bound_to 10713
  141.2215  133.7265  156.8790 LP  0  0  0  0  0  0  0  0  0  0  0  0  # atno 17394 bound_to 11000
  140.1713  134.9098  157.2837 LP  0  0  0  0  0  0  0  0  0  0  0  0  # atno 17395 bound_to 11000

$$$$
