#       Name:                AV-unprocessed.smi:1518
#       Creating user name   scv26
#       Creation time:       Fri Mar 27 06:26:21 2020


#       File generated by GOLD software.
#

@<TRIPOS>MOLECULE
AV-unprocessed.smi:1518
    54    56     1
SMALL
NO_CHARGES


@<TRIPOS>ATOM
      1 ****        -5.5366  -1.6100   0.4168 C.3            1 S1                 0.0000
      2 ****        -6.0817  -0.2316   0.0458 C.2            1 S1                 0.0000
      3 ****        -7.3006  -0.0835  -0.0384 O.2            1 S1                 0.0000
      4 ****        -5.1012   0.8667  -0.1937 C.ar           1 S1                 0.0000
      5 ****        -5.5776   2.1555  -0.5240 C.ar           1 S1                 0.0000
      6 ****        -4.6774   3.2113  -0.7536 C.ar           1 S1                 0.0000
      7 ****        -3.2924   2.9893  -0.6570 C.ar           1 S1                 0.0000
      8 ****        -2.7894   1.7143  -0.3322 C.ar           1 S1                 0.0000
      9 ****        -1.4182   1.5872  -0.2634 O.3            1 S1                 0.0000
     10 ****        -0.8692   0.3154   0.0570 C.3            1 S1                 0.0000
     11 ****         0.6646   0.4146   0.0326 C.3            1 S1                 0.0000
     12 ****         1.1006   0.9621   1.2613 O.3            1 S1                 0.0000
     13 ****         1.3257  -0.9648  -0.1690 C.3            1 S1                 0.0000
     14 ****         2.7803  -0.8950  -0.2508 N.pl3          1 S1                 0.0000
     15 ****         3.5565  -0.7170  -1.3513 C.2            1 S1                 0.0000
     16 ****         2.9858  -0.5659  -2.7290 C.3            1 S1                 0.0000
     17 ****         2.4396   0.7138  -2.9614 O.3            1 S1                 0.0000
     18 ****         4.8720  -0.6904  -1.1346 N.2            1 S1                 0.0000
     19 ****         4.9605  -0.8763   0.2306 C.ar           1 S1                 0.0000
     20 ****         6.0911  -0.9483   1.0755 C.ar           1 S1                 0.0000
     21 ****         5.9340  -1.1504   2.4622 C.ar           1 S1                 0.0000
     22 ****         4.6471  -1.2824   3.0227 C.ar           1 S1                 0.0000
     23 ****         3.5075  -1.2131   2.1984 C.ar           1 S1                 0.0000
     24 ****         3.6694  -1.0111   0.8145 C.ar           1 S1                 0.0000
     25 ****        -3.7038   0.6547  -0.1002 C.ar           1 S1                 0.0000
     26 ****        -4.9559  -1.5557   1.3377 H              1 S1                 0.0000
     27 ****        -4.9002  -1.9971  -0.3791 H              1 S1                 0.0000
     28 ****        -6.3544  -2.3142   0.5714 H              1 S1                 0.0000
     29 ****        -6.6378   2.3492  -0.6040 H              1 S1                 0.0000
     30 ****        -5.0503   4.1936  -1.0042 H              1 S1                 0.0000
     31 ****        -2.6084   3.8063  -0.8349 H              1 S1                 0.0000
     32 ****        -1.2209  -0.0448   1.0255 H              1 S1                 0.0000
     33 ****        -1.1940  -0.3974  -0.7029 H              1 S1                 0.0000
     34 ****         0.9688   1.0816  -0.7734 H              1 S1                 0.0000
     35 ****         2.0404   1.0574   1.2287 H              1 S1                 0.0000
     36 ****         1.0572  -1.6324   0.6508 H              1 S1                 0.0000
     37 ****         0.9428  -1.4391  -1.0718 H              1 S1                 0.0000
     38 ****         3.7732  -0.7404  -3.4633 H              1 S1                 0.0000
     39 ****         2.2274  -1.3279  -2.9058 H              1 S1                 0.0000
     40 ****         2.1190   0.7460  -3.8497 H              1 S1                 0.0000
     41 ****         7.0808  -0.8485   0.6552 H              1 S1                 0.0000
     42 ****         6.8051  -1.2044   3.0986 H              1 S1                 0.0000
     43 ****         4.5352  -1.4365   4.0858 H              1 S1                 0.0000
     44 ****         2.5203  -1.3120   2.6252 H              1 S1                 0.0000
     45 ****        -3.3338  -0.3266   0.1508 H              1 S1                 0.0000
     46 ****        -7.9113  -0.8563   0.1346 LP             1 S1                 0.0000
     47 ****        -7.6803   0.8095  -0.2798 LP             1 S1                 0.0000
     48 ****        -1.0967   2.2308   0.4312 LP             1 S1                 0.0000
     49 ****        -1.0524   1.8500  -1.1562 LP             1 S1                 0.0000
     50 ****         0.8489   0.3508   2.0117 LP             1 S1                 0.0000
     51 ****         0.6752   1.8560   1.4026 LP             1 S1                 0.0000
     52 ****         3.1453   1.4103  -2.8320 LP             1 S1                 0.0000
     53 ****         1.6865   0.8798  -2.3247 LP             1 S1                 0.0000
     54 ****         5.6111  -0.5666  -1.7967 LP             1 S1                 0.0000
@<TRIPOS>BOND
    1    1    2 1     
    2    1   26 1     
    3    1   27 1     
    4    1   28 1     
    5    2    3 2     
    6    2    4 1     
    7    4   25 ar    
    8    4    5 ar    
    9    5    6 ar    
   10    5   29 1     
   11    6    7 ar    
   12    6   30 1     
   13    7    8 ar    
   14    7   31 1     
   15    8    9 1     
   16    8   25 ar    
   17    9   10 1     
   18   10   11 1     
   19   10   32 1     
   20   10   33 1     
   21   11   12 1     
   22   11   13 1     
   23   11   34 1     
   24   12   35 1     
   25   13   14 1     
   26   13   36 1     
   27   13   37 1     
   28   14   24 1     
   29   14   15 1     
   30   15   16 1     
   31   15   18 2     
   32   16   17 1     
   33   16   38 1     
   34   16   39 1     
   35   17   40 1     
   36   18   19 1     
   37   19   24 ar    
   38   19   20 ar    
   39   20   21 ar    
   40   20   41 1     
   41   21   22 ar    
   42   21   42 1     
   43   22   23 ar    
   44   22   43 1     
   45   23   24 ar    
   46   23   44 1     
   47   25   45 1     
   48    3   46 1     
   49    3   47 1     
   50    9   48 1     
   51    9   49 1     
   52   12   50 1     
   53   12   51 1     
   54   17   52 1     
   55   17   53 1     
   56   18   54 1     
@<TRIPOS>SUBSTRUCTURE
      1 S1             1
@<TRIPOS>SET
LONE_PAIRS      STATIC     ATOMS    <user>   **** ""
9 46 47 48 49 50 51 52 53 54
DONOR_HYDROGENS      STATIC     ATOMS    <user>   **** ""
2 35 40
ATOM$BLUE        STATIC     ATOMS    COLORGROUP SYSTEM
9 46 47 48 49 50 51 52 53 54
ATOM$RED        STATIC     ATOMS    COLORGROUP SYSTEM
2 35 40
