AV-unprocessed.smi:1205|AV-procd|sdf|5042|dock2
  -GOLD-   22720 4 63D 1   1.00000     0.00000
 Structure written by MMmdl.
 49 50  0  0  0  0  0  0  0  0  2 V2000
  143.8060  132.6966  148.8211 C   0  0  0  0  0  0  0  0  0  0  0  0
  144.7080  132.9219  149.9984 C   0  0  0  0  0  0  0  0  0  0  0  0
  145.3217  134.1392  150.4144 C   0  0  0  0  0  0  0  0  0  0  0  0
  146.0230  133.7581  151.5256 C   0  0  0  0  0  0  0  0  0  0  0  0
  146.8125  134.5098  152.3378 N   0  0  0  0  0  0  0  0  0  0  0  0
  146.7173  134.6935  153.6661 C   0  0  0  0  0  0  0  0  0  0  0  0
  145.8654  134.1919  154.3999 O   0  0  0  0  0  0  0  0  0  0  0  0
  147.6890  135.5009  154.1142 N   0  0  0  0  0  0  0  0  0  0  0  0
  147.8695  135.8952  155.5078 C   0  0  0  0  0  0  0  0  0  0  0  0
  149.3553  135.8552  155.9490 C   0  0  1  0  0  0  0  0  0  0  0  0
  150.1557  134.7445  155.2426 C   0  0  0  0  0  0  0  0  0  0  0  0
  150.0447  137.1707  155.8088 N   0  3  2  0  0  0  0  0  0  0  0  0
  149.3582  138.2794  156.5222 C   0  0  0  0  0  0  0  0  0  0  0  0
  150.2531  139.5280  156.5775 C   0  0  0  0  0  0  0  0  0  0  0  0
  150.6934  139.9563  155.1695 C   0  0  0  0  0  0  0  0  0  0  0  0
  151.3400  138.7877  154.4013 C   0  0  1  0  0  0  0  0  0  0  0  0
  152.7579  138.4565  154.8990 C   0  0  0  0  0  0  0  0  0  0  0  0
  150.4142  137.5542  154.4177 C   0  0  0  0  0  0  0  0  0  0  0  0
  145.8284  132.4108  151.7345 N   0  0  0  0  0  0  0  0  0  0  0  0
  146.3643  131.5515  152.7725 C   0  0  0  0  0  0  0  0  0  0  0  0
  145.0134  131.8979  150.7876 N   0  0  0  0  0  0  0  0  0  0  0  0
  143.6209  133.6262  148.2825 H   0  0  0  0  0  0  0  0  0  0  0  0
  142.8411  132.2981  149.1356 H   0  0  0  0  0  0  0  0  0  0  0  0
  144.2473  131.9889  148.1189 H   0  0  0  0  0  0  0  0  0  0  0  0
  145.2487  135.1144  149.9572 H   0  0  0  0  0  0  0  0  0  0  0  0
  147.5780  134.9789  151.8766 H   0  0  0  0  0  0  0  0  0  0  0  0
  148.3485  135.8714  153.4453 H   0  0  0  0  0  0  0  0  0  0  0  0
  147.4682  136.9038  155.6059 H   0  0  0  0  0  0  0  0  0  0  0  0
  147.2548  135.2553  156.1425 H   0  0  0  0  0  0  0  0  0  0  0  0
  149.3843  135.6051  157.0103 H   0  0  0  0  0  0  0  0  0  0  0  0
  149.7707  133.7569  155.4981 H   0  0  0  0  0  0  0  0  0  0  0  0
  151.2042  134.7663  155.5408 H   0  0  0  0  0  0  0  0  0  0  0  0
  150.1148  134.8376  154.1576 H   0  0  0  0  0  0  0  0  0  0  0  0
  148.4168  138.5167  156.0253 H   0  0  0  0  0  0  0  0  0  0  0  0
  149.1117  137.9748  157.5400 H   0  0  0  0  0  0  0  0  0  0  0  0
  149.7190  140.3458  157.0623 H   0  0  0  0  0  0  0  0  0  0  0  0
  151.1280  139.3267  157.1964 H   0  0  0  0  0  0  0  0  0  0  0  0
  149.8207  140.3074  154.6173 H   0  0  0  0  0  0  0  0  0  0  0  0
  151.3776  140.8036  155.2275 H   0  0  0  0  0  0  0  0  0  0  0  0
  151.4461  139.1028  153.3625 H   0  0  0  0  0  0  0  0  0  0  0  0
  152.7570  138.1081  155.9318 H   0  0  0  0  0  0  0  0  0  0  0  0
  153.4064  139.3313  154.8447 H   0  0  0  0  0  0  0  0  0  0  0  0
  153.2122  137.6749  154.2894 H   0  0  0  0  0  0  0  0  0  0  0  0
  150.9050  136.7265  153.9065 H   0  0  0  0  0  0  0  0  0  0  0  0
  149.5106  137.7802  153.8501 H   0  0  0  0  0  0  0  0  0  0  0  0
  146.2296  132.0221  153.7467 H   0  0  0  0  0  0  0  0  0  0  0  0
  147.4281  131.3888  152.5981 H   0  0  0  0  0  0  0  0  0  0  0  0
  145.8530  130.5878  152.7746 H   0  0  0  0  0  0  0  0  0  0  0  0
  150.9201  137.0530  156.2985 H   0  0  0  0  0  0  0  0  0  0  0  0
  1  2  1  0  0  0  0
  1 22  1  0  0  0  0
  1 23  1  0  0  0  0
  1 24  1  0  0  0  0
  2 21  2  0  0  0  0
  2  3  1  0  0  0  0
  3  4  2  0  0  0  0
  3 25  1  0  0  0  0
  4  5  1  0  0  0  0
  4 19  1  0  0  0  0
  5  6  1  0  0  0  0
  5 26  1  0  0  0  0
  6  7  2  0  0  0  0
  6  8  1  0  0  0  0
  8  9  1  0  0  0  0
  8 27  1  0  0  0  0
  9 10  1  0  0  0  0
  9 28  1  0  0  0  0
  9 29  1  0  0  0  0
 10 11  1  0  0  0  0
 10 12  1  0  0  0  0
 10 30  1  0  0  0  0
 11 31  1  0  0  0  0
 11 32  1  0  0  0  0
 11 33  1  0  0  0  0
 12 18  1  0  0  0  0
 12 13  1  0  0  0  0
 12 49  1  0  0  0  0
 13 14  1  0  0  0  0
 13 34  1  0  0  0  0
 13 35  1  0  0  0  0
 14 15  1  0  0  0  0
 14 36  1  0  0  0  0
 14 37  1  0  0  0  0
 15 16  1  0  0  0  0
 15 38  1  0  0  0  0
 15 39  1  0  0  0  0
 16 17  1  0  0  0  0
 16 18  1  0  0  0  0
 16 40  1  0  0  0  0
 17 41  1  0  0  0  0
 17 42  1  0  0  0  0
 17 43  1  0  0  0  0
 18 44  1  0  0  0  0
 18 45  1  0  0  0  0
 19 20  1  0  0  0  0
 19 21  1  0  0  0  0
 20 46  1  0  0  0  0
 20 47  1  0  0  0  0
 20 48  1  0  0  0  0
M  CHG  1  12   1
M  END
> <s_m_source_file>
AV-unprocessed.smi

> <i_m_source_file_index>
1205

> <i_lp_mmshare_version>
43012

> <i_f3d_flags>
0

> <s_epik_input>
W0NIM11jMVtjSF1jKG4objEpW0NIM10pW05IXUMoPU8pW05IXVtDSDJdW0NASF0oW0NIM10pTjJbQ0gyXVtDSDJdW0NIMl1bQ0BASF0oW0NIM10pW0NIMl0y

> <s_epik_cmdline>
J2VwaWtfcHl0aG9uJywgJy1waCcsICc3LjAnLCAnLXRuJywgJzgnLCAnLW1hJywgJzIwMCcsICctbWV0YWxfYmluZGluZycsICctaW1hZScsICc8aW5maWxlLm1hZT4nLCAnLW9tYWUnLCAnPG91dGZpbGUubWFlPic=

> <r_lp_tautomer_probability>
1

> <r_epik_Ionization_Penalty>
0.0020309

> <r_epik_Ionization_Penalty_Charging>
0.00195276

> <r_epik_Ionization_Penalty_Neutral>
7.81448e-05

> <r_epik_State_Penalty>
0.00133177

> <r_epik_Charging_Adjusted_Penalty>
0.00328452

> <i_epik_Tot_Q>
1

> <i_epik_Tot_abs_Q>
1

> <r_epik_Metal_State_Penalty>
-0

> <b_epik_Metal_Only>
0

> <s_lp_Force_Field>
OPLS_2005

> <r_lp_Energy>
24.2005

> <b_lp_Chiralities_Consistent>
1

> <s_lp_Variant>
AV-unprocessed.smi:1205-4

> <Gold.Version>
5.8.1

> <Gold.Id.Protein>
6NUR|6NUR_protein|mol2

> <Gold.PLP.Fitness>
37.0329

> <Gold.PLP.PLP>
-33.1176

> <Gold.PLP.part.hbond>
-2.0000

> <Gold.PLP.part.metal>
0.0000

> <Gold.PLP.part.buried>
-2.6061

> <Gold.PLP.part.nonpolar>
-28.0003

> <Gold.PLP.part.repulsive>
0.2311

> <Gold.PLP.ligand.clash>
0.0000

> <Gold.PLP.ligand.torsion>
1.1081

> <Gold.PLP.Chemscore.Hbond>
2.0000

> <Gold.PLP.Chemscore.CHOScore>
0.0000

> <Gold.PLP.Chemscore.Metal>
0.0000

> <Gold.Chemscore.Hbonds>
donor molecule, donor type, donor heavy atom, donor atom, acceptor molecule, acceptor atom, score
      L1  H     5    26       P1  7948  1.00
      L1  H     8    27       P1  7948  1.00

> <Gold.PLP.Chemscore.Internal.Correction>
0.1315

> <Gold.Rescore>
     Score         DG    S(hbond)    S(metal)    S(lipo)     H(rot)  DE(clash)    DE(int)     intcor
     16.68     -17.70       1.87        0.00      83.02       1.47       0.02       1.00       ----

> <Gold.Chemscore.Fitness>
16.6774

> <Gold.Chemscore.DG>
-17.6972

> <Gold.Chemscore.ZeroCoef>
-5.4800

> <Gold.Chemscore.Hbond>
1.8733

> <Gold.Chemscore.Metal>
0.0000

> <Gold.Chemscore.Lipo>
83.0170

> <Gold.Chemscore.Internal_Hbond>
0.0000

> <Gold.Chemscore.DEClash>
0.0173

> <Gold.Chemscore.DEInternal>
1.0025

> <Gold.Chemscore.Rot>
1.4658

> <Gold.Chemscore.Internal.Correction>
   9.000000E+99

> <Gold.Chemscore.Hbonds>
donor molecule, donor type, donor heavy atom, donor atom, acceptor molecule, acceptor atom, score
      L1  H     5    26       P1  7948  0.76
      L1  H     8    27       P1  7948  0.99

> <Gold.Chemscore.Hbond.Weighted>
-6.2568

> <Gold.Chemscore.Metal.Weighted>
-0.0000

> <Gold.Chemscore.Lipo.Weighted>
-9.7130

> <Gold.Chemscore.Internal_Hbond.Weighted>
0.0000

> <Gold.Chemscore.DEClash.Weighted>
0.0173

> <Gold.Chemscore.DEInternal.Weighted>
1.0025

> <Gold.Chemscore.Rot.Weighted>
3.7526

> <Gold.Chemscore.Internal.Correction.Weighted>
   9.000000E+99

> <Gold.Protein.RotatedTorsions>
[ 6907 6896 6895 6894 ] final -101.31 input  -60.11 | X-H torsion
[ 7974 7965 7964 7962 ] final -167.36 input  175.53 | X-H torsion
[ 8008 7997 7996 7995 ] final -120.21 input   59.86 | X-H torsion
[ 10167 10162 10161 10158 ] final -165.73 input  -65.29 | X-H torsion
[ 10718 10713 10712 10709 ] final   20.28 input   66.30 | X-H torsion
[ 10763 10752 10751 10750 ] final -150.95 input  -60.55 | X-H torsion
[ 11005 11000 10999 10996 ] final  111.23 input  -57.11 | X-H torsion

> <Gold.Protein.ActiveResidues>
 VAL166  LYS551  ARG553  GLY616  TRP617  ASP618  TYR619  PRO620  LYS621  CYS622 
 ASP623  PHE694  ASN695  SER759  ASP760  ASP761  ALA762  ILE779  LEU786  VAL792 
 PHE793  MET794  SER795  GLU796  ALA797  LYS798  CYS799  TRP800  GLU811  SER814 

> <Gold.Protein.RotatedAtoms>
  150.7149  134.0754  159.3878 H   0  0  0  0  0  0  0  0  0  0  0  0  # atno 6907 bound_to 6896
  151.8737  135.0477  160.0491 H   0  0  0  0  0  0  0  0  0  0  0  0  # atno 6908 bound_to 6896
  152.2623  133.5272  159.5425 H   0  0  0  0  0  0  0  0  0  0  0  0  # atno 6909 bound_to 6896
  144.7225  140.2530  143.6276 H   0  0  0  0  0  0  0  0  0  0  0  0  # atno 7974 bound_to 7965
  155.1282  140.0399  157.2768 H   0  0  0  0  0  0  0  0  0  0  0  0  # atno 8008 bound_to 7997
  154.6563  140.2580  155.7132 H   0  0  0  0  0  0  0  0  0  0  0  0  # atno 8009 bound_to 7997
  156.2599  140.2826  156.1017 H   0  0  0  0  0  0  0  0  0  0  0  0  # atno 8010 bound_to 7997
  139.6162  144.0715  152.1890 H   0  0  0  0  0  0  0  0  0  0  0  0  # atno 10167 bound_to 10162
  157.1223  130.6555  149.5927 H   0  0  0  0  0  0  0  0  0  0  0  0  # atno 10718 bound_to 10713
  154.8088  135.3272  154.7361 H   0  0  0  0  0  0  0  0  0  0  0  0  # atno 10763 bound_to 10752
  153.8014  135.6903  153.4859 H   0  0  0  0  0  0  0  0  0  0  0  0  # atno 10764 bound_to 10752
  153.1852  135.4572  155.0024 H   0  0  0  0  0  0  0  0  0  0  0  0  # atno 10765 bound_to 10752
  139.8899  134.9503  156.6401 H   0  0  0  0  0  0  0  0  0  0  0  0  # atno 11005 bound_to 11000
  145.8210  139.2043  143.1938 LP  0  0  0  0  0  0  0  0  0  0  0  0  # atno 17320 bound_to 7965
  146.0514  140.8065  142.9780 LP  0  0  0  0  0  0  0  0  0  0  0  0  # atno 17321 bound_to 7965
  140.0345  144.6055  150.7460 LP  0  0  0  0  0  0  0  0  0  0  0  0  # atno 17342 bound_to 10162
  140.7352  143.2738  151.3804 LP  0  0  0  0  0  0  0  0  0  0  0  0  # atno 17343 bound_to 10162
  155.9826  130.4840  150.6888 LP  0  0  0  0  0  0  0  0  0  0  0  0  # atno 17370 bound_to 10713
  157.4465  131.0867  151.0890 LP  0  0  0  0  0  0  0  0  0  0  0  0  # atno 17371 bound_to 10713
  140.7600  133.8825  155.8411 LP  0  0  0  0  0  0  0  0  0  0  0  0  # atno 17394 bound_to 11000
  140.9930  134.1253  157.4390 LP  0  0  0  0  0  0  0  0  0  0  0  0  # atno 17395 bound_to 11000

$$$$
