#       Name:                AV-unprocessed.smi:767
#       Creating user name   scv26
#       Creation time:       Fri Mar 27 01:06:44 2020


#       File generated by GOLD software.
#

@<TRIPOS>MOLECULE
AV-unprocessed.smi:767
    52    54     1
SMALL
NO_CHARGES


@<TRIPOS>ATOM
      1 ****        -8.2005   0.3512   0.6584 C.3            1 S1                 0.0000
      2 ****        -6.6910   0.2767   0.7577 C.ar           1 S1                 0.0000
      3 ****        -6.0643  -0.1044   1.9630 C.ar           1 S1                 0.0000
      4 ****        -4.6576  -0.1588   1.9993 C.ar           1 S1                 0.0000
      5 ****        -3.9342   0.1659   0.8334 C.ar           1 S1                 0.0000
      6 ****        -2.4194   0.1168   0.8181 C.3            1 S1                 0.0000
      7 ****        -1.8907  -1.2373   0.3188 C.3            1 S1                 0.0000
      8 ****        -0.4347  -1.2930   0.3624 N.am           1 S1                 0.0000
      9 ****         0.3825  -0.7444  -0.5469 C.2            1 S1                 0.0000
     10 ****        -0.0032  -0.1254  -1.5389 O.2            1 S1                 0.0000
     11 ****         1.6708  -0.9446  -0.2418 N.am           1 S1                 0.0000
     12 ****         2.7897  -0.4437  -1.0307 C.3            1 S1                 0.0000
     13 ****         4.1441  -0.8402  -0.4426 C.3            1 S1                 0.0000
     14 ****         5.2585  -1.7200  -0.8851 C.3            1 S1                 0.0000
     15 ****         6.4295  -0.7477  -0.5796 C.3            1 S1                 0.0000
     16 ****         5.8179   0.5352  -0.2979 O.3            1 S1                 0.0000
     17 ****         4.5989   0.4900  -1.0107 C.3            1 S1                 0.0000
     18 ****         3.1959   1.0372  -0.6793 C.3            1 S1                 0.0000
     19 ****         2.6685   2.1040  -1.6392 C.3            1 S1                 0.0000
     20 ****         2.9545   1.5791   0.7443 C.3            1 S1                 0.0000
     21 ****        -4.6576   0.5312  -0.3216 C.ar           1 S1                 0.0000
     22 ****        -6.0062   0.5874  -0.3651 N.ar           1 S1                 0.0000
     23 ****        -8.6573   0.3933   1.6475 H              1 S1                 0.0000
     24 ****        -8.5872  -0.5260   0.1394 H              1 S1                 0.0000
     25 ****        -8.5073   1.2406   0.1068 H              1 S1                 0.0000
     26 ****        -6.6451  -0.3497   2.8401 H              1 S1                 0.0000
     27 ****        -4.1459  -0.4468   2.9061 H              1 S1                 0.0000
     28 ****        -2.0493   0.9247   0.1856 H              1 S1                 0.0000
     29 ****        -2.0459   0.3174   1.8232 H              1 S1                 0.0000
     30 ****        -2.2767  -2.0408   0.9468 H              1 S1                 0.0000
     31 ****        -2.2427  -1.4375  -0.6948 H              1 S1                 0.0000
     32 ****        -0.0205  -1.7803   1.1435 H              1 S1                 0.0000
     33 ****         1.8931  -1.4645   0.5946 H              1 S1                 0.0000
     34 ****         2.7114  -0.6472  -2.1028 H              1 S1                 0.0000
     35 ****         4.0969  -0.8456   0.6491 H              1 S1                 0.0000
     36 ****         5.3223  -2.6458  -0.3128 H              1 S1                 0.0000
     37 ****         5.1914  -1.9603  -1.9472 H              1 S1                 0.0000
     38 ****         7.0118  -1.0707   0.2837 H              1 S1                 0.0000
     39 ****         7.1033  -0.6700  -1.4337 H              1 S1                 0.0000
     40 ****         4.7846   0.4698  -2.0909 H              1 S1                 0.0000
     41 ****         3.2045   3.0466  -1.5240 H              1 S1                 0.0000
     42 ****         1.6091   2.3031  -1.4743 H              1 S1                 0.0000
     43 ****         2.7777   1.7961  -2.6794 H              1 S1                 0.0000
     44 ****         3.5068   2.5046   0.9094 H              1 S1                 0.0000
     45 ****         3.2570   0.8925   1.5329 H              1 S1                 0.0000
     46 ****         1.8996   1.7994   0.9107 H              1 S1                 0.0000
     47 ****        -4.1414   0.7824  -1.2365 H              1 S1                 0.0000
     48 ****        -0.9822  -0.0071  -1.7050 LP             1 S1                 0.0000
     49 ****         0.6625   0.2590  -2.1784 LP             1 S1                 0.0000
     50 ****         6.3942   1.2842  -0.6246 LP             1 S1                 0.0000
     51 ****         5.6537   0.6442   0.6825 LP             1 S1                 0.0000
     52 ****        -6.4838   0.8511  -1.2032 LP             1 S1                 0.0000
@<TRIPOS>BOND
    1    1    2 1     
    2    1   23 1     
    3    1   24 1     
    4    1   25 1     
    5    2   22 ar    
    6    2    3 ar    
    7    3    4 ar    
    8    3   26 1     
    9    4    5 ar    
   10    4   27 1     
   11    5    6 1     
   12    5   21 ar    
   13    6    7 1     
   14    6   28 1     
   15    6   29 1     
   16    7    8 1     
   17    7   30 1     
   18    7   31 1     
   19    8    9 am    
   20    8   32 1     
   21    9   10 2     
   22    9   11 am    
   23   11   12 1     
   24   11   33 1     
   25   12   18 1     
   26   12   13 1     
   27   12   34 1     
   28   13   17 1     
   29   13   14 1     
   30   13   35 1     
   31   14   15 1     
   32   14   36 1     
   33   14   37 1     
   34   15   16 1     
   35   15   38 1     
   36   15   39 1     
   37   16   17 1     
   38   17   18 1     
   39   17   40 1     
   40   18   19 1     
   41   18   20 1     
   42   19   41 1     
   43   19   42 1     
   44   19   43 1     
   45   20   44 1     
   46   20   45 1     
   47   20   46 1     
   48   21   22 ar    
   49   21   47 1     
   50   10   48 1     
   51   10   49 1     
   52   16   50 1     
   53   16   51 1     
   54   22   52 1     
@<TRIPOS>SUBSTRUCTURE
      1 S1             1
@<TRIPOS>SET
LONE_PAIRS      STATIC     ATOMS    <user>   **** ""
5 48 49 50 51 52
DONOR_HYDROGENS      STATIC     ATOMS    <user>   **** ""
2 32 33
ATOM$BLUE        STATIC     ATOMS    COLORGROUP SYSTEM
5 48 49 50 51 52
ATOM$RED        STATIC     ATOMS    COLORGROUP SYSTEM
2 32 33
