AV-unprocessed.smi:701|AV-procd|sdf|3414|dock5
  -GOLD-   22720 0393D 1   1.00000     0.00000
 Structure written by MMmdl.
 48 50  0  0  0  0  0  0  0  0  2 V2000
  149.1565  129.9870  153.7275 C   0  0  0  0  0  0  0  0  0  0  0  0
  148.3130  130.6705  154.8058 C   0  0  0  0  0  0  0  0  0  0  0  0
  147.2776  131.4019  154.1729 O   0  0  0  0  0  0  0  0  0  0  0  0
  147.7486  132.3027  153.1786 C   0  0  2  0  0  0  0  0  0  0  0  0
  148.5353  133.4693  153.7888 C   0  0  0  0  0  0  0  0  0  0  0  0
  147.2288  134.2695  153.8159 C   0  0  2  0  0  0  0  0  0  0  0  0
  146.5743  134.1550  155.1188 N   0  0  0  0  0  0  0  0  0  0  0  0
  146.9641  134.7971  156.2289 C   0  0  0  0  0  0  0  0  0  0  0  0
  147.9532  135.5296  156.2732 O   0  0  0  0  0  0  0  0  0  0  0  0
  146.1140  134.5590  157.4825 C   0  0  0  0  0  0  0  0  0  0  0  0
  146.7254  135.1376  158.6889 N   0  0  0  0  0  0  0  0  0  0  0  0
  147.3428  134.2592  159.5967 C   0  0  0  0  0  0  0  0  0  0  0  0
  147.9330  134.7017  160.7233 C   0  0  0  0  0  0  0  0  0  0  0  0
  147.9208  136.1344  160.9922 C   0  0  0  0  0  0  0  0  0  0  0  0
  148.4495  136.5556  162.0192 O   0  0  0  0  0  0  0  0  0  0  0  0
  147.3141  136.9466  160.0779 N   0  5  0  0  0  0  0  0  0  0  0  0
  146.7204  136.4827  158.9346 C   0  0  0  0  0  0  0  0  0  0  0  0
  146.1806  137.2337  158.1212 O   0  0  0  0  0  0  0  0  0  0  0  0
  146.6594  133.3124  152.7289 C   0  0  0  0  0  0  0  0  0  0  0  0
  146.8271  133.8453  151.2901 C   0  0  0  0  0  0  0  0  0  0  0  0
  146.4646  132.8117  150.2090 C   0  0  0  0  0  0  0  0  0  0  0  0
  145.0319  132.2960  150.3882 C   0  0  0  0  0  0  0  0  0  0  0  0
  144.8040  131.7869  151.8161 C   0  0  0  0  0  0  0  0  0  0  0  0
  145.1884  132.8540  152.8535 C   0  0  0  0  0  0  0  0  0  0  0  0
  149.9748  129.4206  154.1721 H   0  0  0  0  0  0  0  0  0  0  0  0
  149.5880  130.7200  153.0453 H   0  0  0  0  0  0  0  0  0  0  0  0
  148.5523  129.2965  153.1383 H   0  0  0  0  0  0  0  0  0  0  0  0
  147.8984  129.9225  155.4826 H   0  0  0  0  0  0  0  0  0  0  0  0
  148.9360  131.3425  155.3978 H   0  0  0  0  0  0  0  0  0  0  0  0
  148.2548  131.8030  152.3517 H   0  0  0  0  0  0  0  0  0  0  0  0
  148.9806  133.2746  154.7652 H   0  0  0  0  0  0  0  0  0  0  0  0
  149.2687  133.8864  153.0975 H   0  0  0  0  0  0  0  0  0  0  0  0
  147.3583  135.2980  153.4747 H   0  0  0  0  0  0  0  0  0  0  0  0
  145.7443  133.5818  155.1669 H   0  0  0  0  0  0  0  0  0  0  0  0
  145.1087  134.9605  157.3396 H   0  0  0  0  0  0  0  0  0  0  0  0
  145.9779  133.4833  157.6013 H   0  0  0  0  0  0  0  0  0  0  0  0
  147.3136  133.2158  159.3190 H   0  0  0  0  0  0  0  0  0  0  0  0
  148.4066  134.0141  161.4084 H   0  0  0  0  0  0  0  0  0  0  0  0
  146.2080  134.7331  151.1526 H   0  0  0  0  0  0  0  0  0  0  0  0
  147.8513  134.1790  151.1213 H   0  0  0  0  0  0  0  0  0  0  0  0
  146.5765  133.2550  149.2191 H   0  0  0  0  0  0  0  0  0  0  0  0
  147.1612  131.9741  150.2496 H   0  0  0  0  0  0  0  0  0  0  0  0
  144.3277  133.1012  150.1751 H   0  0  0  0  0  0  0  0  0  0  0  0
  144.8245  131.5039  149.6683 H   0  0  0  0  0  0  0  0  0  0  0  0
  143.7596  131.5020  151.9461 H   0  0  0  0  0  0  0  0  0  0  0  0
  145.3940  130.8849  151.9839 H   0  0  0  0  0  0  0  0  0  0  0  0
  144.9840  132.4485  153.8443 H   0  0  0  0  0  0  0  0  0  0  0  0
  144.5215  133.7111  152.7499 H   0  0  0  0  0  0  0  0  0  0  0  0
  1  2  1  0  0  0  0
  1 25  1  0  0  0  0
  1 26  1  0  0  0  0
  1 27  1  0  0  0  0
  2  3  1  0  0  0  0
  2 28  1  0  0  0  0
  2 29  1  0  0  0  0
  3  4  1  0  0  0  0
  4 19  1  0  0  0  0
  4  5  1  0  0  0  0
  4 30  1  0  0  0  0
  5  6  1  0  0  0  0
  5 31  1  0  0  0  0
  5 32  1  0  0  0  0
  6  7  1  0  0  0  0
  6 19  1  0  0  0  0
  6 33  1  0  0  0  0
  7  8  1  0  0  0  0
  7 34  1  0  0  0  0
  8  9  2  0  0  0  0
  8 10  1  0  0  0  0
 10 11  1  0  0  0  0
 10 35  1  0  0  0  0
 10 36  1  0  0  0  0
 11 17  1  0  0  0  0
 11 12  1  0  0  0  0
 12 13  2  0  0  0  0
 12 37  1  0  0  0  0
 13 14  1  0  0  0  0
 13 38  1  0  0  0  0
 14 15  2  0  0  0  0
 14 16  1  0  0  0  0
 16 17  1  0  0  0  0
 17 18  2  0  0  0  0
 19 24  1  0  0  0  0
 19 20  1  0  0  0  0
 20 21  1  0  0  0  0
 20 39  1  0  0  0  0
 20 40  1  0  0  0  0
 21 22  1  0  0  0  0
 21 41  1  0  0  0  0
 21 42  1  0  0  0  0
 22 23  1  0  0  0  0
 22 43  1  0  0  0  0
 22 44  1  0  0  0  0
 23 24  1  0  0  0  0
 23 45  1  0  0  0  0
 23 46  1  0  0  0  0
 24 47  1  0  0  0  0
 24 48  1  0  0  0  0
M  CHG  1  16  -1
M  END
> <s_m_source_file>
AV-unprocessed.smi

> <i_m_source_file_index>
701

> <i_lp_mmshare_version>
43012

> <i_f3d_flags>
0

> <s_epik_input>
W0NIMl0xW0NIMl1bQ0gyXVtDSDJdW0NIMl1DMTJbQ0BIXShPW0NIMl1bQ0gzXSlbQ0gyXVtDQEhdMltOSF1DKD1PKVtDSDJdbjNbY0hdW2NIXWMoPU8pW25IXWMzPU8=

> <s_epik_cmdline>
J2VwaWtfcHl0aG9uJywgJy1waCcsICc3LjAnLCAnLXRuJywgJzgnLCAnLW1hJywgJzIwMCcsICctbWV0YWxfYmluZGluZycsICctaW1hZScsICc8aW5maWxlLm1hZT4nLCAnLW9tYWUnLCAnPG91dGZpbGUubWFlPic=

> <r_lp_tautomer_probability>
0.999537

> <r_epik_Ionization_Penalty>
3.12423

> <r_epik_Ionization_Penalty_Charging>
2.92877e-08

> <r_epik_Ionization_Penalty_Neutral>
3.12423

> <r_epik_State_Penalty>
3.12332

> <r_epik_Charging_Adjusted_Penalty>
3.12332

> <i_epik_Tot_Q>
-1

> <i_epik_Tot_abs_Q>
1

> <r_epik_Metal_State_Penalty>
0.463873

> <b_epik_Metal_Only>
1

> <s_lp_Force_Field>
OPLS_2005

> <r_lp_Energy>
38.2445

> <b_lp_Chiralities_Consistent>
1

> <s_lp_Variant>
AV-unprocessed.smi:701-7

> <Gold.Version>
5.8.1

> <Gold.Id.Protein>
6NUR|6NUR_protein|mol2

> <Gold.PLP.Fitness>
35.6342

> <Gold.PLP.PLP>
-27.1756

> <Gold.PLP.part.hbond>
-2.1958

> <Gold.PLP.part.metal>
0.0000

> <Gold.PLP.part.buried>
-1.3481

> <Gold.PLP.part.nonpolar>
-22.6013

> <Gold.PLP.part.repulsive>
0.0978

> <Gold.PLP.ligand.clash>
0.0000

> <Gold.PLP.ligand.torsion>
0.4443

> <Gold.PLP.Chemscore.Hbond>
3.0000

> <Gold.PLP.Chemscore.CHOScore>
0.0000

> <Gold.PLP.Chemscore.Metal>
0.0000

> <Gold.Chemscore.Hbonds>
donor molecule, donor type, donor heavy atom, donor atom, acceptor molecule, acceptor atom, score
      P1  H  6931  6943       L1    15  1.00
      P1  H  6934  6947       L1    16  0.94

> <Gold.PLP.Chemscore.Internal.Correction>
0.3472

> <Gold.Rescore>
     Score         DG    S(hbond)    S(metal)    S(lipo)     H(rot)  DE(clash)    DE(int)     intcor
     13.03     -13.63       1.58        0.00      69.28       2.04       0.01       0.59       ----

> <Gold.Chemscore.Fitness>
13.0292

> <Gold.Chemscore.DG>
-13.6293

> <Gold.Chemscore.ZeroCoef>
-5.4800

> <Gold.Chemscore.Hbond>
1.5767

> <Gold.Chemscore.Metal>
0.0000

> <Gold.Chemscore.Lipo>
69.2762

> <Gold.Chemscore.Internal_Hbond>
0.0000

> <Gold.Chemscore.DEClash>
0.0060

> <Gold.Chemscore.DEInternal>
0.5942

> <Gold.Chemscore.Rot>
2.0399

> <Gold.Chemscore.Internal.Correction>
   9.000000E+99

> <Gold.Chemscore.Hbonds>
donor molecule, donor type, donor heavy atom, donor atom, acceptor molecule, acceptor atom, score
      P1  H  6931  6943       L1    15  0.91
      P1  H  6934  6947       L1    16  0.33

> <Gold.Chemscore.Hbond.Weighted>
-5.2661

> <Gold.Chemscore.Metal.Weighted>
-0.0000

> <Gold.Chemscore.Lipo.Weighted>
-8.1053

> <Gold.Chemscore.Internal_Hbond.Weighted>
0.0000

> <Gold.Chemscore.DEClash.Weighted>
0.0060

> <Gold.Chemscore.DEInternal.Weighted>
0.5942

> <Gold.Chemscore.Rot.Weighted>
5.2222

> <Gold.Chemscore.Internal.Correction.Weighted>
   9.000000E+99

> <Gold.Protein.RotatedTorsions>
[ 6907 6896 6895 6894 ] final -126.01 input  -60.11 | X-H torsion
[ 7974 7965 7964 7962 ] final  135.64 input  175.53 | X-H torsion
[ 8008 7997 7996 7995 ] final -172.65 input   59.86 | X-H torsion
[ 10167 10162 10161 10158 ] final   49.40 input  -65.29 | X-H torsion
[ 10718 10713 10712 10709 ] final -111.39 input   66.30 | X-H torsion
[ 10763 10752 10751 10750 ] final  -91.48 input  -60.55 | X-H torsion
[ 11005 11000 10999 10996 ] final  -71.87 input  -57.11 | X-H torsion

> <Gold.Protein.ActiveResidues>
 VAL166  LYS551  ARG553  GLY616  TRP617  ASP618  TYR619  PRO620  LYS621  CYS622 
 ASP623  PHE694  ASN695  SER759  ASP760  ASP761  ALA762  ILE779  LEU786  VAL792 
 PHE793  MET794  SER795  GLU796  ALA797  LYS798  CYS799  TRP800  GLU811  SER814 

> <Gold.Protein.RotatedAtoms>
  150.8926  133.7223  159.2900 H   0  0  0  0  0  0  0  0  0  0  0  0  # atno 6907 bound_to 6896
  151.4768  135.1048  159.9776 H   0  0  0  0  0  0  0  0  0  0  0  0  # atno 6908 bound_to 6896
  152.4829  133.8252  159.7130 H   0  0  0  0  0  0  0  0  0  0  0  0  # atno 6909 bound_to 6896
  144.9643  139.4675  143.5464 H   0  0  0  0  0  0  0  0  0  0  0  0  # atno 7974 bound_to 7965
  155.9473  140.1120  157.1006 H   0  0  0  0  0  0  0  0  0  0  0  0  # atno 8008 bound_to 7997
  154.4102  140.1207  156.5072 H   0  0  0  0  0  0  0  0  0  0  0  0  # atno 8009 bound_to 7997
  155.6886  140.3473  155.4886 H   0  0  0  0  0  0  0  0  0  0  0  0  # atno 8010 bound_to 7997
  140.2832  144.3132  150.6259 H   0  0  0  0  0  0  0  0  0  0  0  0  # atno 10167 bound_to 10162
  156.0644  130.5865  150.8367 H   0  0  0  0  0  0  0  0  0  0  0  0  # atno 10718 bound_to 10713
  154.6765  135.5266  153.8206 H   0  0  0  0  0  0  0  0  0  0  0  0  # atno 10763 bound_to 10752
  153.0536  135.6542  154.0643 H   0  0  0  0  0  0  0  0  0  0  0  0  # atno 10764 bound_to 10752
  154.0535  135.2967  155.3316 H   0  0  0  0  0  0  0  0  0  0  0  0  # atno 10765 bound_to 10752
  141.1599  133.6830  156.6971 H   0  0  0  0  0  0  0  0  0  0  0  0  # atno 11005 bound_to 11000
  146.3363  139.8814  142.8823 LP  0  0  0  0  0  0  0  0  0  0  0  0  # atno 17320 bound_to 7965
  145.2653  141.0090  143.3803 LP  0  0  0  0  0  0  0  0  0  0  0  0  # atno 17321 bound_to 7965
  140.5794  143.2174  151.7456 LP  0  0  0  0  0  0  0  0  0  0  0  0  # atno 17342 bound_to 10162
  139.4957  144.4102  152.0088 LP  0  0  0  0  0  0  0  0  0  0  0  0  # atno 17343 bound_to 10162
  157.5676  131.0946  150.9466 LP  0  0  0  0  0  0  0  0  0  0  0  0  # atno 17370 bound_to 10713
  156.9690  130.5483  149.5289 LP  0  0  0  0  0  0  0  0  0  0  0  0  # atno 17371 bound_to 10713
  140.2986  134.8182  157.4078 LP  0  0  0  0  0  0  0  0  0  0  0  0  # atno 17394 bound_to 11000
  140.1282  134.5130  155.8127 LP  0  0  0  0  0  0  0  0  0  0  0  0  # atno 17395 bound_to 11000

$$$$
