AV-unprocessed.smi:40|AV-procd|sdf|376|dock4
  -GOLD-   2262016223D 1   1.00000     0.00000
 Structure written by MMmdl.
 47 48  0  0  0  0  0  0  0  0  1 V2000
  152.0079  145.5189  159.2342 C   0  0  0  0  0  0  0  0  0  0  0  0
  151.8801  143.9922  159.1822 C   0  0  0  0  0  0  0  0  0  0  0  0
  153.2229  143.2825  159.4025 C   0  0  0  0  0  0  0  0  0  0  0  0
  153.0581  141.8045  159.7952 C   0  0  0  0  0  0  0  0  0  0  0  0
  154.3695  141.1544  160.2589 C   0  0  0  0  0  0  0  0  0  0  0  0
  154.0794  140.2219  161.2857 O   0  0  0  0  0  0  0  0  0  0  0  0
  154.2995  138.9066  161.1104 C   0  0  0  0  0  0  0  0  0  0  0  0
  154.6349  138.3994  160.0407 O   0  0  0  0  0  0  0  0  0  0  0  0
  154.1260  138.1751  162.3548 N   0  0  0  0  0  0  0  0  0  0  0  0
  154.2627  136.8437  162.5676 C   0  0  0  0  0  0  0  0  0  0  0  0
  154.6261  136.0140  161.6038 N   0  0  0  0  0  0  0  0  0  0  0  0
  154.7801  134.6648  161.7651 C   0  0  0  0  0  0  0  0  0  0  0  0
  155.0938  133.9709  160.8019 O   0  0  0  0  0  0  0  0  0  0  0  0
  154.5726  134.1329  163.0650 N   0  0  0  0  0  0  0  0  0  0  0  0
  154.6286  132.6406  163.3592 C   0  0  1  0  0  0  0  0  0  0  0  0
  155.3104  132.4380  164.5586 O   0  0  0  0  0  0  0  0  0  0  0  0
  154.4155  132.0948  165.6067 C   0  0  2  0  0  0  0  0  0  0  0  0
  155.1220  131.1646  166.5995 C   0  0  0  0  0  0  0  0  0  0  0  0
  153.2010  131.4555  164.9161 C   0  0  1  0  0  0  0  0  0  0  0  0
  152.0117  131.8863  165.5466 O   0  0  0  0  0  0  0  0  0  0  0  0
  153.2528  131.9497  163.4663 C   0  0  2  0  0  0  0  0  0  0  0  0
  153.1706  130.8475  162.5846 O   0  0  0  0  0  0  0  0  0  0  0  0
  154.1994  134.9936  164.0890 C   0  0  0  0  0  0  0  0  0  0  0  0
  154.0456  136.3217  163.8978 C   0  0  0  0  0  0  0  0  0  0  0  0
  153.6895  137.1270  164.9137 F   0  0  0  0  0  0  0  0  0  0  0  0
  155.2288  132.2197  162.5516 H   0  0  0  0  0  0  0  0  0  0  0  0
  154.1369  133.0111  166.1264 H   0  0  0  0  0  0  0  0  0  0  0  0
  153.2634  130.3668  164.9630 H   0  0  0  0  0  0  0  0  0  0  0  0
  152.4472  132.6397  163.2149 H   0  0  0  0  0  0  0  0  0  0  0  0
  151.0401  145.9946  159.0737 H   0  0  0  0  0  0  0  0  0  0  0  0
  152.6889  145.8831  158.4640 H   0  0  0  0  0  0  0  0  0  0  0  0
  152.3863  145.8507  160.2014 H   0  0  0  0  0  0  0  0  0  0  0  0
  151.1624  143.6620  159.9339 H   0  0  0  0  0  0  0  0  0  0  0  0
  151.4691  143.7035  158.2140 H   0  0  0  0  0  0  0  0  0  0  0  0
  153.8098  143.3546  158.4871 H   0  0  0  0  0  0  0  0  0  0  0  0
  153.7919  143.8042  160.1729 H   0  0  0  0  0  0  0  0  0  0  0  0
  152.3202  141.7248  160.5941 H   0  0  0  0  0  0  0  0  0  0  0  0
  152.6575  141.2418  158.9512 H   0  0  0  0  0  0  0  0  0  0  0  0
  154.8634  140.6512  159.4267 H   0  0  0  0  0  0  0  0  0  0  0  0
  155.0512  141.9186  160.6349 H   0  0  0  0  0  0  0  0  0  0  0  0
  153.8535  138.7463  163.1412 H   0  0  0  0  0  0  0  0  0  0  0  0
  154.4511  130.8769  167.4093 H   0  0  0  0  0  0  0  0  0  0  0  0
  155.9884  131.6553  167.0434 H   0  0  0  0  0  0  0  0  0  0  0  0
  155.4687  130.2537  166.1107 H   0  0  0  0  0  0  0  0  0  0  0  0
  151.8190  131.2921  166.2568 H   0  0  0  0  0  0  0  0  0  0  0  0
  152.5400  130.2343  162.9298 H   0  0  0  0  0  0  0  0  0  0  0  0
  154.0205  134.6066  165.0819 H   0  0  0  0  0  0  0  0  0  0  0  0
  1  2  1  0  0  0  0
  1 30  1  0  0  0  0
  1 31  1  0  0  0  0
  1 32  1  0  0  0  0
  2  3  1  0  0  0  0
  2 33  1  0  0  0  0
  2 34  1  0  0  0  0
  3  4  1  0  0  0  0
  3 35  1  0  0  0  0
  3 36  1  0  0  0  0
  4  5  1  0  0  0  0
  4 37  1  0  0  0  0
  4 38  1  0  0  0  0
  5  6  1  0  0  0  0
  5 39  1  0  0  0  0
  5 40  1  0  0  0  0
  6  7  1  0  0  0  0
  7  8  2  0  0  0  0
  7  9  1  0  0  0  0
  9 10  1  0  0  0  0
  9 41  1  0  0  0  0
 10 24  1  0  0  0  0
 10 11  2  0  0  0  0
 11 12  1  0  0  0  0
 12 13  2  0  0  0  0
 12 14  1  0  0  0  0
 14 15  1  0  0  0  0
 14 23  1  0  0  0  0
 15 26  1  0  0  0  0
 15 21  1  0  0  0  0
 15 16  1  0  0  0  0
 16 17  1  0  0  0  0
 17 27  1  0  0  0  0
 17 18  1  0  0  0  0
 17 19  1  0  0  0  0
 18 42  1  0  0  0  0
 18 43  1  0  0  0  0
 18 44  1  0  0  0  0
 19 28  1  0  0  0  0
 19 20  1  0  0  0  0
 19 21  1  0  0  0  0
 20 45  1  0  0  0  0
 21 29  1  0  0  0  0
 21 22  1  0  0  0  0
 22 46  1  0  0  0  0
 23 24  2  0  0  0  0
 23 47  1  0  0  0  0
 24 25  1  0  0  0  0
M  END
> <s_m_source_file>
AV-unprocessed.smi

> <i_m_source_file_index>
40

> <i_lp_mmshare_version>
43012

> <i_f3d_flags>
0

> <s_epik_input>
W0NIM11bQ0gyXVtDSDJdW0NIMl1bQ0gyXU9DKD1PKVtOSF1jMW5jKD1PKW4oW2NIXWMxRilbQ0BASF0yT1tDQEhdKFtDSDNdKVtDQEBIXShbT0hdKVtDQEhdMltPSF0=

> <s_epik_cmdline>
J2VwaWtfcHl0aG9uJywgJy1waCcsICc3LjAnLCAnLXRuJywgJzgnLCAnLW1hJywgJzIwMCcsICctbWV0YWxfYmluZGluZycsICctaW1hZScsICc8aW5maWxlLm1hZT4nLCAnLW9tYWUnLCAnPG91dGZpbGUubWFlPic=

> <r_lp_tautomer_probability>
1

> <r_epik_Ionization_Penalty>
2.29506e-06

> <r_epik_Ionization_Penalty_Charging>
8.26867e-09

> <r_epik_Ionization_Penalty_Neutral>
2.2868e-06

> <r_epik_State_Penalty>
-0

> <r_epik_Charging_Adjusted_Penalty>
8.26867e-09

> <i_epik_Tot_Q>
0

> <i_epik_Tot_abs_Q>
0

> <r_epik_Metal_State_Penalty>
-0

> <b_epik_Metal_Only>
0

> <s_epik_Chemistry_Notes>
This compound has an ester and may undergo hydrolysis at high or low pH. This compound contains an acetal/aminal-like group ( X-CH(R)-Y where X, Y are N, S, or O) that may be acid/base labile, releasing an aldehyde.

> <s_lp_Force_Field>
OPLS_2005

> <r_lp_Energy>
21.8092

> <b_lp_Chiralities_Consistent>
1

> <s_lp_Variant>
AV-unprocessed.smi:40-10

> <Gold.Version>
5.8.1

> <Gold.Id.Protein>
6NUR|6NUR_protein|mol2

> <Gold.PLP.Fitness>
43.6672

> <Gold.PLP.PLP>
-45.9515

> <Gold.PLP.part.hbond>
-0.9711

> <Gold.PLP.part.metal>
0.0000

> <Gold.PLP.part.buried>
-4.7055

> <Gold.PLP.part.nonpolar>
-40.5944

> <Gold.PLP.part.repulsive>
0.0055

> <Gold.PLP.ligand.clash>
0.0000

> <Gold.PLP.ligand.torsion>
1.2025

> <Gold.PLP.Chemscore.Hbond>
0.0000

> <Gold.PLP.Chemscore.CHOScore>
0.0000

> <Gold.PLP.Chemscore.Metal>
0.0000

> <Gold.PLP.Chemscore.Internal.Correction>
0.1208

> <Gold.Rescore>
     Score         DG    S(hbond)    S(metal)    S(lipo)     H(rot)  DE(clash)    DE(int)     intcor
      5.16      -7.73       0.00        0.00     100.12       3.70       0.08       2.49       ----

> <Gold.Chemscore.Fitness>
5.1617

> <Gold.Chemscore.DG>
-7.7333

> <Gold.Chemscore.ZeroCoef>
-5.4800

> <Gold.Chemscore.Hbond>
0.0001

> <Gold.Chemscore.Metal>
0.0000

> <Gold.Chemscore.Lipo>
100.1195

> <Gold.Chemscore.Internal_Hbond>
0.0000

> <Gold.Chemscore.DEClash>
0.0837

> <Gold.Chemscore.DEInternal>
2.4879

> <Gold.Chemscore.Rot>
3.6957

> <Gold.Chemscore.Internal.Correction>
   9.000000E+99

> <Gold.Chemscore.Hbond.Weighted>
-0.0003

> <Gold.Chemscore.Metal.Weighted>
-0.0000

> <Gold.Chemscore.Lipo.Weighted>
-11.7140

> <Gold.Chemscore.Internal_Hbond.Weighted>
0.0000

> <Gold.Chemscore.DEClash.Weighted>
0.0837

> <Gold.Chemscore.DEInternal.Weighted>
2.4879

> <Gold.Chemscore.Rot.Weighted>
9.4610

> <Gold.Chemscore.Internal.Correction.Weighted>
   9.000000E+99

> <Gold.Protein.RotatedTorsions>
[ 6907 6896 6895 6894 ] final   88.59 input  -60.11 | X-H torsion
[ 7974 7965 7964 7962 ] final -135.27 input  175.53 | X-H torsion
[ 8008 7997 7996 7995 ] final   95.06 input   59.86 | X-H torsion
[ 10167 10162 10161 10158 ] final  -15.82 input  -65.29 | X-H torsion
[ 10718 10713 10712 10709 ] final   86.33 input   66.30 | X-H torsion
[ 10763 10752 10751 10750 ] final -148.50 input  -60.55 | X-H torsion
[ 11005 11000 10999 10996 ] final   31.74 input  -57.11 | X-H torsion

> <Gold.Protein.ActiveResidues>
 VAL166  LYS551  ARG553  GLY616  TRP617  ASP618  TYR619  PRO620  LYS621  CYS622 
 ASP623  PHE694  ASN695  SER759  ASP760  ASP761  ALA762  ILE779  LEU786  VAL792 
 PHE793  MET794  SER795  GLU796  ALA797  LYS798  CYS799  TRP800  GLU811  SER814 

> <Gold.Protein.RotatedAtoms>
  152.5427  134.2097  159.8744 H   0  0  0  0  0  0  0  0  0  0  0  0  # atno 6907 bound_to 6896
  151.2081  133.4565  159.2605 H   0  0  0  0  0  0  0  0  0  0  0  0  # atno 6908 bound_to 6896
  151.0924  134.9936  159.8464 H   0  0  0  0  0  0  0  0  0  0  0  0  # atno 6909 bound_to 6896
  144.9029  140.6794  143.5074 H   0  0  0  0  0  0  0  0  0  0  0  0  # atno 7974 bound_to 7965
  156.0647  140.3291  155.7504 H   0  0  0  0  0  0  0  0  0  0  0  0  # atno 8008 bound_to 7997
  155.5399  140.0601  157.2889 H   0  0  0  0  0  0  0  0  0  0  0  0  # atno 8009 bound_to 7997
  154.4499  140.1912  156.0569 H   0  0  0  0  0  0  0  0  0  0  0  0  # atno 8010 bound_to 7997
  140.7224  143.5178  150.9670 H   0  0  0  0  0  0  0  0  0  0  0  0  # atno 10167 bound_to 10162
  157.6927  131.0211  150.2956 H   0  0  0  0  0  0  0  0  0  0  0  0  # atno 10718 bound_to 10713
  154.8229  135.3333  154.6983 H   0  0  0  0  0  0  0  0  0  0  0  0  # atno 10763 bound_to 10752
  153.7613  135.6932  153.4929 H   0  0  0  0  0  0  0  0  0  0  0  0  # atno 10764 bound_to 10752
  153.2108  135.4483  155.0327 H   0  0  0  0  0  0  0  0  0  0  0  0  # atno 10765 bound_to 10752
  140.2807  134.2976  155.7801 H   0  0  0  0  0  0  0  0  0  0  0  0  # atno 11005 bound_to 11000
  145.3586  139.1687  143.4395 LP  0  0  0  0  0  0  0  0  0  0  0  0  # atno 17320 bound_to 7965
  146.3118  140.3646  142.8668 LP  0  0  0  0  0  0  0  0  0  0  0  0  # atno 17321 bound_to 7965
  139.8895  143.6971  152.3147 LP  0  0  0  0  0  0  0  0  0  0  0  0  # atno 17342 bound_to 10162
  139.7282  144.7588  151.0845 LP  0  0  0  0  0  0  0  0  0  0  0  0  # atno 17343 bound_to 10162
  156.3480  130.3826  149.7353 LP  0  0  0  0  0  0  0  0  0  0  0  0  # atno 17370 bound_to 10713
  156.4840  130.8054  151.3067 LP  0  0  0  0  0  0  0  0  0  0  0  0  # atno 17371 bound_to 10713
  141.2163  133.7524  156.9477 LP  0  0  0  0  0  0  0  0  0  0  0  0  # atno 17394 bound_to 11000
  140.1286  134.9371  157.2305 LP  0  0  0  0  0  0  0  0  0  0  0  0  # atno 17395 bound_to 11000

$$$$
