#       Name:                AV-unprocessed.smi:914
#       Creating user name   scv26
#       Creation time:       Fri Mar 27 02:05:35 2020


#       File generated by GOLD software.
#

@<TRIPOS>MOLECULE
AV-unprocessed.smi:914
    41    42     1
SMALL
NO_CHARGES


@<TRIPOS>ATOM
      1 ****        -0.9498   3.7324   3.5340 O.2            1 S1                 0.0000
      2 ****        -1.2485   3.1902   2.4717 C.2            1 S1                 0.0000
      3 ****        -2.3640   2.3492   2.4092 N.am           1 S1                 0.0000
      4 ****        -2.8114   1.6763   1.2717 C.2            1 S1                 0.0000
      5 ****        -3.8034   0.9502   1.3379 O.2            1 S1                 0.0000
      6 ****        -2.0716   1.8738   0.0833 N.am           1 S1                 0.0000
      7 ****        -2.4857   1.1583  -1.0991 C.3            1 S1                 0.0000
      8 ****        -2.0016  -0.3005  -1.1102 C.3            1 S1                 0.0000
      9 ****        -0.5839  -0.3095  -1.1038 O.3            1 S1                 0.0000
     10 ****        -0.0374  -1.6125  -1.0044 C.3            1 S1                 0.0000
     11 ****         1.4900  -1.4949  -0.9449 C.3            1 S1                 0.0000
     12 ****         2.2143  -2.8353  -1.0339 C.3            1 S1                 0.0000
     13 ****         3.5514  -2.4972  -0.4140 C.3            1 S1                 0.0000
     14 ****         3.1601  -1.5171   0.6909 C.3            1 S1                 0.0000
     15 ****         1.8977  -0.9708   0.3147 O.3            1 S1                 0.0000
     16 ****        -0.9524   2.6918   0.1009 C.2            1 S1                 0.0000
     17 ****        -0.5229   3.3395   1.2107 C.2            1 S1                 0.0000
     18 ****         0.8842   4.3399   1.1530 Cl             1 S1                 0.0000
     19 ****        -2.8874   2.2131   3.2616 H              1 S1                 0.0000
     20 ****        -3.5724   1.2371  -1.1703 H              1 S1                 0.0000
     21 ****        -2.0832   1.7091  -1.9507 H              1 S1                 0.0000
     22 ****        -2.3932  -0.8413  -0.2473 H              1 S1                 0.0000
     23 ****        -2.3671  -0.8079  -2.0039 H              1 S1                 0.0000
     24 ****        -0.4140  -2.1281  -0.1195 H              1 S1                 0.0000
     25 ****        -0.3341  -2.1945  -1.8782 H              1 S1                 0.0000
     26 ****         1.8542  -0.8355  -1.7345 H              1 S1                 0.0000
     27 ****         1.7040  -3.5892  -0.4324 H              1 S1                 0.0000
     28 ****         2.2979  -3.2081  -2.0552 H              1 S1                 0.0000
     29 ****         4.0840  -3.3715  -0.0391 H              1 S1                 0.0000
     30 ****         4.1867  -1.9997  -1.1482 H              1 S1                 0.0000
     31 ****         3.0439  -2.0339   1.6440 H              1 S1                 0.0000
     32 ****         3.9049  -0.7315   0.8202 H              1 S1                 0.0000
     33 ****        -0.3882   2.8172  -0.8126 H              1 S1                 0.0000
     34 ****        -0.1516   4.3329   3.5817 LP             1 S1                 0.0000
     35 ****        -1.5051   3.5729   4.3502 LP             1 S1                 0.0000
     36 ****        -4.2877   0.8432   2.2062 LP             1 S1                 0.0000
     37 ****        -4.1250   0.4675   0.5233 LP             1 S1                 0.0000
     38 ****        -0.2657   0.2296  -0.3240 LP             1 S1                 0.0000
     39 ****        -0.2591   0.1081  -1.9524 LP             1 S1                 0.0000
     40 ****         1.2160  -1.2073   1.0070 LP             1 S1                 0.0000
     41 ****         1.9747   0.0241   0.2490 LP             1 S1                 0.0000
@<TRIPOS>BOND
    1    1    2 2     
    2    2   17 1     
    3    2    3 1     
    4    3   19 1     
    5    3    4 1     
    6    4    5 2     
    7    4    6 1     
    8    6    7 1     
    9    6   16 1     
   10    7    8 1     
   11    7   20 1     
   12    7   21 1     
   13    8    9 1     
   14    8   22 1     
   15    8   23 1     
   16    9   10 1     
   17   10   11 1     
   18   10   24 1     
   19   10   25 1     
   20   11   15 1     
   21   11   12 1     
   22   11   26 1     
   23   12   13 1     
   24   12   27 1     
   25   12   28 1     
   26   13   14 1     
   27   13   29 1     
   28   13   30 1     
   29   14   15 1     
   30   14   31 1     
   31   14   32 1     
   32   16   17 2     
   33   16   33 1     
   34   17   18 1     
   35    1   34 1     
   36    1   35 1     
   37    5   36 1     
   38    5   37 1     
   39    9   38 1     
   40    9   39 1     
   41   15   40 1     
   42   15   41 1     
@<TRIPOS>SUBSTRUCTURE
      1 S1             1
@<TRIPOS>SET
LONE_PAIRS      STATIC     ATOMS    <user>   **** ""
8 34 35 36 37 38 39 40 41
DONOR_HYDROGENS      STATIC     ATOMS    <user>   **** ""
1 19
ATOM$BLUE        STATIC     ATOMS    COLORGROUP SYSTEM
8 34 35 36 37 38 39 40 41
ATOM$RED        STATIC     ATOMS    COLORGROUP SYSTEM
1 19
