AV-unprocessed.smi:2709|AV-procd|sdf|10460|dock8
  -GOLD-   2272014503D 1   1.00000     0.00000
 Structure written by MMmdl.
 40 42  0  0  0  0  0  0  0  0  1 V2000
  141.8813  141.8258  155.6294 C   0  0  0  0  0  0  0  0  0  0  0  0
  140.5233  141.9213  155.2322 O   0  0  0  0  0  0  0  0  0  0  0  0
  140.2059  141.1390  154.0892 C   0  0  2  0  0  0  0  0  0  0  0  0
  138.7246  141.2622  153.7062 C   0  0  0  0  0  0  0  0  0  0  0  0
  138.3679  139.9022  153.1175 C   0  0  0  0  0  0  0  0  0  0  0  0
  139.1431  138.9144  153.9873 C   0  0  0  0  0  0  0  0  0  0  0  0
  140.4384  139.6402  154.3929 C   0  0  1  0  0  0  0  0  0  0  0  0
  141.5714  139.1054  153.6419 N   0  0  0  0  0  0  0  0  0  0  0  0
  141.8237  137.8020  153.4591 C   0  0  0  0  0  0  0  0  0  0  0  0
  141.1189  136.9052  153.9195 O   0  0  0  0  0  0  0  0  0  0  0  0
  142.9374  137.6244  152.7282 N   0  0  0  0  0  0  0  0  0  0  0  0
  143.5438  136.4120  152.3001 C   0  0  0  0  0  0  0  0  0  0  0  0
  142.9487  135.1897  152.6770 C   0  0  0  0  0  0  0  0  0  0  0  0
  143.4692  133.9967  152.3187 N   0  0  0  0  0  0  0  0  0  0  0  0
  144.5911  134.0223  151.5949 C   0  0  0  0  0  0  0  0  0  0  0  0
  145.1458  132.6992  151.1668 C   0  0  0  0  0  0  0  0  0  0  0  0
  145.3138  132.3679  149.6979 C   0  0  0  0  0  0  0  0  0  0  0  0
  144.2592  131.6638  150.5050 C   0  0  0  0  0  0  0  0  0  0  0  0
  145.2399  135.1102  151.1718 N   0  0  0  0  0  0  0  0  0  0  0  0
  144.7266  136.3084  151.5261 C   0  0  0  0  0  0  0  0  0  0  0  0
  142.0459  142.4434  156.5121 H   0  0  0  0  0  0  0  0  0  0  0  0
  142.5555  142.1757  154.8471 H   0  0  0  0  0  0  0  0  0  0  0  0
  142.1449  140.7991  155.8861 H   0  0  0  0  0  0  0  0  0  0  0  0
  140.8219  141.4426  153.2398 H   0  0  0  0  0  0  0  0  0  0  0  0
  138.1227  141.4352  154.5996 H   0  0  0  0  0  0  0  0  0  0  0  0
  138.5354  142.0829  153.0138 H   0  0  0  0  0  0  0  0  0  0  0  0
  137.2943  139.7111  153.1190 H   0  0  0  0  0  0  0  0  0  0  0  0
  138.7190  139.8423  152.0865 H   0  0  0  0  0  0  0  0  0  0  0  0
  138.5605  138.6959  154.8832 H   0  0  0  0  0  0  0  0  0  0  0  0
  139.3164  137.9645  153.4797 H   0  0  0  0  0  0  0  0  0  0  0  0
  140.6101  139.4806  155.4594 H   0  0  0  0  0  0  0  0  0  0  0  0
  142.2048  139.7770  153.2336 H   0  0  0  0  0  0  0  0  0  0  0  0
  143.4245  138.4660  152.4576 H   0  0  0  0  0  0  0  0  0  0  0  0
  142.0459  135.1662  153.2696 H   0  0  0  0  0  0  0  0  0  0  0  0
  145.9092  132.3475  151.8582 H   0  0  0  0  0  0  0  0  0  0  0  0
  144.9774  133.1027  148.9689 H   0  0  0  0  0  0  0  0  0  0  0  0
  146.1935  131.7957  149.4110 H   0  0  0  0  0  0  0  0  0  0  0  0
  144.4328  130.6199  150.7581 H   0  0  0  0  0  0  0  0  0  0  0  0
  143.2216  131.9305  150.3135 H   0  0  0  0  0  0  0  0  0  0  0  0
  145.2863  137.1645  151.1856 H   0  0  0  0  0  0  0  0  0  0  0  0
  1  2  1  0  0  0  0
  1 21  1  0  0  0  0
  1 22  1  0  0  0  0
  1 23  1  0  0  0  0
  2  3  1  0  0  0  0
  3  7  1  0  0  0  0
  3  4  1  0  0  0  0
  3 24  1  0  0  0  0
  4  5  1  0  0  0  0
  4 25  1  0  0  0  0
  4 26  1  0  0  0  0
  5  6  1  0  0  0  0
  5 27  1  0  0  0  0
  5 28  1  0  0  0  0
  6  7  1  0  0  0  0
  6 29  1  0  0  0  0
  6 30  1  0  0  0  0
  7  8  1  0  0  0  0
  7 31  1  0  0  0  0
  8  9  1  0  0  0  0
  8 32  1  0  0  0  0
  9 10  2  0  0  0  0
  9 11  1  0  0  0  0
 11 12  1  0  0  0  0
 11 33  1  0  0  0  0
 12 20  1  0  0  0  0
 12 13  2  0  0  0  0
 13 14  1  0  0  0  0
 13 34  1  0  0  0  0
 14 15  2  0  0  0  0
 15 16  1  0  0  0  0
 15 19  1  0  0  0  0
 16 18  1  0  0  0  0
 16 17  1  0  0  0  0
 16 35  1  0  0  0  0
 17 18  1  0  0  0  0
 17 36  1  0  0  0  0
 17 37  1  0  0  0  0
 18 38  1  0  0  0  0
 18 39  1  0  0  0  0
 19 20  2  0  0  0  0
 20 40  1  0  0  0  0
M  END
> <s_m_source_file>
AV-unprocessed.smi

> <i_m_source_file_index>
2709

> <i_lp_mmshare_version>
43012

> <i_f3d_flags>
0

> <s_epik_input>
W0NIM11PW0NAQEhdMVtDSDJdW0NIMl1bQ0gyXVtDQEhdMVtOSF1DKD1PKVtOSF1jMltjSF1uYyhuW2NIXTIpW0NIXTNbQ0gyXVtDSDJdMw==

> <s_epik_cmdline>
J2VwaWtfcHl0aG9uJywgJy1waCcsICc3LjAnLCAnLXRuJywgJzgnLCAnLW1hJywgJzIwMCcsICctbWV0YWxfYmluZGluZycsICctaW1hZScsICc8aW5maWxlLm1hZT4nLCAnLW9tYWUnLCAnPG91dGZpbGUubWFlPic=

> <r_lp_tautomer_probability>
1

> <r_epik_Ionization_Penalty>
2.49969e-05

> <r_epik_Ionization_Penalty_Charging>
0

> <r_epik_Ionization_Penalty_Neutral>
2.49969e-05

> <r_epik_State_Penalty>
-0

> <r_epik_Charging_Adjusted_Penalty>
0

> <i_epik_Tot_Q>
0

> <i_epik_Tot_abs_Q>
0

> <r_epik_Metal_State_Penalty>
-0

> <b_epik_Metal_Only>
0

> <s_lp_Force_Field>
OPLS_2005

> <r_lp_Energy>
17.9033

> <b_lp_Chiralities_Consistent>
1

> <s_lp_Variant>
AV-unprocessed.smi:2709-1

> <Gold.Version>
5.8.1

> <Gold.Id.Protein>
6NUR|6NUR_protein|mol2

> <Gold.PLP.Fitness>
39.0984

> <Gold.PLP.PLP>
-31.6839

> <Gold.PLP.part.hbond>
-2.4383

> <Gold.PLP.part.metal>
0.0000

> <Gold.PLP.part.buried>
-4.7220

> <Gold.PLP.part.nonpolar>
-25.3349

> <Gold.PLP.part.repulsive>
0.5992

> <Gold.PLP.ligand.clash>
0.0000

> <Gold.PLP.ligand.torsion>
0.2740

> <Gold.PLP.Chemscore.Hbond>
2.0000

> <Gold.PLP.Chemscore.CHOScore>
0.6137

> <Gold.PLP.Chemscore.Metal>
0.0000

> <Gold.Chemscore.Hbonds>
donor molecule, donor type, donor heavy atom, donor atom, acceptor molecule, acceptor atom, score
      L1  H     8    32       P1 10175  1.00
      L1  H    11    33       P1 10175  1.00
      L1  C    20    40       P1 10171  0.60

> <Gold.PLP.Chemscore.Internal.Correction>
0.1212

> <Gold.Rescore>
     Score         DG    S(hbond)    S(metal)    S(lipo)     H(rot)  DE(clash)    DE(int)     intcor
     13.19     -16.34       1.82        0.00      71.70       1.41       0.39       2.76       ----

> <Gold.Chemscore.Fitness>
13.1857

> <Gold.Chemscore.DG>
-16.3387

> <Gold.Chemscore.ZeroCoef>
-5.4800

> <Gold.Chemscore.Hbond>
1.8213

> <Gold.Chemscore.Metal>
0.0000

> <Gold.Chemscore.Lipo>
71.6989

> <Gold.Chemscore.Internal_Hbond>
0.0000

> <Gold.Chemscore.DEClash>
0.3944

> <Gold.Chemscore.DEInternal>
2.7586

> <Gold.Chemscore.Rot>
1.4114

> <Gold.Chemscore.Internal.Correction>
   9.000000E+99

> <Gold.Chemscore.Hbonds>
donor molecule, donor type, donor heavy atom, donor atom, acceptor molecule, acceptor atom, score
      L1  H     8    32       P1 10175  0.85
      L1  H    11    33       P1 10175  0.94

> <Gold.Chemscore.Hbond.Weighted>
-6.0832

> <Gold.Chemscore.Metal.Weighted>
-0.0000

> <Gold.Chemscore.Lipo.Weighted>
-8.3888

> <Gold.Chemscore.Internal_Hbond.Weighted>
0.0000

> <Gold.Chemscore.DEClash.Weighted>
0.3944

> <Gold.Chemscore.DEInternal.Weighted>
2.7586

> <Gold.Chemscore.Rot.Weighted>
3.6133

> <Gold.Chemscore.Internal.Correction.Weighted>
   9.000000E+99

> <Gold.Protein.RotatedTorsions>
[ 6907 6896 6895 6894 ] final   65.01 input  -60.11 | X-H torsion
[ 7974 7965 7964 7962 ] final  -39.48 input  175.53 | X-H torsion
[ 8008 7997 7996 7995 ] final  118.62 input   59.86 | X-H torsion
[ 10167 10162 10161 10158 ] final  -77.09 input  -65.29 | X-H torsion
[ 10718 10713 10712 10709 ] final -109.75 input   66.30 | X-H torsion
[ 10763 10752 10751 10750 ] final -176.41 input  -60.55 | X-H torsion
[ 11005 11000 10999 10996 ] final -173.67 input  -57.11 | X-H torsion

> <Gold.Protein.ActiveResidues>
 VAL166  LYS551  ARG553  GLY616  TRP617  ASP618  TYR619  PRO620  LYS621  CYS622 
 ASP623  PHE694  ASN695  SER759  ASP760  ASP761  ALA762  ILE779  LEU786  VAL792 
 PHE793  MET794  SER795  GLU796  ALA797  LYS798  CYS799  TRP800  GLU811  SER814 

> <Gold.Protein.RotatedAtoms>
  152.4375  134.5657  159.9906 H   0  0  0  0  0  0  0  0  0  0  0  0  # atno 6907 bound_to 6896
  151.5763  133.3377  159.3007 H   0  0  0  0  0  0  0  0  0  0  0  0  # atno 6908 bound_to 6896
  150.8276  134.7549  159.6890 H   0  0  0  0  0  0  0  0  0  0  0  0  # atno 6909 bound_to 6896
  146.0393  140.6630  142.9095 H   0  0  0  0  0  0  0  0  0  0  0  0  # atno 7974 bound_to 7965
  156.2556  140.2870  156.0864 H   0  0  0  0  0  0  0  0  0  0  0  0  # atno 8008 bound_to 7997
  155.1511  140.0397  157.2838 H   0  0  0  0  0  0  0  0  0  0  0  0  # atno 8009 bound_to 7997
  154.6460  140.2533  155.7274 H   0  0  0  0  0  0  0  0  0  0  0  0  # atno 8010 bound_to 7997
  140.4800  143.2404  151.8073 H   0  0  0  0  0  0  0  0  0  0  0  0  # atno 10167 bound_to 10162
  156.0554  130.5780  150.8143 H   0  0  0  0  0  0  0  0  0  0  0  0  # atno 10718 bound_to 10713
  154.5727  135.2829  155.0811 H   0  0  0  0  0  0  0  0  0  0  0  0  # atno 10763 bound_to 10752
  154.2178  135.6396  153.5139 H   0  0  0  0  0  0  0  0  0  0  0  0  # atno 10764 bound_to 10752
  153.0062  135.5507  154.6355 H   0  0  0  0  0  0  0  0  0  0  0  0  # atno 10765 bound_to 10752
  140.4832  134.6056  157.4927 H   0  0  0  0  0  0  0  0  0  0  0  0  # atno 11005 bound_to 11000
  144.7066  140.3878  143.7113 LP  0  0  0  0  0  0  0  0  0  0  0  0  # atno 17320 bound_to 7965
  145.6912  139.1639  143.2646 LP  0  0  0  0  0  0  0  0  0  0  0  0  # atno 17321 bound_to 7965
  139.4832  144.4784  151.9337 LP  0  0  0  0  0  0  0  0  0  0  0  0  # atno 17342 bound_to 10162
  140.3870  144.2664  150.5903 LP  0  0  0  0  0  0  0  0  0  0  0  0  # atno 17343 bound_to 10162
  157.5518  131.0944  150.9684 LP  0  0  0  0  0  0  0  0  0  0  0  0  # atno 17370 bound_to 10713
  156.9942  130.5575  149.5306 LP  0  0  0  0  0  0  0  0  0  0  0  0  # atno 17371 bound_to 10713
  139.9814  134.7131  155.9853 LP  0  0  0  0  0  0  0  0  0  0  0  0  # atno 17394 bound_to 11000
  141.1521  133.6547  156.4046 LP  0  0  0  0  0  0  0  0  0  0  0  0  # atno 17395 bound_to 11000

$$$$
