AV-unprocessed.smi:49|AV-procd|sdf|470|dock1
  -GOLD-   2262016333D 1   1.00000     0.00000
 Structure written by MMmdl.
 28 29  0  0  0  0  0  0  0  0  2 V2000
  152.7834  143.0389  161.7493 C   0  0  0  0  0  0  0  0  0  0  0  0
  152.3799  143.7996  160.4812 C   0  0  0  0  0  0  0  0  0  0  0  0
  152.0493  142.8810  159.3517 C   0  0  0  0  0  0  0  0  0  0  0  0
  151.4441  143.3092  158.2028 N   0  0  0  0  0  0  0  0  0  0  0  0
  151.3278  142.1543  157.5503 C   0  0  0  0  0  0  0  0  0  0  0  0
  150.7166  141.9649  156.1941 C   0  0  1  0  0  0  0  0  0  0  0  0
  150.7491  140.5309  155.6641 C   0  0  0  0  0  0  0  0  0  0  0  0
  149.4918  140.4554  154.7989 C   0  0  2  0  0  0  0  0  0  0  0  0
  149.7705  140.9306  153.4970 O   0  0  0  0  0  0  0  0  0  0  0  0
  148.4971  141.3986  155.4952 C   0  0  0  0  0  0  0  0  0  0  0  0
  149.2892  142.3034  156.3539 N   0  3  0  0  0  0  0  0  0  0  0  0
  151.8055  141.1255  158.2545 N   0  0  0  0  0  0  0  0  0  0  0  0
  152.2773  141.5717  159.4373 N   0  0  0  0  0  0  0  0  0  0  0  0
  151.1620  142.6517  155.4725 H   0  0  0  0  0  0  0  0  0  0  0  0
  149.1057  139.4383  154.7237 H   0  0  0  0  0  0  0  0  0  0  0  0
  151.8233  140.1510  157.9879 H   0  0  0  0  0  0  0  0  0  0  0  0
  153.0183  143.7303  162.5584 H   0  0  0  0  0  0  0  0  0  0  0  0
  153.6644  142.4205  161.5739 H   0  0  0  0  0  0  0  0  0  0  0  0
  151.9784  142.3872  162.0905 H   0  0  0  0  0  0  0  0  0  0  0  0
  151.5170  144.4332  160.6893 H   0  0  0  0  0  0  0  0  0  0  0  0
  153.1872  144.4673  160.1772 H   0  0  0  0  0  0  0  0  0  0  0  0
  151.6724  140.2844  155.1384 H   0  0  0  0  0  0  0  0  0  0  0  0
  150.6429  139.8271  156.4912 H   0  0  0  0  0  0  0  0  0  0  0  0
  149.5785  140.2437  152.8761 H   0  0  0  0  0  0  0  0  0  0  0  0
  147.8804  141.9584  154.7908 H   0  0  0  0  0  0  0  0  0  0  0  0
  147.8261  140.8299  156.1396 H   0  0  0  0  0  0  0  0  0  0  0  0
  149.0280  142.1421  157.3168 H   0  0  0  0  0  0  0  0  0  0  0  0
  149.1259  143.2708  156.1140 H   0  0  0  0  0  0  0  0  0  0  0  0
  1  2  1  0  0  0  0
  1 17  1  0  0  0  0
  1 18  1  0  0  0  0
  1 19  1  0  0  0  0
  2 20  1  0  0  0  0
  2 21  1  0  0  0  0
  2  3  1  0  0  0  0
  3  4  1  0  0  0  0
  3 13  2  0  0  0  0
  4  5  2  0  0  0  0
  5  6  1  0  0  0  0
  5 12  1  0  0  0  0
  6 14  1  0  0  0  0
  6 11  1  0  0  0  0
  6  7  1  0  0  0  0
  7  8  1  0  0  0  0
  7 22  1  0  0  0  0
  7 23  1  0  0  0  0
  8 15  1  0  0  0  0
  8  9  1  0  0  0  0
  8 10  1  0  0  0  0
  9 24  1  0  0  0  0
 10 11  1  0  0  0  0
 10 25  1  0  0  0  0
 10 26  1  0  0  0  0
 11 27  1  0  0  0  0
 11 28  1  0  0  0  0
 12 13  1  0  0  0  0
 12 16  1  0  0  0  0
M  CHG  1  11   1
M  END
> <s_m_source_file>
AV-unprocessed.smi

> <i_m_source_file_index>
49

> <i_lp_mmshare_version>
43012

> <i_f3d_flags>
0

> <s_epik_input>
W0NIM11bQ0gyXWMxbmMobltuSF0xKVtDQEBIXTJbQ0gyXVtDQEBIXShbT0hdKVtDSDJdW05IXTI=

> <s_epik_cmdline>
J2VwaWtfcHl0aG9uJywgJy1waCcsICc3LjAnLCAnLXRuJywgJzgnLCAnLW1hJywgJzIwMCcsICctbWV0YWxfYmluZGluZycsICctaW1hZScsICc8aW5maWxlLm1hZT4nLCAnLW9tYWUnLCAnPG91dGZpbGUubWFlPic=

> <r_epik_Ionization_Penalty>
0.372103

> <r_epik_Ionization_Penalty_Charging>
0.0688988

> <r_epik_Ionization_Penalty_Neutral>
0.303204

> <r_epik_State_Penalty>
0.737493

> <r_epik_Charging_Adjusted_Penalty>
0.806392

> <i_epik_Tot_Q>
1

> <i_epik_Tot_abs_Q>
1

> <r_epik_Metal_State_Penalty>
1.01235

> <b_epik_Metal_Only>
0

> <s_lp_Force_Field>
OPLS_2005

> <r_lp_Energy>
18.6675

> <b_lp_Chiralities_Consistent>
1

> <s_lp_Variant>
AV-unprocessed.smi:49-8

> <Gold.Version>
5.8.1

> <Gold.Id.Protein>
6NUR|6NUR_protein|mol2

> <Gold.PLP.Fitness>
40.7562

> <Gold.PLP.PLP>
-28.8918

> <Gold.PLP.part.hbond>
-3.5538

> <Gold.PLP.part.metal>
0.0000

> <Gold.PLP.part.buried>
-3.3513

> <Gold.PLP.part.nonpolar>
-20.9944

> <Gold.PLP.part.repulsive>
0.2400

> <Gold.PLP.ligand.clash>
0.0000

> <Gold.PLP.ligand.torsion>
0.1384

> <Gold.PLP.Chemscore.Hbond>
4.0400

> <Gold.PLP.Chemscore.CHOScore>
0.0000

> <Gold.PLP.Chemscore.Metal>
0.0000

> <Gold.Chemscore.Hbonds>
donor molecule, donor type, donor heavy atom, donor atom, acceptor molecule, acceptor atom, score
      L1  H     9    24       P1  7957  0.74
      L1  H    11    28       P1  8028  2.00
      P1  H  7989  7998       L1     9  0.29
      P1  H  8011  8017       L1     9  1.00

> <Gold.PLP.Chemscore.Internal.Correction>
0.0212

> <Gold.Rescore>
     Score         DG    S(hbond)    S(metal)    S(lipo)     H(rot)  DE(clash)    DE(int)     intcor
     14.19     -14.24       2.28        0.00      51.15       1.89       0.00       0.05       ----

> <Gold.Chemscore.Fitness>
14.1851

> <Gold.Chemscore.DG>
-14.2394

> <Gold.Chemscore.ZeroCoef>
-5.4800

> <Gold.Chemscore.Hbond>
2.2780

> <Gold.Chemscore.Metal>
0.0000

> <Gold.Chemscore.Lipo>
51.1513

> <Gold.Chemscore.Internal_Hbond>
0.0000

> <Gold.Chemscore.DEClash>
0.0048

> <Gold.Chemscore.DEInternal>
0.0495

> <Gold.Chemscore.Rot>
1.8883

> <Gold.Chemscore.Internal.Correction>
   9.000000E+99

> <Gold.Chemscore.Hbonds>
donor molecule, donor type, donor heavy atom, donor atom, acceptor molecule, acceptor atom, score
      L1  H     9    24       P1  7957  0.74
      L1  H    11    28       P1  8028  0.93
      P1  H  7989  7998       L1     9  0.03
      P1  H  8011  8017       L1     9  0.25

> <Gold.Chemscore.Hbond.Weighted>
-7.6087

> <Gold.Chemscore.Metal.Weighted>
-0.0000

> <Gold.Chemscore.Lipo.Weighted>
-5.9847

> <Gold.Chemscore.Internal_Hbond.Weighted>
0.0000

> <Gold.Chemscore.DEClash.Weighted>
0.0048

> <Gold.Chemscore.DEInternal.Weighted>
0.0495

> <Gold.Chemscore.Rot.Weighted>
4.8340

> <Gold.Chemscore.Internal.Correction.Weighted>
   9.000000E+99

> <Gold.Protein.RotatedTorsions>
[ 6907 6896 6895 6894 ] final  -36.83 input  -60.11 | X-H torsion
[ 7974 7965 7964 7962 ] final  114.91 input  175.53 | X-H torsion
[ 8008 7997 7996 7995 ] final -170.08 input   59.86 | X-H torsion
[ 10167 10162 10161 10158 ] final  124.48 input  -65.29 | X-H torsion
[ 10718 10713 10712 10709 ] final  -29.76 input   66.30 | X-H torsion
[ 10763 10752 10751 10750 ] final  151.18 input  -60.55 | X-H torsion
[ 11005 11000 10999 10996 ] final  -86.26 input  -57.11 | X-H torsion

> <Gold.Protein.ActiveResidues>
 VAL166  LYS551  ARG553  GLY616  TRP617  ASP618  TYR619  PRO620  LYS621  CYS622 
 ASP623  PHE694  ASN695  SER759  ASP760  ASP761  ALA762  ILE779  LEU786  VAL792 
 PHE793  MET794  SER795  GLU796  ALA797  LYS798  CYS799  TRP800  GLU811  SER814 

> <Gold.Protein.RotatedAtoms>
  151.0223  134.9478  159.8065 H   0  0  0  0  0  0  0  0  0  0  0  0  # atno 6907 bound_to 6896
  152.5328  134.2888  159.9045 H   0  0  0  0  0  0  0  0  0  0  0  0  # atno 6908 bound_to 6896
  151.2895  133.4130  159.2666 H   0  0  0  0  0  0  0  0  0  0  0  0  # atno 6909 bound_to 6896
  145.1985  139.2964  143.4331 H   0  0  0  0  0  0  0  0  0  0  0  0  # atno 7974 bound_to 7965
  155.9135  140.1061  157.1261 H   0  0  0  0  0  0  0  0  0  0  0  0  # atno 8008 bound_to 7997
  154.4043  140.1269  156.4653 H   0  0  0  0  0  0  0  0  0  0  0  0  # atno 8009 bound_to 7997
  155.7281  140.3469  155.5049 H   0  0  0  0  0  0  0  0  0  0  0  0  # atno 8010 bound_to 7997
  139.5739  144.6953  151.3704 H   0  0  0  0  0  0  0  0  0  0  0  0  # atno 10167 bound_to 10162
  156.4084  130.4403  149.7270 H   0  0  0  0  0  0  0  0  0  0  0  0  # atno 10718 bound_to 10713
  154.0996  135.2846  155.3254 H   0  0  0  0  0  0  0  0  0  0  0  0  # atno 10763 bound_to 10752
  154.6565  135.5350  153.7968 H   0  0  0  0  0  0  0  0  0  0  0  0  # atno 10764 bound_to 10752
  153.0384  135.6523  154.1160 H   0  0  0  0  0  0  0  0  0  0  0  0  # atno 10765 bound_to 10752
  141.1632  133.7445  156.9136 H   0  0  0  0  0  0  0  0  0  0  0  0  # atno 11005 bound_to 11000
  146.3422  140.2222  142.8591 LP  0  0  0  0  0  0  0  0  0  0  0  0  # atno 17320 bound_to 7965
  144.9971  140.8599  143.5304 LP  0  0  0  0  0  0  0  0  0  0  0  0  # atno 17321 bound_to 7965
  140.7023  143.7601  150.7423 LP  0  0  0  0  0  0  0  0  0  0  0  0  # atno 17342 bound_to 10162
  140.1115  143.4694  152.2367 LP  0  0  0  0  0  0  0  0  0  0  0  0  # atno 17343 bound_to 10162
  156.4259  130.7791  151.2810 LP  0  0  0  0  0  0  0  0  0  0  0  0  # atno 17370 bound_to 10713
  157.7506  131.0169  150.3562 LP  0  0  0  0  0  0  0  0  0  0  0  0  # atno 17371 bound_to 10713
  140.1500  134.9236  157.2580 LP  0  0  0  0  0  0  0  0  0  0  0  0  # atno 17394 bound_to 11000
  140.2734  134.3434  155.7366 LP  0  0  0  0  0  0  0  0  0  0  0  0  # atno 17395 bound_to 11000

$$$$
