AV-unprocessed.smi:481|AV-procd|sdf|2680|dock5
  -GOLD-   2262023103D 1   1.00000     0.00000
 Structure written by MMmdl.
 43 45  0  0  0  0  0  0  0  0  1 V2000
  153.5729  136.1198  165.2688 C   0  0  0  0  0  0  0  0  0  0  0  0
  153.9247  136.3307  163.9126 O   0  0  0  0  0  0  0  0  0  0  0  0
  154.0618  137.7052  163.5955 C   0  0  0  0  0  0  0  0  0  0  0  0
  155.5509  138.0703  163.6060 C   0  0  0  0  0  0  0  0  0  0  0  0
  155.7494  139.5153  163.6277 N   0  0  0  0  0  0  0  0  0  0  0  0
  155.2829  140.4321  162.7423 C   0  0  0  0  0  0  0  0  0  0  0  0
  154.5212  140.0170  161.6506 N   0  0  0  0  0  0  0  0  0  0  0  0
  154.0574  140.8932  160.7770 N   0  0  0  0  0  0  0  0  0  0  0  0
  153.3971  141.8817  161.2644 C   0  0  0  0  0  0  0  0  0  0  0  0
  152.8179  142.9356  160.4175 C   0  0  0  0  0  0  0  0  0  0  0  0
  152.4811  142.7053  159.0621 C   0  0  0  0  0  0  0  0  0  0  0  0
  151.9279  143.7382  158.2803 C   0  0  0  0  0  0  0  0  0  0  0  0
  151.7063  145.0087  158.8442 C   0  0  0  0  0  0  0  0  0  0  0  0
  152.0385  145.2459  160.1912 C   0  0  0  0  0  0  0  0  0  0  0  0
  152.5916  144.2137  160.9741 C   0  0  0  0  0  0  0  0  0  0  0  0
  155.6223  141.6975  163.0175 N   0  0  0  0  0  0  0  0  0  0  0  0
  156.3769  141.5689  164.1745 C   0  0  0  0  0  0  0  0  0  0  0  0
  156.4718  140.2690  164.5516 C   0  0  0  0  0  0  0  0  0  0  0  0
  157.2297  139.8442  165.7340 C   0  0  0  0  0  0  0  0  0  0  0  0
  157.3432  138.6700  166.0798 O   0  0  0  0  0  0  0  0  0  0  0  0
  157.7945  140.8804  166.4009 N   0  0  0  0  0  0  0  0  0  0  0  0
  157.7319  142.2101  166.0816 C   0  0  0  0  0  0  0  0  0  0  0  0
  158.3003  143.0354  166.7960 O   0  0  0  0  0  0  0  0  0  0  0  0
  157.0251  142.5631  164.9583 N   0  0  0  0  0  0  0  0  0  0  0  0
  156.9051  143.9559  164.5227 C   0  0  0  0  0  0  0  0  0  0  0  0
  158.3248  140.6443  167.2270 H   0  0  0  0  0  0  0  0  0  0  0  0
  153.4785  135.0510  165.4612 H   0  0  0  0  0  0  0  0  0  0  0  0
  152.6181  136.5901  165.5072 H   0  0  0  0  0  0  0  0  0  0  0  0
  154.3359  136.5159  165.9400 H   0  0  0  0  0  0  0  0  0  0  0  0
  153.6301  137.9080  162.6141 H   0  0  0  0  0  0  0  0  0  0  0  0
  153.5230  138.3120  164.3256 H   0  0  0  0  0  0  0  0  0  0  0  0
  156.0405  137.6253  164.4728 H   0  0  0  0  0  0  0  0  0  0  0  0
  156.0562  137.6514  162.7367 H   0  0  0  0  0  0  0  0  0  0  0  0
  154.3390  139.0301  161.5379 H   0  0  0  0  0  0  0  0  0  0  0  0
  153.2485  141.9621  162.3434 H   0  0  0  0  0  0  0  0  0  0  0  0
  152.6421  141.7383  158.6075 H   0  0  0  0  0  0  0  0  0  0  0  0
  151.6740  143.5548  157.2468 H   0  0  0  0  0  0  0  0  0  0  0  0
  151.2824  145.8004  158.2440 H   0  0  0  0  0  0  0  0  0  0  0  0
  151.8695  146.2206  160.6249 H   0  0  0  0  0  0  0  0  0  0  0  0
  152.8411  144.4127  162.0066 H   0  0  0  0  0  0  0  0  0  0  0  0
  157.4122  144.6702  165.1719 H   0  0  0  0  0  0  0  0  0  0  0  0
  155.8538  144.2428  164.4803 H   0  0  0  0  0  0  0  0  0  0  0  0
  157.3235  144.0693  163.5222 H   0  0  0  0  0  0  0  0  0  0  0  0
  1  2  1  0  0  0  0
  1 27  1  0  0  0  0
  1 28  1  0  0  0  0
  1 29  1  0  0  0  0
  2  3  1  0  0  0  0
  3  4  1  0  0  0  0
  3 30  1  0  0  0  0
  3 31  1  0  0  0  0
  4  5  1  0  0  0  0
  4 32  1  0  0  0  0
  4 33  1  0  0  0  0
  5 18  1  0  0  0  0
  5  6  1  0  0  0  0
  6  7  1  0  0  0  0
  6 16  2  0  0  0  0
  7  8  1  0  0  0  0
  7 34  1  0  0  0  0
  8  9  2  0  0  0  0
  9 10  1  0  0  0  0
  9 35  1  0  0  0  0
 10 15  1  0  0  0  0
 10 11  2  0  0  0  0
 11 12  1  0  0  0  0
 11 36  1  0  0  0  0
 12 13  2  0  0  0  0
 12 37  1  0  0  0  0
 13 14  1  0  0  0  0
 13 38  1  0  0  0  0
 14 15  2  0  0  0  0
 14 39  1  0  0  0  0
 15 40  1  0  0  0  0
 16 17  1  0  0  0  0
 17 24  1  0  0  0  0
 17 18  2  0  0  0  0
 18 19  1  0  0  0  0
 19 20  2  0  0  0  0
 19 21  1  0  0  0  0
 21 26  1  0  0  0  0
 21 22  1  0  0  0  0
 22 23  2  0  0  0  0
 22 24  1  0  0  0  0
 24 25  1  0  0  0  0
 25 41  1  0  0  0  0
 25 42  1  0  0  0  0
 25 43  1  0  0  0  0
M  END
> <s_m_source_file>
AV-unprocessed.smi

> <i_m_source_file_index>
481

> <i_lp_mmshare_version>
43012

> <i_f3d_flags>
0

> <s_epik_input>
W0NIM11uMWMoPU8pW25IXWMoPU8pYyhjMTIpbihbQ0gyXVtDSDJdT1tDSDNdKWMobjIpW05IXS9OPVtDSF0vYzNbY0hdW2NIXVtjSF1bY0hdW2NIXTM=

> <s_epik_cmdline>
J2VwaWtfcHl0aG9uJywgJy1waCcsICc3LjAnLCAnLXRuJywgJzgnLCAnLW1hJywgJzIwMCcsICctbWV0YWxfYmluZGluZycsICctaW1hZScsICc8aW5maWxlLm1hZT4nLCAnLW9tYWUnLCAnPG91dGZpbGUubWFlPic=

> <r_epik_Ionization_Penalty>
0.000595515

> <r_epik_Ionization_Penalty_Charging>
0.000305988

> <r_epik_Ionization_Penalty_Neutral>
0.000289528

> <r_epik_State_Penalty>
0.000184189

> <r_epik_Charging_Adjusted_Penalty>
0.000490177

> <i_epik_Tot_Q>
0

> <i_epik_Tot_abs_Q>
0

> <r_epik_Metal_State_Penalty>
0.173754

> <b_epik_Metal_Only>
0

> <s_epik_Chemistry_Notes>
This compound has an imine and may undergo hydrolysis.

> <s_lp_Force_Field>
OPLS_2005

> <r_lp_Energy>
32.4826

> <b_lp_Chiralities_Consistent>
1

> <s_lp_Variant>
AV-unprocessed.smi:481-1

> <Gold.Version>
5.8.1

> <Gold.Id.Protein>
6NUR|6NUR_protein|mol2

> <Gold.PLP.Fitness>
57.3236

> <Gold.PLP.PLP>
-58.7444

> <Gold.PLP.part.hbond>
-2.9519

> <Gold.PLP.part.metal>
0.0000

> <Gold.PLP.part.buried>
-7.1540

> <Gold.PLP.part.nonpolar>
-48.9665

> <Gold.PLP.part.repulsive>
0.2088

> <Gold.PLP.ligand.clash>
0.0000

> <Gold.PLP.ligand.torsion>
0.7145

> <Gold.PLP.Chemscore.Hbond>
0.0000

> <Gold.PLP.Chemscore.CHOScore>
0.0000

> <Gold.PLP.Chemscore.Metal>
0.0000

> <Gold.PLP.Chemscore.Internal.Correction>
0.0082

> <Gold.Rescore>
     Score         DG    S(hbond)    S(metal)    S(lipo)     H(rot)  DE(clash)    DE(int)     intcor
     11.83     -15.59       0.00        0.00     120.14       1.54       1.28       2.49       ----

> <Gold.Chemscore.Fitness>
11.8309

> <Gold.Chemscore.DG>
-15.5923

> <Gold.Chemscore.ZeroCoef>
-5.4800

> <Gold.Chemscore.Hbond>
0.0000

> <Gold.Chemscore.Metal>
0.0000

> <Gold.Chemscore.Lipo>
120.1390

> <Gold.Chemscore.Internal_Hbond>
0.0000

> <Gold.Chemscore.DEClash>
1.2757

> <Gold.Chemscore.DEInternal>
2.4857

> <Gold.Chemscore.Rot>
1.5406

> <Gold.Chemscore.Internal.Correction>
   9.000000E+99

> <Gold.Chemscore.Hbond.Weighted>
-0.0000

> <Gold.Chemscore.Metal.Weighted>
-0.0000

> <Gold.Chemscore.Lipo.Weighted>
-14.0563

> <Gold.Chemscore.Internal_Hbond.Weighted>
0.0000

> <Gold.Chemscore.DEClash.Weighted>
1.2757

> <Gold.Chemscore.DEInternal.Weighted>
2.4857

> <Gold.Chemscore.Rot.Weighted>
3.9440

> <Gold.Chemscore.Internal.Correction.Weighted>
   9.000000E+99

> <Gold.Protein.RotatedTorsions>
[ 6907 6896 6895 6894 ] final  -34.46 input  -60.11 | X-H torsion
[ 7974 7965 7964 7962 ] final  -74.30 input  175.53 | X-H torsion
[ 8008 7997 7996 7995 ] final   29.54 input   59.86 | X-H torsion
[ 10167 10162 10161 10158 ] final  172.66 input  -65.29 | X-H torsion
[ 10718 10713 10712 10709 ] final  -44.21 input   66.30 | X-H torsion
[ 10763 10752 10751 10750 ] final   15.55 input  -60.55 | X-H torsion
[ 11005 11000 10999 10996 ] final -153.50 input  -57.11 | X-H torsion

> <Gold.Protein.ActiveResidues>
 VAL166  LYS551  ARG553  GLY616  TRP617  ASP618  TYR619  PRO620  LYS621  CYS622 
 ASP623  PHE694  ASN695  SER759  ASP760  ASP761  ALA762  ILE779  LEU786  VAL792 
 PHE793  MET794  SER795  GLU796  ALA797  LYS798  CYS799  TRP800  GLU811  SER814 

> <Gold.Protein.RotatedAtoms>
  151.0523  134.9681  159.8217 H   0  0  0  0  0  0  0  0  0  0  0  0  # atno 6907 bound_to 6896
  152.5383  134.2521  159.8913 H   0  0  0  0  0  0  0  0  0  0  0  0  # atno 6908 bound_to 6896
  151.2537  133.4294  159.2646 H   0  0  0  0  0  0  0  0  0  0  0  0  # atno 6909 bound_to 6896
  145.6409  140.9311  143.1036 H   0  0  0  0  0  0  0  0  0  0  0  0  # atno 7974 bound_to 7965
  155.0761  140.3205  155.4615 H   0  0  0  0  0  0  0  0  0  0  0  0  # atno 8008 bound_to 7997
  156.2779  140.2103  156.5834 H   0  0  0  0  0  0  0  0  0  0  0  0  # atno 8009 bound_to 7997
  154.7016  140.0506  157.0450 H   0  0  0  0  0  0  0  0  0  0  0  0  # atno 8010 bound_to 7997
  139.5083  144.3349  152.0075 H   0  0  0  0  0  0  0  0  0  0  0  0  # atno 10167 bound_to 10162
  156.2410  130.4180  149.8761 H   0  0  0  0  0  0  0  0  0  0  0  0  # atno 10718 bound_to 10713
  153.1515  135.6779  153.8875 H   0  0  0  0  0  0  0  0  0  0  0  0  # atno 10763 bound_to 10752
  153.8300  135.3119  155.3419 H   0  0  0  0  0  0  0  0  0  0  0  0  # atno 10764 bound_to 10752
  154.7865  135.4859  154.0045 H   0  0  0  0  0  0  0  0  0  0  0  0  # atno 10765 bound_to 10752
  140.7074  134.3870  157.5202 H   0  0  0  0  0  0  0  0  0  0  0  0  # atno 11005 bound_to 11000
  144.7158  139.8204  143.7399 LP  0  0  0  0  0  0  0  0  0  0  0  0  # atno 17320 bound_to 7965
  146.1281  139.4311  143.0186 LP  0  0  0  0  0  0  0  0  0  0  0  0  # atno 17321 bound_to 7965
  140.2788  144.3883  150.6126 LP  0  0  0  0  0  0  0  0  0  0  0  0  # atno 17342 bound_to 10162
  140.6034  143.2167  151.7029 LP  0  0  0  0  0  0  0  0  0  0  0  0  # atno 17343 bound_to 10162
  156.6343  130.8678  151.3501 LP  0  0  0  0  0  0  0  0  0  0  0  0  # atno 17370 bound_to 10713
  157.7175  130.9516  150.1310 LP  0  0  0  0  0  0  0  0  0  0  0  0  # atno 17371 bound_to 10713
  139.8880  134.8866  156.2495 LP  0  0  0  0  0  0  0  0  0  0  0  0  # atno 17394 bound_to 11000
  141.0113  133.7094  156.1116 LP  0  0  0  0  0  0  0  0  0  0  0  0  # atno 17395 bound_to 11000

$$$$
