AV-unprocessed.smi:2412|AV-procd|sdf|9532|dock4
  -GOLD-   2272013163D 1   1.00000     0.00000
 Structure written by MMmdl.
 37 38  0  0  0  0  0  0  0  0  1 V2000
  147.0682  142.7850  154.0848 C   0  0  0  0  0  0  0  0  0  0  0  0
  147.6848  141.3971  154.0710 C   0  0  0  0  0  0  0  0  0  0  0  0
  147.0695  140.3616  153.3348 C   0  0  0  0  0  0  0  0  0  0  0  0
  147.5537  139.1045  153.2672 N   0  0  0  0  0  0  0  0  0  0  0  0
  148.6913  138.8326  153.9385 C   0  0  0  0  0  0  0  0  0  0  0  0
  149.3879  139.7883  154.7031 C   0  0  0  0  0  0  0  0  0  0  0  0
  148.8711  141.1040  154.7869 C   0  0  0  0  0  0  0  0  0  0  0  0
  149.5083  142.1492  155.5143 N   0  0  0  0  0  0  0  0  0  0  0  0
  150.6369  142.1030  156.2434 C   0  0  0  0  0  0  0  0  0  0  0  0
  151.3205  141.0982  156.4401 O   0  0  0  0  0  0  0  0  0  0  0  0
  150.9302  143.3065  156.7585 N   0  0  0  0  0  0  0  0  0  0  0  0
  152.1028  143.6067  157.5785 C   0  0  0  0  0  0  0  0  0  0  0  0
  151.7482  144.1238  158.9853 C   0  0  0  0  0  0  0  0  0  0  0  0
  151.0171  145.1078  159.1133 O   0  0  0  0  0  0  0  0  0  0  0  0
  152.2477  143.4633  160.0506 N   0  0  0  0  0  0  0  0  0  0  0  0
  153.1086  142.2817  159.9989 C   0  0  0  0  0  0  0  0  0  0  0  0
  153.5631  142.0364  161.4384 C   0  0  0  0  0  0  0  0  0  0  0  0
  152.4754  142.6763  162.2894 C   0  0  0  0  0  0  0  0  0  0  0  0
  151.9683  143.8383  161.4354 C   0  0  0  0  0  0  0  0  0  0  0  0
  146.1440  142.8142  153.5070 H   0  0  0  0  0  0  0  0  0  0  0  0
  147.7575  143.5121  153.6547 H   0  0  0  0  0  0  0  0  0  0  0  0
  146.8359  143.0888  155.1058 H   0  0  0  0  0  0  0  0  0  0  0  0
  146.1614  140.5457  152.7795 H   0  0  0  0  0  0  0  0  0  0  0  0
  149.0637  137.8221  153.8583 H   0  0  0  0  0  0  0  0  0  0  0  0
  150.3038  139.4970  155.1931 H   0  0  0  0  0  0  0  0  0  0  0  0
  149.0157  143.0299  155.5200 H   0  0  0  0  0  0  0  0  0  0  0  0
  150.3143  144.0781  156.5483 H   0  0  0  0  0  0  0  0  0  0  0  0
  152.6883  142.6925  157.6772 H   0  0  0  0  0  0  0  0  0  0  0  0
  152.7326  144.3321  157.0614 H   0  0  0  0  0  0  0  0  0  0  0  0
  152.5288  141.4336  159.6318 H   0  0  0  0  0  0  0  0  0  0  0  0
  153.9678  142.4192  159.3413 H   0  0  0  0  0  0  0  0  0  0  0  0
  153.7081  140.9790  161.6620 H   0  0  0  0  0  0  0  0  0  0  0  0
  154.5104  142.5477  161.6146 H   0  0  0  0  0  0  0  0  0  0  0  0
  151.6686  141.9595  162.4484 H   0  0  0  0  0  0  0  0  0  0  0  0
  152.8359  142.9962  163.2674 H   0  0  0  0  0  0  0  0  0  0  0  0
  152.5136  144.7536  161.6702 H   0  0  0  0  0  0  0  0  0  0  0  0
  150.9065  144.0224  161.6078 H   0  0  0  0  0  0  0  0  0  0  0  0
  1  2  1  0  0  0  0
  1 20  1  0  0  0  0
  1 21  1  0  0  0  0
  1 22  1  0  0  0  0
  2  7  1  0  0  0  0
  2  3  2  0  0  0  0
  3  4  1  0  0  0  0
  3 23  1  0  0  0  0
  4  5  2  0  0  0  0
  5  6  1  0  0  0  0
  5 24  1  0  0  0  0
  6  7  2  0  0  0  0
  6 25  1  0  0  0  0
  7  8  1  0  0  0  0
  8  9  1  0  0  0  0
  8 26  1  0  0  0  0
  9 10  2  0  0  0  0
  9 11  1  0  0  0  0
 11 12  1  0  0  0  0
 11 27  1  0  0  0  0
 12 13  1  0  0  0  0
 12 28  1  0  0  0  0
 12 29  1  0  0  0  0
 13 14  2  0  0  0  0
 13 15  1  0  0  0  0
 15 19  1  0  0  0  0
 15 16  1  0  0  0  0
 16 17  1  0  0  0  0
 16 30  1  0  0  0  0
 16 31  1  0  0  0  0
 17 18  1  0  0  0  0
 17 32  1  0  0  0  0
 17 33  1  0  0  0  0
 18 19  1  0  0  0  0
 18 34  1  0  0  0  0
 18 35  1  0  0  0  0
 19 36  1  0  0  0  0
 19 37  1  0  0  0  0
M  END
> <s_m_source_file>
AV-unprocessed.smi

> <i_m_source_file_index>
2412

> <i_lp_mmshare_version>
43012

> <i_f3d_flags>
0

> <s_epik_input>
W0NIM11jMVtjSF1uW2NIXVtjSF1jMVtOSF1DKD1PKVtOSF1bQ0gyXUMoPU8pTjJbQ0gyXVtDSDJdW0NIMl1bQ0gyXTI=

> <s_epik_cmdline>
J2VwaWtfcHl0aG9uJywgJy1waCcsICc3LjAnLCAnLXRuJywgJzgnLCAnLW1hJywgJzIwMCcsICctbWV0YWxfYmluZGluZycsICctaW1hZScsICc8aW5maWxlLm1hZT4nLCAnLW9tYWUnLCAnPG91dGZpbGUubWFlPic=

> <r_epik_Ionization_Penalty>
0.157619

> <r_epik_Ionization_Penalty_Charging>
0

> <r_epik_Ionization_Penalty_Neutral>
0.157619

> <r_epik_State_Penalty>
0.146889

> <r_epik_Charging_Adjusted_Penalty>
0.146889

> <i_epik_Tot_Q>
0

> <i_epik_Tot_abs_Q>
0

> <r_epik_Metal_State_Penalty>
0.115729

> <b_epik_Metal_Only>
0

> <s_lp_Force_Field>
OPLS_2005

> <r_lp_Energy>
29.7149

> <b_lp_Chiralities_Consistent>
1

> <s_lp_Variant>
AV-unprocessed.smi:2412-1

> <Gold.Version>
5.8.1

> <Gold.Id.Protein>
6NUR|6NUR_protein|mol2

> <Gold.PLP.Fitness>
57.9044

> <Gold.PLP.PLP>
-45.9408

> <Gold.PLP.part.hbond>
-2.0000

> <Gold.PLP.part.metal>
0.0000

> <Gold.PLP.part.buried>
-3.6141

> <Gold.PLP.part.nonpolar>
-40.7246

> <Gold.PLP.part.repulsive>
1.3586

> <Gold.PLP.ligand.clash>
0.0000

> <Gold.PLP.ligand.torsion>
0.0189

> <Gold.PLP.Chemscore.Hbond>
2.0000

> <Gold.PLP.Chemscore.CHOScore>
2.0000

> <Gold.PLP.Chemscore.Metal>
0.0000

> <Gold.Chemscore.Hbonds>
donor molecule, donor type, donor heavy atom, donor atom, acceptor molecule, acceptor atom, score
      L1  H     8    26       P1  8028  1.00
      L1  H    11    27       P1  8028  1.00
      L1  C     3    23       P1 10175  1.00
      L1  C     5    24       P1  7948  0.96

> <Gold.PLP.Chemscore.Internal.Correction>
0.0014

> <Gold.Rescore>
     Score         DG    S(hbond)    S(metal)    S(lipo)     H(rot)  DE(clash)    DE(int)     intcor
     18.21     -19.64       1.90        0.00      94.57       1.26       0.18       1.25       ----

> <Gold.Chemscore.Fitness>
18.2117

> <Gold.Chemscore.DG>
-19.6440

> <Gold.Chemscore.ZeroCoef>
-5.4800

> <Gold.Chemscore.Hbond>
1.8963

> <Gold.Chemscore.Metal>
0.0000

> <Gold.Chemscore.Lipo>
94.5680

> <Gold.Chemscore.Internal_Hbond>
0.0000

> <Gold.Chemscore.DEClash>
0.1775

> <Gold.Chemscore.DEInternal>
1.2548

> <Gold.Chemscore.Rot>
1.2633

> <Gold.Chemscore.Internal.Correction>
   9.000000E+99

> <Gold.Chemscore.Hbonds>
donor molecule, donor type, donor heavy atom, donor atom, acceptor molecule, acceptor atom, score
      L1  H     8    26       P1  8028  0.98
      L1  H    11    27       P1  8028  0.95

> <Gold.Chemscore.Hbond.Weighted>
-6.3337

> <Gold.Chemscore.Metal.Weighted>
-0.0000

> <Gold.Chemscore.Lipo.Weighted>
-11.0645

> <Gold.Chemscore.Internal_Hbond.Weighted>
0.0000

> <Gold.Chemscore.DEClash.Weighted>
0.1775

> <Gold.Chemscore.DEInternal.Weighted>
1.2548

> <Gold.Chemscore.Rot.Weighted>
3.2341

> <Gold.Chemscore.Internal.Correction.Weighted>
   9.000000E+99

> <Gold.Protein.RotatedTorsions>
[ 6907 6896 6895 6894 ] final  -53.84 input  -60.11 | X-H torsion
[ 7974 7965 7964 7962 ] final  -38.13 input  175.53 | X-H torsion
[ 8008 7997 7996 7995 ] final   31.93 input   59.86 | X-H torsion
[ 10167 10162 10161 10158 ] final  -43.22 input  -65.29 | X-H torsion
[ 10718 10713 10712 10709 ] final  101.41 input   66.30 | X-H torsion
[ 10763 10752 10751 10750 ] final  -60.22 input  -60.55 | X-H torsion
[ 11005 11000 10999 10996 ] final   88.12 input  -57.11 | X-H torsion

> <Gold.Protein.ActiveResidues>
 VAL166  LYS551  ARG553  GLY616  TRP617  ASP618  TYR619  PRO620  LYS621  CYS622 
 ASP623  PHE694  ASN695  SER759  ASP760  ASP761  ALA762  ILE779  LEU786  VAL792 
 PHE793  MET794  SER795  GLU796  ALA797  LYS798  CYS799  TRP800  GLU811  SER814 

> <Gold.Protein.RotatedAtoms>
  150.8390  134.7675  159.6916 H   0  0  0  0  0  0  0  0  0  0  0  0  # atno 6907 bound_to 6896
  152.4481  134.5448  159.9859 H   0  0  0  0  0  0  0  0  0  0  0  0  # atno 6908 bound_to 6896
  151.5591  133.3368  159.3003 H   0  0  0  0  0  0  0  0  0  0  0  0  # atno 6909 bound_to 6896
  146.0513  140.6477  142.9040 H   0  0  0  0  0  0  0  0  0  0  0  0  # atno 7974 bound_to 7965
  155.1144  140.3242  155.4513 H   0  0  0  0  0  0  0  0  0  0  0  0  # atno 8008 bound_to 7997
  156.2681  140.2038  156.6215 H   0  0  0  0  0  0  0  0  0  0  0  0  # atno 8009 bound_to 7997
  154.6731  140.0534  157.0174 H   0  0  0  0  0  0  0  0  0  0  0  0  # atno 8010 bound_to 7997
  140.6942  143.2995  151.3320 H   0  0  0  0  0  0  0  0  0  0  0  0  # atno 10167 bound_to 10162
  157.6830  131.0725  150.5248 H   0  0  0  0  0  0  0  0  0  0  0  0  # atno 10718 bound_to 10713
  154.2658  135.6299  153.5291 H   0  0  0  0  0  0  0  0  0  0  0  0  # atno 10763 bound_to 10752
  152.9888  135.5598  154.5654 H   0  0  0  0  0  0  0  0  0  0  0  0  # atno 10764 bound_to 10752
  154.5213  135.2882  155.1235 H   0  0  0  0  0  0  0  0  0  0  0  0  # atno 10765 bound_to 10752
  139.8904  134.8467  156.2955 H   0  0  0  0  0  0  0  0  0  0  0  0  # atno 11005 bound_to 11000
  144.7124  140.4088  143.7070 LP  0  0  0  0  0  0  0  0  0  0  0  0  # atno 17320 bound_to 7965
  145.6719  139.1601  143.2750 LP  0  0  0  0  0  0  0  0  0  0  0  0  # atno 17321 bound_to 7965
  139.6377  144.0599  152.2529 LP  0  0  0  0  0  0  0  0  0  0  0  0  # atno 17342 bound_to 10162
  140.0094  144.6235  150.7660 LP  0  0  0  0  0  0  0  0  0  0  0  0  # atno 17343 bound_to 10162
  156.5560  130.4243  149.6085 LP  0  0  0  0  0  0  0  0  0  0  0  0  # atno 17370 bound_to 10713
  156.2862  130.7098  151.1936 LP  0  0  0  0  0  0  0  0  0  0  0  0  # atno 17371 bound_to 10713
  140.9948  133.7187  156.0868 LP  0  0  0  0  0  0  0  0  0  0  0  0  # atno 17394 bound_to 11000
  140.7577  134.3974  157.5531 LP  0  0  0  0  0  0  0  0  0  0  0  0  # atno 17395 bound_to 11000

$$$$
