#       Name:                AV-unprocessed.smi:3255
#       Creating user name   scv26
#       Creation time:       Fri Mar 27 18:36:01 2020


#       File generated by GOLD software.
#

@<TRIPOS>MOLECULE
AV-unprocessed.smi:3255
    43    44     1
SMALL
NO_CHARGES


@<TRIPOS>ATOM
      1 ****        -2.3017  -1.6540  -2.5101 C.3            1 S1                 0.0000
      2 ****        -1.6337  -0.7715  -1.4456 C.3            1 S1                 0.0000
      3 ****        -0.1826  -0.9144  -1.5561 N.am           1 S1                 0.0000
      4 ****         0.7038   0.0914  -1.5461 C.2            1 S1                 0.0000
      5 ****         0.3993   1.2817  -1.4684 O.2            1 S1                 0.0000
      6 ****         1.9656  -0.3576  -1.6033 N.am           1 S1                 0.0000
      7 ****         3.1584   0.4821  -1.5350 C.3            1 S1                 0.0000
      8 ****         3.7222   0.5689  -0.1040 C.3            1 S1                 0.0000
      9 ****         2.8310   1.2588   0.8109 N.pl3          1 S1                 0.0000
     10 ****         2.0812   0.6949   1.8351 C.2            1 S1                 0.0000
     11 ****         1.3844   1.7248   2.4256 C.2            1 S1                 0.0000
     12 ****         1.6960   2.9253   1.7920 N.2            1 S1                 0.0000
     13 ****         2.5598   2.5708   0.8492 C.2            1 S1                 0.0000
     14 ****        -2.1066  -1.1311  -0.0210 C.3            1 S1                 0.0000
     15 ****        -1.4506  -0.3257   1.1047 C.3            1 S1                 0.0000
     16 ****        -2.5008  -0.3905   2.1880 C.3            1 S1                 0.0000
     17 ****        -3.7816  -0.2637   1.3718 C.3            1 S1                 0.0000
     18 ****        -3.5052  -0.8836   0.1188 O.3            1 S1                 0.0000
     19 ****        -3.3866  -1.5484  -2.4854 H              1 S1                 0.0000
     20 ****        -2.0671  -2.7081  -2.3581 H              1 S1                 0.0000
     21 ****        -1.9697  -1.3790  -3.5117 H              1 S1                 0.0000
     22 ****        -1.9195   0.2618  -1.6504 H              1 S1                 0.0000
     23 ****         0.1731  -1.8570  -1.6212 H              1 S1                 0.0000
     24 ****         2.1133  -1.3541  -1.6678 H              1 S1                 0.0000
     25 ****         3.9088   0.0386  -2.1894 H              1 S1                 0.0000
     26 ****         2.9629   1.4791  -1.9339 H              1 S1                 0.0000
     27 ****         3.9266  -0.4288   0.2866 H              1 S1                 0.0000
     28 ****         4.6736   1.1019  -0.1133 H              1 S1                 0.0000
     29 ****         2.0973  -0.3639   2.0478 H              1 S1                 0.0000
     30 ****         0.6885   1.6937   3.2510 H              1 S1                 0.0000
     31 ****         3.0002   3.2810   0.1648 H              1 S1                 0.0000
     32 ****        -1.9427  -2.1930   0.1696 H              1 S1                 0.0000
     33 ****        -0.4907  -0.7373   1.4167 H              1 S1                 0.0000
     34 ****        -1.2967   0.7111   0.8014 H              1 S1                 0.0000
     35 ****        -2.4648  -1.3587   2.6892 H              1 S1                 0.0000
     36 ****        -2.3927   0.3916   2.9399 H              1 S1                 0.0000
     37 ****        -4.6390  -0.7221   1.8651 H              1 S1                 0.0000
     38 ****        -4.0147   0.7866   1.1930 H              1 S1                 0.0000
     39 ****        -0.5624   1.5488  -1.4075 LP             1 S1                 0.0000
     40 ****         1.1137   1.9814  -1.4662 LP             1 S1                 0.0000
     41 ****         1.3498   3.8403   1.9991 LP             1 S1                 0.0000
     42 ****        -3.9995  -1.7512   0.0651 LP             1 S1                 0.0000
     43 ****        -3.8079  -0.2813  -0.6198 LP             1 S1                 0.0000
@<TRIPOS>BOND
    1    1    2 1     
    2    1   19 1     
    3    1   20 1     
    4    1   21 1     
    5    2    3 1     
    6    2   14 1     
    7    2   22 1     
    8    3    4 am    
    9    3   23 1     
   10    4    5 2     
   11    4    6 am    
   12    6    7 1     
   13    6   24 1     
   14    7    8 1     
   15    7   25 1     
   16    7   26 1     
   17    8    9 1     
   18    8   27 1     
   19    8   28 1     
   20    9   13 1     
   21    9   10 1     
   22   10   11 2     
   23   10   29 1     
   24   11   12 1     
   25   11   30 1     
   26   12   13 2     
   27   13   31 1     
   28   14   18 1     
   29   14   15 1     
   30   14   32 1     
   31   15   16 1     
   32   15   33 1     
   33   15   34 1     
   34   16   17 1     
   35   16   35 1     
   36   16   36 1     
   37   17   18 1     
   38   17   37 1     
   39   17   38 1     
   40    5   39 1     
   41    5   40 1     
   42   12   41 1     
   43   18   42 1     
   44   18   43 1     
@<TRIPOS>SUBSTRUCTURE
      1 S1             1
@<TRIPOS>SET
LONE_PAIRS      STATIC     ATOMS    <user>   **** ""
5 39 40 41 42 43
DONOR_HYDROGENS      STATIC     ATOMS    <user>   **** ""
2 23 24
ATOM$BLUE        STATIC     ATOMS    COLORGROUP SYSTEM
5 39 40 41 42 43
ATOM$RED        STATIC     ATOMS    COLORGROUP SYSTEM
2 23 24
