AV-unprocessed.smi:322|AV-procd|sdf|2337|dock1
  -GOLD-   2262022243D 1   1.00000     0.00000
 Structure written by MMmdl.
 44 46  0  0  0  0  0  0  0  0  2 V2000
  149.8192  140.8793  153.4856 O   0  0  0  0  0  0  0  0  0  0  0  0
  149.3882  140.4554  154.7597 C   0  0  0  0  0  0  0  0  0  0  0  0
  150.1684  141.0912  155.8624 C   0  0  0  0  0  0  0  0  0  0  0  0
  150.1539  142.4145  156.1888 N   0  3  0  0  0  0  0  0  0  0  0  0
  150.9999  142.6431  157.2748 C   0  0  0  0  0  0  0  0  0  0  0  0
  151.3126  143.8149  157.9569 C   0  0  0  0  0  0  0  0  0  0  0  0
  152.2200  143.6990  159.0304 C   0  0  0  0  0  0  0  0  0  0  0  0
  152.7787  142.4548  159.3893 C   0  0  0  0  0  0  0  0  0  0  0  0
  152.4537  141.2734  158.6904 C   0  0  0  0  0  0  0  0  0  0  0  0
  151.5567  141.3976  157.6301 C   0  0  0  0  0  0  0  0  0  0  0  0
  151.0177  140.4706  156.7318 N   0  0  0  0  0  0  0  0  0  0  0  0
  151.4062  139.0559  156.8449 C   0  0  0  0  0  0  0  0  0  0  0  0
  150.9586  138.4143  158.1732 C   0  0  2  0  0  0  0  0  0  0  0  0
  152.1022  137.9535  158.8659 O   0  0  0  0  0  0  0  0  0  0  0  0
  150.0112  137.2272  157.9456 C   0  0  0  0  0  0  0  0  0  0  0  0
  149.8466  136.5303  159.1725 O   0  0  0  0  0  0  0  0  0  0  0  0
  148.6212  136.8125  159.8333 C   0  0  0  0  0  0  0  0  0  0  0  0
  147.9348  135.5710  160.3774 C   0  0  0  0  0  0  0  0  0  0  0  0
  147.5839  135.4968  161.7420 C   0  0  0  0  0  0  0  0  0  0  0  0
  146.9417  134.3495  162.2468 C   0  0  0  0  0  0  0  0  0  0  0  0
  146.6416  133.2745  161.3875 C   0  0  0  0  0  0  0  0  0  0  0  0
  145.8546  131.8688  162.0051 Cl  0  0  0  0  0  0  0  0  0  0  0  0
  146.9830  133.3485  160.0228 C   0  0  0  0  0  0  0  0  0  0  0  0
  147.6261  134.4956  159.5180 C   0  0  0  0  0  0  0  0  0  0  0  0
  149.6581  140.1835  152.8664 H   0  0  0  0  0  0  0  0  0  0  0  0
  148.3301  140.6893  154.8773 H   0  0  0  0  0  0  0  0  0  0  0  0
  149.4856  139.3714  154.8251 H   0  0  0  0  0  0  0  0  0  0  0  0
  150.8862  144.7691  157.6839 H   0  0  0  0  0  0  0  0  0  0  0  0
  152.4932  144.5820  159.5900 H   0  0  0  0  0  0  0  0  0  0  0  0
  153.4707  142.4051  160.2174 H   0  0  0  0  0  0  0  0  0  0  0  0
  152.8872  140.3251  158.9718 H   0  0  0  0  0  0  0  0  0  0  0  0
  150.9890  138.5186  155.9922 H   0  0  0  0  0  0  0  0  0  0  0  0
  152.4903  138.9970  156.7409 H   0  0  0  0  0  0  0  0  0  0  0  0
  150.4574  139.1651  158.7849 H   0  0  0  0  0  0  0  0  0  0  0  0
  152.7864  137.7891  158.2356 H   0  0  0  0  0  0  0  0  0  0  0  0
  149.0327  137.5927  157.6301 H   0  0  0  0  0  0  0  0  0  0  0  0
  150.3837  136.5788  157.1506 H   0  0  0  0  0  0  0  0  0  0  0  0
  148.8383  137.4697  160.6755 H   0  0  0  0  0  0  0  0  0  0  0  0
  147.9543  137.3680  159.1719 H   0  0  0  0  0  0  0  0  0  0  0  0
  147.8104  136.3186  162.4055 H   0  0  0  0  0  0  0  0  0  0  0  0
  146.6788  134.2964  163.2931 H   0  0  0  0  0  0  0  0  0  0  0  0
  146.7516  132.5266  159.3615 H   0  0  0  0  0  0  0  0  0  0  0  0
  147.8833  134.5451  158.4701 H   0  0  0  0  0  0  0  0  0  0  0  0
  149.5999  143.1081  155.7033 H   0  0  0  0  0  0  0  0  0  0  0  0
  1  2  1  0  0  0  0
  1 25  1  0  0  0  0
  2  3  1  0  0  0  0
  2 26  1  0  0  0  0
  2 27  1  0  0  0  0
  3 11  1  0  0  0  0
  3  4  2  0  0  0  0
  4  5  1  0  0  0  0
  4 44  1  0  0  0  0
  5 10  2  0  0  0  0
  5  6  1  0  0  0  0
  6  7  2  0  0  0  0
  6 28  1  0  0  0  0
  7  8  1  0  0  0  0
  7 29  1  0  0  0  0
  8  9  2  0  0  0  0
  8 30  1  0  0  0  0
  9 10  1  0  0  0  0
  9 31  1  0  0  0  0
 10 11  1  0  0  0  0
 11 12  1  0  0  0  0
 12 13  1  0  0  0  0
 12 32  1  0  0  0  0
 12 33  1  0  0  0  0
 13 14  1  0  0  0  0
 13 15  1  0  0  0  0
 13 34  1  0  0  0  0
 14 35  1  0  0  0  0
 15 16  1  0  0  0  0
 15 36  1  0  0  0  0
 15 37  1  0  0  0  0
 16 17  1  0  0  0  0
 17 18  1  0  0  0  0
 17 38  1  0  0  0  0
 17 39  1  0  0  0  0
 18 24  1  0  0  0  0
 18 19  2  0  0  0  0
 19 20  1  0  0  0  0
 19 40  1  0  0  0  0
 20 21  2  0  0  0  0
 20 41  1  0  0  0  0
 21 22  1  0  0  0  0
 21 23  1  0  0  0  0
 23 24  2  0  0  0  0
 23 42  1  0  0  0  0
 24 43  1  0  0  0  0
M  CHG  1   4   1
M  END
> <s_m_source_file>
AV-unprocessed.smi

> <i_m_source_file_index>
322

> <i_lp_mmshare_version>
43012

> <i_f3d_flags>
0

> <s_epik_input>
W2NIXTFbY0hdW2NIXVtjSF1jKGMxMiluKGMobjIpW0NIMl1bT0hdKVtDSDJdW0NASF0oW09IXSlbQ0gyXU9bQ0gyXWMzW2NIXVtjSF1jKENsKVtjSF1bY0hdMw==

> <s_epik_cmdline>
J2VwaWtfcHl0aG9uJywgJy1waCcsICc3LjAnLCAnLXRuJywgJzgnLCAnLW1hJywgJzIwMCcsICctbWV0YWxfYmluZGluZycsICctaW1hZScsICc8aW5maWxlLm1hZT4nLCAnLW9tYWUnLCAnPG91dGZpbGUubWFlPic=

> <r_epik_Ionization_Penalty>
1.34314

> <r_epik_Ionization_Penalty_Charging>
1.34228

> <r_epik_Ionization_Penalty_Neutral>
0.000856898

> <r_epik_State_Penalty>
1.41963

> <r_epik_Charging_Adjusted_Penalty>
2.76191

> <i_epik_Tot_Q>
1

> <i_epik_Tot_abs_Q>
1

> <r_epik_Metal_State_Penalty>
5.45585

> <b_epik_Metal_Only>
0

> <s_lp_Force_Field>
OPLS_2005

> <r_lp_Energy>
17.7001

> <b_lp_Chiralities_Consistent>
1

> <s_lp_Variant>
AV-unprocessed.smi:322-3

> <Gold.Version>
5.8.1

> <Gold.Id.Protein>
6NUR|6NUR_protein|mol2

> <Gold.PLP.Fitness>
60.8834

> <Gold.PLP.PLP>
-48.3859

> <Gold.PLP.part.hbond>
-4.6800

> <Gold.PLP.part.metal>
0.0000

> <Gold.PLP.part.buried>
-5.3444

> <Gold.PLP.part.nonpolar>
-38.7390

> <Gold.PLP.part.repulsive>
0.1031

> <Gold.PLP.ligand.clash>
0.0000

> <Gold.PLP.ligand.torsion>
1.5067

> <Gold.PLP.Chemscore.Hbond>
5.0240

> <Gold.PLP.Chemscore.CHOScore>
0.0000

> <Gold.PLP.Chemscore.Metal>
0.0000

> <Gold.Chemscore.Hbonds>
donor molecule, donor type, donor heavy atom, donor atom, acceptor molecule, acceptor atom, score
      L1  H     1    25       P1  7957  0.72
      L1  H     4    44       P1  8028  1.98
      P1  H  6896  6907       L1    16  1.00
      P1  H  7989  7998       L1     1  0.30
      P1  H  8011  8017       L1     1  1.00

> <Gold.PLP.Chemscore.Internal.Correction>
0.4388

> <Gold.Rescore>
     Score         DG    S(hbond)    S(metal)    S(lipo)     H(rot)  DE(clash)    DE(int)     intcor
     20.78     -22.28       3.05        0.00     127.28       3.24       0.00       1.50       ----

> <Gold.Chemscore.Fitness>
20.7811

> <Gold.Chemscore.DG>
-22.2830

> <Gold.Chemscore.ZeroCoef>
-5.4800

> <Gold.Chemscore.Hbond>
3.0542

> <Gold.Chemscore.Metal>
0.0000

> <Gold.Chemscore.Lipo>
127.2810

> <Gold.Chemscore.Internal_Hbond>
0.0000

> <Gold.Chemscore.DEClash>
0.0038

> <Gold.Chemscore.DEInternal>
1.4981

> <Gold.Chemscore.Rot>
3.2383

> <Gold.Chemscore.Internal.Correction>
   9.000000E+99

> <Gold.Chemscore.Hbonds>
donor molecule, donor type, donor heavy atom, donor atom, acceptor molecule, acceptor atom, score
      L1  H     1    25       P1  7957  0.72
      L1  H     4    44       P1  8028  0.94
      P1  H  6896  6907       L1    16  0.93
      P1  H  7989  7998       L1     1  0.05
      P1  H  8011  8017       L1     1  0.29

> <Gold.Chemscore.Hbond.Weighted>
-10.2012

> <Gold.Chemscore.Metal.Weighted>
-0.0000

> <Gold.Chemscore.Lipo.Weighted>
-14.8919

> <Gold.Chemscore.Internal_Hbond.Weighted>
0.0000

> <Gold.Chemscore.DEClash.Weighted>
0.0038

> <Gold.Chemscore.DEInternal.Weighted>
1.4981

> <Gold.Chemscore.Rot.Weighted>
8.2901

> <Gold.Chemscore.Internal.Correction.Weighted>
   9.000000E+99

> <Gold.Protein.RotatedTorsions>
[ 6907 6896 6895 6894 ] final  -44.08 input  -60.11 | X-H torsion
[ 7974 7965 7964 7962 ] final -109.85 input  175.53 | X-H torsion
[ 8008 7997 7996 7995 ] final -140.86 input   59.86 | X-H torsion
[ 10167 10162 10161 10158 ] final   15.98 input  -65.29 | X-H torsion
[ 10718 10713 10712 10709 ] final  126.79 input   66.30 | X-H torsion
[ 10763 10752 10751 10750 ] final -104.79 input  -60.55 | X-H torsion
[ 11005 11000 10999 10996 ] final  109.19 input  -57.11 | X-H torsion

> <Gold.Protein.ActiveResidues>
 VAL166  LYS551  ARG553  GLY616  TRP617  ASP618  TYR619  PRO620  LYS621  CYS622 
 ASP623  PHE694  ASN695  SER759  ASP760  ASP761  ALA762  ILE779  LEU786  VAL792 
 PHE793  MET794  SER795  GLU796  ALA797  LYS798  CYS799  TRP800  GLU811  SER814 

> <Gold.Protein.RotatedAtoms>
  150.9368  134.8779  159.7586 H   0  0  0  0  0  0  0  0  0  0  0  0  # atno 6907 bound_to 6896
  152.5062  134.4000  159.9423 H   0  0  0  0  0  0  0  0  0  0  0  0  # atno 6908 bound_to 6896
  151.4023  133.3713  159.2768 H   0  0  0  0  0  0  0  0  0  0  0  0  # atno 6909 bound_to 6896
  145.1755  140.8946  143.3510 H   0  0  0  0  0  0  0  0  0  0  0  0  # atno 7974 bound_to 7965
  155.4684  140.0551  157.2982 H   0  0  0  0  0  0  0  0  0  0  0  0  # atno 8008 bound_to 7997
  154.4708  140.2039  155.9953 H   0  0  0  0  0  0  0  0  0  0  0  0  # atno 8009 bound_to 7997
  156.1053  140.3212  155.8002 H   0  0  0  0  0  0  0  0  0  0  0  0  # atno 8010 bound_to 7997
  140.5829  143.8945  150.6805 H   0  0  0  0  0  0  0  0  0  0  0  0  # atno 10167 bound_to 10162
  157.5388  131.1097  150.8892 H   0  0  0  0  0  0  0  0  0  0  0  0  # atno 10718 bound_to 10713
  154.7903  135.4773  154.0037 H   0  0  0  0  0  0  0  0  0  0  0  0  # atno 10763 bound_to 10752
  153.1620  135.6810  153.8735 H   0  0  0  0  0  0  0  0  0  0  0  0  # atno 10764 bound_to 10752
  153.8346  135.3187  155.3399 H   0  0  0  0  0  0  0  0  0  0  0  0  # atno 10765 bound_to 10752
  139.8857  134.9451  156.6088 H   0  0  0  0  0  0  0  0  0  0  0  0  # atno 11005 bound_to 11000
  145.0189  139.3442  143.6082 LP  0  0  0  0  0  0  0  0  0  0  0  0  # atno 17320 bound_to 7965
  146.3462  139.9482  142.8732 LP  0  0  0  0  0  0  0  0  0  0  0  0  # atno 17321 bound_to 7965
  140.2449  143.3636  152.1455 LP  0  0  0  0  0  0  0  0  0  0  0  0  # atno 17342 bound_to 10162
  139.5180  144.7000  151.5520 LP  0  0  0  0  0  0  0  0  0  0  0  0  # atno 17343 bound_to 10162
  156.9450  130.5399  149.5281 LP  0  0  0  0  0  0  0  0  0  0  0  0  # atno 17370 bound_to 10713
  156.0480  130.5554  150.8925 LP  0  0  0  0  0  0  0  0  0  0  0  0  # atno 17371 bound_to 10713
  140.7827  133.8647  155.8581 LP  0  0  0  0  0  0  0  0  0  0  0  0  # atno 17394 bound_to 11000
  140.9746  134.1486  157.4547 LP  0  0  0  0  0  0  0  0  0  0  0  0  # atno 17395 bound_to 11000

$$$$
