AV-unprocessed.smi:253|AV-procd|sdf|1944|dock8
  -GOLD-   2262021 73D 1   1.00000     0.00000
 Structure written by MMmdl.
 52 54  0  0  0  0  0  0  0  0  1 V2000
  153.2102  138.4759  155.0436 C   0  0  0  0  0  0  0  0  0  0  0  0
  151.9720  138.1688  154.1919 C   0  0  0  0  0  0  0  0  0  0  0  0
  150.7512  138.2234  154.9861 N   0  0  0  0  0  0  0  0  0  0  0  0
  149.8560  139.2258  154.9686 C   0  0  0  0  0  0  0  0  0  0  0  0
  149.9867  140.2235  154.2604 O   0  0  0  0  0  0  0  0  0  0  0  0
  148.6233  139.1143  155.8789 C   0  0  0  0  0  0  0  0  0  0  0  0
  147.8036  137.9186  155.6353 N   0  0  0  0  0  0  0  0  0  0  0  0
  147.1700  137.2682  156.7831 C   0  0  0  0  0  0  0  0  0  0  0  0
  147.8618  137.5779  158.1212 C   0  0  0  0  0  0  0  0  0  0  0  0
  147.2045  137.8755  154.4180 C   0  0  0  0  0  0  0  0  0  0  0  0
  147.5103  138.8680  153.5435 N   0  0  0  0  0  0  0  0  0  0  0  0
  146.9588  138.8896  152.3272 C   0  0  0  0  0  0  0  0  0  0  0  0
  146.0854  138.0350  151.7926 N   0  0  0  0  0  0  0  0  0  0  0  0
  145.7604  137.0445  152.6719 C   0  0  0  0  0  0  0  0  0  0  0  0
  146.2666  136.8888  153.9942 C   0  0  0  0  0  0  0  0  0  0  0  0
  145.6910  135.7697  154.5857 N   0  0  0  0  0  0  0  0  0  0  0  0
  144.9012  135.2882  153.6656 C   0  0  0  0  0  0  0  0  0  0  0  0
  144.8767  135.9959  152.4859 N   0  0  0  0  0  0  0  0  0  0  0  0
  144.0866  135.6908  151.3027 C   0  0  0  0  0  0  0  0  0  0  0  0
  144.4345  134.3301  150.6495 C   0  0  0  0  0  0  0  0  0  0  0  0
  143.9854  134.3723  149.3057 O   0  0  0  0  0  0  0  0  0  0  0  0
  145.9515  134.0395  150.6480 C   0  0  0  0  0  0  0  0  0  0  0  0
  146.2661  132.6051  150.1874 C   0  0  0  0  0  0  0  0  0  0  0  0
  145.5566  131.6669  150.9871 O   0  0  0  0  0  0  0  0  0  0  0  0
  144.1455  131.7989  150.8679 C   0  0  0  0  0  0  0  0  0  0  0  0
  143.7014  133.1831  151.3734 C   0  0  0  0  0  0  0  0  0  0  0  0
  154.1194  138.3949  154.4477 H   0  0  0  0  0  0  0  0  0  0  0  0
  153.2967  137.7799  155.8784 H   0  0  0  0  0  0  0  0  0  0  0  0
  153.1705  139.4863  155.4512 H   0  0  0  0  0  0  0  0  0  0  0  0
  151.9084  138.8589  153.3494 H   0  0  0  0  0  0  0  0  0  0  0  0
  152.0558  137.1683  153.7675 H   0  0  0  0  0  0  0  0  0  0  0  0
  150.5651  137.4377  155.5931 H   0  0  0  0  0  0  0  0  0  0  0  0
  148.9648  139.1149  156.9150 H   0  0  0  0  0  0  0  0  0  0  0  0
  148.0293  140.0235  155.7657 H   0  0  0  0  0  0  0  0  0  0  0  0
  146.1387  137.6179  156.8463 H   0  0  0  0  0  0  0  0  0  0  0  0
  147.1087  136.1926  156.6199 H   0  0  0  0  0  0  0  0  0  0  0  0
  147.3107  137.1320  158.9491 H   0  0  0  0  0  0  0  0  0  0  0  0
  147.9086  138.6529  158.2965 H   0  0  0  0  0  0  0  0  0  0  0  0
  148.8784  137.1877  158.1614 H   0  0  0  0  0  0  0  0  0  0  0  0
  147.2604  139.7092  151.6917 H   0  0  0  0  0  0  0  0  0  0  0  0
  144.3042  134.4020  153.8252 H   0  0  0  0  0  0  0  0  0  0  0  0
  143.0334  135.7107  151.5858 H   0  0  0  0  0  0  0  0  0  0  0  0
  144.2207  136.5014  150.5850 H   0  0  0  0  0  0  0  0  0  0  0  0
  144.7071  134.6382  148.7566 H   0  0  0  0  0  0  0  0  0  0  0  0
  146.4850  134.7512  150.0166 H   0  0  0  0  0  0  0  0  0  0  0  0
  146.3433  134.1721  151.6572 H   0  0  0  0  0  0  0  0  0  0  0  0
  146.0156  132.4657  149.1348 H   0  0  0  0  0  0  0  0  0  0  0  0
  147.3344  132.4104  150.2840 H   0  0  0  0  0  0  0  0  0  0  0  0
  143.8395  131.6400  149.8329 H   0  0  0  0  0  0  0  0  0  0  0  0
  143.6698  131.0168  151.4600 H   0  0  0  0  0  0  0  0  0  0  0  0
  143.9100  133.2408  152.4425 H   0  0  0  0  0  0  0  0  0  0  0  0
  142.6211  133.2911  151.2678 H   0  0  0  0  0  0  0  0  0  0  0  0
  1  2  1  0  0  0  0
  1 27  1  0  0  0  0
  1 28  1  0  0  0  0
  1 29  1  0  0  0  0
  2  3  1  0  0  0  0
  2 30  1  0  0  0  0
  2 31  1  0  0  0  0
  3  4  1  0  0  0  0
  3 32  1  0  0  0  0
  4  5  2  0  0  0  0
  4  6  1  0  0  0  0
  6  7  1  0  0  0  0
  6 33  1  0  0  0  0
  6 34  1  0  0  0  0
  7  8  1  0  0  0  0
  7 10  1  0  0  0  0
  8  9  1  0  0  0  0
  8 35  1  0  0  0  0
  8 36  1  0  0  0  0
  9 37  1  0  0  0  0
  9 38  1  0  0  0  0
  9 39  1  0  0  0  0
 10 15  1  0  0  0  0
 10 11  2  0  0  0  0
 11 12  1  0  0  0  0
 12 13  2  0  0  0  0
 12 40  1  0  0  0  0
 13 14  1  0  0  0  0
 14 18  1  0  0  0  0
 14 15  2  0  0  0  0
 15 16  1  0  0  0  0
 16 17  2  0  0  0  0
 17 18  1  0  0  0  0
 17 41  1  0  0  0  0
 18 19  1  0  0  0  0
 19 20  1  0  0  0  0
 19 42  1  0  0  0  0
 19 43  1  0  0  0  0
 20 26  1  0  0  0  0
 20 21  1  0  0  0  0
 20 22  1  0  0  0  0
 21 44  1  0  0  0  0
 22 23  1  0  0  0  0
 22 45  1  0  0  0  0
 22 46  1  0  0  0  0
 23 24  1  0  0  0  0
 23 47  1  0  0  0  0
 23 48  1  0  0  0  0
 24 25  1  0  0  0  0
 25 26  1  0  0  0  0
 25 49  1  0  0  0  0
 25 50  1  0  0  0  0
 26 51  1  0  0  0  0
 26 52  1  0  0  0  0
M  END
> <s_m_source_file>
AV-unprocessed.smi

> <i_m_source_file_index>
253

> <i_lp_mmshare_version>
43012

> <i_f3d_flags>
0

> <s_epik_input>
W0NIM11bQ0gyXVtOSF1DKD1PKVtDSDJdTihbQ0gyXVtDSDNdKWMobltjSF1uMSljKGMxMiluW2NIXW4yW0NIMl1DMyhbT0hdKVtDSDJdW0NIMl1PW0NIMl1bQ0gyXTM=

> <s_epik_cmdline>
J2VwaWtfcHl0aG9uJywgJy1waCcsICc3LjAnLCAnLXRuJywgJzgnLCAnLW1hJywgJzIwMCcsICctbWV0YWxfYmluZGluZycsICctaW1hZScsICc8aW5maWxlLm1hZT4nLCAnLW9tYWUnLCAnPG91dGZpbGUubWFlPic=

> <r_lp_tautomer_probability>
1

> <r_epik_Ionization_Penalty>
0.000710585

> <r_epik_Ionization_Penalty_Charging>
0

> <r_epik_Ionization_Penalty_Neutral>
0.000710585

> <r_epik_State_Penalty>
0.000343566

> <r_epik_Charging_Adjusted_Penalty>
0.000343566

> <i_epik_Tot_Q>
0

> <i_epik_Tot_abs_Q>
0

> <r_epik_Metal_State_Penalty>
-0

> <b_epik_Metal_Only>
0

> <s_lp_Force_Field>
OPLS_2005

> <r_lp_Energy>
18.5015

> <b_lp_Chiralities_Consistent>
1

> <s_lp_Variant>
AV-unprocessed.smi:253-1

> <Gold.Version>
5.8.1

> <Gold.Id.Protein>
6NUR|6NUR_protein|mol2

> <Gold.PLP.Fitness>
42.3768

> <Gold.PLP.PLP>
-34.7702

> <Gold.PLP.part.hbond>
-3.0000

> <Gold.PLP.part.metal>
0.0000

> <Gold.PLP.part.buried>
-5.6298

> <Gold.PLP.part.nonpolar>
-27.7974

> <Gold.PLP.part.repulsive>
1.4651

> <Gold.PLP.ligand.clash>
0.0000

> <Gold.PLP.ligand.torsion>
0.9406

> <Gold.PLP.Chemscore.Hbond>
1.9600

> <Gold.PLP.Chemscore.CHOScore>
0.8785

> <Gold.PLP.Chemscore.Metal>
0.0000

> <Gold.Chemscore.Hbonds>
donor molecule, donor type, donor heavy atom, donor atom, acceptor molecule, acceptor atom, score
      L1  H    21    44       P1  7921  1.00
      P1  H  7989  7998       L1     5  0.93
      L1  C    12    40       P1  7957  0.82

> <Gold.PLP.Chemscore.Internal.Correction>
0.9724

> <Gold.Rescore>
     Score         DG    S(hbond)    S(metal)    S(lipo)     H(rot)  DE(clash)    DE(int)     intcor
      8.61     -11.43       1.99        0.00      59.86       3.01       0.15       2.67       ----

> <Gold.Chemscore.Fitness>
8.6135

> <Gold.Chemscore.DG>
-11.4335

> <Gold.Chemscore.ZeroCoef>
-5.4800

> <Gold.Chemscore.Hbond>
1.9946

> <Gold.Chemscore.Metal>
0.0000

> <Gold.Chemscore.Lipo>
59.8581

> <Gold.Chemscore.Internal_Hbond>
0.0000

> <Gold.Chemscore.DEClash>
0.1476

> <Gold.Chemscore.DEInternal>
2.6724

> <Gold.Chemscore.Rot>
3.0125

> <Gold.Chemscore.Internal.Correction>
   9.000000E+99

> <Gold.Chemscore.Hbonds>
donor molecule, donor type, donor heavy atom, donor atom, acceptor molecule, acceptor atom, score
      L1  H    21    44       P1  7921  1.00
      P1  H  7989  7998       L1     5  0.89

> <Gold.Chemscore.Hbond.Weighted>
-6.6621

> <Gold.Chemscore.Metal.Weighted>
-0.0000

> <Gold.Chemscore.Lipo.Weighted>
-7.0034

> <Gold.Chemscore.Internal_Hbond.Weighted>
0.0000

> <Gold.Chemscore.DEClash.Weighted>
0.1476

> <Gold.Chemscore.DEInternal.Weighted>
2.6724

> <Gold.Chemscore.Rot.Weighted>
7.7120

> <Gold.Chemscore.Internal.Correction.Weighted>
   9.000000E+99

> <Gold.Protein.RotatedTorsions>
[ 6907 6896 6895 6894 ] final   52.64 input  -60.11 | X-H torsion
[ 7974 7965 7964 7962 ] final -158.61 input  175.53 | X-H torsion
[ 8008 7997 7996 7995 ] final   27.82 input   59.86 | X-H torsion
[ 10167 10162 10161 10158 ] final   39.40 input  -65.29 | X-H torsion
[ 10718 10713 10712 10709 ] final   55.78 input   66.30 | X-H torsion
[ 10763 10752 10751 10750 ] final   27.78 input  -60.55 | X-H torsion
[ 11005 11000 10999 10996 ] final -154.86 input  -57.11 | X-H torsion

> <Gold.Protein.ActiveResidues>
 VAL166  LYS551  ARG553  GLY616  TRP617  ASP618  TYR619  PRO620  LYS621  CYS622 
 ASP623  PHE694  ASN695  SER759  ASP760  ASP761  ALA762  ILE779  LEU786  VAL792 
 PHE793  MET794  SER795  GLU796  ALA797  LYS798  CYS799  TRP800  GLU811  SER814 

> <Gold.Protein.RotatedAtoms>
  152.3254  134.7327  160.0302 H   0  0  0  0  0  0  0  0  0  0  0  0  # atno 6907 bound_to 6896
  151.7762  133.3340  159.3466 H   0  0  0  0  0  0  0  0  0  0  0  0  # atno 6908 bound_to 6896
  150.7393  134.5905  159.6029 H   0  0  0  0  0  0  0  0  0  0  0  0  # atno 6909 bound_to 6896
  144.7499  140.3803  143.6056 H   0  0  0  0  0  0  0  0  0  0  0  0  # atno 7974 bound_to 7965
  155.0489  140.3177  155.4699 H   0  0  0  0  0  0  0  0  0  0  0  0  # atno 8008 bound_to 7997
  156.2839  140.2149  156.5558 H   0  0  0  0  0  0  0  0  0  0  0  0  # atno 8009 bound_to 7997
  154.7227  140.0488  157.0642 H   0  0  0  0  0  0  0  0  0  0  0  0  # atno 8010 bound_to 7997
  140.3843  144.1938  150.6130 H   0  0  0  0  0  0  0  0  0  0  0  0  # atno 10167 bound_to 10162
  157.5374  130.8673  149.8773 H   0  0  0  0  0  0  0  0  0  0  0  0  # atno 10718 bound_to 10713
  153.0533  135.6529  154.0638 H   0  0  0  0  0  0  0  0  0  0  0  0  # atno 10763 bound_to 10752
  154.0322  135.2910  155.3368 H   0  0  0  0  0  0  0  0  0  0  0  0  # atno 10764 bound_to 10752
  154.6835  135.5311  153.8361 H   0  0  0  0  0  0  0  0  0  0  0  0  # atno 10765 bound_to 10752
  140.6927  134.4023  157.5217 H   0  0  0  0  0  0  0  0  0  0  0  0  # atno 11005 bound_to 11000
  145.6984  139.1655  143.2607 LP  0  0  0  0  0  0  0  0  0  0  0  0  # atno 17320 bound_to 7965
  146.1433  140.7027  142.9356 LP  0  0  0  0  0  0  0  0  0  0  0  0  # atno 17321 bound_to 7965
  140.4905  143.2349  151.8825 LP  0  0  0  0  0  0  0  0  0  0  0  0  # atno 17342 bound_to 10162
  139.4793  144.5170  151.8854 LP  0  0  0  0  0  0  0  0  0  0  0  0  # atno 17343 bound_to 10162
  156.0469  130.3726  150.1295 LP  0  0  0  0  0  0  0  0  0  0  0  0  # atno 17370 bound_to 10713
  156.9476  130.9764  151.3504 LP  0  0  0  0  0  0  0  0  0  0  0  0  # atno 17371 bound_to 10713
  139.8919  134.8769  156.2299 LP  0  0  0  0  0  0  0  0  0  0  0  0  # atno 17394 bound_to 11000
  141.0228  133.7032  156.1296 LP  0  0  0  0  0  0  0  0  0  0  0  0  # atno 17395 bound_to 11000

$$$$
