#       Name:                AV-unprocessed.smi:232
#       Creating user name   scv26
#       Creation time:       Thu Mar 26 20:33:08 2020


#       File generated by GOLD software.
#

@<TRIPOS>MOLECULE
AV-unprocessed.smi:232
    60    63     1
SMALL
NO_CHARGES


@<TRIPOS>ATOM
      1 ****        -2.7961  -2.6528  -4.6423 C.3            1 S1                 0.0000
      2 ****        -2.3355  -2.5297  -3.1846 C.3            1 S1                 0.0000
      3 ****        -2.5598  -1.1196  -2.5959 C.3            1 S1                 0.0000
      4 ****        -4.0493  -0.7515  -2.4497 C.3            1 S1                 0.0000
      5 ****        -4.2046  -0.2093  -1.0240 C.3            1 S1                 0.0000
      6 ****        -2.7748   0.0396  -0.5415 C.3            1 S1                 0.0000
      7 ****        -2.3153   1.4822  -0.8401 C.3            1 S1                 0.0000
      8 ****        -1.9976  -0.9693  -1.2537 N.3            1 S1                 0.0000
      9 ****        -0.6534  -0.9709  -1.0481 C.ar           1 S1                 0.0000
     10 ****         0.1965  -0.8241  -2.0997 N.ar           1 S1                 0.0000
     11 ****         1.5176  -0.7965  -1.9041 C.ar           1 S1                 0.0000
     12 ****         2.1927  -0.8889  -0.7574 N.ar           1 S1                 0.0000
     13 ****         1.3475  -1.0374   0.3023 C.ar           1 S1                 0.0000
     14 ****        -0.0741  -1.0933   0.2464 C.ar           1 S1                 0.0000
     15 ****        -0.5891  -1.2666   1.5258 N.2            1 S1                 0.0000
     16 ****         0.4648  -1.2960   2.2942 C.2            1 S1                 0.0000
     17 ****         1.6684  -1.1401   1.6448 N.pl3          1 S1                 0.0000
     18 ****         2.9874  -1.1218   2.2530 C.3            1 S1                 0.0000
     19 ****         3.1831   0.0231   3.2738 C.3            1 S1                 0.0000
     20 ****         4.3944  -0.2641   3.9424 O.3            1 S1                 0.0000
     21 ****         3.3188   1.4414   2.6706 C.3            1 S1                 0.0000
     22 ****         2.1492   1.9282   1.8101 C.3            1 S1                 0.0000
     23 ****         2.2183   3.4423   1.9148 C.3            1 S1                 0.0000
     24 ****         3.1038   3.6847   3.1373 C.3            1 S1                 0.0000
     25 ****         3.2857   2.4013   3.7178 O.3            1 S1                 0.0000
     26 ****        -2.5854  -3.6493  -5.0308 H              1 S1                 0.0000
     27 ****        -2.2807  -1.9327  -5.2781 H              1 S1                 0.0000
     28 ****        -3.8680  -2.4808  -4.7402 H              1 S1                 0.0000
     29 ****        -2.8506  -3.2715  -2.5731 H              1 S1                 0.0000
     30 ****        -1.2790  -2.7923  -3.1443 H              1 S1                 0.0000
     31 ****        -2.0882  -0.3824  -3.2476 H              1 S1                 0.0000
     32 ****        -4.3229   0.0040  -3.1869 H              1 S1                 0.0000
     33 ****        -4.7086  -1.6073  -2.5995 H              1 S1                 0.0000
     34 ****        -4.8378   0.6772  -0.9732 H              1 S1                 0.0000
     35 ****        -4.6665  -0.9750  -0.3990 H              1 S1                 0.0000
     36 ****        -2.7317  -0.1327   0.5335 H              1 S1                 0.0000
     37 ****        -2.9578   2.2047  -0.3366 H              1 S1                 0.0000
     38 ****        -2.3420   1.7043  -1.9073 H              1 S1                 0.0000
     39 ****        -1.2982   1.6583  -0.4886 H              1 S1                 0.0000
     40 ****         2.1187  -0.6776  -2.7932 H              1 S1                 0.0000
     41 ****         0.3909  -1.4208   3.3648 H              1 S1                 0.0000
     42 ****         3.1228  -2.0864   2.7444 H              1 S1                 0.0000
     43 ****         3.7452  -1.0660   1.4706 H              1 S1                 0.0000
     44 ****         2.3781   0.0053   4.0094 H              1 S1                 0.0000
     45 ****         5.1007  -0.2170   3.3165 H              1 S1                 0.0000
     46 ****         4.2512   1.5402   2.1108 H              1 S1                 0.0000
     47 ****         2.2126   1.5862   0.7776 H              1 S1                 0.0000
     48 ****         1.2024   1.5828   2.2272 H              1 S1                 0.0000
     49 ****         2.6668   3.8826   1.0238 H              1 S1                 0.0000
     50 ****         1.2239   3.8724   2.0395 H              1 S1                 0.0000
     51 ****         4.0725   4.0871   2.8376 H              1 S1                 0.0000
     52 ****         2.6530   4.3748   3.8509 H              1 S1                 0.0000
     53 ****        -2.1070  -1.8677  -0.8283 LP             1 S1                 0.0000
     54 ****        -0.1702  -0.7362  -3.0259 LP             1 S1                 0.0000
     55 ****         3.1894  -0.8538  -0.6843 LP             1 S1                 0.0000
     56 ****        -1.5484  -1.3497   1.7956 LP             1 S1                 0.0000
     57 ****         4.3530  -1.1825   4.3358 LP             1 S1                 0.0000
     58 ****         4.5442   0.4042   4.6710 LP             1 S1                 0.0000
     59 ****         4.1469   2.3783   4.2255 LP             1 S1                 0.0000
     60 ****         2.5276   2.1997   4.3380 LP             1 S1                 0.0000
@<TRIPOS>BOND
    1    1    2 1     
    2    1   26 1     
    3    1   27 1     
    4    1   28 1     
    5    2    3 1     
    6    2   29 1     
    7    2   30 1     
    8    3    8 1     
    9    3    4 1     
   10    3   31 1     
   11    4    5 1     
   12    4   32 1     
   13    4   33 1     
   14    5    6 1     
   15    5   34 1     
   16    5   35 1     
   17    6    7 1     
   18    6    8 1     
   19    6   36 1     
   20    7   37 1     
   21    7   38 1     
   22    7   39 1     
   23    8    9 1     
   24    9   14 ar    
   25    9   10 ar    
   26   10   11 ar    
   27   11   12 ar    
   28   11   40 1     
   29   12   13 ar    
   30   13   17 1     
   31   13   14 ar    
   32   14   15 1     
   33   15   16 2     
   34   16   17 1     
   35   16   41 1     
   36   17   18 1     
   37   18   19 1     
   38   18   42 1     
   39   18   43 1     
   40   19   20 1     
   41   19   21 1     
   42   19   44 1     
   43   20   45 1     
   44   21   25 1     
   45   21   22 1     
   46   21   46 1     
   47   22   23 1     
   48   22   47 1     
   49   22   48 1     
   50   23   24 1     
   51   23   49 1     
   52   23   50 1     
   53   24   25 1     
   54   24   51 1     
   55   24   52 1     
   56    8   53 1     
   57   10   54 1     
   58   12   55 1     
   59   15   56 1     
   60   20   57 1     
   61   20   58 1     
   62   25   59 1     
   63   25   60 1     
@<TRIPOS>SUBSTRUCTURE
      1 S1             1
@<TRIPOS>SET
LONE_PAIRS      STATIC     ATOMS    <user>   **** ""
8 53 54 55 56 57 58 59 60
DONOR_HYDROGENS      STATIC     ATOMS    <user>   **** ""
1 45
ATOM$BLUE        STATIC     ATOMS    COLORGROUP SYSTEM
8 53 54 55 56 57 58 59 60
ATOM$RED        STATIC     ATOMS    COLORGROUP SYSTEM
1 45
