AV-unprocessed.smi:3055|AV-procd|sdf|11642|dock4
  -GOLD-   2272017 33D 1   1.00000     0.00000
 Structure written by MMmdl.
 48 50  0  0  0  0  0  0  0  0  3 V2000
  152.4098  138.9433  158.3010 O   0  0  0  0  0  0  0  0  0  0  0  0
  151.9925  139.7806  157.5000 C   0  0  0  0  0  0  0  0  0  0  0  0
  151.4410  140.9367  157.9014 N   0  0  0  0  0  0  0  0  0  0  0  0
  151.2826  141.3397  159.2930 C   0  0  0  0  0  0  0  0  0  0  0  0
  152.4214  142.2707  159.7373 C   0  0  0  0  0  0  0  0  0  0  0  0
  151.9305  143.5645  160.2217 N   0  0  0  0  0  0  0  0  0  0  0  0
  151.7146  144.6987  159.4820 C   0  0  0  0  0  0  0  0  0  0  0  0
  151.2553  145.6523  160.3536 C   0  0  0  0  0  0  0  0  0  0  0  0
  151.2089  145.0599  161.5873 N   0  3  0  0  0  0  0  0  0  0  0  0
  151.6188  143.7899  161.5049 C   0  0  0  0  0  0  0  0  0  0  0  0
  152.0293  139.6048  156.1546 N   0  0  0  0  0  0  0  0  0  0  0  0
  152.6522  138.4780  155.4422 C   0  0  0  0  0  0  0  0  0  0  0  0
  151.5381  137.5219  154.9847 C   0  0  0  0  0  0  0  0  0  0  0  0
  150.4919  138.2598  154.1261 C   0  0  0  0  0  0  0  0  0  0  0  0
  149.9778  139.5577  154.8041 C   0  0  2  0  0  0  0  0  0  0  0  0
  149.0764  140.3340  153.9072 N   0  3  0  0  0  0  0  0  0  0  0  0
  147.8187  139.6549  153.5258 C   0  0  0  0  0  0  0  0  0  0  0  0
  146.8759  140.7738  153.0989 C   0  0  0  0  0  0  0  0  0  0  0  0
  147.2173  141.8942  154.0733 C   0  0  0  0  0  0  0  0  0  0  0  0
  148.7000  141.6814  154.4074 C   0  0  0  0  0  0  0  0  0  0  0  0
  151.1955  140.4057  155.2497 C   0  0  0  0  0  0  0  0  0  0  0  0
  151.1169  141.5795  157.1941 H   0  0  0  0  0  0  0  0  0  0  0  0
  150.3171  141.8297  159.4301 H   0  0  0  0  0  0  0  0  0  0  0  0
  151.2775  140.4469  159.9199 H   0  0  0  0  0  0  0  0  0  0  0  0
  152.9834  141.8112  160.5513 H   0  0  0  0  0  0  0  0  0  0  0  0
  153.1266  142.4428  158.9227 H   0  0  0  0  0  0  0  0  0  0  0  0
  151.9001  144.7417  158.4184 H   0  0  0  0  0  0  0  0  0  0  0  0
  150.9651  146.6803  160.1921 H   0  0  0  0  0  0  0  0  0  0  0  0
  151.6854  143.0869  162.3162 H   0  0  0  0  0  0  0  0  0  0  0  0
  153.1975  138.8564  154.5761 H   0  0  0  0  0  0  0  0  0  0  0  0
  153.3916  137.9348  156.0306 H   0  0  0  0  0  0  0  0  0  0  0  0
  151.9638  136.6913  154.4210 H   0  0  0  0  0  0  0  0  0  0  0  0
  151.0514  137.0858  155.8584 H   0  0  0  0  0  0  0  0  0  0  0  0
  150.9412  138.5097  153.1637 H   0  0  0  0  0  0  0  0  0  0  0  0
  149.6689  137.5772  153.9141 H   0  0  0  0  0  0  0  0  0  0  0  0
  149.4043  139.2769  155.6897 H   0  0  0  0  0  0  0  0  0  0  0  0
  147.9735  138.9235  152.7321 H   0  0  0  0  0  0  0  0  0  0  0  0
  147.4021  139.1366  154.3912 H   0  0  0  0  0  0  0  0  0  0  0  0
  147.1042  141.0843  152.0784 H   0  0  0  0  0  0  0  0  0  0  0  0
  145.8259  140.4824  153.1374 H   0  0  0  0  0  0  0  0  0  0  0  0
  147.0162  142.8833  153.6610 H   0  0  0  0  0  0  0  0  0  0  0  0
  146.6190  141.7853  154.9791 H   0  0  0  0  0  0  0  0  0  0  0  0
  148.8519  141.7752  155.4836 H   0  0  0  0  0  0  0  0  0  0  0  0
  149.3258  142.4285  153.9183 H   0  0  0  0  0  0  0  0  0  0  0  0
  150.8842  141.3407  155.7164 H   0  0  0  0  0  0  0  0  0  0  0  0
  151.7847  140.7026  154.3806 H   0  0  0  0  0  0  0  0  0  0  0  0
  149.5775  140.4886  153.0438 H   0  0  0  0  0  0  0  0  0  0  0  0
  150.9055  145.5144  162.4395 H   0  0  0  0  0  0  0  0  0  0  0  0
  1  2  2  0  0  0  0
  2  3  1  0  0  0  0
  2 11  1  0  0  0  0
  3  4  1  0  0  0  0
  3 22  1  0  0  0  0
  4  5  1  0  0  0  0
  4 23  1  0  0  0  0
  4 24  1  0  0  0  0
  5  6  1  0  0  0  0
  5 25  1  0  0  0  0
  5 26  1  0  0  0  0
  6 10  1  0  0  0  0
  6  7  1  0  0  0  0
  7  8  2  0  0  0  0
  7 27  1  0  0  0  0
  8  9  1  0  0  0  0
  8 28  1  0  0  0  0
  9 10  2  0  0  0  0
  9 48  1  0  0  0  0
 10 29  1  0  0  0  0
 11 21  1  0  0  0  0
 11 12  1  0  0  0  0
 12 13  1  0  0  0  0
 12 30  1  0  0  0  0
 12 31  1  0  0  0  0
 13 14  1  0  0  0  0
 13 32  1  0  0  0  0
 13 33  1  0  0  0  0
 14 15  1  0  0  0  0
 14 34  1  0  0  0  0
 14 35  1  0  0  0  0
 15 16  1  0  0  0  0
 15 21  1  0  0  0  0
 15 36  1  0  0  0  0
 16 20  1  0  0  0  0
 16 17  1  0  0  0  0
 16 47  1  0  0  0  0
 17 18  1  0  0  0  0
 17 37  1  0  0  0  0
 17 38  1  0  0  0  0
 18 19  1  0  0  0  0
 18 39  1  0  0  0  0
 18 40  1  0  0  0  0
 19 20  1  0  0  0  0
 19 41  1  0  0  0  0
 19 42  1  0  0  0  0
 20 43  1  0  0  0  0
 20 44  1  0  0  0  0
 21 45  1  0  0  0  0
 21 46  1  0  0  0  0
M  CHG  1   9   1
M  CHG  1  16   1
M  END
> <s_m_source_file>
AV-unprocessed.smi

> <i_m_source_file_index>
3055

> <i_lp_mmshare_version>
43012

> <i_f3d_flags>
0

> <s_epik_input>
W2NIXTFuW2NIXVtjSF1uMVtDSDJdW0NIMl1bTkhdQyg9TylOMltDSDJdW0NIMl1bQ0gyXVtDQEhdKFtDSDJdMilOM1tDSDJdW0NIMl1bQ0gyXVtDSDJdMw==

> <s_epik_cmdline>
J2VwaWtfcHl0aG9uJywgJy1waCcsICc3LjAnLCAnLXRuJywgJzgnLCAnLW1hJywgJzIwMCcsICctbWV0YWxfYmluZGluZycsICctaW1hZScsICc8aW5maWxlLm1hZT4nLCAnLW9tYWUnLCAnPG91dGZpbGUubWFlPic=

> <r_lp_tautomer_probability>
1

> <r_epik_Ionization_Penalty>
0.259176

> <r_epik_Ionization_Penalty_Charging>
0.00125522

> <r_epik_Ionization_Penalty_Neutral>
0.257921

> <r_epik_State_Penalty>
0.249312

> <r_epik_Charging_Adjusted_Penalty>
0.250567

> <i_epik_Tot_Q>
2

> <i_epik_Tot_abs_Q>
2

> <r_epik_Metal_State_Penalty>
0.53666

> <b_epik_Metal_Only>
0

> <s_lp_Force_Field>
OPLS_2005

> <r_lp_Energy>
60.4865

> <b_lp_Chiralities_Consistent>
1

> <s_lp_Variant>
AV-unprocessed.smi:3055-2

> <Gold.Version>
5.8.1

> <Gold.Id.Protein>
6NUR|6NUR_protein|mol2

> <Gold.PLP.Fitness>
50.6100

> <Gold.PLP.PLP>
-50.8943

> <Gold.PLP.part.hbond>
-2.0000

> <Gold.PLP.part.metal>
0.0000

> <Gold.PLP.part.buried>
0.5828

> <Gold.PLP.part.nonpolar>
-48.8639

> <Gold.PLP.part.repulsive>
0.3236

> <Gold.PLP.ligand.clash>
1.2481

> <Gold.PLP.ligand.torsion>
1.0397

> <Gold.PLP.Chemscore.Hbond>
0.9920

> <Gold.PLP.Chemscore.CHOScore>
0.0000

> <Gold.PLP.Chemscore.Metal>
0.0000

> <Gold.Chemscore.Hbonds>
donor molecule, donor type, donor heavy atom, donor atom, acceptor molecule, acceptor atom, score
      L1  H    16    47       P1  7957  0.88

> <Gold.PLP.Chemscore.Internal.Correction>
0.0671

> <Gold.Rescore>
     Score         DG    S(hbond)    S(metal)    S(lipo)     H(rot)  DE(clash)    DE(int)     intcor
     13.76     -16.71       0.98        0.00     108.86       1.87       2.15       0.79       ----

> <Gold.Chemscore.Fitness>
13.7619

> <Gold.Chemscore.DG>
-16.7086

> <Gold.Chemscore.ZeroCoef>
-5.4800

> <Gold.Chemscore.Hbond>
0.9843

> <Gold.Chemscore.Metal>
0.0000

> <Gold.Chemscore.Lipo>
108.8580

> <Gold.Chemscore.Internal_Hbond>
0.0000

> <Gold.Chemscore.DEClash>
2.1540

> <Gold.Chemscore.DEInternal>
0.7927

> <Gold.Chemscore.Rot>
1.8732

> <Gold.Chemscore.Internal.Correction>
   9.000000E+99

> <Gold.Chemscore.Hbonds>
donor molecule, donor type, donor heavy atom, donor atom, acceptor molecule, acceptor atom, score
      L1  H    16    47       P1  7957  0.86

> <Gold.Chemscore.Hbond.Weighted>
-3.2877

> <Gold.Chemscore.Metal.Weighted>
-0.0000

> <Gold.Chemscore.Lipo.Weighted>
-12.7364

> <Gold.Chemscore.Internal_Hbond.Weighted>
0.0000

> <Gold.Chemscore.DEClash.Weighted>
2.1540

> <Gold.Chemscore.DEInternal.Weighted>
0.7927

> <Gold.Chemscore.Rot.Weighted>
4.7954

> <Gold.Chemscore.Internal.Correction.Weighted>
   9.000000E+99

> <Gold.Protein.RotatedTorsions>
[ 6907 6896 6895 6894 ] final   46.94 input  -60.11 | X-H torsion
[ 7974 7965 7964 7962 ] final   51.78 input  175.53 | X-H torsion
[ 8008 7997 7996 7995 ] final   -2.67 input   59.86 | X-H torsion
[ 10167 10162 10161 10158 ] final  -57.20 input  -65.29 | X-H torsion
[ 10718 10713 10712 10709 ] final  -71.10 input   66.30 | X-H torsion
[ 10763 10752 10751 10750 ] final  -95.34 input  -60.55 | X-H torsion
[ 11005 11000 10999 10996 ] final -160.03 input  -57.11 | X-H torsion

> <Gold.Protein.ActiveResidues>
 VAL166  LYS551  ARG553  GLY616  TRP617  ASP618  TYR619  PRO620  LYS621  CYS622 
 ASP623  PHE694  ASN695  SER759  ASP760  ASP761  ALA762  ILE779  LEU786  VAL792 
 PHE793  MET794  SER795  GLU796  ALA797  LYS798  CYS799  TRP800  GLU811  SER814 

> <Gold.Protein.RotatedAtoms>
  152.2622  134.8022  160.0428 H   0  0  0  0  0  0  0  0  0  0  0  0  # atno 6907 bound_to 6896
  151.8664  133.3462  159.3728 H   0  0  0  0  0  0  0  0  0  0  0  0  # atno 6908 bound_to 6896
  150.7121  134.5083  159.5639 H   0  0  0  0  0  0  0  0  0  0  0  0  # atno 6909 bound_to 6896
  145.9880  139.4309  143.0091 H   0  0  0  0  0  0  0  0  0  0  0  0  # atno 7974 bound_to 7965
  154.6332  140.2528  155.7409 H   0  0  0  0  0  0  0  0  0  0  0  0  # atno 8008 bound_to 7997
  156.2490  140.2902  156.0613 H   0  0  0  0  0  0  0  0  0  0  0  0  # atno 8009 bound_to 7997
  155.1712  140.0386  157.2853 H   0  0  0  0  0  0  0  0  0  0  0  0  # atno 8010 bound_to 7997
  140.6272  143.2443  151.5333 H   0  0  0  0  0  0  0  0  0  0  0  0  # atno 10167 bound_to 10162
  156.0378  130.4344  150.2393 H   0  0  0  0  0  0  0  0  0  0  0  0  # atno 10718 bound_to 10713
  154.7139  135.5124  153.8708 H   0  0  0  0  0  0  0  0  0  0  0  0  # atno 10763 bound_to 10752
  153.0804  135.6629  154.0066 H   0  0  0  0  0  0  0  0  0  0  0  0  # atno 10764 bound_to 10752
  153.9903  135.3020  155.3392 H   0  0  0  0  0  0  0  0  0  0  0  0  # atno 10765 bound_to 10752
  140.6360  134.4601  157.5231 H   0  0  0  0  0  0  0  0  0  0  0  0  # atno 11005 bound_to 11000
  145.7673  140.9911  143.1168 LP  0  0  0  0  0  0  0  0  0  0  0  0  # atno 17320 bound_to 7965
  144.6880  139.9403  143.7475 LP  0  0  0  0  0  0  0  0  0  0  0  0  # atno 17321 bound_to 7965
  139.5491  144.2444  152.1497 LP  0  0  0  0  0  0  0  0  0  0  0  0  # atno 17342 bound_to 10162
  140.1678  144.4965  150.6596 LP  0  0  0  0  0  0  0  0  0  0  0  0  # atno 17343 bound_to 10162
  157.0491  131.0057  151.3259 LP  0  0  0  0  0  0  0  0  0  0  0  0  # atno 17370 bound_to 10713
  157.5153  130.7964  149.7750 LP  0  0  0  0  0  0  0  0  0  0  0  0  # atno 17371 bound_to 10713
  139.9098  134.8369  156.1570 LP  0  0  0  0  0  0  0  0  0  0  0  0  # atno 17394 bound_to 11000
  141.0641  133.6827  156.2010 LP  0  0  0  0  0  0  0  0  0  0  0  0  # atno 17395 bound_to 11000

$$$$
