AV-unprocessed.smi:937|AV-procd|sdf|4215|dock4
  -GOLD-   22720 2123D 1   1.00000     0.00000
 Structure written by MMmdl.
 46 47  0  0  0  0  0  0  0  0  2 V2000
  150.7897  143.6262  158.4027 C   0  0  0  0  0  0  0  0  0  0  0  0
  150.7225  142.3563  157.5812 C   0  0  0  0  0  0  0  0  0  0  0  0
  151.2478  141.1299  158.0426 C   0  0  0  0  0  0  0  0  0  0  0  0
  151.1489  139.9866  157.2226 C   0  0  0  0  0  0  0  0  0  0  0  0
  150.5266  140.0921  155.9592 C   0  0  0  0  0  0  0  0  0  0  0  0
  150.4064  138.8811  155.0552 C   0  0  0  0  0  0  0  0  0  0  0  0
  149.5679  137.7618  155.6934 C   0  0  0  0  0  0  0  0  0  0  0  0
  148.9888  136.8886  154.6805 N   0  0  0  0  0  0  0  0  0  0  0  0
  148.1961  135.8339  154.9350 C   0  0  0  0  0  0  0  0  0  0  0  0
  147.8885  135.4788  156.0713 O   0  0  0  0  0  0  0  0  0  0  0  0
  147.7477  135.1882  153.8435 N   0  0  0  0  0  0  0  0  0  0  0  0
  146.8756  134.0139  153.7748 C   0  0  2  0  0  0  0  0  0  0  0  0
  147.6179  132.7504  154.2557 C   0  0  0  0  0  0  0  0  0  0  0  0
  146.7357  131.5012  154.1164 C   0  0  0  0  0  0  0  0  0  0  0  0
  146.2387  131.3279  152.6729 C   0  0  0  0  0  0  0  0  0  0  0  0
  145.4877  132.5806  152.1741 C   0  0  2  0  0  0  0  0  0  0  0  0
  144.9756  132.4102  150.7289 C   0  0  0  0  0  0  0  0  0  0  0  0
  144.0441  131.4583  150.6642 F   0  0  0  0  0  0  0  0  0  0  0  0
  144.4524  133.5557  150.2919 F   0  0  0  0  0  0  0  0  0  0  0  0
  145.9851  132.0808  149.9229 F   0  0  0  0  0  0  0  0  0  0  0  0
  146.3812  133.8306  152.3273 C   0  0  0  0  0  0  0  0  0  0  0  0
  150.0213  141.3444  155.5499 C   0  0  0  0  0  0  0  0  0  0  0  0
  150.1358  142.4161  156.3645 N   0  3  0  0  0  0  0  0  0  0  0  0
  151.2370  143.4392  159.3794 H   0  0  0  0  0  0  0  0  0  0  0  0
  149.7896  144.0321  158.5589 H   0  0  0  0  0  0  0  0  0  0  0  0
  151.3913  144.3778  157.8909 H   0  0  0  0  0  0  0  0  0  0  0  0
  151.7208  141.0623  159.0117 H   0  0  0  0  0  0  0  0  0  0  0  0
  151.5473  139.0411  157.5614 H   0  0  0  0  0  0  0  0  0  0  0  0
  149.9659  139.1924  154.1069 H   0  0  0  0  0  0  0  0  0  0  0  0
  151.4062  138.5125  154.8215 H   0  0  0  0  0  0  0  0  0  0  0  0
  150.1929  137.1535  156.3477 H   0  0  0  0  0  0  0  0  0  0  0  0
  148.7780  138.1817  156.3187 H   0  0  0  0  0  0  0  0  0  0  0  0
  149.1923  137.1071  153.7160 H   0  0  0  0  0  0  0  0  0  0  0  0
  148.0506  135.5567  152.9533 H   0  0  0  0  0  0  0  0  0  0  0  0
  145.9996  134.1769  154.4053 H   0  0  0  0  0  0  0  0  0  0  0  0
  148.5311  132.6149  153.6742 H   0  0  0  0  0  0  0  0  0  0  0  0
  147.9290  132.8603  155.2950 H   0  0  0  0  0  0  0  0  0  0  0  0
  147.2943  130.6171  154.4249 H   0  0  0  0  0  0  0  0  0  0  0  0
  145.8824  131.5782  154.7913 H   0  0  0  0  0  0  0  0  0  0  0  0
  147.0882  131.1223  152.0203 H   0  0  0  0  0  0  0  0  0  0  0  0
  145.5895  130.4536  152.6176 H   0  0  0  0  0  0  0  0  0  0  0  0
  144.6141  132.7191  152.8133 H   0  0  0  0  0  0  0  0  0  0  0  0
  145.8298  134.7191  152.0173 H   0  0  0  0  0  0  0  0  0  0  0  0
  147.2372  133.7515  151.6551 H   0  0  0  0  0  0  0  0  0  0  0  0
  149.5331  141.5210  154.6025 H   0  0  0  0  0  0  0  0  0  0  0  0
  149.7619  143.3107  156.0472 H   0  0  0  0  0  0  0  0  0  0  0  0
  1  2  1  0  0  0  0
  1 24  1  0  0  0  0
  1 25  1  0  0  0  0
  1 26  1  0  0  0  0
  2 23  1  0  0  0  0
  2  3  2  0  0  0  0
  3  4  1  0  0  0  0
  3 27  1  0  0  0  0
  4  5  2  0  0  0  0
  4 28  1  0  0  0  0
  5  6  1  0  0  0  0
  5 22  1  0  0  0  0
  6  7  1  0  0  0  0
  6 29  1  0  0  0  0
  6 30  1  0  0  0  0
  7  8  1  0  0  0  0
  7 31  1  0  0  0  0
  7 32  1  0  0  0  0
  8  9  1  0  0  0  0
  8 33  1  0  0  0  0
  9 10  2  0  0  0  0
  9 11  1  0  0  0  0
 11 12  1  0  0  0  0
 11 34  1  0  0  0  0
 12 21  1  0  0  0  0
 12 13  1  0  0  0  0
 12 35  1  0  0  0  0
 13 14  1  0  0  0  0
 13 36  1  0  0  0  0
 13 37  1  0  0  0  0
 14 15  1  0  0  0  0
 14 38  1  0  0  0  0
 14 39  1  0  0  0  0
 15 16  1  0  0  0  0
 15 40  1  0  0  0  0
 15 41  1  0  0  0  0
 16 17  1  0  0  0  0
 16 21  1  0  0  0  0
 16 42  1  0  0  0  0
 17 18  1  0  0  0  0
 17 19  1  0  0  0  0
 17 20  1  0  0  0  0
 21 43  1  0  0  0  0
 21 44  1  0  0  0  0
 22 23  2  0  0  0  0
 22 45  1  0  0  0  0
 23 46  1  0  0  0  0
M  CHG  1  23   1
M  END
> <s_m_source_file>
AV-unprocessed.smi

> <i_m_source_file_index>
937

> <i_lp_mmshare_version>
43012

> <i_f3d_flags>
0

> <s_epik_input>
W0NIM11jMVtjSF1bY0hdYyhbY0hdbjEpW0NIMl1bQ0gyXVtOSF1DKD1PKVtOSF1bQ0BASF0yW0NIMl1bQ0gyXVtDSDJdW0NAQEhdKEMoRikoRilGKVtDSDJdMg==

> <s_epik_cmdline>
J2VwaWtfcHl0aG9uJywgJy1waCcsICc3LjAnLCAnLXRuJywgJzgnLCAnLW1hJywgJzIwMCcsICctbWV0YWxfYmluZGluZycsICctaW1hZScsICc8aW5maWxlLm1hZT4nLCAnLW9tYWUnLCAnPG91dGZpbGUubWFlPic=

> <r_epik_Ionization_Penalty>
1.4226

> <r_epik_Ionization_Penalty_Charging>
1.42255

> <r_epik_Ionization_Penalty_Neutral>
5.16456e-05

> <r_epik_State_Penalty>
1.50646

> <r_epik_Charging_Adjusted_Penalty>
2.92901

> <i_epik_Tot_Q>
1

> <i_epik_Tot_abs_Q>
1

> <r_epik_Metal_State_Penalty>
1.55846

> <b_epik_Metal_Only>
0

> <s_lp_Force_Field>
OPLS_2005

> <r_lp_Energy>
23.9189

> <b_lp_Chiralities_Consistent>
1

> <s_lp_Variant>
AV-unprocessed.smi:937-7

> <Gold.Version>
5.8.1

> <Gold.Id.Protein>
6NUR|6NUR_protein|mol2

> <Gold.PLP.Fitness>
48.5517

> <Gold.PLP.PLP>
-38.0505

> <Gold.PLP.part.hbond>
-2.8760

> <Gold.PLP.part.metal>
0.0000

> <Gold.PLP.part.buried>
-6.4788

> <Gold.PLP.part.nonpolar>
-30.6791

> <Gold.PLP.part.repulsive>
0.1098

> <Gold.PLP.ligand.clash>
0.0000

> <Gold.PLP.ligand.torsion>
0.3555

> <Gold.PLP.Chemscore.Hbond>
3.7204

> <Gold.PLP.Chemscore.CHOScore>
0.0000

> <Gold.PLP.Chemscore.Metal>
0.0000

> <Gold.Chemscore.Hbonds>
donor molecule, donor type, donor heavy atom, donor atom, acceptor molecule, acceptor atom, score
      L1  H     8    33       P1  7948  0.74
      L1  H    11    34       P1  7948  1.00
      L1  H    23    46       P1  8028  2.00

> <Gold.PLP.Chemscore.Internal.Correction>
0.0509

> <Gold.Rescore>
     Score         DG    S(hbond)    S(metal)    S(lipo)     H(rot)  DE(clash)    DE(int)     intcor
     20.37     -20.70       2.84        0.00      85.32       1.66       0.01       0.32       ----

> <Gold.Chemscore.Fitness>
20.3672

> <Gold.Chemscore.DG>
-20.6989

> <Gold.Chemscore.ZeroCoef>
-5.4800

> <Gold.Chemscore.Hbond>
2.8389

> <Gold.Chemscore.Metal>
0.0000

> <Gold.Chemscore.Lipo>
85.3228

> <Gold.Chemscore.Internal_Hbond>
0.0000

> <Gold.Chemscore.DEClash>
0.0085

> <Gold.Chemscore.DEInternal>
0.3232

> <Gold.Chemscore.Rot>
1.6585

> <Gold.Chemscore.Internal.Correction>
   9.000000E+99

> <Gold.Chemscore.Hbonds>
donor molecule, donor type, donor heavy atom, donor atom, acceptor molecule, acceptor atom, score
      L1  H     8    33       P1  7948  0.70
      L1  H    11    34       P1  7948  0.95
      L1  H    23    46       P1  8028  1.00

> <Gold.Chemscore.Hbond.Weighted>
-9.4818

> <Gold.Chemscore.Metal.Weighted>
-0.0000

> <Gold.Chemscore.Lipo.Weighted>
-9.9828

> <Gold.Chemscore.Internal_Hbond.Weighted>
0.0000

> <Gold.Chemscore.DEClash.Weighted>
0.0085

> <Gold.Chemscore.DEInternal.Weighted>
0.3232

> <Gold.Chemscore.Rot.Weighted>
4.2457

> <Gold.Chemscore.Internal.Correction.Weighted>
   9.000000E+99

> <Gold.Protein.RotatedTorsions>
[ 6907 6896 6895 6894 ] final -123.83 input  -60.11 | X-H torsion
[ 7974 7965 7964 7962 ] final  -51.10 input  175.53 | X-H torsion
[ 8008 7997 7996 7995 ] final  125.53 input   59.86 | X-H torsion
[ 10167 10162 10161 10158 ] final  -82.08 input  -65.29 | X-H torsion
[ 10718 10713 10712 10709 ] final   81.82 input   66.30 | X-H torsion
[ 10763 10752 10751 10750 ] final   67.22 input  -60.55 | X-H torsion
[ 11005 11000 10999 10996 ] final  116.56 input  -57.11 | X-H torsion

> <Gold.Protein.ActiveResidues>
 VAL166  LYS551  ARG553  GLY616  TRP617  ASP618  TYR619  PRO620  LYS621  CYS622 
 ASP623  PHE694  ASN695  SER759  ASP760  ASP761  ALA762  ILE779  LEU786  VAL792 
 PHE793  MET794  SER795  GLU796  ALA797  LYS798  CYS799  TRP800  GLU811  SER814 

> <Gold.Protein.RotatedAtoms>
  150.8709  133.7507  159.2961 H   0  0  0  0  0  0  0  0  0  0  0  0  # atno 6907 bound_to 6896
  151.5119  135.1063  159.9865 H   0  0  0  0  0  0  0  0  0  0  0  0  # atno 6908 bound_to 6896
  152.4694  133.7951  159.6978 H   0  0  0  0  0  0  0  0  0  0  0  0  # atno 6909 bound_to 6896
  145.9227  140.7819  142.9639 H   0  0  0  0  0  0  0  0  0  0  0  0  # atno 7974 bound_to 7965
  156.2837  140.2714  156.1964 H   0  0  0  0  0  0  0  0  0  0  0  0  # atno 8008 bound_to 7997
  155.0406  140.0386  157.2526 H   0  0  0  0  0  0  0  0  0  0  0  0  # atno 8009 bound_to 7997
  154.7277  140.2700  155.6489 H   0  0  0  0  0  0  0  0  0  0  0  0  # atno 8010 bound_to 7997
  140.4352  143.2534  151.8703 H   0  0  0  0  0  0  0  0  0  0  0  0  # atno 10167 bound_to 10162
  157.6842  131.0020  150.2282 H   0  0  0  0  0  0  0  0  0  0  0  0  # atno 10718 bound_to 10713
  153.0176  135.5292  154.6945 H   0  0  0  0  0  0  0  0  0  0  0  0  # atno 10763 bound_to 10752
  154.6071  135.2874  155.0475 H   0  0  0  0  0  0  0  0  0  0  0  0  # atno 10764 bound_to 10752
  154.1510  135.6563  153.5016 H   0  0  0  0  0  0  0  0  0  0  0  0  # atno 10765 bound_to 10752
  139.9045  134.9599  156.7217 H   0  0  0  0  0  0  0  0  0  0  0  0  # atno 11005 bound_to 11000
  144.6755  140.2001  143.7388 LP  0  0  0  0  0  0  0  0  0  0  0  0  # atno 17320 bound_to 7965
  145.8529  139.2184  143.1761 LP  0  0  0  0  0  0  0  0  0  0  0  0  # atno 17321 bound_to 7965
  139.4786  144.5290  151.8694 LP  0  0  0  0  0  0  0  0  0  0  0  0  # atno 17342 bound_to 10162
  140.4381  144.2024  150.5890 LP  0  0  0  0  0  0  0  0  0  0  0  0  # atno 17343 bound_to 10162
  156.2920  130.3747  149.7832 LP  0  0  0  0  0  0  0  0  0  0  0  0  # atno 17370 bound_to 10713
  156.5488  130.8333  151.3293 LP  0  0  0  0  0  0  0  0  0  0  0  0  # atno 17371 bound_to 10713
  140.6995  133.9319  155.8015 LP  0  0  0  0  0  0  0  0  0  0  0  0  # atno 17394 bound_to 11000
  141.0382  134.0659  157.3934 LP  0  0  0  0  0  0  0  0  0  0  0  0  # atno 17395 bound_to 11000

$$$$
