AV-unprocessed.smi:502|AV-procd|sdf|2745|dock9
  -GOLD-   2262023213D 1   1.00000     0.00000
 Structure written by MMmdl.
 49 51  0  0  0  0  0  0  0  0  2 V2000
  148.9156  136.8244  158.8732 C   0  0  0  0  0  0  0  0  0  0  0  0
  150.3512  136.8430  158.3596 C   0  0  0  0  0  0  0  0  0  0  0  0
  151.2733  136.4740  159.0865 O   0  0  0  0  0  0  0  0  0  0  0  0
  150.5272  137.2766  157.1023 N   0  0  0  0  0  0  0  0  0  0  0  0
  151.8167  137.3901  156.4310 C   0  0  0  0  0  0  0  0  0  0  0  0
  151.6577  137.5255  154.9076 C   0  0  0  0  0  0  0  0  0  0  0  0
  150.5571  138.4727  154.5532 C   0  0  0  0  0  0  0  0  0  0  0  0
  149.5485  138.2172  153.6723 N   0  3  0  0  0  0  0  0  0  0  0  0
  148.7094  139.3277  153.5772 C   0  0  0  0  0  0  0  0  0  0  0  0
  147.5619  139.5415  152.8196 C   0  0  0  0  0  0  0  0  0  0  0  0
  146.9391  140.7998  152.9560 C   0  0  0  0  0  0  0  0  0  0  0  0
  147.4581  141.7864  153.8196 C   0  0  0  0  0  0  0  0  0  0  0  0
  148.6221  141.5575  154.5826 C   0  0  0  0  0  0  0  0  0  0  0  0
  149.2325  140.3116  154.4403 C   0  0  0  0  0  0  0  0  0  0  0  0
  150.3755  139.7446  155.0156 N   0  0  0  0  0  0  0  0  0  0  0  0
  151.1600  140.5414  155.9692 C   0  0  0  0  0  0  0  0  0  0  0  0
  150.2818  141.1772  157.0552 C   0  0  0  0  0  0  0  0  0  0  0  0
  151.0840  142.0661  157.8182 O   0  0  0  0  0  0  0  0  0  0  0  0
  151.9149  141.5368  158.7845 C   0  0  0  0  0  0  0  0  0  0  0  0
  152.2006  140.1524  158.9049 C   0  0  0  0  0  0  0  0  0  0  0  0
  153.0592  139.6839  159.9174 C   0  0  0  0  0  0  0  0  0  0  0  0
  153.6439  140.5884  160.8211 C   0  0  0  0  0  0  0  0  0  0  0  0
  153.3684  141.9633  160.7120 C   0  0  0  0  0  0  0  0  0  0  0  0
  152.5080  142.4381  159.6998 C   0  0  0  0  0  0  0  0  0  0  0  0
  152.2224  143.9246  159.5965 C   0  0  0  0  0  0  0  0  0  0  0  0
  148.2937  136.1852  158.2461 H   0  0  0  0  0  0  0  0  0  0  0  0
  148.4956  137.8305  158.8661 H   0  0  0  0  0  0  0  0  0  0  0  0
  148.8737  136.4451  159.8946 H   0  0  0  0  0  0  0  0  0  0  0  0
  149.7115  137.5612  156.5791 H   0  0  0  0  0  0  0  0  0  0  0  0
  152.3277  138.2644  156.8328 H   0  0  0  0  0  0  0  0  0  0  0  0
  152.4384  136.5271  156.6758 H   0  0  0  0  0  0  0  0  0  0  0  0
  152.5840  137.8886  154.4606 H   0  0  0  0  0  0  0  0  0  0  0  0
  151.4598  136.5534  154.4557 H   0  0  0  0  0  0  0  0  0  0  0  0
  147.1627  138.7873  152.1576 H   0  0  0  0  0  0  0  0  0  0  0  0
  146.0459  141.0126  152.3866 H   0  0  0  0  0  0  0  0  0  0  0  0
  146.9540  142.7389  153.8979 H   0  0  0  0  0  0  0  0  0  0  0  0
  149.0131  142.3199  155.2401 H   0  0  0  0  0  0  0  0  0  0  0  0
  151.9257  139.9017  156.4097 H   0  0  0  0  0  0  0  0  0  0  0  0
  151.6865  141.3167  155.4134 H   0  0  0  0  0  0  0  0  0  0  0  0
  149.4545  141.7178  156.5941 H   0  0  0  0  0  0  0  0  0  0  0  0
  149.8638  140.4034  157.7005 H   0  0  0  0  0  0  0  0  0  0  0  0
  151.7728  139.4252  158.2320 H   0  0  0  0  0  0  0  0  0  0  0  0
  153.2692  138.6277  160.0003 H   0  0  0  0  0  0  0  0  0  0  0  0
  154.3032  140.2285  161.5971 H   0  0  0  0  0  0  0  0  0  0  0  0
  153.8214  142.6524  161.4097 H   0  0  0  0  0  0  0  0  0  0  0  0
  152.7640  144.4897  160.3557 H   0  0  0  0  0  0  0  0  0  0  0  0
  151.1571  144.1155  159.7280 H   0  0  0  0  0  0  0  0  0  0  0  0
  152.5216  144.3004  158.6176 H   0  0  0  0  0  0  0  0  0  0  0  0
  149.4442  137.3428  153.1733 H   0  0  0  0  0  0  0  0  0  0  0  0
  1  2  1  0  0  0  0
  1 26  1  0  0  0  0
  1 27  1  0  0  0  0
  1 28  1  0  0  0  0
  2  3  2  0  0  0  0
  2  4  1  0  0  0  0
  4  5  1  0  0  0  0
  4 29  1  0  0  0  0
  5  6  1  0  0  0  0
  5 30  1  0  0  0  0
  5 31  1  0  0  0  0
  6  7  1  0  0  0  0
  6 32  1  0  0  0  0
  6 33  1  0  0  0  0
  7 15  1  0  0  0  0
  7  8  2  0  0  0  0
  8  9  1  0  0  0  0
  8 49  1  0  0  0  0
  9 14  2  0  0  0  0
  9 10  1  0  0  0  0
 10 11  2  0  0  0  0
 10 34  1  0  0  0  0
 11 12  1  0  0  0  0
 11 35  1  0  0  0  0
 12 13  2  0  0  0  0
 12 36  1  0  0  0  0
 13 14  1  0  0  0  0
 13 37  1  0  0  0  0
 14 15  1  0  0  0  0
 15 16  1  0  0  0  0
 16 17  1  0  0  0  0
 16 38  1  0  0  0  0
 16 39  1  0  0  0  0
 17 18  1  0  0  0  0
 17 40  1  0  0  0  0
 17 41  1  0  0  0  0
 18 19  1  0  0  0  0
 19 24  1  0  0  0  0
 19 20  2  0  0  0  0
 20 21  1  0  0  0  0
 20 42  1  0  0  0  0
 21 22  2  0  0  0  0
 21 43  1  0  0  0  0
 22 23  1  0  0  0  0
 22 44  1  0  0  0  0
 23 24  2  0  0  0  0
 23 45  1  0  0  0  0
 24 25  1  0  0  0  0
 25 46  1  0  0  0  0
 25 47  1  0  0  0  0
 25 48  1  0  0  0  0
M  CHG  1   8   1
M  END
> <s_m_source_file>
AV-unprocessed.smi

> <i_m_source_file_index>
502

> <i_lp_mmshare_version>
43012

> <i_f3d_flags>
0

> <s_epik_input>
W0NIM11DKD1PKVtOSF1bQ0gyXVtDSDJdYyhuMSluKGMoYzEyKVtjSF1bY0hdW2NIXVtjSF0yKVtDSDJdW0NIMl1PYzNbY0hdW2NIXVtjSF1bY0hdYzNbQ0gzXQ==

> <s_epik_cmdline>
J2VwaWtfcHl0aG9uJywgJy1waCcsICc3LjAnLCAnLXRuJywgJzgnLCAnLW1hJywgJzIwMCcsICctbWV0YWxfYmluZGluZycsICctaW1hZScsICc8aW5maWxlLm1hZT4nLCAnLW9tYWUnLCAnPG91dGZpbGUubWFlPic=

> <r_lp_tautomer_probability>
1

> <r_epik_Ionization_Penalty>
1.10789

> <r_epik_Ionization_Penalty_Charging>
1.10789

> <r_epik_Ionization_Penalty_Neutral>
3.05925e-07

> <r_epik_State_Penalty>
1.16562

> <r_epik_Charging_Adjusted_Penalty>
2.27351

> <i_epik_Tot_Q>
1

> <i_epik_Tot_abs_Q>
1

> <r_epik_Metal_State_Penalty>
1.2518

> <b_epik_Metal_Only>
0

> <s_lp_Force_Field>
OPLS_2005

> <r_lp_Energy>
20.1677

> <b_lp_Chiralities_Consistent>
1

> <s_lp_Variant>
AV-unprocessed.smi:502-2

> <Gold.Version>
5.8.1

> <Gold.Id.Protein>
6NUR|6NUR_protein|mol2

> <Gold.PLP.Fitness>
61.9550

> <Gold.PLP.PLP>
-54.0100

> <Gold.PLP.part.hbond>
-2.7752

> <Gold.PLP.part.metal>
0.0000

> <Gold.PLP.part.buried>
0.4447

> <Gold.PLP.part.nonpolar>
-51.2882

> <Gold.PLP.part.repulsive>
0.1644

> <Gold.PLP.ligand.clash>
0.0000

> <Gold.PLP.ligand.torsion>
0.5840

> <Gold.PLP.Chemscore.Hbond>
3.0000

> <Gold.PLP.Chemscore.CHOScore>
0.0000

> <Gold.PLP.Chemscore.Metal>
0.0000

> <Gold.Chemscore.Hbonds>
donor molecule, donor type, donor heavy atom, donor atom, acceptor molecule, acceptor atom, score
      L1  H     8    49       P1  7948  2.00
      P1  H  6896  6907       L1     3  0.94

> <Gold.PLP.Chemscore.Internal.Correction>
0.1130

> <Gold.Rescore>
     Score         DG    S(hbond)    S(metal)    S(lipo)     H(rot)  DE(clash)    DE(int)     intcor
     20.50     -21.15       1.68        0.00     133.61       2.18       0.22       0.44       ----

> <Gold.Chemscore.Fitness>
20.4958

> <Gold.Chemscore.DG>
-21.1537

> <Gold.Chemscore.ZeroCoef>
-5.4800

> <Gold.Chemscore.Hbond>
1.6827

> <Gold.Chemscore.Metal>
0.0000

> <Gold.Chemscore.Lipo>
133.6119

> <Gold.Chemscore.Internal_Hbond>
0.0000

> <Gold.Chemscore.DEClash>
0.2227

> <Gold.Chemscore.DEInternal>
0.4352

> <Gold.Chemscore.Rot>
2.1793

> <Gold.Chemscore.Internal.Correction>
   9.000000E+99

> <Gold.Chemscore.Hbonds>
donor molecule, donor type, donor heavy atom, donor atom, acceptor molecule, acceptor atom, score
      L1  H     8    49       P1  7948  0.90
      P1  H  6896  6907       L1     3  0.88

> <Gold.Chemscore.Hbond.Weighted>
-5.6202

> <Gold.Chemscore.Metal.Weighted>
-0.0000

> <Gold.Chemscore.Lipo.Weighted>
-15.6326

> <Gold.Chemscore.Internal_Hbond.Weighted>
0.0000

> <Gold.Chemscore.DEClash.Weighted>
0.2227

> <Gold.Chemscore.DEInternal.Weighted>
0.4352

> <Gold.Chemscore.Rot.Weighted>
5.5791

> <Gold.Chemscore.Internal.Correction.Weighted>
   9.000000E+99

> <Gold.Protein.RotatedTorsions>
[ 6907 6896 6895 6894 ] final   -8.06 input  -60.11 | X-H torsion
[ 7974 7965 7964 7962 ] final  174.05 input  175.53 | X-H torsion
[ 8008 7997 7996 7995 ] final  -36.38 input   59.86 | X-H torsion
[ 10167 10162 10161 10158 ] final  -28.32 input  -65.29 | X-H torsion
[ 10718 10713 10712 10709 ] final   78.05 input   66.30 | X-H torsion
[ 10763 10752 10751 10750 ] final -138.03 input  -60.55 | X-H torsion
[ 11005 11000 10999 10996 ] final  -80.00 input  -57.11 | X-H torsion

> <Gold.Protein.ActiveResidues>
 VAL166  LYS551  ARG553  GLY616  TRP617  ASP618  TYR619  PRO620  LYS621  CYS622 
 ASP623  PHE694  ASN695  SER759  ASP760  ASP761  ALA762  ILE779  LEU786  VAL792 
 PHE793  MET794  SER795  GLU796  ALA797  LYS798  CYS799  TRP800  GLU811  SER814 

> <Gold.Protein.RotatedAtoms>
  151.4397  135.1019  159.9666 H   0  0  0  0  0  0  0  0  0  0  0  0  # atno 6907 bound_to 6896
  152.4927  133.8540  159.7227 H   0  0  0  0  0  0  0  0  0  0  0  0  # atno 6908 bound_to 6896
  150.9097  133.6954  159.2885 H   0  0  0  0  0  0  0  0  0  0  0  0  # atno 6909 bound_to 6896
  144.7230  139.9739  143.6437 H   0  0  0  0  0  0  0  0  0  0  0  0  # atno 7974 bound_to 7965
  154.4074  140.1632  156.2364 H   0  0  0  0  0  0  0  0  0  0  0  0  # atno 8008 bound_to 7997
  155.9238  140.3419  155.6171 H   0  0  0  0  0  0  0  0  0  0  0  0  # atno 8009 bound_to 7997
  155.7189  140.0766  157.2330 H   0  0  0  0  0  0  0  0  0  0  0  0  # atno 8010 bound_to 7997
  140.7271  143.4020  151.1249 H   0  0  0  0  0  0  0  0  0  0  0  0  # atno 10167 bound_to 10162
  157.6732  130.9850  150.1730 H   0  0  0  0  0  0  0  0  0  0  0  0  # atno 10718 bound_to 10713
  154.8647  135.3624  154.5319 H   0  0  0  0  0  0  0  0  0  0  0  0  # atno 10763 bound_to 10752
  153.5944  135.7014  153.5415 H   0  0  0  0  0  0  0  0  0  0  0  0  # atno 10764 bound_to 10752
  153.3345  135.4115  155.1484 H   0  0  0  0  0  0  0  0  0  0  0  0  # atno 10765 bound_to 10752
  141.1668  133.7130  156.8207 H   0  0  0  0  0  0  0  0  0  0  0  0  # atno 11005 bound_to 11000
  146.0541  139.3539  143.0621 LP  0  0  0  0  0  0  0  0  0  0  0  0  # atno 17320 bound_to 7965
  145.8177  140.9694  143.0915 LP  0  0  0  0  0  0  0  0  0  0  0  0  # atno 17321 bound_to 7965
  139.7641  143.8591  152.3107 LP  0  0  0  0  0  0  0  0  0  0  0  0  # atno 17342 bound_to 10162
  139.8487  144.7175  150.9241 LP  0  0  0  0  0  0  0  0  0  0  0  0  # atno 17343 bound_to 10162
  156.2480  130.3697  149.8264 LP  0  0  0  0  0  0  0  0  0  0  0  0  # atno 17370 bound_to 10713
  156.6045  130.8560  151.3439 LP  0  0  0  0  0  0  0  0  0  0  0  0  # atno 17371 bound_to 10713
  140.2121  134.8819  157.3286 LP  0  0  0  0  0  0  0  0  0  0  0  0  # atno 17394 bound_to 11000
  140.2075  134.4178  155.7630 LP  0  0  0  0  0  0  0  0  0  0  0  0  # atno 17395 bound_to 11000

$$$$
