AV-unprocessed.smi:2554|AV-procd|sdf|10021|dock2
  -GOLD-   2272014 63D 1   1.00000     0.00000
 Structure written by MMmdl.
 22 22  0  0  0  0  0  0  0  0  3 V2000
  149.7434  140.8780  154.5092 C   0  0  0  0  0  0  0  0  0  0  0  0
  148.3345  141.2337  154.1734 C   0  0  0  0  0  0  0  0  0  0  0  0
  147.7992  142.4557  154.4892 N   0  0  0  0  0  0  0  0  0  0  0  0
  146.5299  142.5307  154.0842 C   0  0  0  0  0  0  0  0  0  0  0  0
  146.2457  141.3615  153.5064 N   0  3  0  0  0  0  0  0  0  0  0  0
  147.3355  140.5283  153.5416 C   0  0  0  0  0  0  0  0  0  0  0  0
  147.3091  139.1505  152.9629 C   0  0  0  0  0  0  0  0  0  0  0  0
  146.8282  139.1599  151.5043 C   0  0  0  0  0  0  0  0  0  0  0  0
  146.5739  137.7952  151.0109 N   0  3  0  0  0  0  0  0  0  0  0  0
  148.2950  143.2000  154.9642 H   0  0  0  0  0  0  0  0  0  0  0  0
  149.9774  139.8687  154.1702 H   0  0  0  0  0  0  0  0  0  0  0  0
  149.8972  140.9253  155.5876 H   0  0  0  0  0  0  0  0  0  0  0  0
  150.4323  141.5728  154.0283 H   0  0  0  0  0  0  0  0  0  0  0  0
  145.8661  143.3690  154.2015 H   0  0  0  0  0  0  0  0  0  0  0  0
  148.3095  138.7210  153.0297 H   0  0  0  0  0  0  0  0  0  0  0  0
  146.6578  138.5221  153.5720 H   0  0  0  0  0  0  0  0  0  0  0  0
  145.9104  139.7415  151.4094 H   0  0  0  0  0  0  0  0  0  0  0  0
  147.5750  139.6283  150.8621 H   0  0  0  0  0  0  0  0  0  0  0  0
  146.4512  137.8177  150.0084 H   0  0  0  0  0  0  0  0  0  0  0  0
  145.7374  137.4269  151.4411 H   0  0  0  0  0  0  0  0  0  0  0  0
  147.3579  137.1998  151.2373 H   0  0  0  0  0  0  0  0  0  0  0  0
  145.3462  141.1261  153.1056 H   0  0  0  0  0  0  0  0  0  0  0  0
  1  2  1  0  0  0  0
  1 11  1  0  0  0  0
  1 12  1  0  0  0  0
  1 13  1  0  0  0  0
  2  6  2  0  0  0  0
  2  3  1  0  0  0  0
  3 10  1  0  0  0  0
  3  4  1  0  0  0  0
  4  5  2  0  0  0  0
  4 14  1  0  0  0  0
  5  6  1  0  0  0  0
  5 22  1  0  0  0  0
  6  7  1  0  0  0  0
  7  8  1  0  0  0  0
  7 15  1  0  0  0  0
  7 16  1  0  0  0  0
  8  9  1  0  0  0  0
  8 17  1  0  0  0  0
  8 18  1  0  0  0  0
  9 19  1  0  0  0  0
  9 20  1  0  0  0  0
  9 21  1  0  0  0  0
M  CHG  1   5   1
M  CHG  1   9   1
M  END
> <s_m_source_file>
AV-unprocessed.smi

> <i_m_source_file_index>
2554

> <i_lp_mmshare_version>
43012

> <i_f3d_flags>
0

> <s_epik_input>
W0NIM11jMVtuSF1bY0hdbmMxW0NIMl1bQ0gyXVtOSDJd

> <s_epik_cmdline>
J2VwaWtfcHl0aG9uJywgJy1waCcsICc3LjAnLCAnLXRuJywgJzgnLCAnLW1hJywgJzIwMCcsICctbWV0YWxfYmluZGluZycsICctaW1hZScsICc8aW5maWxlLm1hZT4nLCAnLW9tYWUnLCAnPG91dGZpbGUubWFlPic=

> <r_lp_tautomer_probability>
1

> <r_epik_Ionization_Penalty>
1.44166

> <r_epik_Ionization_Penalty_Charging>
0.0086666

> <r_epik_Ionization_Penalty_Neutral>
1.43299

> <r_epik_State_Penalty>
0.799657

> <r_epik_Charging_Adjusted_Penalty>
0.808323

> <i_epik_Tot_Q>
2

> <i_epik_Tot_abs_Q>
2

> <r_epik_Metal_State_Penalty>
4.62592

> <b_epik_Metal_Only>
0

> <s_lp_Force_Field>
OPLS_2005

> <r_lp_Energy>
11.4182

> <b_lp_Chiralities_Consistent>
1

> <s_lp_Variant>
AV-unprocessed.smi:2554-3

> <Gold.Version>
5.8.1

> <Gold.Id.Protein>
6NUR|6NUR_protein|mol2

> <Gold.PLP.Fitness>
40.7199

> <Gold.PLP.PLP>
-22.8665

> <Gold.PLP.part.hbond>
-3.9173

> <Gold.PLP.part.metal>
0.0000

> <Gold.PLP.part.buried>
-0.3667

> <Gold.PLP.part.nonpolar>
-18.8033

> <Gold.PLP.part.repulsive>
0.6845

> <Gold.PLP.ligand.clash>
0.0000

> <Gold.PLP.ligand.torsion>
0.0736

> <Gold.PLP.Chemscore.Hbond>
6.0000

> <Gold.PLP.Chemscore.CHOScore>
0.0000

> <Gold.PLP.Chemscore.Metal>
0.0000

> <Gold.Chemscore.Hbonds>
donor molecule, donor type, donor heavy atom, donor atom, acceptor molecule, acceptor atom, score
      L1  H     3    10       P1  8028  2.00
      L1  H     5    22       P1 10175  1.90
      L1  H     9    21       P1  7948  2.00

> <Gold.PLP.Chemscore.Internal.Correction>
0.0006

> <Gold.Rescore>
     Score         DG    S(hbond)    S(metal)    S(lipo)     H(rot)  DE(clash)    DE(int)     intcor
     15.34     -15.45       2.83        0.00      36.67       1.47       0.00       0.11       ----

> <Gold.Chemscore.Fitness>
15.3395

> <Gold.Chemscore.DG>
-15.4527

> <Gold.Chemscore.ZeroCoef>
-5.4800

> <Gold.Chemscore.Hbond>
2.8264

> <Gold.Chemscore.Metal>
0.0000

> <Gold.Chemscore.Lipo>
36.6680

> <Gold.Chemscore.Internal_Hbond>
0.0000

> <Gold.Chemscore.DEClash>
0.0000

> <Gold.Chemscore.DEInternal>
0.1132

> <Gold.Chemscore.Rot>
1.4679

> <Gold.Chemscore.Internal.Correction>
   9.000000E+99

> <Gold.Chemscore.Hbonds>
donor molecule, donor type, donor heavy atom, donor atom, acceptor molecule, acceptor atom, score
      L1  H     3    10       P1  8028  0.99
      L1  H     5    22       P1 10175  0.22
      L1  H     9    21       P1  7948  1.00

> <Gold.Chemscore.Hbond.Weighted>
-9.4403

> <Gold.Chemscore.Metal.Weighted>
-0.0000

> <Gold.Chemscore.Lipo.Weighted>
-4.2902

> <Gold.Chemscore.Internal_Hbond.Weighted>
0.0000

> <Gold.Chemscore.DEClash.Weighted>
0.0000

> <Gold.Chemscore.DEInternal.Weighted>
0.1132

> <Gold.Chemscore.Rot.Weighted>
3.7577

> <Gold.Chemscore.Internal.Correction.Weighted>
   9.000000E+99

> <Gold.Protein.RotatedTorsions>
[ 6907 6896 6895 6894 ] final  -67.19 input  -60.11 | X-H torsion
[ 7974 7965 7964 7962 ] final  130.08 input  175.53 | X-H torsion
[ 8008 7997 7996 7995 ] final -100.82 input   59.86 | X-H torsion
[ 10167 10162 10161 10158 ] final  116.34 input  -65.29 | X-H torsion
[ 10718 10713 10712 10709 ] final   24.86 input   66.30 | X-H torsion
[ 10763 10752 10751 10750 ] final  155.50 input  -60.55 | X-H torsion
[ 11005 11000 10999 10996 ] final   31.89 input  -57.11 | X-H torsion

> <Gold.Protein.ActiveResidues>
 VAL166  LYS551  ARG553  GLY616  TRP617  ASP618  TYR619  PRO620  LYS621  CYS622 
 ASP623  PHE694  ASN695  SER759  ASP760  ASP761  ALA762  ILE779  LEU786  VAL792 
 PHE793  MET794  SER795  GLU796  ALA797  LYS798  CYS799  TRP800  GLU811  SER814 

> <Gold.Protein.RotatedAtoms>
  150.7423  134.5915  159.5989 H   0  0  0  0  0  0  0  0  0  0  0  0  # atno 6907 bound_to 6896
  152.3301  134.7267  160.0300 H   0  0  0  0  0  0  0  0  0  0  0  0  # atno 6908 bound_to 6896
  151.7753  133.3309  159.3492 H   0  0  0  0  0  0  0  0  0  0  0  0  # atno 6909 bound_to 6896
  145.0218  139.4125  143.5194 H   0  0  0  0  0  0  0  0  0  0  0  0  # atno 7974 bound_to 7965
  154.8339  140.0438  157.1496 H   0  0  0  0  0  0  0  0  0  0  0  0  # atno 8008 bound_to 7997
  154.9121  140.3015  155.5240 H   0  0  0  0  0  0  0  0  0  0  0  0  # atno 8009 bound_to 7997
  156.2988  140.2356  156.4162 H   0  0  0  0  0  0  0  0  0  0  0  0  # atno 8010 bound_to 7997
  139.6254  144.7107  151.2545 H   0  0  0  0  0  0  0  0  0  0  0  0  # atno 10167 bound_to 10162
  157.1856  130.6822  149.6130 H   0  0  0  0  0  0  0  0  0  0  0  0  # atno 10718 bound_to 10713
  154.1694  135.2805  155.3085 H   0  0  0  0  0  0  0  0  0  0  0  0  # atno 10763 bound_to 10752
  154.6087  135.5506  153.7453 H   0  0  0  0  0  0  0  0  0  0  0  0  # atno 10764 bound_to 10752
  153.0169  135.6410  154.1834 H   0  0  0  0  0  0  0  0  0  0  0  0  # atno 10765 bound_to 10752
  140.2792  134.2992  155.7805 H   0  0  0  0  0  0  0  0  0  0  0  0  # atno 11005 bound_to 11000
  146.3486  139.9719  142.8705 LP  0  0  0  0  0  0  0  0  0  0  0  0  # atno 17320 bound_to 7965
  145.1886  140.9801  143.4224 LP  0  0  0  0  0  0  0  0  0  0  0  0  # atno 17321 bound_to 7965
  140.7407  143.6578  150.8191 LP  0  0  0  0  0  0  0  0  0  0  0  0  # atno 17342 bound_to 10162
  140.0195  143.5557  152.2806 LP  0  0  0  0  0  0  0  0  0  0  0  0  # atno 17343 bound_to 10162
  155.9718  130.4632  150.6173 LP  0  0  0  0  0  0  0  0  0  0  0  0  # atno 17370 bound_to 10713
  157.3910  131.0795  151.1393 LP  0  0  0  0  0  0  0  0  0  0  0  0  # atno 17371 bound_to 10713
  141.2165  133.7515  156.9454 LP  0  0  0  0  0  0  0  0  0  0  0  0  # atno 17394 bound_to 11000
  140.1299  134.9362  157.2323 LP  0  0  0  0  0  0  0  0  0  0  0  0  # atno 17395 bound_to 11000

$$$$
