AV-unprocessed.smi:2845|AV-procd|sdf|10944|dock3
  -GOLD-   2272015393D 1   1.00000     0.00000
 Structure written by MMmdl.
 42 44  0  0  0  0  0  0  0  0  1 V2000
  152.9777  143.2923  161.1468 C   0  0  0  0  0  0  0  0  0  0  0  0
  152.3951  142.8307  159.8227 C   0  0  0  0  0  0  0  0  0  0  0  0
  152.7569  141.5608  159.3175 C   0  0  0  0  0  0  0  0  0  0  0  0
  152.2375  141.0947  158.0896 C   0  0  0  0  0  0  0  0  0  0  0  0
  152.4501  139.9049  157.4130 N   0  0  0  0  0  0  0  0  0  0  0  0
  151.6862  140.0673  156.3356 C   0  0  0  0  0  0  0  0  0  0  0  0
  151.0062  141.2252  156.2343 N   0  0  0  0  0  0  0  0  0  0  0  0
  150.1122  141.6411  155.1718 C   0  0  0  0  0  0  0  0  0  0  0  0
  148.6741  141.1261  155.3957 C   0  0  1  0  0  0  0  0  0  0  0  0
  147.9815  142.0209  156.2421 O   0  0  0  0  0  0  0  0  0  0  0  0
  147.8725  140.9419  154.0908 C   0  0  0  0  0  0  0  0  0  0  0  0
  146.9857  139.7913  154.1367 N   0  0  0  0  0  0  0  0  0  0  0  0
  147.0064  138.6488  153.4437 C   0  0  0  0  0  0  0  0  0  0  0  0
  146.0343  137.8044  153.7657 N   0  0  0  0  0  0  0  0  0  0  0  0
  145.4072  138.5554  154.7170 C   0  0  0  0  0  0  0  0  0  0  0  0
  143.9687  137.9239  155.6366 S   0  0  1  0  0  0  0  0  0  0  0  0
  143.2621  139.5906  156.0414 C   0  0  0  0  0  0  0  0  0  0  0  0
  143.0403  137.2877  154.5997 O   0  0  0  0  0  0  0  0  0  0  0  0
  145.9145  139.7600  154.9653 N   0  0  0  0  0  0  0  0  0  0  0  0
  151.3391  141.9411  157.3778 C   0  0  0  0  0  0  0  0  0  0  0  0
  150.9719  143.2060  157.8689 C   0  0  0  0  0  0  0  0  0  0  0  0
  151.5001  143.6567  159.0958 C   0  0  0  0  0  0  0  0  0  0  0  0
  151.0982  145.0260  159.6145 C   0  0  0  0  0  0  0  0  0  0  0  0
  153.6546  142.5472  161.5658 H   0  0  0  0  0  0  0  0  0  0  0  0
  152.1833  143.4684  161.8725 H   0  0  0  0  0  0  0  0  0  0  0  0
  153.5392  144.2175  161.0158 H   0  0  0  0  0  0  0  0  0  0  0  0
  153.4389  140.9321  159.8708 H   0  0  0  0  0  0  0  0  0  0  0  0
  151.6178  139.3022  155.5761 H   0  0  0  0  0  0  0  0  0  0  0  0
  150.1286  142.7289  155.0901 H   0  0  0  0  0  0  0  0  0  0  0  0
  150.5250  141.2569  154.2390 H   0  0  0  0  0  0  0  0  0  0  0  0
  148.7126  140.1661  155.9124 H   0  0  0  0  0  0  0  0  0  0  0  0
  148.3836  142.8733  156.1694 H   0  0  0  0  0  0  0  0  0  0  0  0
  147.2689  141.8272  153.8868 H   0  0  0  0  0  0  0  0  0  0  0  0
  148.5517  140.8199  153.2457 H   0  0  0  0  0  0  0  0  0  0  0  0
  147.7574  138.4233  152.7006 H   0  0  0  0  0  0  0  0  0  0  0  0
  143.6047  139.9144  157.0240 H   0  0  0  0  0  0  0  0  0  0  0  0
  142.1735  139.5432  156.0531 H   0  0  0  0  0  0  0  0  0  0  0  0
  143.5640  140.3361  155.3055 H   0  0  0  0  0  0  0  0  0  0  0  0
  150.2917  143.8259  157.3038 H   0  0  0  0  0  0  0  0  0  0  0  0
  150.4058  145.5211  158.9334 H   0  0  0  0  0  0  0  0  0  0  0  0
  151.9739  145.6661  159.7228 H   0  0  0  0  0  0  0  0  0  0  0  0
  150.6087  144.9393  160.5847 H   0  0  0  0  0  0  0  0  0  0  0  0
  1  2  1  0  0  0  0
  1 24  1  0  0  0  0
  1 25  1  0  0  0  0
  1 26  1  0  0  0  0
  2 22  1  0  0  0  0
  2  3  2  0  0  0  0
  3  4  1  0  0  0  0
  3 27  1  0  0  0  0
  4 20  2  0  0  0  0
  4  5  1  0  0  0  0
  5  6  2  0  0  0  0
  6  7  1  0  0  0  0
  6 28  1  0  0  0  0
  7  8  1  0  0  0  0
  7 20  1  0  0  0  0
  8  9  1  0  0  0  0
  8 29  1  0  0  0  0
  8 30  1  0  0  0  0
  9 10  1  0  0  0  0
  9 11  1  0  0  0  0
  9 31  1  0  0  0  0
 10 32  1  0  0  0  0
 11 12  1  0  0  0  0
 11 33  1  0  0  0  0
 11 34  1  0  0  0  0
 12 19  1  0  0  0  0
 12 13  1  0  0  0  0
 13 14  2  0  0  0  0
 13 35  1  0  0  0  0
 14 15  1  0  0  0  0
 15 16  1  0  0  0  0
 15 19  2  0  0  0  0
 16 17  1  0  0  0  0
 16 18  2  0  0  0  0
 17 36  1  0  0  0  0
 17 37  1  0  0  0  0
 17 38  1  0  0  0  0
 20 21  1  0  0  0  0
 21 22  2  0  0  0  0
 21 39  1  0  0  0  0
 22 23  1  0  0  0  0
 23 40  1  0  0  0  0
 23 41  1  0  0  0  0
 23 42  1  0  0  0  0
M  END
> <s_m_source_file>
AV-unprocessed.smi

> <i_m_source_file_index>
2845

> <i_lp_mmshare_version>
43012

> <i_f3d_flags>
0

> <s_epik_input>
W0NIM11jKFtjSF0xKWMoW0NIM10pW2NIXWMoYzEyKW4oW2NIXW4yKVtDSDJdW0NASF0oW09IXSlbQ0gyXW4zW2NIXW5jKG4zKVtTQF0oPU8pW0NIM10=

> <s_epik_cmdline>
J2VwaWtfcHl0aG9uJywgJy1waCcsICc3LjAnLCAnLXRuJywgJzgnLCAnLW1hJywgJzIwMCcsICctbWV0YWxfYmluZGluZycsICctaW1hZScsICc8aW5maWxlLm1hZT4nLCAnLW9tYWUnLCAnPG91dGZpbGUubWFlPic=

> <r_lp_tautomer_probability>
1

> <r_epik_Ionization_Penalty>
0.0968684

> <r_epik_Ionization_Penalty_Charging>
0

> <r_epik_Ionization_Penalty_Neutral>
0.0968684

> <r_epik_State_Penalty>
0.0870047

> <r_epik_Charging_Adjusted_Penalty>
0.0870047

> <i_epik_Tot_Q>
0

> <i_epik_Tot_abs_Q>
0

> <r_epik_Metal_State_Penalty>
0.0746849

> <b_epik_Metal_Only>
0

> <s_lp_Force_Field>
OPLS_2005

> <r_lp_Energy>
8.02323

> <b_lp_Chiralities_Consistent>
1

> <s_lp_Variant>
AV-unprocessed.smi:2845-2

> <Gold.Version>
5.8.1

> <Gold.Id.Protein>
6NUR|6NUR_protein|mol2

> <Gold.PLP.Fitness>
47.5461

> <Gold.PLP.PLP>
-38.0959

> <Gold.PLP.part.hbond>
-2.0000

> <Gold.PLP.part.metal>
0.0000

> <Gold.PLP.part.buried>
-3.3665

> <Gold.PLP.part.nonpolar>
-32.7877

> <Gold.PLP.part.repulsive>
0.3810

> <Gold.PLP.ligand.clash>
0.0000

> <Gold.PLP.ligand.torsion>
1.6833

> <Gold.PLP.Chemscore.Hbond>
2.0000

> <Gold.PLP.Chemscore.CHOScore>
1.9243

> <Gold.PLP.Chemscore.Metal>
0.0000

> <Gold.Chemscore.Hbonds>
donor molecule, donor type, donor heavy atom, donor atom, acceptor molecule, acceptor atom, score
      L1  H    10    32       P1  8028  1.00
      P1  H  7997  8008       L1     5  0.88
      L1  C    13    35       P1  7948  0.79
      L1  C    13    35       P1  7957  0.13

> <Gold.PLP.Chemscore.Internal.Correction>
1.0438

> <Gold.Rescore>
     Score         DG    S(hbond)    S(metal)    S(lipo)     H(rot)  DE(clash)    DE(int)     intcor
     11.80     -13.80       1.03        0.00     101.03       2.71       0.44       1.56       ----

> <Gold.Chemscore.Fitness>
11.8003

> <Gold.Chemscore.DG>
-13.8034

> <Gold.Chemscore.ZeroCoef>
-5.4800

> <Gold.Chemscore.Hbond>
1.0307

> <Gold.Chemscore.Metal>
0.0000

> <Gold.Chemscore.Lipo>
101.0283

> <Gold.Chemscore.Internal_Hbond>
0.0000

> <Gold.Chemscore.DEClash>
0.4444

> <Gold.Chemscore.DEInternal>
1.5587

> <Gold.Chemscore.Rot>
2.7108

> <Gold.Chemscore.Internal.Correction>
   9.000000E+99

> <Gold.Chemscore.Hbonds>
donor molecule, donor type, donor heavy atom, donor atom, acceptor molecule, acceptor atom, score
      L1  H    10    32       P1  8028  0.89
      P1  H  7997  8008       L1     5  0.17

> <Gold.Chemscore.Hbond.Weighted>
-3.4427

> <Gold.Chemscore.Metal.Weighted>
-0.0000

> <Gold.Chemscore.Lipo.Weighted>
-11.8203

> <Gold.Chemscore.Internal_Hbond.Weighted>
0.0000

> <Gold.Chemscore.DEClash.Weighted>
0.4444

> <Gold.Chemscore.DEInternal.Weighted>
1.5587

> <Gold.Chemscore.Rot.Weighted>
6.9396

> <Gold.Chemscore.Internal.Correction.Weighted>
   9.000000E+99

> <Gold.Protein.RotatedTorsions>
[ 6907 6896 6895 6894 ] final    4.13 input  -60.11 | X-H torsion
[ 7974 7965 7964 7962 ] final  -54.41 input  175.53 | X-H torsion
[ 8008 7997 7996 7995 ] final  -61.83 input   59.86 | X-H torsion
[ 10167 10162 10161 10158 ] final   70.08 input  -65.29 | X-H torsion
[ 10718 10713 10712 10709 ] final  162.68 input   66.30 | X-H torsion
[ 10763 10752 10751 10750 ] final  138.61 input  -60.55 | X-H torsion
[ 11005 11000 10999 10996 ] final  -14.05 input  -57.11 | X-H torsion

> <Gold.Protein.ActiveResidues>
 VAL166  LYS551  ARG553  GLY616  TRP617  ASP618  TYR619  PRO620  LYS621  CYS622 
 ASP623  PHE694  ASN695  SER759  ASP760  ASP761  ALA762  ILE779  LEU786  VAL792 
 PHE793  MET794  SER795  GLU796  ALA797  LYS798  CYS799  TRP800  GLU811  SER814 

> <Gold.Protein.RotatedAtoms>
  151.6364  135.1017  160.0132 H   0  0  0  0  0  0  0  0  0  0  0  0  # atno 6907 bound_to 6896
  152.4078  133.6912  159.6380 H   0  0  0  0  0  0  0  0  0  0  0  0  # atno 6908 bound_to 6896
  150.7971  133.8594  159.3268 H   0  0  0  0  0  0  0  0  0  0  0  0  # atno 6909 bound_to 6896
  145.8859  140.8109  142.9816 H   0  0  0  0  0  0  0  0  0  0  0  0  # atno 7974 bound_to 7965
  154.4468  140.1009  156.6492 H   0  0  0  0  0  0  0  0  0  0  0  0  # atno 8008 bound_to 7997
  155.5416  140.3483  155.4429 H   0  0  0  0  0  0  0  0  0  0  0  0  # atno 8009 bound_to 7997
  156.0593  140.1322  156.9949 H   0  0  0  0  0  0  0  0  0  0  0  0  # atno 8010 bound_to 7997
  140.0608  144.5234  150.7295 H   0  0  0  0  0  0  0  0  0  0  0  0  # atno 10167 bound_to 10162
  157.1192  131.0488  151.2423 H   0  0  0  0  0  0  0  0  0  0  0  0  # atno 10718 bound_to 10713
  153.8924  135.3031  155.3447 H   0  0  0  0  0  0  0  0  0  0  0  0  # atno 10763 bound_to 10752
  154.7710  135.4886  153.9652 H   0  0  0  0  0  0  0  0  0  0  0  0  # atno 10764 bound_to 10752
  153.1290  135.6799  153.9308 H   0  0  0  0  0  0  0  0  0  0  0  0  # atno 10765 bound_to 10752
  140.7824  133.8352  155.9304 H   0  0  0  0  0  0  0  0  0  0  0  0  # atno 11005 bound_to 11000
  144.6728  140.1454  143.7434 LP  0  0  0  0  0  0  0  0  0  0  0  0  # atno 17320 bound_to 7965
  145.8968  139.2407  143.1517 LP  0  0  0  0  0  0  0  0  0  0  0  0  # atno 17321 bound_to 7965
  140.7172  143.2555  151.4395 LP  0  0  0  0  0  0  0  0  0  0  0  0  # atno 17342 bound_to 10162
  139.5895  144.1531  152.2070 LP  0  0  0  0  0  0  0  0  0  0  0  0  # atno 17343 bound_to 10162
  157.4491  130.7588  149.7136 LP  0  0  0  0  0  0  0  0  0  0  0  0  # atno 17370 bound_to 10713
  155.9832  130.4002  150.3374 LP  0  0  0  0  0  0  0  0  0  0  0  0  # atno 17371 bound_to 10713
  140.9469  134.1829  157.4757 LP  0  0  0  0  0  0  0  0  0  0  0  0  # atno 17394 bound_to 11000
  139.8741  134.9894  156.5455 LP  0  0  0  0  0  0  0  0  0  0  0  0  # atno 17395 bound_to 11000

$$$$
