AV-unprocessed.smi:2121|AV-procd|sdf|8640|dock4
  -GOLD-   2272011383D 1   1.00000     0.00000
 Structure written by MMmdl.
 49 50  0  0  0  0  0  0  0  0  1 V2000
  150.8818  144.9208  158.7788 C   0  0  0  0  0  0  0  0  0  0  0  0
  152.0537  144.2640  158.0274 C   0  0  2  0  0  0  0  0  0  0  0  0
  151.6057  143.2242  156.9817 C   0  0  0  0  0  0  0  0  0  0  0  0
  151.1764  141.9849  157.6245 N   0  0  0  0  0  0  0  0  0  0  0  0
  150.4694  141.0802  156.8024 C   0  0  0  0  0  0  0  0  0  0  0  0
  149.8989  139.9102  157.3578 C   0  0  0  0  0  0  0  0  0  0  0  0
  149.1913  139.0263  156.5210 C   0  0  0  0  0  0  0  0  0  0  0  0
  149.0774  139.3242  155.1495 C   0  0  0  0  0  0  0  0  0  0  0  0
  148.3100  138.3912  154.2232 C   0  0  0  0  0  0  0  0  0  0  0  0
  148.7677  137.0065  154.2577 N   0  0  0  0  0  0  0  0  0  0  0  0
  148.6396  136.1819  155.3081 C   0  0  0  0  0  0  0  0  0  0  0  0
  148.0837  136.5078  156.3584 O   0  0  0  0  0  0  0  0  0  0  0  0
  149.2273  134.7722  155.1380 C   0  0  2  0  0  0  0  0  0  0  0  0
  150.7516  134.8572  155.3216 C   0  0  0  0  0  0  0  0  0  0  0  0
  148.9578  134.2655  153.7933 N   0  0  0  0  0  0  0  0  0  0  0  0
  148.7399  132.9785  153.4860 C   0  0  0  0  0  0  0  0  0  0  0  0
  148.4964  132.8021  152.1871 N   0  0  0  0  0  0  0  0  0  0  0  0
  148.7574  132.0552  154.2977 O   0  0  0  0  0  0  0  0  0  0  0  0
  149.6832  140.5104  154.6824 C   0  0  0  0  0  0  0  0  0  0  0  0
  150.3594  141.3627  155.4807 N   0  0  0  0  0  0  0  0  0  0  0  0
  152.1690  141.4443  158.5494 C   0  0  0  0  0  0  0  0  0  0  0  0
  152.5727  142.5077  159.5864 C   0  0  1  0  0  0  0  0  0  0  0  0
  153.7131  142.0233  160.4876 C   0  0  0  0  0  0  0  0  0  0  0  0
  153.0124  143.6889  158.9174 O   0  0  0  0  0  0  0  0  0  0  0  0
  150.2394  145.4675  158.0880 H   0  0  0  0  0  0  0  0  0  0  0  0
  151.2455  145.6303  159.5223 H   0  0  0  0  0  0  0  0  0  0  0  0
  150.2562  144.1897  159.2902 H   0  0  0  0  0  0  0  0  0  0  0  0
  152.5739  145.0625  157.4979 H   0  0  0  0  0  0  0  0  0  0  0  0
  150.8260  143.6566  156.3562 H   0  0  0  0  0  0  0  0  0  0  0  0
  152.4405  142.9904  156.3195 H   0  0  0  0  0  0  0  0  0  0  0  0
  150.0056  139.6743  158.4061 H   0  0  0  0  0  0  0  0  0  0  0  0
  148.7479  138.1300  156.9292 H   0  0  0  0  0  0  0  0  0  0  0  0
  147.2439  138.4313  154.4532 H   0  0  0  0  0  0  0  0  0  0  0  0
  148.4191  138.7590  153.2029 H   0  0  0  0  0  0  0  0  0  0  0  0
  149.2339  136.6570  153.4329 H   0  0  0  0  0  0  0  0  0  0  0  0
  148.8065  134.0925  155.8818 H   0  0  0  0  0  0  0  0  0  0  0  0
  151.0104  135.2229  156.3162 H   0  0  0  0  0  0  0  0  0  0  0  0
  151.2141  135.5226  154.5908 H   0  0  0  0  0  0  0  0  0  0  0  0
  151.2115  133.8748  155.2089 H   0  0  0  0  0  0  0  0  0  0  0  0
  148.9147  134.9482  153.0513 H   0  0  0  0  0  0  0  0  0  0  0  0
  148.3218  131.8768  151.8241 H   0  0  0  0  0  0  0  0  0  0  0  0
  148.4939  133.6000  151.5684 H   0  0  0  0  0  0  0  0  0  0  0  0
  149.6236  140.7916  153.6412 H   0  0  0  0  0  0  0  0  0  0  0  0
  151.7685  140.5719  159.0671 H   0  0  0  0  0  0  0  0  0  0  0  0
  153.0428  141.1157  157.9846 H   0  0  0  0  0  0  0  0  0  0  0  0
  151.7177  142.7413  160.2211 H   0  0  0  0  0  0  0  0  0  0  0  0
  153.4281  141.1228  161.0319 H   0  0  0  0  0  0  0  0  0  0  0  0
  153.9801  142.7847  161.2209 H   0  0  0  0  0  0  0  0  0  0  0  0
  154.6058  141.7944  159.9050 H   0  0  0  0  0  0  0  0  0  0  0  0
  1  2  1  0  0  0  0
  1 25  1  0  0  0  0
  1 26  1  0  0  0  0
  1 27  1  0  0  0  0
  2 24  1  0  0  0  0
  2  3  1  0  0  0  0
  2 28  1  0  0  0  0
  3  4  1  0  0  0  0
  3 29  1  0  0  0  0
  3 30  1  0  0  0  0
  4  5  1  0  0  0  0
  4 21  1  0  0  0  0
  5 20  1  0  0  0  0
  5  6  2  0  0  0  0
  6  7  1  0  0  0  0
  6 31  1  0  0  0  0
  7  8  2  0  0  0  0
  7 32  1  0  0  0  0
  8  9  1  0  0  0  0
  8 19  1  0  0  0  0
  9 10  1  0  0  0  0
  9 33  1  0  0  0  0
  9 34  1  0  0  0  0
 10 11  1  0  0  0  0
 10 35  1  0  0  0  0
 11 12  2  0  0  0  0
 11 13  1  0  0  0  0
 13 14  1  0  0  0  0
 13 15  1  0  0  0  0
 13 36  1  0  0  0  0
 14 37  1  0  0  0  0
 14 38  1  0  0  0  0
 14 39  1  0  0  0  0
 15 16  1  0  0  0  0
 15 40  1  0  0  0  0
 16 17  1  0  0  0  0
 16 18  2  0  0  0  0
 17 41  1  0  0  0  0
 17 42  1  0  0  0  0
 19 20  2  0  0  0  0
 19 43  1  0  0  0  0
 21 22  1  0  0  0  0
 21 44  1  0  0  0  0
 21 45  1  0  0  0  0
 22 23  1  0  0  0  0
 22 24  1  0  0  0  0
 22 46  1  0  0  0  0
 23 47  1  0  0  0  0
 23 48  1  0  0  0  0
 23 49  1  0  0  0  0
M  END
> <s_m_source_file>
AV-unprocessed.smi

> <i_m_source_file_index>
2121

> <i_lp_mmshare_version>
43012

> <i_f3d_flags>
0

> <s_epik_input>
W0NIM11bQ0BASF0xW0NIMl1OKFtDSDJdW0NASF0oTzEpW0NIM10pYzJbY0hdW2NIXWMoW2NIXW4yKVtDSDJdW05IXUMoPU8pW0NASF0oW0NIM10pW05IXUMoPU8pW05IMl0=

> <s_epik_cmdline>
J2VwaWtfcHl0aG9uJywgJy1waCcsICc3LjAnLCAnLXRuJywgJzgnLCAnLW1hJywgJzIwMCcsICctbWV0YWxfYmluZGluZycsICctaW1hZScsICc8aW5maWxlLm1hZT4nLCAnLW9tYWUnLCAnPG91dGZpbGUubWFlPic=

> <r_lp_tautomer_probability>
1

> <r_epik_Ionization_Penalty>
0.0063713

> <r_epik_Ionization_Penalty_Charging>
0

> <r_epik_Ionization_Penalty_Neutral>
0.0063713

> <r_epik_State_Penalty>
0.00467069

> <r_epik_Charging_Adjusted_Penalty>
0.00467069

> <i_epik_Tot_Q>
0

> <i_epik_Tot_abs_Q>
0

> <r_epik_Metal_State_Penalty>
-0

> <b_epik_Metal_Only>
0

> <s_lp_Force_Field>
OPLS_2005

> <r_lp_Energy>
12.6407

> <b_lp_Chiralities_Consistent>
1

> <s_lp_Variant>
AV-unprocessed.smi:2121-1

> <Gold.Version>
5.8.1

> <Gold.Id.Protein>
6NUR|6NUR_protein|mol2

> <Gold.PLP.Fitness>
47.2106

> <Gold.PLP.PLP>
-38.8428

> <Gold.PLP.part.hbond>
-3.6302

> <Gold.PLP.part.metal>
0.0000

> <Gold.PLP.part.buried>
-5.7514

> <Gold.PLP.part.nonpolar>
-29.4093

> <Gold.PLP.part.repulsive>
0.2278

> <Gold.PLP.ligand.clash>
0.0000

> <Gold.PLP.ligand.torsion>
1.1190

> <Gold.PLP.Chemscore.Hbond>
2.5743

> <Gold.PLP.Chemscore.CHOScore>
0.8457

> <Gold.PLP.Chemscore.Metal>
0.0000

> <Gold.Chemscore.Hbonds>
donor molecule, donor type, donor heavy atom, donor atom, acceptor molecule, acceptor atom, score
      L1  H    10    35       P1  7948  0.88
      L1  H    15    40       P1  7948  0.90
      L1  H    17    41       P1 10747  0.67
      L1  C    19    43       P1  7957  0.86

> <Gold.PLP.Chemscore.Internal.Correction>
0.3459

> <Gold.Rescore>
     Score         DG    S(hbond)    S(metal)    S(lipo)     H(rot)  DE(clash)    DE(int)     intcor
     13.84     -16.51       2.27        0.00      86.15       2.58       0.03       2.65       ----

> <Gold.Chemscore.Fitness>
13.8380

> <Gold.Chemscore.DG>
-16.5148

> <Gold.Chemscore.ZeroCoef>
-5.4800

> <Gold.Chemscore.Hbond>
2.2665

> <Gold.Chemscore.Metal>
0.0000

> <Gold.Chemscore.Lipo>
86.1469

> <Gold.Chemscore.Internal_Hbond>
0.0000

> <Gold.Chemscore.DEClash>
0.0259

> <Gold.Chemscore.DEInternal>
2.6508

> <Gold.Chemscore.Rot>
2.5838

> <Gold.Chemscore.Internal.Correction>
   9.000000E+99

> <Gold.Chemscore.Hbonds>
donor molecule, donor type, donor heavy atom, donor atom, acceptor molecule, acceptor atom, score
      L1  H    10    35       P1  7948  0.83
      L1  H    15    40       P1  7948  0.18
      L1  H    17    41       P1 10747  0.67

> <Gold.Chemscore.Hbond.Weighted>
-7.5700

> <Gold.Chemscore.Metal.Weighted>
-0.0000

> <Gold.Chemscore.Lipo.Weighted>
-10.0792

> <Gold.Chemscore.Internal_Hbond.Weighted>
0.0000

> <Gold.Chemscore.DEClash.Weighted>
0.0259

> <Gold.Chemscore.DEInternal.Weighted>
2.6508

> <Gold.Chemscore.Rot.Weighted>
6.6145

> <Gold.Chemscore.Internal.Correction.Weighted>
   9.000000E+99

> <Gold.Protein.RotatedTorsions>
[ 6907 6896 6895 6894 ] final -140.20 input  -60.11 | X-H torsion
[ 7974 7965 7964 7962 ] final -150.75 input  175.53 | X-H torsion
[ 8008 7997 7996 7995 ] final  108.76 input   59.86 | X-H torsion
[ 10167 10162 10161 10158 ] final -158.13 input  -65.29 | X-H torsion
[ 10718 10713 10712 10709 ] final -161.77 input   66.30 | X-H torsion
[ 10763 10752 10751 10750 ] final -160.87 input  -60.55 | X-H torsion
[ 11005 11000 10999 10996 ] final -158.07 input  -57.11 | X-H torsion

> <Gold.Protein.ActiveResidues>
 VAL166  LYS551  ARG553  GLY616  TRP617  ASP618  TYR619  PRO620  LYS621  CYS622 
 ASP623  PHE694  ASN695  SER759  ASP760  ASP761  ALA762  ILE779  LEU786  VAL792 
 PHE793  MET794  SER795  GLU796  ALA797  LYS798  CYS799  TRP800  GLU811  SER814 

> <Gold.Protein.RotatedAtoms>
  151.0576  133.5571  159.2636 H   0  0  0  0  0  0  0  0  0  0  0  0  # atno 6907 bound_to 6896
  151.2559  135.0637  159.9089 H   0  0  0  0  0  0  0  0  0  0  0  0  # atno 6908 bound_to 6896
  152.5392  134.0329  159.8087 H   0  0  0  0  0  0  0  0  0  0  0  0  # atno 6909 bound_to 6896
  144.7889  140.4889  143.5786 H   0  0  0  0  0  0  0  0  0  0  0  0  # atno 7974 bound_to 7965
  156.1928  140.3070  155.9367 H   0  0  0  0  0  0  0  0  0  0  0  0  # atno 8008 bound_to 7997
  155.3134  140.0452  157.3053 H   0  0  0  0  0  0  0  0  0  0  0  0  # atno 8009 bound_to 7997
  154.5473  140.2280  155.8552 H   0  0  0  0  0  0  0  0  0  0  0  0  # atno 8010 bound_to 7997
  139.6716  143.9735  152.2287 H   0  0  0  0  0  0  0  0  0  0  0  0  # atno 10167 bound_to 10162
  156.6010  130.8810  151.2914 H   0  0  0  0  0  0  0  0  0  0  0  0  # atno 10718 bound_to 10713
  154.7353  135.3056  154.8822 H   0  0  0  0  0  0  0  0  0  0  0  0  # atno 10763 bound_to 10752
  153.9653  135.6748  153.4750 H   0  0  0  0  0  0  0  0  0  0  0  0  # atno 10764 bound_to 10752
  153.0956  135.4937  154.8695 H   0  0  0  0  0  0  0  0  0  0  0  0  # atno 10765 bound_to 10752
  140.6577  134.4383  157.5235 H   0  0  0  0  0  0  0  0  0  0  0  0  # atno 11005 bound_to 11000
  145.5847  139.1491  143.3216 LP  0  0  0  0  0  0  0  0  0  0  0  0  # atno 17320 bound_to 7965
  146.2133  140.5975  142.9050 LP  0  0  0  0  0  0  0  0  0  0  0  0  # atno 17321 bound_to 7965
  139.9501  144.6626  150.8180 LP  0  0  0  0  0  0  0  0  0  0  0  0  # atno 17342 bound_to 10162
  140.7620  143.3188  151.2671 LP  0  0  0  0  0  0  0  0  0  0  0  0  # atno 17343 bound_to 10162
  157.7279  130.9650  150.1721 LP  0  0  0  0  0  0  0  0  0  0  0  0  # atno 17370 bound_to 10713
  156.2469  130.3696  149.8275 LP  0  0  0  0  0  0  0  0  0  0  0  0  # atno 17371 bound_to 10713
  139.9024  134.8526  156.1843 LP  0  0  0  0  0  0  0  0  0  0  0  0  # atno 17394 bound_to 11000
  141.0489  133.6899  156.1735 LP  0  0  0  0  0  0  0  0  0  0  0  0  # atno 17395 bound_to 11000

$$$$
