AV-unprocessed.smi:2016|AV-procd|sdf|8166|dock6
  -GOLD-   2272010413D 1   1.00000     0.00000
 Structure written by MMmdl.
 42 43  0  0  0  0  0  0  0  0  1 V2000
  144.1044  145.7105  154.6454 C   0  0  0  0  0  0  0  0  0  0  0  0
  144.2345  144.6396  155.7310 C   0  0  0  0  0  0  0  0  0  0  0  0
  143.8694  144.9253  156.8715 O   0  0  0  0  0  0  0  0  0  0  0  0
  144.7449  143.4268  155.4076 N   0  0  0  0  0  0  0  0  0  0  0  0
  145.2674  143.0484  154.0888 C   0  0  0  0  0  0  0  0  0  0  0  0
  146.7987  142.9254  154.1787 C   0  0  0  0  0  0  0  0  0  0  0  0
  147.2193  141.9240  155.2802 C   0  0  0  0  0  0  0  0  0  0  0  0
  148.6625  141.9696  155.4931 N   0  0  0  0  0  0  0  0  0  0  0  0
  149.3873  141.0230  156.1085 C   0  0  0  0  0  0  0  0  0  0  0  0
  148.8984  139.9867  156.5611 O   0  0  0  0  0  0  0  0  0  0  0  0
  150.8963  141.2910  156.2023 C   0  0  0  0  0  0  0  0  0  0  0  0
  151.3142  141.8416  157.5032 N   0  0  0  0  0  0  0  0  0  0  0  0
  150.6771  143.0210  157.9288 C   0  0  0  0  0  0  0  0  0  0  0  0
  150.9821  143.6062  159.0947 C   0  0  0  0  0  0  0  0  0  0  0  0
  151.9933  142.9939  159.9215 C   0  0  0  0  0  0  0  0  0  0  0  0
  152.6269  141.8617  159.5366 C   0  0  0  0  0  0  0  0  0  0  0  0
  153.6983  141.1996  160.4001 C   0  0  0  0  0  0  0  0  0  0  0  0
  154.9066  141.3747  159.8637 F   0  0  0  0  0  0  0  0  0  0  0  0
  153.7227  141.7057  161.6339 F   0  0  0  0  0  0  0  0  0  0  0  0
  153.4741  139.8891  160.5025 F   0  0  0  0  0  0  0  0  0  0  0  0
  152.2851  141.2266  158.2475 C   0  0  0  0  0  0  0  0  0  0  0  0
  152.8365  140.1977  157.8522 O   0  0  0  0  0  0  0  0  0  0  0  0
  146.4923  142.2122  156.6117 C   0  0  0  0  0  0  0  0  0  0  0  0
  144.9757  142.3722  156.4015 C   0  0  0  0  0  0  0  0  0  0  0  0
  145.0758  145.9352  154.2039 H   0  0  0  0  0  0  0  0  0  0  0  0
  143.7082  146.6362  155.0646 H   0  0  0  0  0  0  0  0  0  0  0  0
  143.4233  145.3831  153.8594 H   0  0  0  0  0  0  0  0  0  0  0  0
  144.8352  142.0910  153.7939 H   0  0  0  0  0  0  0  0  0  0  0  0
  144.9972  143.7438  153.2956 H   0  0  0  0  0  0  0  0  0  0  0  0
  147.2012  142.6155  153.2138 H   0  0  0  0  0  0  0  0  0  0  0  0
  147.2238  143.9082  154.3894 H   0  0  0  0  0  0  0  0  0  0  0  0
  146.9364  140.9191  154.9601 H   0  0  0  0  0  0  0  0  0  0  0  0
  149.1466  142.7860  155.1489 H   0  0  0  0  0  0  0  0  0  0  0  0
  151.4193  140.3558  155.9976 H   0  0  0  0  0  0  0  0  0  0  0  0
  151.1944  141.9644  155.3962 H   0  0  0  0  0  0  0  0  0  0  0  0
  149.9378  143.4188  157.2486 H   0  0  0  0  0  0  0  0  0  0  0  0
  150.4865  144.5143  159.4053 H   0  0  0  0  0  0  0  0  0  0  0  0
  152.2379  143.4619  160.8633 H   0  0  0  0  0  0  0  0  0  0  0  0
  146.6862  141.4107  157.3258 H   0  0  0  0  0  0  0  0  0  0  0  0
  146.8867  143.1262  157.0588 H   0  0  0  0  0  0  0  0  0  0  0  0
  144.4884  142.5766  157.3557 H   0  0  0  0  0  0  0  0  0  0  0  0
  144.5447  141.4360  156.0434 H   0  0  0  0  0  0  0  0  0  0  0  0
  1  2  1  0  0  0  0
  1 25  1  0  0  0  0
  1 26  1  0  0  0  0
  1 27  1  0  0  0  0
  2  3  2  0  0  0  0
  2  4  1  0  0  0  0
  4 24  1  0  0  0  0
  4  5  1  0  0  0  0
  5  6  1  0  0  0  0
  5 28  1  0  0  0  0
  5 29  1  0  0  0  0
  6  7  1  0  0  0  0
  6 30  1  0  0  0  0
  6 31  1  0  0  0  0
  7  8  1  0  0  0  0
  7 23  1  0  0  0  0
  7 32  1  0  0  0  0
  8  9  1  0  0  0  0
  8 33  1  0  0  0  0
  9 10  2  0  0  0  0
  9 11  1  0  0  0  0
 11 12  1  0  0  0  0
 11 34  1  0  0  0  0
 11 35  1  0  0  0  0
 12 21  1  0  0  0  0
 12 13  1  0  0  0  0
 13 14  2  0  0  0  0
 13 36  1  0  0  0  0
 14 15  1  0  0  0  0
 14 37  1  0  0  0  0
 15 16  2  0  0  0  0
 15 38  1  0  0  0  0
 16 17  1  0  0  0  0
 16 21  1  0  0  0  0
 17 18  1  0  0  0  0
 17 19  1  0  0  0  0
 17 20  1  0  0  0  0
 21 22  2  0  0  0  0
 23 24  1  0  0  0  0
 23 39  1  0  0  0  0
 23 40  1  0  0  0  0
 24 41  1  0  0  0  0
 24 42  1  0  0  0  0
M  END
> <s_m_source_file>
AV-unprocessed.smi

> <i_m_source_file_index>
2016

> <i_lp_mmshare_version>
43012

> <i_f3d_flags>
0

> <s_epik_input>
W0NIM11DKD1PKU4xW0NIMl1bQ0gyXVtDSF0oW0NIMl1bQ0gyXTEpW05IXUMoPU8pW0NIMl1uMltjSF1bY0hdW2NIXWMoQyhGKShGKUYpYzI9Tw==

> <s_epik_cmdline>
J2VwaWtfcHl0aG9uJywgJy1waCcsICc3LjAnLCAnLXRuJywgJzgnLCAnLW1hJywgJzIwMCcsICctbWV0YWxfYmluZGluZycsICctaW1hZScsICc8aW5maWxlLm1hZT4nLCAnLW9tYWUnLCAnPG91dGZpbGUubWFlPic=

> <r_lp_tautomer_probability>
1

> <r_epik_Ionization_Penalty>
1.12606e-06

> <r_epik_Ionization_Penalty_Charging>
2.00242e-09

> <r_epik_Ionization_Penalty_Neutral>
1.12405e-06

> <r_epik_State_Penalty>
-0

> <r_epik_Charging_Adjusted_Penalty>
2.00242e-09

> <i_epik_Tot_Q>
0

> <i_epik_Tot_abs_Q>
0

> <r_epik_Metal_State_Penalty>
-0

> <b_epik_Metal_Only>
0

> <s_lp_Force_Field>
OPLS_2005

> <r_lp_Energy>
31.7258

> <b_lp_Chiralities_Consistent>
1

> <s_lp_Variant>
AV-unprocessed.smi:2016-1

> <Gold.Version>
5.8.1

> <Gold.Id.Protein>
6NUR|6NUR_protein|mol2

> <Gold.PLP.Fitness>
49.7310

> <Gold.PLP.PLP>
-43.8195

> <Gold.PLP.part.hbond>
-2.0000

> <Gold.PLP.part.metal>
0.0000

> <Gold.PLP.part.buried>
-3.6441

> <Gold.PLP.part.nonpolar>
-37.8653

> <Gold.PLP.part.repulsive>
0.1829

> <Gold.PLP.ligand.clash>
0.0000

> <Gold.PLP.ligand.torsion>
0.9614

> <Gold.PLP.Chemscore.Hbond>
1.5040

> <Gold.PLP.Chemscore.CHOScore>
1.0000

> <Gold.PLP.Chemscore.Metal>
0.0000

> <Gold.Chemscore.Hbonds>
donor molecule, donor type, donor heavy atom, donor atom, acceptor molecule, acceptor atom, score
      L1  H     8    33       P1  8028  0.58
      P1  H  7997  8008       L1    22  0.94
      L1  C    13    36       P1  8028  1.00

> <Gold.PLP.Chemscore.Internal.Correction>
0.3222

> <Gold.Rescore>
     Score         DG    S(hbond)    S(metal)    S(lipo)     H(rot)  DE(clash)    DE(int)     intcor
     10.96     -14.23       0.85        0.00      86.44       1.64       0.62       2.65       ----

> <Gold.Chemscore.Fitness>
10.9574

> <Gold.Chemscore.DG>
-14.2272

> <Gold.Chemscore.ZeroCoef>
-5.4800

> <Gold.Chemscore.Hbond>
0.8506

> <Gold.Chemscore.Metal>
0.0000

> <Gold.Chemscore.Lipo>
86.4415

> <Gold.Chemscore.Internal_Hbond>
0.0000

> <Gold.Chemscore.DEClash>
0.6200

> <Gold.Chemscore.DEInternal>
2.6498

> <Gold.Chemscore.Rot>
1.6435

> <Gold.Chemscore.Internal.Correction>
   9.000000E+99

> <Gold.Chemscore.Hbonds>
donor molecule, donor type, donor heavy atom, donor atom, acceptor molecule, acceptor atom, score
      L1  H     8    33       P1  8028  0.55
      P1  H  7997  8008       L1    22  0.90

> <Gold.Chemscore.Hbond.Weighted>
-2.8409

> <Gold.Chemscore.Metal.Weighted>
-0.0000

> <Gold.Chemscore.Lipo.Weighted>
-10.1137

> <Gold.Chemscore.Internal_Hbond.Weighted>
0.0000

> <Gold.Chemscore.DEClash.Weighted>
0.6200

> <Gold.Chemscore.DEInternal.Weighted>
2.6498

> <Gold.Chemscore.Rot.Weighted>
4.2074

> <Gold.Chemscore.Internal.Correction.Weighted>
   9.000000E+99

> <Gold.Protein.RotatedTorsions>
[ 6907 6896 6895 6894 ] final  135.23 input  -60.11 | X-H torsion
[ 7974 7965 7964 7962 ] final   42.48 input  175.53 | X-H torsion
[ 8008 7997 7996 7995 ] final  -83.71 input   59.86 | X-H torsion
[ 10167 10162 10161 10158 ] final  148.16 input  -65.29 | X-H torsion
[ 10718 10713 10712 10709 ] final  121.12 input   66.30 | X-H torsion
[ 10763 10752 10751 10750 ] final  -67.24 input  -60.55 | X-H torsion
[ 11005 11000 10999 10996 ] final  101.35 input  -57.11 | X-H torsion

> <Gold.Protein.ActiveResidues>
 VAL166  LYS551  ARG553  GLY616  TRP617  ASP618  TYR619  PRO620  LYS621  CYS622 
 ASP623  PHE694  ASN695  SER759  ASP760  ASP761  ALA762  ILE779  LEU786  VAL792 
 PHE793  MET794  SER795  GLU796  ALA797  LYS798  CYS799  TRP800  GLU811  SER814 

> <Gold.Protein.RotatedAtoms>
  152.3026  133.5671  159.5628 H   0  0  0  0  0  0  0  0  0  0  0  0  # atno 6907 bound_to 6896
  150.7285  134.0269  159.3729 H   0  0  0  0  0  0  0  0  0  0  0  0  # atno 6908 bound_to 6896
  151.8167  135.0664  160.0471 H   0  0  0  0  0  0  0  0  0  0  0  0  # atno 6909 bound_to 6896
  146.0737  139.5296  142.9581 H   0  0  0  0  0  0  0  0  0  0  0  0  # atno 7974 bound_to 7965
  154.6220  140.0615  156.9626 H   0  0  0  0  0  0  0  0  0  0  0  0  # atno 8008 bound_to 7997
  155.1803  140.3298  155.4358 H   0  0  0  0  0  0  0  0  0  0  0  0  # atno 8009 bound_to 7997
  156.2436  140.1899  156.6900 H   0  0  0  0  0  0  0  0  0  0  0  0  # atno 8010 bound_to 7997
  139.4879  144.5701  151.7072 H   0  0  0  0  0  0  0  0  0  0  0  0  # atno 10167 bound_to 10162
  157.5841  131.1072  150.8130 H   0  0  0  0  0  0  0  0  0  0  0  0  # atno 10718 bound_to 10713
  154.3716  135.6094  153.5743 H   0  0  0  0  0  0  0  0  0  0  0  0  # atno 10763 bound_to 10752
  152.9790  135.5839  154.4515 H   0  0  0  0  0  0  0  0  0  0  0  0  # atno 10764 bound_to 10752
  154.4269  135.2847  155.1916 H   0  0  0  0  0  0  0  0  0  0  0  0  # atno 10765 bound_to 10752
  139.8773  134.9179  156.4894 H   0  0  0  0  0  0  0  0  0  0  0  0  # atno 11005 bound_to 11000
  145.6345  141.0297  143.1845 LP  0  0  0  0  0  0  0  0  0  0  0  0  # atno 17320 bound_to 7965
  144.7248  139.7912  143.7369 LP  0  0  0  0  0  0  0  0  0  0  0  0  # atno 17321 bound_to 7965
  140.5286  144.0766  150.6046 LP  0  0  0  0  0  0  0  0  0  0  0  0  # atno 17342 bound_to 10162
  140.3749  143.2834  152.0237 LP  0  0  0  0  0  0  0  0  0  0  0  0  # atno 17343 bound_to 10162
  156.8569  130.5099  149.5307 LP  0  0  0  0  0  0  0  0  0  0  0  0  # atno 17370 bound_to 10713
  156.0888  130.5880  150.9697 LP  0  0  0  0  0  0  0  0  0  0  0  0  # atno 17371 bound_to 10713
  140.8670  133.8017  155.9324 LP  0  0  0  0  0  0  0  0  0  0  0  0  # atno 17394 bound_to 11000
  140.8992  134.2400  157.5051 LP  0  0  0  0  0  0  0  0  0  0  0  0  # atno 17395 bound_to 11000

$$$$
