AV-unprocessed.smi:3058|AV-procd|sdf|11674|dock5
  -GOLD-   2272017 83D 1   1.00000     0.00000
 Structure written by MMmdl.
 39 41  0  0  0  0  0  0  0  0  2 V2000
  150.4330  141.6154  158.6316 O   0  0  0  0  0  0  0  0  0  0  0  0
  149.9977  142.6323  158.0897 C   0  0  0  0  0  0  0  0  0  0  0  0
  149.1361  142.5974  157.0614 N   0  0  0  0  0  0  0  0  0  0  0  0
  148.6188  141.3808  156.4471 C   0  0  0  0  0  0  0  0  0  0  0  0
  149.0409  141.2679  154.9729 C   0  0  0  0  0  0  0  0  0  0  0  0
  150.1100  140.2133  154.7661 C   0  0  0  0  0  0  0  0  0  0  0  0
  151.3355  140.2902  155.4639 C   0  0  0  0  0  0  0  0  0  0  0  0
  152.3121  139.2935  155.2585 C   0  0  0  0  0  0  0  0  0  0  0  0
  152.0403  138.2413  154.3605 C   0  0  0  0  0  0  0  0  0  0  0  0
  150.8559  138.2002  153.7110 N   0  3  0  0  0  0  0  0  0  0  0  0
  149.8954  139.1357  153.8796 C   0  0  0  0  0  0  0  0  0  0  0  0
  150.4069  144.0319  158.5820 C   0  0  1  0  0  0  0  0  0  0  0  0
  150.1655  144.2849  160.0910 C   0  0  0  0  0  0  0  0  0  0  0  0
  151.5419  144.7677  160.5860 C   0  0  1  0  0  0  0  0  0  0  0  0
  152.5191  143.5779  160.6307 C   0  0  0  0  0  0  0  0  0  0  0  0
  152.8274  143.3358  159.1417 C   0  0  0  0  0  0  0  0  0  0  0  0
  151.9162  144.3636  158.4348 C   0  0  2  0  0  0  0  0  0  0  0  0
  152.0494  145.5527  159.3818 C   0  0  0  0  0  0  0  0  0  0  0  0
  148.8182  143.4761  156.6788 H   0  0  0  0  0  0  0  0  0  0  0  0
  148.9558  140.5087  157.0102 H   0  0  0  0  0  0  0  0  0  0  0  0
  147.5312  141.3973  156.5230 H   0  0  0  0  0  0  0  0  0  0  0  0
  148.1763  141.0275  154.3528 H   0  0  0  0  0  0  0  0  0  0  0  0
  149.4195  142.2252  154.6117 H   0  0  0  0  0  0  0  0  0  0  0  0
  151.5255  141.1023  156.1510 H   0  0  0  0  0  0  0  0  0  0  0  0
  153.2552  139.3359  155.7837 H   0  0  0  0  0  0  0  0  0  0  0  0
  152.7288  137.4372  154.1445 H   0  0  0  0  0  0  0  0  0  0  0  0
  148.9910  138.9928  153.3060 H   0  0  0  0  0  0  0  0  0  0  0  0
  149.8338  144.7707  158.0182 H   0  0  0  0  0  0  0  0  0  0  0  0
  149.4177  145.0679  160.2247 H   0  0  0  0  0  0  0  0  0  0  0  0
  149.8182  143.4124  160.6460 H   0  0  0  0  0  0  0  0  0  0  0  0
  151.4966  145.3305  161.5188 H   0  0  0  0  0  0  0  0  0  0  0  0
  153.4289  143.8364  161.1739 H   0  0  0  0  0  0  0  0  0  0  0  0
  152.0789  142.7031  161.1109 H   0  0  0  0  0  0  0  0  0  0  0  0
  153.8752  143.5596  158.9359 H   0  0  0  0  0  0  0  0  0  0  0  0
  152.6580  142.3051  158.8332 H   0  0  0  0  0  0  0  0  0  0  0  0
  152.2147  144.5762  157.4077 H   0  0  0  0  0  0  0  0  0  0  0  0
  151.4106  146.3964  159.1141 H   0  0  0  0  0  0  0  0  0  0  0  0
  153.0760  145.9055  159.4965 H   0  0  0  0  0  0  0  0  0  0  0  0
  150.6791  137.4294  153.0661 H   0  0  0  0  0  0  0  0  0  0  0  0
  1  2  2  0  0  0  0
  2  3  1  0  0  0  0
  2 12  1  0  0  0  0
  3  4  1  0  0  0  0
  3 19  1  0  0  0  0
  4  5  1  0  0  0  0
  4 20  1  0  0  0  0
  4 21  1  0  0  0  0
  5  6  1  0  0  0  0
  5 22  1  0  0  0  0
  5 23  1  0  0  0  0
  6 11  1  0  0  0  0
  6  7  2  0  0  0  0
  7  8  1  0  0  0  0
  7 24  1  0  0  0  0
  8  9  2  0  0  0  0
  8 25  1  0  0  0  0
  9 10  1  0  0  0  0
  9 26  1  0  0  0  0
 10 11  2  0  0  0  0
 10 39  1  0  0  0  0
 11 27  1  0  0  0  0
 12 17  1  0  0  0  0
 12 13  1  0  0  0  0
 12 28  1  0  0  0  0
 13 14  1  0  0  0  0
 13 29  1  0  0  0  0
 13 30  1  0  0  0  0
 14 18  1  0  0  0  0
 14 15  1  0  0  0  0
 14 31  1  0  0  0  0
 15 16  1  0  0  0  0
 15 32  1  0  0  0  0
 15 33  1  0  0  0  0
 16 17  1  0  0  0  0
 16 34  1  0  0  0  0
 16 35  1  0  0  0  0
 17 18  1  0  0  0  0
 17 36  1  0  0  0  0
 18 37  1  0  0  0  0
 18 38  1  0  0  0  0
M  CHG  1  10   1
M  END
> <s_m_source_file>
AV-unprocessed.smi

> <i_m_source_file_index>
3058

> <i_lp_mmshare_version>
43012

> <i_f3d_flags>
0

> <s_epik_input>
W0NIMl0xW0NIMl1bQ0BIXShbQ0gyXTIpW0NAQEhdKFtDSDJdW0NAQEhdMTIpQyg9TylbTkhdW0NIMl1bQ0gyXWMzW2NIXVtjSF1bY0hdbltjSF0z

> <s_epik_cmdline>
J2VwaWtfcHl0aG9uJywgJy1waCcsICc3LjAnLCAnLXRuJywgJzgnLCAnLW1hJywgJzIwMCcsICctbWV0YWxfYmluZGluZycsICctaW1hZScsICc8aW5maWxlLm1hZT4nLCAnLW9tYWUnLCAnPG91dGZpbGUubWFlPic=

> <r_epik_Ionization_Penalty>
2.24375

> <r_epik_Ionization_Penalty_Charging>
2.24375

> <r_epik_Ionization_Penalty_Neutral>
1.89995e-08

> <r_epik_State_Penalty>
2.39035

> <r_epik_Charging_Adjusted_Penalty>
4.63411

> <i_epik_Tot_Q>
1

> <i_epik_Tot_abs_Q>
1

> <r_epik_Metal_State_Penalty>
2.40369

> <b_epik_Metal_Only>
0

> <s_lp_Force_Field>
OPLS_2005

> <r_lp_Energy>
53.8875

> <b_lp_Chiralities_Consistent>
1

> <s_lp_Variant>
AV-unprocessed.smi:3058-6

> <Gold.Version>
5.8.1

> <Gold.Id.Protein>
6NUR|6NUR_protein|mol2

> <Gold.PLP.Fitness>
53.6736

> <Gold.PLP.PLP>
-45.4363

> <Gold.PLP.part.hbond>
-2.2947

> <Gold.PLP.part.metal>
0.0000

> <Gold.PLP.part.buried>
-4.2943

> <Gold.PLP.part.nonpolar>
-38.3980

> <Gold.PLP.part.repulsive>
0.1116

> <Gold.PLP.ligand.clash>
0.0000

> <Gold.PLP.ligand.torsion>
0.3805

> <Gold.PLP.Chemscore.Hbond>
2.9920

> <Gold.PLP.Chemscore.CHOScore>
0.0000

> <Gold.PLP.Chemscore.Metal>
0.0000

> <Gold.Chemscore.Hbonds>
donor molecule, donor type, donor heavy atom, donor atom, acceptor molecule, acceptor atom, score
      L1  H     3    19       P1  8028  1.00
      L1  H    10    39       P1  7949  0.78

> <Gold.PLP.Chemscore.Internal.Correction>
0.0224

> <Gold.Rescore>
     Score         DG    S(hbond)    S(metal)    S(lipo)     H(rot)  DE(clash)    DE(int)     intcor
     18.69     -20.32       1.18        0.00     125.00       1.45       0.08       1.55       ----

> <Gold.Chemscore.Fitness>
18.6887

> <Gold.Chemscore.DG>
-20.3239

> <Gold.Chemscore.ZeroCoef>
-5.4800

> <Gold.Chemscore.Hbond>
1.1806

> <Gold.Chemscore.Metal>
0.0000

> <Gold.Chemscore.Lipo>
124.9980

> <Gold.Chemscore.Internal_Hbond>
0.0000

> <Gold.Chemscore.DEClash>
0.0811

> <Gold.Chemscore.DEInternal>
1.5541

> <Gold.Chemscore.Rot>
1.4548

> <Gold.Chemscore.Internal.Correction>
   9.000000E+99

> <Gold.Chemscore.Hbonds>
donor molecule, donor type, donor heavy atom, donor atom, acceptor molecule, acceptor atom, score
      L1  H     3    19       P1  8028  0.72
      L1  H    10    39       P1  7949  0.03

> <Gold.Chemscore.Hbond.Weighted>
-3.9433

> <Gold.Chemscore.Metal.Weighted>
-0.0000

> <Gold.Chemscore.Lipo.Weighted>
-14.6248

> <Gold.Chemscore.Internal_Hbond.Weighted>
0.0000

> <Gold.Chemscore.DEClash.Weighted>
0.0811

> <Gold.Chemscore.DEInternal.Weighted>
1.5541

> <Gold.Chemscore.Rot.Weighted>
3.7242

> <Gold.Chemscore.Internal.Correction.Weighted>
   9.000000E+99

> <Gold.Protein.RotatedTorsions>
[ 6907 6896 6895 6894 ] final  -57.23 input  -60.11 | X-H torsion
[ 7974 7965 7964 7962 ] final   67.70 input  175.53 | X-H torsion
[ 8008 7997 7996 7995 ] final -161.34 input   59.86 | X-H torsion
[ 10167 10162 10161 10158 ] final  110.18 input  -65.29 | X-H torsion
[ 10718 10713 10712 10709 ] final  175.24 input   66.30 | X-H torsion
[ 10763 10752 10751 10750 ] final   32.48 input  -60.55 | X-H torsion
[ 11005 11000 10999 10996 ] final -107.33 input  -57.11 | X-H torsion

> <Gold.Protein.ActiveResidues>
 VAL166  LYS551  ARG553  GLY616  TRP617  ASP618  TYR619  PRO620  LYS621  CYS622 
 ASP623  PHE694  ASN695  SER759  ASP760  ASP761  ALA762  ILE779  LEU786  VAL792 
 PHE793  MET794  SER795  GLU796  ALA797  LYS798  CYS799  TRP800  GLU811  SER814 

> <Gold.Protein.RotatedAtoms>
  150.8102  134.7253  159.6680 H   0  0  0  0  0  0  0  0  0  0  0  0  # atno 6907 bound_to 6896
  152.4222  134.5930  159.9989 H   0  0  0  0  0  0  0  0  0  0  0  0  # atno 6908 bound_to 6896
  151.6142  133.3307  159.3110 H   0  0  0  0  0  0  0  0  0  0  0  0  # atno 6909 bound_to 6896
  145.8115  139.3035  143.1096 H   0  0  0  0  0  0  0  0  0  0  0  0  # atno 7974 bound_to 7965
  155.7907  140.0878  157.2010 H   0  0  0  0  0  0  0  0  0  0  0  0  # atno 8008 bound_to 7997
  154.3985  140.1490  156.3218 H   0  0  0  0  0  0  0  0  0  0  0  0  # atno 8009 bound_to 7997
  155.8561  140.3432  155.5728 H   0  0  0  0  0  0  0  0  0  0  0  0  # atno 8010 bound_to 7997
  139.6708  144.7125  151.1691 H   0  0  0  0  0  0  0  0  0  0  0  0  # atno 10167 bound_to 10162
  156.9377  130.9991  151.2974 H   0  0  0  0  0  0  0  0  0  0  0  0  # atno 10718 bound_to 10713
  153.0260  135.6412  154.1362 H   0  0  0  0  0  0  0  0  0  0  0  0  # atno 10763 bound_to 10752
  154.1091  135.2854  155.3236 H   0  0  0  0  0  0  0  0  0  0  0  0  # atno 10764 bound_to 10752
  154.6344  135.5481  153.7780 H   0  0  0  0  0  0  0  0  0  0  0  0  # atno 10765 bound_to 10752
  141.0960  133.8971  157.1962 H   0  0  0  0  0  0  0  0  0  0  0  0  # atno 11005 bound_to 11000
  145.9772  140.8712  143.0133 LP  0  0  0  0  0  0  0  0  0  0  0  0  # atno 17320 bound_to 7965
  144.6757  140.2029  143.7385 LP  0  0  0  0  0  0  0  0  0  0  0  0  # atno 17321 bound_to 7965
  140.7617  143.5847  150.8858 LP  0  0  0  0  0  0  0  0  0  0  0  0  # atno 17342 bound_to 10162
  139.9512  143.6270  152.3028 LP  0  0  0  0  0  0  0  0  0  0  0  0  # atno 17343 bound_to 10162
  157.5805  130.8373  149.8516 LP  0  0  0  0  0  0  0  0  0  0  0  0  # atno 17370 bound_to 10713
  156.0418  130.3737  150.1416 LP  0  0  0  0  0  0  0  0  0  0  0  0  # atno 17371 bound_to 10713
  139.9796  135.0102  156.9718 LP  0  0  0  0  0  0  0  0  0  0  0  0  # atno 17394 bound_to 11000
  140.5140  134.0974  155.7276 LP  0  0  0  0  0  0  0  0  0  0  0  0  # atno 17395 bound_to 11000

$$$$
