AV-unprocessed.smi:1856|AV-procd|sdf|7535|dock4
  -GOLD-   22720 9253D 1   1.00000     0.00000
 Structure written by MMmdl.
 44 45  0  0  0  0  0  0  0  0  1 V2000
  146.9764  134.7420  162.0831 C   0  0  0  0  0  0  0  0  0  0  0  0
  147.5085  135.0148  160.6680 C   0  0  0  0  0  0  0  0  0  0  0  0
  148.0920  136.4260  160.4586 C   0  0  0  0  0  0  0  0  0  0  0  0
  148.9734  136.5456  159.2117 C   0  0  0  0  0  0  0  0  0  0  0  0
  149.0850  135.5940  158.4387 O   0  0  0  0  0  0  0  0  0  0  0  0
  149.5763  137.7289  159.0196 N   0  0  0  0  0  0  0  0  0  0  0  0
  150.4332  138.0763  157.8886 C   0  0  2  0  0  0  0  0  0  0  0  0
  151.5839  137.0699  157.7461 C   0  0  0  0  0  0  0  0  0  0  0  0
  150.9255  139.4833  158.1089 C   0  0  0  0  0  0  0  0  0  0  0  0
  151.7569  139.7907  159.1085 N   0  0  0  0  0  0  0  0  0  0  0  0
  151.9471  141.1480  158.9462 C   0  0  0  0  0  0  0  0  0  0  0  0
  152.7269  142.0607  159.6919 C   0  0  0  0  0  0  0  0  0  0  0  0
  152.7665  143.4242  159.3341 C   0  0  0  0  0  0  0  0  0  0  0  0
  152.0280  143.8932  158.2286 C   0  0  0  0  0  0  0  0  0  0  0  0
  151.2445  143.0001  157.4727 C   0  0  0  0  0  0  0  0  0  0  0  0
  151.2094  141.6390  157.8329 C   0  0  0  0  0  0  0  0  0  0  0  0
  150.5549  140.5237  157.3168 N   0  0  0  0  0  0  0  0  0  0  0  0
  149.6646  140.5133  156.1634 C   0  0  0  0  0  0  0  0  0  0  0  0
  150.4222  140.4266  154.8225 C   0  0  1  0  0  0  0  0  0  0  0  0
  150.9440  139.0198  154.4919 C   0  0  0  0  0  0  0  0  0  0  0  0
  149.5495  140.8377  153.7921 O   0  0  0  0  0  0  0  0  0  0  0  0
  146.6662  133.7018  162.1829 H   0  0  0  0  0  0  0  0  0  0  0  0
  146.1110  135.3620  162.3174 H   0  0  0  0  0  0  0  0  0  0  0  0
  147.7423  134.9331  162.8351 H   0  0  0  0  0  0  0  0  0  0  0  0
  148.2881  134.2851  160.4467 H   0  0  0  0  0  0  0  0  0  0  0  0
  146.7160  134.8311  159.9411 H   0  0  0  0  0  0  0  0  0  0  0  0
  147.2847  137.1559  160.3884 H   0  0  0  0  0  0  0  0  0  0  0  0
  148.6751  136.7066  161.3370 H   0  0  0  0  0  0  0  0  0  0  0  0
  149.4191  138.4565  159.7022 H   0  0  0  0  0  0  0  0  0  0  0  0
  149.8456  138.0346  156.9736 H   0  0  0  0  0  0  0  0  0  0  0  0
  152.2253  137.3295  156.9036 H   0  0  0  0  0  0  0  0  0  0  0  0
  151.2048  136.0621  157.5739 H   0  0  0  0  0  0  0  0  0  0  0  0
  152.2055  137.0434  158.6420 H   0  0  0  0  0  0  0  0  0  0  0  0
  153.2954  141.7113  160.5409 H   0  0  0  0  0  0  0  0  0  0  0  0
  153.3654  144.1137  159.9108 H   0  0  0  0  0  0  0  0  0  0  0  0
  152.0627  144.9393  157.9613 H   0  0  0  0  0  0  0  0  0  0  0  0
  150.6764  143.3589  156.6276 H   0  0  0  0  0  0  0  0  0  0  0  0
  148.9854  139.6656  156.2603 H   0  0  0  0  0  0  0  0  0  0  0  0
  149.0320  141.4008  156.1972 H   0  0  0  0  0  0  0  0  0  0  0  0
  151.2658  141.1170  154.8313 H   0  0  0  0  0  0  0  0  0  0  0  0
  151.6751  138.6838  155.2273 H   0  0  0  0  0  0  0  0  0  0  0  0
  151.4339  139.0019  153.5181 H   0  0  0  0  0  0  0  0  0  0  0  0
  150.1329  138.2908  154.4709 H   0  0  0  0  0  0  0  0  0  0  0  0
  149.8448  140.4577  152.9788 H   0  0  0  0  0  0  0  0  0  0  0  0
  1  2  1  0  0  0  0
  1 22  1  0  0  0  0
  1 23  1  0  0  0  0
  1 24  1  0  0  0  0
  2  3  1  0  0  0  0
  2 25  1  0  0  0  0
  2 26  1  0  0  0  0
  3  4  1  0  0  0  0
  3 27  1  0  0  0  0
  3 28  1  0  0  0  0
  4  5  2  0  0  0  0
  4  6  1  0  0  0  0
  6  7  1  0  0  0  0
  6 29  1  0  0  0  0
  7  8  1  0  0  0  0
  7  9  1  0  0  0  0
  7 30  1  0  0  0  0
  8 31  1  0  0  0  0
  8 32  1  0  0  0  0
  8 33  1  0  0  0  0
  9 17  1  0  0  0  0
  9 10  2  0  0  0  0
 10 11  1  0  0  0  0
 11 16  2  0  0  0  0
 11 12  1  0  0  0  0
 12 13  2  0  0  0  0
 12 34  1  0  0  0  0
 13 14  1  0  0  0  0
 13 35  1  0  0  0  0
 14 15  2  0  0  0  0
 14 36  1  0  0  0  0
 15 16  1  0  0  0  0
 15 37  1  0  0  0  0
 16 17  1  0  0  0  0
 17 18  1  0  0  0  0
 18 19  1  0  0  0  0
 18 38  1  0  0  0  0
 18 39  1  0  0  0  0
 19 20  1  0  0  0  0
 19 21  1  0  0  0  0
 19 40  1  0  0  0  0
 20 41  1  0  0  0  0
 20 42  1  0  0  0  0
 20 43  1  0  0  0  0
 21 44  1  0  0  0  0
M  END
> <s_m_source_file>
AV-unprocessed.smi

> <i_m_source_file_index>
1856

> <i_lp_mmshare_version>
43012

> <i_f3d_flags>
0

> <s_epik_input>
W0NIM11bQ0gyXVtDSDJdQyg9TylbTkhdW0NASF0oW0NIM10pYyhuMSluKFtDSDJdW0NASF0oW0NIM10pW09IXSljKGMxMilbY0hdW2NIXVtjSF1bY0hdMg==

> <s_epik_cmdline>
J2VwaWtfcHl0aG9uJywgJy1waCcsICc3LjAnLCAnLXRuJywgJzgnLCAnLW1hJywgJzIwMCcsICctbWV0YWxfYmluZGluZycsICctaW1hZScsICc8aW5maWxlLm1hZT4nLCAnLW9tYWUnLCAnPG91dGZpbGUubWFlPic=

> <r_epik_Ionization_Penalty>
0.134222

> <r_epik_Ionization_Penalty_Charging>
0

> <r_epik_Ionization_Penalty_Neutral>
0.134222

> <r_epik_State_Penalty>
0.123585

> <r_epik_Charging_Adjusted_Penalty>
0.123585

> <i_epik_Tot_Q>
0

> <i_epik_Tot_abs_Q>
0

> <r_epik_Metal_State_Penalty>
0.100548

> <b_epik_Metal_Only>
0

> <s_lp_Force_Field>
OPLS_2005

> <r_lp_Energy>
3.90486

> <b_lp_Chiralities_Consistent>
1

> <s_lp_Variant>
AV-unprocessed.smi:1856-3

> <Gold.Version>
5.8.1

> <Gold.Id.Protein>
6NUR|6NUR_protein|mol2

> <Gold.PLP.Fitness>
47.9787

> <Gold.PLP.PLP>
-43.1908

> <Gold.PLP.part.hbond>
-3.5048

> <Gold.PLP.part.metal>
0.0000

> <Gold.PLP.part.buried>
-2.8376

> <Gold.PLP.part.nonpolar>
-37.6514

> <Gold.PLP.part.repulsive>
0.4269

> <Gold.PLP.ligand.clash>
0.0000

> <Gold.PLP.ligand.torsion>
0.6525

> <Gold.PLP.Chemscore.Hbond>
2.0000

> <Gold.PLP.Chemscore.CHOScore>
0.0000

> <Gold.PLP.Chemscore.Metal>
0.0000

> <Gold.Chemscore.Hbonds>
donor molecule, donor type, donor heavy atom, donor atom, acceptor molecule, acceptor atom, score
      L1  H    21    44       P1  7957  1.00
      P1  H  6896  6909       L1     5  0.42

> <Gold.PLP.Chemscore.Internal.Correction>
0.0927

> <Gold.Rescore>
     Score         DG    S(hbond)    S(metal)    S(lipo)     H(rot)  DE(clash)    DE(int)     intcor
     14.95     -17.84       1.63        0.00     112.67       2.45       1.17       1.72       ----

> <Gold.Chemscore.Fitness>
14.9483

> <Gold.Chemscore.DG>
-17.8446

> <Gold.Chemscore.ZeroCoef>
-5.4800

> <Gold.Chemscore.Hbond>
1.6299

> <Gold.Chemscore.Metal>
0.0000

> <Gold.Chemscore.Lipo>
112.6672

> <Gold.Chemscore.Internal_Hbond>
0.0000

> <Gold.Chemscore.DEClash>
1.1729

> <Gold.Chemscore.DEInternal>
1.7234

> <Gold.Chemscore.Rot>
2.4459

> <Gold.Chemscore.Internal.Correction>
   9.000000E+99

> <Gold.Chemscore.Hbonds>
donor molecule, donor type, donor heavy atom, donor atom, acceptor molecule, acceptor atom, score
      L1  H    21    44       P1  7957  0.96
      P1  H  6896  6909       L1     5  0.04

> <Gold.Chemscore.Hbond.Weighted>
-5.4440

> <Gold.Chemscore.Metal.Weighted>
-0.0000

> <Gold.Chemscore.Lipo.Weighted>
-13.1821

> <Gold.Chemscore.Internal_Hbond.Weighted>
0.0000

> <Gold.Chemscore.DEClash.Weighted>
1.1729

> <Gold.Chemscore.DEInternal.Weighted>
1.7234

> <Gold.Chemscore.Rot.Weighted>
6.2614

> <Gold.Chemscore.Internal.Correction.Weighted>
   9.000000E+99

> <Gold.Protein.RotatedTorsions>
[ 6907 6896 6895 6894 ] final   54.48 input  -60.11 | X-H torsion
[ 7974 7965 7964 7962 ] final  -87.25 input  175.53 | X-H torsion
[ 8008 7997 7996 7995 ] final  159.06 input   59.86 | X-H torsion
[ 10167 10162 10161 10158 ] final  -68.71 input  -65.29 | X-H torsion
[ 10718 10713 10712 10709 ] final -141.69 input   66.30 | X-H torsion
[ 10763 10752 10751 10750 ] final   65.28 input  -60.55 | X-H torsion
[ 11005 11000 10999 10996 ] final  141.27 input  -57.11 | X-H torsion

> <Gold.Protein.ActiveResidues>
 VAL166  LYS551  ARG553  GLY616  TRP617  ASP618  TYR619  PRO620  LYS621  CYS622 
 ASP623  PHE694  ASN695  SER759  ASP760  ASP761  ALA762  ILE779  LEU786  VAL792 
 PHE793  MET794  SER795  GLU796  ALA797  LYS798  CYS799  TRP800  GLU811  SER814 

> <Gold.Protein.RotatedAtoms>
  152.3443  134.7092  160.0254 H   0  0  0  0  0  0  0  0  0  0  0  0  # atno 6907 bound_to 6896
  151.7467  133.3319  159.3388 H   0  0  0  0  0  0  0  0  0  0  0  0  # atno 6908 bound_to 6896
  150.7499  134.6162  159.6156 H   0  0  0  0  0  0  0  0  0  0  0  0  # atno 6909 bound_to 6896
  145.4690  140.9560  143.1927 H   0  0  0  0  0  0  0  0  0  0  0  0  # atno 7974 bound_to 7965
  156.2263  140.1841  156.7355 H   0  0  0  0  0  0  0  0  0  0  0  0  # atno 8008 bound_to 7997
  154.5947  140.0645  156.9314 H   0  0  0  0  0  0  0  0  0  0  0  0  # atno 8009 bound_to 7997
  155.2277  140.3312  155.4310 H   0  0  0  0  0  0  0  0  0  0  0  0  # atno 8010 bound_to 7997
  140.5487  143.2312  151.6953 H   0  0  0  0  0  0  0  0  0  0  0  0  # atno 10167 bound_to 10162
  156.3370  130.7617  151.1746 H   0  0  0  0  0  0  0  0  0  0  0  0  # atno 10718 bound_to 10713
  153.0090  135.5362  154.6643 H   0  0  0  0  0  0  0  0  0  0  0  0  # atno 10763 bound_to 10752
  154.5843  135.2853  155.0702 H   0  0  0  0  0  0  0  0  0  0  0  0  # atno 10764 bound_to 10752
  154.1819  135.6514  153.5089 H   0  0  0  0  0  0  0  0  0  0  0  0  # atno 10765 bound_to 10752
  140.0389  134.9315  157.0805 H   0  0  0  0  0  0  0  0  0  0  0  0  # atno 11005 bound_to 11000
  144.7957  139.6240  143.7094 LP  0  0  0  0  0  0  0  0  0  0  0  0  # atno 17320 bound_to 7965
  146.2408  139.5997  142.9493 LP  0  0  0  0  0  0  0  0  0  0  0  0  # atno 17321 bound_to 7965
  139.5018  144.3853  152.0335 LP  0  0  0  0  0  0  0  0  0  0  0  0  # atno 17342 bound_to 10162
  140.2968  144.3691  150.6072 LP  0  0  0  0  0  0  0  0  0  0  0  0  # atno 17343 bound_to 10162
  157.7440  131.0465  150.4897 LP  0  0  0  0  0  0  0  0  0  0  0  0  # atno 17370 bound_to 10713
  156.5072  130.4131  149.6321 LP  0  0  0  0  0  0  0  0  0  0  0  0  # atno 17371 bound_to 10713
  140.4102  134.1989  155.7163 LP  0  0  0  0  0  0  0  0  0  0  0  0  # atno 17394 bound_to 11000
  141.1872  133.8286  157.1039 LP  0  0  0  0  0  0  0  0  0  0  0  0  # atno 17395 bound_to 11000

$$$$
