AV-unprocessed.smi:944|AV-procd|sdf|4231|dock6
  -GOLD-   22720 2143D 1   1.00000     0.00000
 Structure written by MMmdl.
 28 28  0  0  0  0  0  0  0  0  1 V2000
  146.7842  138.9988  151.6266 C   0  0  0  0  0  0  0  0  0  0  0  0
  146.9221  137.7636  152.3825 N   0  0  0  0  0  0  0  0  0  0  0  0
  145.9708  137.2558  153.1789 C   0  0  0  0  0  0  0  0  0  0  0  0
  144.8717  137.7898  153.3381 O   0  0  0  0  0  0  0  0  0  0  0  0
  146.3117  135.9344  153.8876 C   0  0  2  0  0  0  0  0  0  0  0  0
  147.4932  136.1942  154.8370 C   0  0  0  0  0  0  0  0  0  0  0  0
  146.7275  134.9213  152.9195 N   0  0  0  0  0  0  0  0  0  0  0  0
  146.0631  133.7865  152.6474 C   0  0  0  0  0  0  0  0  0  0  0  0
  145.0117  133.4653  153.2008 O   0  0  0  0  0  0  0  0  0  0  0  0
  146.6795  132.8741  151.5867 C   0  0  0  0  0  0  0  0  0  0  0  0
  145.7565  132.6522  150.4887 N   0  0  0  0  0  0  0  0  0  0  0  0
  145.9315  132.0320  149.3202 C   0  0  0  0  0  0  0  0  0  0  0  0
  144.8528  132.0281  148.5494 N   0  0  0  0  0  0  0  0  0  0  0  0
  143.9901  132.7097  149.3607 C   0  0  0  0  0  0  0  0  0  0  0  0
  144.4816  133.1069  150.5345 N   0  0  0  0  0  0  0  0  0  0  0  0
  147.6945  139.1907  151.0586 H   0  0  0  0  0  0  0  0  0  0  0  0
  146.6138  139.8449  152.2937 H   0  0  0  0  0  0  0  0  0  0  0  0
  145.9514  138.9345  150.9251 H   0  0  0  0  0  0  0  0  0  0  0  0
  147.7971  137.2660  152.3011 H   0  0  0  0  0  0  0  0  0  0  0  0
  145.4527  135.5769  154.4592 H   0  0  0  0  0  0  0  0  0  0  0  0
  147.2400  136.9417  155.5899 H   0  0  0  0  0  0  0  0  0  0  0  0
  148.3761  136.5467  154.3014 H   0  0  0  0  0  0  0  0  0  0  0  0
  147.7725  135.2831  155.3674 H   0  0  0  0  0  0  0  0  0  0  0  0
  147.5806  135.1030  152.4103 H   0  0  0  0  0  0  0  0  0  0  0  0
  147.5916  133.3231  151.1914 H   0  0  0  0  0  0  0  0  0  0  0  0
  146.9577  131.9171  152.0312 H   0  0  0  0  0  0  0  0  0  0  0  0
  146.8669  131.5776  149.0276 H   0  0  0  0  0  0  0  0  0  0  0  0
  142.9694  132.9201  149.0774 H   0  0  0  0  0  0  0  0  0  0  0  0
  1  2  1  0  0  0  0
  1 16  1  0  0  0  0
  1 17  1  0  0  0  0
  1 18  1  0  0  0  0
  2  3  1  0  0  0  0
  2 19  1  0  0  0  0
  3  4  2  0  0  0  0
  3  5  1  0  0  0  0
  5  6  1  0  0  0  0
  5  7  1  0  0  0  0
  5 20  1  0  0  0  0
  6 21  1  0  0  0  0
  6 22  1  0  0  0  0
  6 23  1  0  0  0  0
  7  8  1  0  0  0  0
  7 24  1  0  0  0  0
  8  9  2  0  0  0  0
  8 10  1  0  0  0  0
 10 11  1  0  0  0  0
 10 25  1  0  0  0  0
 10 26  1  0  0  0  0
 11 15  1  0  0  0  0
 11 12  1  0  0  0  0
 12 13  2  0  0  0  0
 12 27  1  0  0  0  0
 13 14  1  0  0  0  0
 14 15  2  0  0  0  0
 14 28  1  0  0  0  0
M  END
> <s_m_source_file>
AV-unprocessed.smi

> <i_m_source_file_index>
944

> <i_lp_mmshare_version>
43012

> <i_f3d_flags>
0

> <s_epik_input>
W0NIM11bTkhdQyg9TylbQ0BIXShbQ0gzXSlbTkhdQyg9TylbQ0gyXW4xW2NIXW5bY0hdbjE=

> <s_epik_cmdline>
J2VwaWtfcHl0aG9uJywgJy1waCcsICc3LjAnLCAnLXRuJywgJzgnLCAnLW1hJywgJzIwMCcsICctbWV0YWxfYmluZGluZycsICctaW1hZScsICc8aW5maWxlLm1hZT4nLCAnLW9tYWUnLCAnPG91dGZpbGUubWFlPic=

> <r_lp_tautomer_probability>
1

> <r_epik_Ionization_Penalty>
7.54354e-06

> <r_epik_Ionization_Penalty_Charging>
0

> <r_epik_Ionization_Penalty_Neutral>
7.54354e-06

> <r_epik_State_Penalty>
-0

> <r_epik_Charging_Adjusted_Penalty>
0

> <i_epik_Tot_Q>
0

> <i_epik_Tot_abs_Q>
0

> <r_epik_Metal_State_Penalty>
-0

> <b_epik_Metal_Only>
0

> <s_lp_Force_Field>
OPLS_2005

> <r_lp_Energy>
4.44665

> <b_lp_Chiralities_Consistent>
1

> <s_lp_Variant>
AV-unprocessed.smi:944-1

> <Gold.Version>
5.8.1

> <Gold.Id.Protein>
6NUR|6NUR_protein|mol2

> <Gold.PLP.Fitness>
36.0173

> <Gold.PLP.PLP>
-24.2602

> <Gold.PLP.part.hbond>
-3.7885

> <Gold.PLP.part.metal>
0.0000

> <Gold.PLP.part.buried>
-2.6729

> <Gold.PLP.part.nonpolar>
-18.2837

> <Gold.PLP.part.repulsive>
1.5316

> <Gold.PLP.ligand.clash>
0.0000

> <Gold.PLP.ligand.torsion>
0.1267

> <Gold.PLP.Chemscore.Hbond>
2.0000

> <Gold.PLP.Chemscore.CHOScore>
2.0000

> <Gold.PLP.Chemscore.Metal>
0.0000

> <Gold.Chemscore.Hbonds>
donor molecule, donor type, donor heavy atom, donor atom, acceptor molecule, acceptor atom, score
      L1  H     2    19       P1  7948  1.00
      L1  H     7    24       P1  7948  1.00
      L1  C    12    27       P1 10747  1.00
      L1  C    14    28       P1 10186  1.00

> <Gold.PLP.Chemscore.Internal.Correction>
0.0105

> <Gold.Rescore>
     Score         DG    S(hbond)    S(metal)    S(lipo)     H(rot)  DE(clash)    DE(int)     intcor
      6.02      -7.51       1.98        0.00      20.82       2.74       0.03       1.46       ----

> <Gold.Chemscore.Fitness>
6.0158

> <Gold.Chemscore.DG>
-7.5068

> <Gold.Chemscore.ZeroCoef>
-5.4800

> <Gold.Chemscore.Hbond>
1.9795

> <Gold.Chemscore.Metal>
0.0000

> <Gold.Chemscore.Lipo>
20.8225

> <Gold.Chemscore.Internal_Hbond>
0.0000

> <Gold.Chemscore.DEClash>
0.0282

> <Gold.Chemscore.DEInternal>
1.4627

> <Gold.Chemscore.Rot>
2.7426

> <Gold.Chemscore.Internal.Correction>
   9.000000E+99

> <Gold.Chemscore.Hbonds>
donor molecule, donor type, donor heavy atom, donor atom, acceptor molecule, acceptor atom, score
      L1  H     2    19       P1  7948  0.98
      L1  H     7    24       P1  7948  0.96

> <Gold.Chemscore.Hbond.Weighted>
-6.6115

> <Gold.Chemscore.Metal.Weighted>
-0.0000

> <Gold.Chemscore.Lipo.Weighted>
-2.4362

> <Gold.Chemscore.Internal_Hbond.Weighted>
0.0000

> <Gold.Chemscore.DEClash.Weighted>
0.0282

> <Gold.Chemscore.DEInternal.Weighted>
1.4627

> <Gold.Chemscore.Rot.Weighted>
7.0210

> <Gold.Chemscore.Internal.Correction.Weighted>
   9.000000E+99

> <Gold.Protein.RotatedTorsions>
[ 6907 6896 6895 6894 ] final -164.17 input  -60.11 | X-H torsion
[ 7974 7965 7964 7962 ] final  -21.46 input  175.53 | X-H torsion
[ 8008 7997 7996 7995 ] final  116.24 input   59.86 | X-H torsion
[ 10167 10162 10161 10158 ] final -156.80 input  -65.29 | X-H torsion
[ 10718 10713 10712 10709 ] final  164.92 input   66.30 | X-H torsion
[ 10763 10752 10751 10750 ] final   49.67 input  -60.55 | X-H torsion
[ 11005 11000 10999 10996 ] final -151.01 input  -57.11 | X-H torsion

> <Gold.Protein.ActiveResidues>
 VAL166  LYS551  ARG553  GLY616  TRP617  ASP618  TYR619  PRO620  LYS621  CYS622 
 ASP623  PHE694  ASN695  SER759  ASP760  ASP761  ALA762  ILE779  LEU786  VAL792 
 PHE793  MET794  SER795  GLU796  ALA797  LYS798  CYS799  TRP800  GLU811  SER814 

> <Gold.Protein.RotatedAtoms>
  151.4075  133.3738  159.2739 H   0  0  0  0  0  0  0  0  0  0  0  0  # atno 6907 bound_to 6896
  150.9387  134.8799  159.7609 H   0  0  0  0  0  0  0  0  0  0  0  0  # atno 6908 bound_to 6896
  152.5062  134.4024  159.9473 H   0  0  0  0  0  0  0  0  0  0  0  0  # atno 6909 bound_to 6896
  146.1732  140.4344  142.8524 H   0  0  0  0  0  0  0  0  0  0  0  0  # atno 7974 bound_to 7965
  156.2428  140.2922  156.0492 H   0  0  0  0  0  0  0  0  0  0  0  0  # atno 8008 bound_to 7997
  155.1900  140.0406  157.2916 H   0  0  0  0  0  0  0  0  0  0  0  0  # atno 8009 bound_to 7997
  154.6201  140.2473  155.7567 H   0  0  0  0  0  0  0  0  0  0  0  0  # atno 8010 bound_to 7997
  139.6821  143.9563  152.2342 H   0  0  0  0  0  0  0  0  0  0  0  0  # atno 10167 bound_to 10162
  157.0875  131.0408  151.2551 H   0  0  0  0  0  0  0  0  0  0  0  0  # atno 10718 bound_to 10713
  152.9786  135.5904  154.4127 H   0  0  0  0  0  0  0  0  0  0  0  0  # atno 10763 bound_to 10752
  154.3761  135.2767  155.2240 H   0  0  0  0  0  0  0  0  0  0  0  0  # atno 10764 bound_to 10752
  154.4175  135.6067  153.6044 H   0  0  0  0  0  0  0  0  0  0  0  0  # atno 10765 bound_to 10752
  140.7341  134.3588  157.5161 H   0  0  0  0  0  0  0  0  0  0  0  0  # atno 11005 bound_to 11000
  144.8194  140.6525  143.6362 LP  0  0  0  0  0  0  0  0  0  0  0  0  # atno 17320 bound_to 7965
  145.4284  139.1553  143.4035 LP  0  0  0  0  0  0  0  0  0  0  0  0  # atno 17321 bound_to 7965
  139.9356  144.6714  150.8318 LP  0  0  0  0  0  0  0  0  0  0  0  0  # atno 17342 bound_to 10162
  140.7656  143.3279  151.2475 LP  0  0  0  0  0  0  0  0  0  0  0  0  # atno 17343 bound_to 10162
  157.4749  130.7731  149.7358 LP  0  0  0  0  0  0  0  0  0  0  0  0  # atno 17370 bound_to 10713
  155.9907  130.3943  150.3017 LP  0  0  0  0  0  0  0  0  0  0  0  0  # atno 17371 bound_to 10713
  139.8820  134.9038  156.2862 LP  0  0  0  0  0  0  0  0  0  0  0  0  # atno 17394 bound_to 11000
  140.9895  133.7217  156.0792 LP  0  0  0  0  0  0  0  0  0  0  0  0  # atno 17395 bound_to 11000

$$$$
