AV-unprocessed.smi:995|AV-procd|sdf|4345|dock2
  -GOLD-   22720 2243D 1   1.00000     0.00000
 Structure written by MMmdl.
 37 38  0  0  0  0  0  0  0  0  1 V2000
  151.1295  135.9809  154.7487 O   0  0  0  0  0  0  0  0  0  0  0  0
  150.9371  135.7337  155.9389 C   0  0  0  0  0  0  0  0  0  0  0  0
  150.8397  136.6641  156.9072 N   0  0  0  0  0  0  0  0  0  0  0  0
  150.9181  138.0805  156.8079 C   0  0  0  0  0  0  0  0  0  0  0  0
  151.2795  138.7899  155.6370 C   0  0  0  0  0  0  0  0  0  0  0  0
  151.3225  140.1968  155.6797 C   0  0  0  0  0  0  0  0  0  0  0  0
  151.0133  140.8529  156.8875 C   0  0  0  0  0  0  0  0  0  0  0  0
  151.0509  142.2318  156.9182 O   0  0  0  0  0  0  0  0  0  0  0  0
  150.5603  142.9003  158.0775 C   0  0  0  0  0  0  0  0  0  0  0  0
  151.7145  143.6553  158.7534 C   0  0  0  0  0  0  0  0  0  0  0  0
  152.6951  142.7979  159.0396 F   0  0  0  0  0  0  0  0  0  0  0  0
  152.1630  144.5773  157.9004 F   0  0  0  0  0  0  0  0  0  0  0  0
  151.2741  144.3669  160.0429 C   0  0  0  0  0  0  0  0  0  0  0  0
  152.2344  145.1701  160.5018 F   0  0  0  0  0  0  0  0  0  0  0  0
  150.1645  145.0761  159.8355 F   0  0  0  0  0  0  0  0  0  0  0  0
  150.6822  140.1800  158.0167 N   0  0  0  0  0  0  0  0  0  0  0  0
  150.6411  138.8323  157.9684 C   0  0  0  0  0  0  0  0  0  0  0  0
  150.7840  134.2763  156.4157 C   0  0  2  0  0  0  0  0  0  0  0  0
  150.4769  133.2585  155.2915 C   0  0  0  0  0  0  0  0  0  0  0  0
  149.1488  133.4343  154.8122 O   0  0  0  0  0  0  0  0  0  0  0  0
  148.1948  133.2646  155.8508 C   0  0  0  0  0  0  0  0  0  0  0  0
  148.4488  134.3176  156.9410 C   0  0  0  0  0  0  0  0  0  0  0  0
  149.7805  134.1713  157.4295 O   0  0  0  0  0  0  0  0  0  0  0  0
  150.6260  136.3095  157.8284 H   0  0  0  0  0  0  0  0  0  0  0  0
  151.5333  138.2940  154.7139 H   0  0  0  0  0  0  0  0  0  0  0  0
  151.5899  140.7634  154.8000 H   0  0  0  0  0  0  0  0  0  0  0  0
  149.7752  143.6075  157.8041 H   0  0  0  0  0  0  0  0  0  0  0  0
  150.1318  142.1746  158.7710 H   0  0  0  0  0  0  0  0  0  0  0  0
  151.0540  143.6500  160.8345 H   0  0  0  0  0  0  0  0  0  0  0  0
  150.3726  138.3376  158.8906 H   0  0  0  0  0  0  0  0  0  0  0  0
  151.7351  134.0019  156.8732 H   0  0  0  0  0  0  0  0  0  0  0  0
  151.1759  133.3670  154.4613 H   0  0  0  0  0  0  0  0  0  0  0  0
  150.5988  132.2398  155.6628 H   0  0  0  0  0  0  0  0  0  0  0  0
  147.1932  133.3828  155.4371 H   0  0  0  0  0  0  0  0  0  0  0  0
  148.2567  132.2553  156.2607 H   0  0  0  0  0  0  0  0  0  0  0  0
  148.2792  135.3237  156.5556 H   0  0  0  0  0  0  0  0  0  0  0  0
  147.7532  134.1778  157.7685 H   0  0  0  0  0  0  0  0  0  0  0  0
  1  2  2  0  0  0  0
  2  3  1  0  0  0  0
  2 18  1  0  0  0  0
  3  4  1  0  0  0  0
  3 24  1  0  0  0  0
  4 17  1  0  0  0  0
  4  5  2  0  0  0  0
  5  6  1  0  0  0  0
  5 25  1  0  0  0  0
  6  7  2  0  0  0  0
  6 26  1  0  0  0  0
  7  8  1  0  0  0  0
  7 16  1  0  0  0  0
  8  9  1  0  0  0  0
  9 10  1  0  0  0  0
  9 27  1  0  0  0  0
  9 28  1  0  0  0  0
 10 11  1  0  0  0  0
 10 12  1  0  0  0  0
 10 13  1  0  0  0  0
 13 14  1  0  0  0  0
 13 15  1  0  0  0  0
 13 29  1  0  0  0  0
 16 17  2  0  0  0  0
 17 30  1  0  0  0  0
 18 23  1  0  0  0  0
 18 19  1  0  0  0  0
 18 31  1  0  0  0  0
 19 20  1  0  0  0  0
 19 32  1  0  0  0  0
 19 33  1  0  0  0  0
 20 21  1  0  0  0  0
 21 22  1  0  0  0  0
 21 34  1  0  0  0  0
 21 35  1  0  0  0  0
 22 23  1  0  0  0  0
 22 36  1  0  0  0  0
 22 37  1  0  0  0  0
M  END
> <s_m_source_file>
AV-unprocessed.smi

> <i_m_source_file_index>
995

> <i_lp_mmshare_version>
43012

> <i_f3d_flags>
0

> <s_epik_input>
TzFbQ0gyXVtDSDJdT1tDSDJdW0NASF0xQyg9TylbTkhdYzJbY0hdW2NIXWMobltjSF0yKU9bQ0gyXUMoRikoRilbQ0hdKEYpRg==

> <s_epik_cmdline>
J2VwaWtfcHl0aG9uJywgJy1waCcsICc3LjAnLCAnLXRuJywgJzgnLCAnLW1hJywgJzIwMCcsICctbWV0YWxfYmluZGluZycsICctaW1hZScsICc8aW5maWxlLm1hZT4nLCAnLW9tYWUnLCAnPG91dGZpbGUubWFlPic=

> <r_lp_tautomer_probability>
1

> <r_epik_Ionization_Penalty>
2.54436e-06

> <r_epik_Ionization_Penalty_Charging>
0

> <r_epik_Ionization_Penalty_Neutral>
2.54436e-06

> <r_epik_State_Penalty>
-0

> <r_epik_Charging_Adjusted_Penalty>
0

> <i_epik_Tot_Q>
0

> <i_epik_Tot_abs_Q>
0

> <r_epik_Metal_State_Penalty>
-0

> <b_epik_Metal_Only>
0

> <s_lp_Force_Field>
OPLS_2005

> <r_lp_Energy>
9.34037

> <b_lp_Chiralities_Consistent>
1

> <s_lp_Variant>
AV-unprocessed.smi:995-1

> <Gold.Version>
5.8.1

> <Gold.Id.Protein>
6NUR|6NUR_protein|mol2

> <Gold.PLP.Fitness>
41.9636

> <Gold.PLP.PLP>
-38.0307

> <Gold.PLP.part.hbond>
-2.0000

> <Gold.PLP.part.metal>
0.0000

> <Gold.PLP.part.buried>
-6.8907

> <Gold.PLP.part.nonpolar>
-30.0220

> <Gold.PLP.part.repulsive>
0.4096

> <Gold.PLP.ligand.clash>
0.0000

> <Gold.PLP.ligand.torsion>
1.1289

> <Gold.PLP.Chemscore.Hbond>
2.0000

> <Gold.PLP.Chemscore.CHOScore>
0.0000

> <Gold.PLP.Chemscore.Metal>
0.0000

> <Gold.Chemscore.Hbonds>
donor molecule, donor type, donor heavy atom, donor atom, acceptor molecule, acceptor atom, score
      P1  H  6896  6908       L1    23  0.83
      P1  H 10752 10763       L1     1  1.00

> <Gold.PLP.Chemscore.Internal.Correction>
0.1907

> <Gold.Rescore>
     Score         DG    S(hbond)    S(metal)    S(lipo)     H(rot)  DE(clash)    DE(int)     intcor
     11.03     -13.37       1.72        0.00      64.79       2.12       0.09       2.25       ----

> <Gold.Chemscore.Fitness>
11.0275

> <Gold.Chemscore.DG>
-13.3690

> <Gold.Chemscore.ZeroCoef>
-5.4800

> <Gold.Chemscore.Hbond>
1.7150

> <Gold.Chemscore.Metal>
0.0000

> <Gold.Chemscore.Lipo>
64.7936

> <Gold.Chemscore.Internal_Hbond>
0.0000

> <Gold.Chemscore.DEClash>
0.0927

> <Gold.Chemscore.DEInternal>
2.2488

> <Gold.Chemscore.Rot>
2.1172

> <Gold.Chemscore.Internal.Correction>
   9.000000E+99

> <Gold.Chemscore.Hbonds>
donor molecule, donor type, donor heavy atom, donor atom, acceptor molecule, acceptor atom, score
      P1  H  6896  6908       L1    23  0.51
      P1  H 10752 10763       L1     1  0.26

> <Gold.Chemscore.Hbond.Weighted>
-5.7282

> <Gold.Chemscore.Metal.Weighted>
-0.0000

> <Gold.Chemscore.Lipo.Weighted>
-7.5809

> <Gold.Chemscore.Internal_Hbond.Weighted>
0.0000

> <Gold.Chemscore.DEClash.Weighted>
0.0927

> <Gold.Chemscore.DEInternal.Weighted>
2.2488

> <Gold.Chemscore.Rot.Weighted>
5.4200

> <Gold.Chemscore.Internal.Correction.Weighted>
   9.000000E+99

> <Gold.Protein.RotatedTorsions>
[ 6907 6896 6895 6894 ] final  127.78 input  -60.11 | X-H torsion
[ 7974 7965 7964 7962 ] final  -95.04 input  175.53 | X-H torsion
[ 8008 7997 7996 7995 ] final   21.65 input   59.86 | X-H torsion
[ 10167 10162 10161 10158 ] final -139.75 input  -65.29 | X-H torsion
[ 10718 10713 10712 10709 ] final   50.78 input   66.30 | X-H torsion
[ 10763 10752 10751 10750 ] final   62.93 input  -60.55 | X-H torsion
[ 11005 11000 10999 10996 ] final   -9.36 input  -57.11 | X-H torsion

> <Gold.Protein.ActiveResidues>
 VAL166  LYS551  ARG553  GLY616  TRP617  ASP618  TYR619  PRO620  LYS621  CYS622 
 ASP623  PHE694  ASN695  SER759  ASP760  ASP761  ALA762  ILE779  LEU786  VAL792 
 PHE793  MET794  SER795  GLU796  ALA797  LYS798  CYS799  TRP800  GLU811  SER814 

> <Gold.Protein.RotatedAtoms>
  152.3780  133.6508  159.6138 H   0  0  0  0  0  0  0  0  0  0  0  0  # atno 6907 bound_to 6896
  150.7719  133.9160  159.3392 H   0  0  0  0  0  0  0  0  0  0  0  0  # atno 6908 bound_to 6896
  151.6971  135.0938  160.0295 H   0  0  0  0  0  0  0  0  0  0  0  0  # atno 6909 bound_to 6896
  145.3653  140.9498  143.2478 H   0  0  0  0  0  0  0  0  0  0  0  0  # atno 7974 bound_to 7965
  154.9538  140.3069  155.5063 H   0  0  0  0  0  0  0  0  0  0  0  0  # atno 8008 bound_to 7997
  156.2984  140.2314  156.4555 H   0  0  0  0  0  0  0  0  0  0  0  0  # atno 8009 bound_to 7997
  154.8030  140.0433  157.1275 H   0  0  0  0  0  0  0  0  0  0  0  0  # atno 8010 bound_to 7997
  139.8349  143.7398  152.2665 H   0  0  0  0  0  0  0  0  0  0  0  0  # atno 10167 bound_to 10162
  157.4917  130.8380  149.8211 H   0  0  0  0  0  0  0  0  0  0  0  0  # atno 10718 bound_to 10713
  153.0000  135.5447  154.6271 H   0  0  0  0  0  0  0  0  0  0  0  0  # atno 10763 bound_to 10752
  154.5557  135.2830  155.0969 H   0  0  0  0  0  0  0  0  0  0  0  0  # atno 10764 bound_to 10752
  154.2191  135.6454  153.5191 H   0  0  0  0  0  0  0  0  0  0  0  0  # atno 10765 bound_to 10752
  140.7333  133.8731  155.8910 H   0  0  0  0  0  0  0  0  0  0  0  0  # atno 11005 bound_to 11000
  144.8616  139.5169  143.6809 LP  0  0  0  0  0  0  0  0  0  0  0  0  # atno 17320 bound_to 7965
  146.2909  139.7137  142.9161 LP  0  0  0  0  0  0  0  0  0  0  0  0  # atno 17321 bound_to 7965
  139.7617  144.7504  151.0354 LP  0  0  0  0  0  0  0  0  0  0  0  0  # atno 17342 bound_to 10162
  140.7803  143.4743  151.0103 LP  0  0  0  0  0  0  0  0  0  0  0  0  # atno 17343 bound_to 10162
  156.0177  130.3807  150.2058 LP  0  0  0  0  0  0  0  0  0  0  0  0  # atno 17370 bound_to 10713
  157.0246  130.9989  151.3330 LP  0  0  0  0  0  0  0  0  0  0  0  0  # atno 17371 bound_to 10713
  140.9902  134.1289  157.4415 LP  0  0  0  0  0  0  0  0  0  0  0  0  # atno 17394 bound_to 11000
  139.8821  135.0038  156.6209 LP  0  0  0  0  0  0  0  0  0  0  0  0  # atno 17395 bound_to 11000

$$$$
