AV-unprocessed.smi:2558|AV-procd|sdf|10032|dock6
  -GOLD-   2272014 73D 1   1.00000     0.00000
 Structure written by MMmdl.
 43 44  0  0  0  0  0  0  0  0  1 V2000
  157.3855  134.9096  159.9548 C   0  0  0  0  0  0  0  0  0  0  0  0
  155.6481  134.8408  160.5579 S   0  0  0  0  0  0  0  0  0  0  0  0
  154.7815  134.4666  159.4288 O   0  0  0  0  0  0  0  0  0  0  0  0
  155.6160  134.0287  161.7844 O   0  0  0  0  0  0  0  0  0  0  0  0
  155.3358  136.5100  160.9950 N   0  0  0  0  0  0  0  0  0  0  0  0
  154.9610  137.5058  160.0574 C   0  0  0  0  0  0  0  0  0  0  0  0
  154.9636  137.2724  158.8465 O   0  0  0  0  0  0  0  0  0  0  0  0
  154.5044  138.6550  160.5987 N   0  0  0  0  0  0  0  0  0  0  0  0
  154.0264  139.7425  159.9636 C   0  0  0  0  0  0  0  0  0  0  0  0
  153.8962  139.8510  158.7431 O   0  0  0  0  0  0  0  0  0  0  0  0
  153.6916  140.6903  160.8574 N   0  0  0  0  0  0  0  0  0  0  0  0
  153.1414  141.9808  160.6282 C   0  0  0  0  0  0  0  0  0  0  0  0
  152.8340  142.7715  161.7547 C   0  0  0  0  0  0  0  0  0  0  0  0
  152.3000  144.0599  161.5652 C   0  0  0  0  0  0  0  0  0  0  0  0
  152.1003  144.5143  160.2475 C   0  0  0  0  0  0  0  0  0  0  0  0
  152.4029  143.7782  159.1577 N   0  0  0  0  0  0  0  0  0  0  0  0
  152.9141  142.5424  159.3466 C   0  0  0  0  0  0  0  0  0  0  0  0
  155.6352  136.8852  162.4063 C   0  0  0  0  0  0  0  0  0  0  0  0
  154.3594  137.1985  163.2169 C   0  0  0  0  0  0  0  0  0  0  0  0
  154.7048  137.4815  164.6883 C   0  0  0  0  0  0  0  0  0  0  0  0
  155.7546  138.5992  164.8133 C   0  0  0  0  0  0  0  0  0  0  0  0
  157.0263  138.2702  164.0123 C   0  0  0  0  0  0  0  0  0  0  0  0
  156.7000  137.9999  162.5346 C   0  0  0  0  0  0  0  0  0  0  0  0
  157.7039  133.9118  159.6541 H   0  0  0  0  0  0  0  0  0  0  0  0
  158.0345  135.2694  160.7531 H   0  0  0  0  0  0  0  0  0  0  0  0
  157.4539  135.5834  159.1013 H   0  0  0  0  0  0  0  0  0  0  0  0
  154.5394  138.7108  161.6057 H   0  0  0  0  0  0  0  0  0  0  0  0
  153.7964  140.4362  161.8286 H   0  0  0  0  0  0  0  0  0  0  0  0
  153.0007  142.3961  162.7540 H   0  0  0  0  0  0  0  0  0  0  0  0
  152.0495  144.6850  162.4095 H   0  0  0  0  0  0  0  0  0  0  0  0
  151.6918  145.4970  160.0643 H   0  0  0  0  0  0  0  0  0  0  0  0
  153.1570  142.0164  158.4373 H   0  0  0  0  0  0  0  0  0  0  0  0
  156.0861  136.0173  162.8867 H   0  0  0  0  0  0  0  0  0  0  0  0
  153.8380  138.0629  162.8073 H   0  0  0  0  0  0  0  0  0  0  0  0
  153.6640  136.3607  163.1572 H   0  0  0  0  0  0  0  0  0  0  0  0
  153.8023  137.7564  165.2347 H   0  0  0  0  0  0  0  0  0  0  0  0
  155.0830  136.5718  165.1562 H   0  0  0  0  0  0  0  0  0  0  0  0
  155.3310  139.5388  164.4562 H   0  0  0  0  0  0  0  0  0  0  0  0
  156.0076  138.7536  165.8627 H   0  0  0  0  0  0  0  0  0  0  0  0
  157.7384  139.0921  164.0905 H   0  0  0  0  0  0  0  0  0  0  0  0
  157.5150  137.3966  164.4459 H   0  0  0  0  0  0  0  0  0  0  0  0
  157.6083  137.7144  162.0028 H   0  0  0  0  0  0  0  0  0  0  0  0
  156.3547  138.9298  162.0835 H   0  0  0  0  0  0  0  0  0  0  0  0
  1  2  1  0  0  0  0
  1 24  1  0  0  0  0
  1 25  1  0  0  0  0
  1 26  1  0  0  0  0
  2  3  2  0  0  0  0
  2  4  2  0  0  0  0
  2  5  1  0  0  0  0
  5  6  1  0  0  0  0
  5 18  1  0  0  0  0
  6  7  2  0  0  0  0
  6  8  1  0  0  0  0
  8  9  1  0  0  0  0
  8 27  1  0  0  0  0
  9 10  2  0  0  0  0
  9 11  1  0  0  0  0
 11 12  1  0  0  0  0
 11 28  1  0  0  0  0
 12 17  1  0  0  0  0
 12 13  2  0  0  0  0
 13 14  1  0  0  0  0
 13 29  1  0  0  0  0
 14 15  2  0  0  0  0
 14 30  1  0  0  0  0
 15 16  1  0  0  0  0
 15 31  1  0  0  0  0
 16 17  2  0  0  0  0
 17 32  1  0  0  0  0
 18 23  1  0  0  0  0
 18 19  1  0  0  0  0
 18 33  1  0  0  0  0
 19 20  1  0  0  0  0
 19 34  1  0  0  0  0
 19 35  1  0  0  0  0
 20 21  1  0  0  0  0
 20 36  1  0  0  0  0
 20 37  1  0  0  0  0
 21 22  1  0  0  0  0
 21 38  1  0  0  0  0
 21 39  1  0  0  0  0
 22 23  1  0  0  0  0
 22 40  1  0  0  0  0
 22 41  1  0  0  0  0
 23 42  1  0  0  0  0
 23 43  1  0  0  0  0
M  END
> <s_m_source_file>
AV-unprocessed.smi

> <i_m_source_file_index>
2558

> <i_lp_mmshare_version>
43012

> <i_f3d_flags>
0

> <s_epik_input>
W0NIMl0xW0NIMl1bQ0gyXVtDSDJdW0NIMl1bQ0hdMU4oUyg9TykoPU8pW0NIM10pQyg9TylbTkhdQyg9TylbTkhdYzJbY0hdW2NIXVtjSF1uW2NIXTI=

> <s_epik_cmdline>
J2VwaWtfcHl0aG9uJywgJy1waCcsICc3LjAnLCAnLXRuJywgJzgnLCAnLW1hJywgJzIwMCcsICctbWV0YWxfYmluZGluZycsICctaW1hZScsICc8aW5maWxlLm1hZT4nLCAnLW9tYWUnLCAnPG91dGZpbGUubWFlPic=

> <r_epik_Ionization_Penalty>
0.00647128

> <r_epik_Ionization_Penalty_Charging>
0

> <r_epik_Ionization_Penalty_Neutral>
0.00647128

> <r_epik_State_Penalty>
0.00476147

> <r_epik_Charging_Adjusted_Penalty>
0.00476147

> <i_epik_Tot_Q>
0

> <i_epik_Tot_abs_Q>
0

> <r_epik_Metal_State_Penalty>
0.0176635

> <b_epik_Metal_Only>
0

> <s_lp_Force_Field>
OPLS_2005

> <r_lp_Energy>
21.3267

> <b_lp_Chiralities_Consistent>
1

> <s_lp_Variant>
AV-unprocessed.smi:2558-1

> <Gold.Version>
5.8.1

> <Gold.Id.Protein>
6NUR|6NUR_protein|mol2

> <Gold.PLP.Fitness>
45.4077

> <Gold.PLP.PLP>
-39.7858

> <Gold.PLP.part.hbond>
-2.0000

> <Gold.PLP.part.metal>
0.0000

> <Gold.PLP.part.buried>
-5.7400

> <Gold.PLP.part.nonpolar>
-31.6476

> <Gold.PLP.part.repulsive>
0.0894

> <Gold.PLP.ligand.clash>
0.0299

> <Gold.PLP.ligand.torsion>
1.2505

> <Gold.PLP.Chemscore.Hbond>
2.0000

> <Gold.PLP.Chemscore.CHOScore>
0.0000

> <Gold.PLP.Chemscore.Metal>
0.0000

> <Gold.Chemscore.Hbonds>
donor molecule, donor type, donor heavy atom, donor atom, acceptor molecule, acceptor atom, score
      P1  H  6896  6907       L1     3  0.50
      P1  H  7997  8010       L1    10  1.00

> <Gold.PLP.Chemscore.Internal.Correction>
2.1529

> <Gold.Rescore>
     Score         DG    S(hbond)    S(metal)    S(lipo)     H(rot)  DE(clash)    DE(int)     intcor
     15.30     -20.33       1.94        0.00      93.55       1.00       0.00       5.03       ----

> <Gold.Chemscore.Fitness>
15.3003

> <Gold.Chemscore.DG>
-20.3344

> <Gold.Chemscore.ZeroCoef>
-5.4800

> <Gold.Chemscore.Hbond>
1.9369

> <Gold.Chemscore.Metal>
0.0000

> <Gold.Chemscore.Lipo>
93.5481

> <Gold.Chemscore.Internal_Hbond>
0.0000

> <Gold.Chemscore.DEClash>
0.0048

> <Gold.Chemscore.DEInternal>
5.0294

> <Gold.Chemscore.Rot>
1.0000

> <Gold.Chemscore.Internal.Correction>
   9.000000E+99

> <Gold.Chemscore.Hbonds>
donor molecule, donor type, donor heavy atom, donor atom, acceptor molecule, acceptor atom, score
      P1  H  6896  6907       L1     3  0.48
      P1  H  7997  8010       L1    10  0.99

> <Gold.Chemscore.Hbond.Weighted>
-6.4693

> <Gold.Chemscore.Metal.Weighted>
-0.0000

> <Gold.Chemscore.Lipo.Weighted>
-10.9451

> <Gold.Chemscore.Internal_Hbond.Weighted>
0.0000

> <Gold.Chemscore.DEClash.Weighted>
0.0048

> <Gold.Chemscore.DEInternal.Weighted>
5.0294

> <Gold.Chemscore.Rot.Weighted>
2.5600

> <Gold.Chemscore.Internal.Correction.Weighted>
   9.000000E+99

> <Gold.Protein.RotatedTorsions>
[ 6907 6896 6895 6894 ] final   90.97 input  -60.11 | X-H torsion
[ 7974 7965 7964 7962 ] final -126.97 input  175.53 | X-H torsion
[ 8008 7997 7996 7995 ] final   15.23 input   59.86 | X-H torsion
[ 10167 10162 10161 10158 ] final   57.79 input  -65.29 | X-H torsion
[ 10718 10713 10712 10709 ] final -108.41 input   66.30 | X-H torsion
[ 10763 10752 10751 10750 ] final   89.61 input  -60.55 | X-H torsion
[ 11005 11000 10999 10996 ] final  -24.17 input  -57.11 | X-H torsion

> <Gold.Protein.ActiveResidues>
 VAL166  LYS551  ARG553  GLY616  TRP617  ASP618  TYR619  PRO620  LYS621  CYS622 
 ASP623  PHE694  ASN695  SER759  ASP760  ASP761  ALA762  ILE779  LEU786  VAL792 
 PHE793  MET794  SER795  GLU796  ALA797  LYS798  CYS799  TRP800  GLU811  SER814 

> <Gold.Protein.RotatedAtoms>
  152.5447  134.1730  159.8604 H   0  0  0  0  0  0  0  0  0  0  0  0  # atno 6907 bound_to 6896
  151.1738  133.4760  159.2601 H   0  0  0  0  0  0  0  0  0  0  0  0  # atno 6908 bound_to 6896
  151.1247  135.0110  159.8610 H   0  0  0  0  0  0  0  0  0  0  0  0  # atno 6909 bound_to 6896
  144.9819  140.7648  143.4607 H   0  0  0  0  0  0  0  0  0  0  0  0  # atno 7974 bound_to 7965
  154.8597  140.2942  155.5547 H   0  0  0  0  0  0  0  0  0  0  0  0  # atno 8008 bound_to 7997
  156.3019  140.2480  156.3502 H   0  0  0  0  0  0  0  0  0  0  0  0  # atno 8009 bound_to 7997
  154.8932  140.0394  157.1839 H   0  0  0  0  0  0  0  0  0  0  0  0  # atno 8010 bound_to 7997
  140.1942  144.4054  150.6557 H   0  0  0  0  0  0  0  0  0  0  0  0  # atno 10167 bound_to 10162
  156.0484  130.5711  150.7957 H   0  0  0  0  0  0  0  0  0  0  0  0  # atno 10718 bound_to 10713
  153.1889  135.4464  155.0124 H   0  0  0  0  0  0  0  0  0  0  0  0  # atno 10763 bound_to 10752
  154.8078  135.3281  154.7389 H   0  0  0  0  0  0  0  0  0  0  0  0  # atno 10764 bound_to 10752
  153.7845  135.6975  153.4937 H   0  0  0  0  0  0  0  0  0  0  0  0  # atno 10765 bound_to 10752
  140.8820  133.7647  156.0314 H   0  0  0  0  0  0  0  0  0  0  0  0  # atno 11005 bound_to 11000
  145.2409  139.2073  143.4993 LP  0  0  0  0  0  0  0  0  0  0  0  0  # atno 17320 bound_to 7965
  146.3410  140.2304  142.8593 LP  0  0  0  0  0  0  0  0  0  0  0  0  # atno 17321 bound_to 7965
  140.6435  143.2208  151.6238 LP  0  0  0  0  0  0  0  0  0  0  0  0  # atno 17342 bound_to 10162
  139.5243  144.3107  152.0995 LP  0  0  0  0  0  0  0  0  0  0  0  0  # atno 17343 bound_to 10162
  157.5385  131.0940  150.9860 LP  0  0  0  0  0  0  0  0  0  0  0  0  # atno 17370 bound_to 10713
  157.0149  130.5651  149.5325 LP  0  0  0  0  0  0  0  0  0  0  0  0  # atno 17371 bound_to 10713
  140.8449  134.3022  157.5299 LP  0  0  0  0  0  0  0  0  0  0  0  0  # atno 17394 bound_to 11000
  139.8720  134.9436  156.3859 LP  0  0  0  0  0  0  0  0  0  0  0  0  # atno 17395 bound_to 11000

$$$$
