AV-unprocessed.smi:1813|AV-procd|sdf|7347|dock7
  -GOLD-   22720 9 13D 1   1.00000     0.00000
 Structure written by MMmdl.
 39 40  0  0  0  0  0  0  0  0  3 V2000
  145.1255  133.3118  150.7792 C   0  0  0  0  0  0  0  0  0  0  0  0
  146.2862  133.1602  151.6433 N   0  0  0  0  0  0  0  0  0  0  0  0
  146.3607  133.6307  152.8961 C   0  0  0  0  0  0  0  0  0  0  0  0
  145.4404  134.2367  153.4461 O   0  0  0  0  0  0  0  0  0  0  0  0
  147.6683  133.3571  153.6459 C   0  0  0  0  0  0  0  0  0  0  0  0
  148.3291  134.5936  154.1369 N   0  3  2  0  0  0  0  0  0  0  0  0
  149.6939  134.3480  154.6762 C   0  0  0  0  0  0  0  0  0  0  0  0
  150.3841  135.6670  155.0642 C   0  0  0  0  0  0  0  0  0  0  0  0
  149.5447  136.4732  156.0751 C   0  0  2  0  0  0  0  0  0  0  0  0
  149.4758  135.8059  157.3748 N   0  0  0  0  0  0  0  0  0  0  0  0
  148.8635  136.2655  158.4747 C   0  0  0  0  0  0  0  0  0  0  0  0
  148.2607  137.3405  158.4417 O   0  0  0  0  0  0  0  0  0  0  0  0
  148.9997  135.4516  159.5454 N   0  5  0  0  0  0  0  0  0  0  0  0
  148.2864  135.6816  160.6598 C   0  0  0  0  0  0  0  0  0  0  0  0
  148.2750  136.8630  161.2870 N   0  0  0  0  0  0  0  0  0  0  0  0
  147.4580  136.8824  162.4190 C   0  0  0  0  0  0  0  0  0  0  0  0
  146.8263  135.6900  162.6543 C   0  0  0  0  0  0  0  0  0  0  0  0
  147.2411  134.5001  161.4539 S   0  0  0  0  0  0  0  0  0  0  0  0
  148.1287  136.6742  155.5101 C   0  0  0  0  0  0  0  0  0  0  0  0
  147.4798  135.3379  155.1025 C   0  0  0  0  0  0  0  0  0  0  0  0
  145.3399  132.9001  149.7931 H   0  0  0  0  0  0  0  0  0  0  0  0
  144.8624  134.3636  150.6586 H   0  0  0  0  0  0  0  0  0  0  0  0
  144.2654  132.7820  151.1907 H   0  0  0  0  0  0  0  0  0  0  0  0
  147.0817  132.6664  151.2640 H   0  0  0  0  0  0  0  0  0  0  0  0
  147.4123  132.7173  154.4915 H   0  0  0  0  0  0  0  0  0  0  0  0
  148.3592  132.7884  153.0209 H   0  0  0  0  0  0  0  0  0  0  0  0
  149.6329  133.6854  155.5410 H   0  0  0  0  0  0  0  0  0  0  0  0
  150.3047  133.8348  153.9331 H   0  0  0  0  0  0  0  0  0  0  0  0
  151.3785  135.4642  155.4628 H   0  0  0  0  0  0  0  0  0  0  0  0
  150.5383  136.2673  154.1667 H   0  0  0  0  0  0  0  0  0  0  0  0
  150.0013  137.4539  156.2200 H   0  0  0  0  0  0  0  0  0  0  0  0
  149.9409  134.9135  157.4541 H   0  0  0  0  0  0  0  0  0  0  0  0
  147.3844  137.7900  162.9992 H   0  0  0  0  0  0  0  0  0  0  0  0
  146.1463  135.4398  163.4543 H   0  0  0  0  0  0  0  0  0  0  0  0
  147.5006  137.1881  156.2388 H   0  0  0  0  0  0  0  0  0  0  0  0
  148.1791  137.3283  154.6385 H   0  0  0  0  0  0  0  0  0  0  0  0
  146.5062  135.5387  154.6545 H   0  0  0  0  0  0  0  0  0  0  0  0
  147.2994  134.7179  155.9821 H   0  0  0  0  0  0  0  0  0  0  0  0
  148.4363  135.1943  153.3318 H   0  0  0  0  0  0  0  0  0  0  0  0
  1  2  1  0  0  0  0
  1 21  1  0  0  0  0
  1 22  1  0  0  0  0
  1 23  1  0  0  0  0
  2  3  1  0  0  0  0
  2 24  1  0  0  0  0
  3  4  2  0  0  0  0
  3  5  1  0  0  0  0
  5  6  1  0  0  0  0
  5 25  1  0  0  0  0
  5 26  1  0  0  0  0
  6 20  1  0  0  0  0
  6  7  1  0  0  0  0
  6 39  1  0  0  0  0
  7  8  1  0  0  0  0
  7 27  1  0  0  0  0
  7 28  1  0  0  0  0
  8  9  1  0  0  0  0
  8 29  1  0  0  0  0
  8 30  1  0  0  0  0
  9 10  1  0  0  0  0
  9 19  1  0  0  0  0
  9 31  1  0  0  0  0
 10 11  1  0  0  0  0
 10 32  1  0  0  0  0
 11 12  2  0  0  0  0
 11 13  1  0  0  0  0
 13 14  1  0  0  0  0
 14 18  1  0  0  0  0
 14 15  2  0  0  0  0
 15 16  1  0  0  0  0
 16 17  2  0  0  0  0
 16 33  1  0  0  0  0
 17 18  1  0  0  0  0
 17 34  1  0  0  0  0
 19 20  1  0  0  0  0
 19 35  1  0  0  0  0
 19 36  1  0  0  0  0
 20 37  1  0  0  0  0
 20 38  1  0  0  0  0
M  CHG  1   6   1
M  CHG  1  13  -1
M  END
> <s_m_source_file>
AV-unprocessed.smi

> <i_m_source_file_index>
1813

> <i_lp_mmshare_version>
43012

> <i_f3d_flags>
0

> <s_epik_input>
W0NIM11bTkhdQyg9TylbQ0gyXU4xW0NIMl1bQ0gyXVtDSF0oW0NIMl1bQ0gyXTEpW05IXUMoPU8pW05IXWMybltjSF1bY0hdczI=

> <s_epik_cmdline>
J2VwaWtfcHl0aG9uJywgJy1waCcsICc3LjAnLCAnLXRuJywgJzgnLCAnLW1hJywgJzIwMCcsICctbWV0YWxfYmluZGluZycsICctaW1hZScsICc8aW5maWxlLm1hZT4nLCAnLW9tYWUnLCAnPG91dGZpbGUubWFlPic=

> <r_lp_tautomer_probability>
0.999

> <r_epik_Ionization_Penalty>
7.12128

> <r_epik_Ionization_Penalty_Charging>
6.25357

> <r_epik_Ionization_Penalty_Neutral>
0.867707

> <r_epik_State_Penalty>
6.33838

> <r_epik_Charging_Adjusted_Penalty>
12.592

> <i_epik_Tot_Q>
0

> <i_epik_Tot_abs_Q>
2

> <r_epik_Metal_State_Penalty>
2.34161

> <b_epik_Metal_Only>
1

> <s_lp_Force_Field>
OPLS_2005

> <r_lp_Energy>
4.26142

> <b_lp_Chiralities_Consistent>
1

> <s_lp_Variant>
AV-unprocessed.smi:1813-8

> <Gold.Version>
5.8.1

> <Gold.Id.Protein>
6NUR|6NUR_protein|mol2

> <Gold.PLP.Fitness>
48.6980

> <Gold.PLP.PLP>
-31.7577

> <Gold.PLP.part.hbond>
-4.7971

> <Gold.PLP.part.metal>
0.0000

> <Gold.PLP.part.buried>
-5.9125

> <Gold.PLP.part.nonpolar>
-22.4169

> <Gold.PLP.part.repulsive>
0.1813

> <Gold.PLP.ligand.clash>
0.0000

> <Gold.PLP.ligand.torsion>
0.5428

> <Gold.PLP.Chemscore.Hbond>
6.0004

> <Gold.PLP.Chemscore.CHOScore>
0.0000

> <Gold.PLP.Chemscore.Metal>
0.0000

> <Gold.Chemscore.Hbonds>
donor molecule, donor type, donor heavy atom, donor atom, acceptor molecule, acceptor atom, score
      L1  H     6    39       P1  7948  2.00
      P1  H  6896  6907       L1    13  2.00
      P1  H  6931  6943       L1    15  0.40

> <Gold.PLP.Chemscore.Internal.Correction>
0.0248

> <Gold.Rescore>
     Score         DG    S(hbond)    S(metal)    S(lipo)     H(rot)  DE(clash)    DE(int)     intcor
     15.98     -19.29       3.49        0.00      56.87       1.76       0.00       3.32       ----

> <Gold.Chemscore.Fitness>
15.9765

> <Gold.Chemscore.DG>
-19.2922

> <Gold.Chemscore.ZeroCoef>
-5.4800

> <Gold.Chemscore.Hbond>
3.4926

> <Gold.Chemscore.Metal>
0.0000

> <Gold.Chemscore.Lipo>
56.8651

> <Gold.Chemscore.Internal_Hbond>
0.0000

> <Gold.Chemscore.DEClash>
0.0000

> <Gold.Chemscore.DEInternal>
3.3157

> <Gold.Chemscore.Rot>
1.7603

> <Gold.Chemscore.Internal.Correction>
   9.000000E+99

> <Gold.Chemscore.Hbonds>
donor molecule, donor type, donor heavy atom, donor atom, acceptor molecule, acceptor atom, score
      L1  H     6    39       P1  7948  0.93
      P1  H  6896  6907       L1    13  0.83
      P1  H  6931  6943       L1    15  0.01

> <Gold.Chemscore.Hbond.Weighted>
-11.6654

> <Gold.Chemscore.Metal.Weighted>
-0.0000

> <Gold.Chemscore.Lipo.Weighted>
-6.6532

> <Gold.Chemscore.Internal_Hbond.Weighted>
0.0000

> <Gold.Chemscore.DEClash.Weighted>
0.0000

> <Gold.Chemscore.DEInternal.Weighted>
3.3157

> <Gold.Chemscore.Rot.Weighted>
4.5064

> <Gold.Chemscore.Internal.Correction.Weighted>
   9.000000E+99

> <Gold.Protein.RotatedTorsions>
[ 6907 6896 6895 6894 ] final  -76.22 input  -60.11 | X-H torsion
[ 7974 7965 7964 7962 ] final -178.49 input  175.53 | X-H torsion
[ 8008 7997 7996 7995 ] final   73.22 input   59.86 | X-H torsion
[ 10167 10162 10161 10158 ] final  103.22 input  -65.29 | X-H torsion
[ 10718 10713 10712 10709 ] final -136.13 input   66.30 | X-H torsion
[ 10763 10752 10751 10750 ] final  -19.33 input  -60.55 | X-H torsion
[ 11005 11000 10999 10996 ] final  114.18 input  -57.11 | X-H torsion

> <Gold.Protein.ActiveResidues>
 VAL166  LYS551  ARG553  GLY616  TRP617  ASP618  TYR619  PRO620  LYS621  CYS622 
 ASP623  PHE694  ASN695  SER759  ASP760  ASP761  ALA762  ILE779  LEU786  VAL792 
 PHE793  MET794  SER795  GLU796  ALA797  LYS798  CYS799  TRP800  GLU811  SER814 

> <Gold.Protein.RotatedAtoms>
  150.7034  134.4605  159.5377 H   0  0  0  0  0  0  0  0  0  0  0  0  # atno 6907 bound_to 6896
  152.2280  134.8346  160.0486 H   0  0  0  0  0  0  0  0  0  0  0  0  # atno 6908 bound_to 6896
  151.9172  133.3541  159.3921 H   0  0  0  0  0  0  0  0  0  0  0  0  # atno 6909 bound_to 6896
  144.7131  140.0861  143.6423 H   0  0  0  0  0  0  0  0  0  0  0  0  # atno 7974 bound_to 7965
  155.7804  140.3482  155.5294 H   0  0  0  0  0  0  0  0  0  0  0  0  # atno 8008 bound_to 7997
  155.8734  140.0990  157.1555 H   0  0  0  0  0  0  0  0  0  0  0  0  # atno 8009 bound_to 7997
  154.4019  140.1336  156.4094 H   0  0  0  0  0  0  0  0  0  0  0  0  # atno 8010 bound_to 7997
  139.7281  144.7042  151.0765 H   0  0  0  0  0  0  0  0  0  0  0  0  # atno 10167 bound_to 10162
  156.2737  130.7280  151.1256 H   0  0  0  0  0  0  0  0  0  0  0  0  # atno 10718 bound_to 10713
  153.6032  135.6999  153.5376 H   0  0  0  0  0  0  0  0  0  0  0  0  # atno 10763 bound_to 10752
  153.3079  135.4109  155.1310 H   0  0  0  0  0  0  0  0  0  0  0  0  # atno 10764 bound_to 10752
  154.8578  135.3665  154.5568 H   0  0  0  0  0  0  0  0  0  0  0  0  # atno 10765 bound_to 10752
  139.8973  134.9563  156.6853 H   0  0  0  0  0  0  0  0  0  0  0  0  # atno 11005 bound_to 11000
  145.9660  139.2835  143.1127 LP  0  0  0  0  0  0  0  0  0  0  0  0  # atno 17320 bound_to 7965
  145.9168  140.9142  143.0425 LP  0  0  0  0  0  0  0  0  0  0  0  0  # atno 17321 bound_to 7965
  140.7766  143.5078  150.9690 LP  0  0  0  0  0  0  0  0  0  0  0  0  # atno 17342 bound_to 10162
  139.8766  143.7125  152.3161 LP  0  0  0  0  0  0  0  0  0  0  0  0  # atno 17343 bound_to 10162
  157.7292  131.0626  150.5783 LP  0  0  0  0  0  0  0  0  0  0  0  0  # atno 17370 bound_to 10713
  156.5882  130.4322  149.5948 LP  0  0  0  0  0  0  0  0  0  0  0  0  # atno 17371 bound_to 10713
  140.7267  133.9094  155.8183 LP  0  0  0  0  0  0  0  0  0  0  0  0  # atno 17394 bound_to 11000
  141.0185  134.0922  157.4146 LP  0  0  0  0  0  0  0  0  0  0  0  0  # atno 17395 bound_to 11000

$$$$
