AV-unprocessed.smi:2553|AV-procd|sdf|10017|dock8
  -GOLD-   2272014 63D 1   1.00000     0.00000
 Structure written by MMmdl.
 29 30  0  0  0  0  0  0  0  0  1 V2000
  147.1380  141.4417  153.3141 O   0  0  0  0  0  0  0  0  0  0  0  0
  147.8893  141.2679  154.2718 C   0  0  0  0  0  0  0  0  0  0  0  0
  149.2131  140.8730  154.0553 N   0  0  0  0  0  0  0  0  0  0  0  0
  150.1650  140.6429  155.0492 C   0  0  0  0  0  0  0  0  0  0  0  0
  151.3001  140.2799  154.7401 O   0  0  0  0  0  0  0  0  0  0  0  0
  149.7504  140.8423  156.3857 N   0  0  0  0  0  0  0  0  0  0  0  0
  150.7017  140.5793  157.4377 C   0  0  0  0  0  0  0  0  0  0  0  0
  151.8595  141.5893  157.4540 C   0  0  0  0  0  0  0  0  0  0  0  0
  151.4999  142.6602  158.3162 O   0  0  0  0  0  0  0  0  0  0  0  0
  152.0055  142.6784  159.5978 C   0  0  0  0  0  0  0  0  0  0  0  0
  152.9334  141.7289  160.0957 C   0  0  0  0  0  0  0  0  0  0  0  0
  153.4061  141.8201  161.4192 C   0  0  0  0  0  0  0  0  0  0  0  0
  152.9605  142.8571  162.2591 C   0  0  0  0  0  0  0  0  0  0  0  0
  153.4179  142.9443  163.5305 F   0  0  0  0  0  0  0  0  0  0  0  0
  152.0387  143.8030  161.7747 C   0  0  0  0  0  0  0  0  0  0  0  0
  151.5633  143.7134  160.4517 C   0  0  0  0  0  0  0  0  0  0  0  0
  150.4283  144.8837  159.8795 Cl  0  0  0  0  0  0  0  0  0  0  0  0
  148.4433  141.2224  156.6484 C   0  0  0  0  0  0  0  0  0  0  0  0
  147.5227  141.4358  155.6776 C   0  0  0  0  0  0  0  0  0  0  0  0
  145.9093  141.8983  156.0857 Cl  0  0  0  0  0  0  0  0  0  0  0  0
  149.5035  140.7374  153.0979 H   0  0  0  0  0  0  0  0  0  0  0  0
  150.1572  140.5535  158.3838 H   0  0  0  0  0  0  0  0  0  0  0  0
  151.0704  139.5658  157.2721 H   0  0  0  0  0  0  0  0  0  0  0  0
  152.7792  141.1094  157.7920 H   0  0  0  0  0  0  0  0  0  0  0  0
  152.0271  141.9661  156.4440 H   0  0  0  0  0  0  0  0  0  0  0  0
  153.2999  140.9207  159.4813 H   0  0  0  0  0  0  0  0  0  0  0  0
  154.1133  141.0929  161.7901 H   0  0  0  0  0  0  0  0  0  0  0  0
  151.6958  144.5986  162.4198 H   0  0  0  0  0  0  0  0  0  0  0  0
  148.1374  141.3477  157.6776 H   0  0  0  0  0  0  0  0  0  0  0  0
  1  2  2  0  0  0  0
  2 19  1  0  0  0  0
  2  3  1  0  0  0  0
  3 21  1  0  0  0  0
  3  4  1  0  0  0  0
  4  5  2  0  0  0  0
  4  6  1  0  0  0  0
  6  7  1  0  0  0  0
  6 18  1  0  0  0  0
  7  8  1  0  0  0  0
  7 22  1  0  0  0  0
  7 23  1  0  0  0  0
  8  9  1  0  0  0  0
  8 24  1  0  0  0  0
  8 25  1  0  0  0  0
  9 10  1  0  0  0  0
 10 16  1  0  0  0  0
 10 11  2  0  0  0  0
 11 12  1  0  0  0  0
 11 26  1  0  0  0  0
 12 13  2  0  0  0  0
 12 27  1  0  0  0  0
 13 14  1  0  0  0  0
 13 15  1  0  0  0  0
 15 16  2  0  0  0  0
 15 28  1  0  0  0  0
 16 17  1  0  0  0  0
 18 19  2  0  0  0  0
 18 29  1  0  0  0  0
 19 20  1  0  0  0  0
M  END
> <s_m_source_file>
AV-unprocessed.smi

> <i_m_source_file_index>
2553

> <i_lp_mmshare_version>
43012

> <i_f3d_flags>
0

> <s_epik_input>
Tz1jMVtuSF1jKD1PKW4oW2NIXWMxQ2wpW0NIMl1bQ0gyXU9jMltjSF1bY0hdYyhGKVtjSF1jMkNs

> <s_epik_cmdline>
J2VwaWtfcHl0aG9uJywgJy1waCcsICc3LjAnLCAnLXRuJywgJzgnLCAnLW1hJywgJzIwMCcsICctbWV0YWxfYmluZGluZycsICctaW1hZScsICc8aW5maWxlLm1hZT4nLCAnLW9tYWUnLCAnPG91dGZpbGUubWFlPic=

> <r_lp_tautomer_probability>
0.999537

> <r_epik_Ionization_Penalty>
0.0476949

> <r_epik_Ionization_Penalty_Charging>
0.0476949

> <r_epik_Ionization_Penalty_Neutral>
0

> <r_epik_State_Penalty>
0.0406325

> <r_epik_Charging_Adjusted_Penalty>
0.0883274

> <i_epik_Tot_Q>
0

> <i_epik_Tot_abs_Q>
0

> <r_epik_Metal_State_Penalty>
2.53375

> <b_epik_Metal_Only>
0

> <s_lp_Force_Field>
OPLS_2005

> <r_lp_Energy>
13.2328

> <b_lp_Chiralities_Consistent>
1

> <s_lp_Variant>
AV-unprocessed.smi:2553-1

> <Gold.Version>
5.8.1

> <Gold.Id.Protein>
6NUR|6NUR_protein|mol2

> <Gold.PLP.Fitness>
49.5337

> <Gold.PLP.PLP>
-44.6152

> <Gold.PLP.part.hbond>
-2.0000

> <Gold.PLP.part.metal>
0.0000

> <Gold.PLP.part.buried>
-5.8524

> <Gold.PLP.part.nonpolar>
-36.0648

> <Gold.PLP.part.repulsive>
0.4729

> <Gold.PLP.ligand.clash>
0.0000

> <Gold.PLP.ligand.torsion>
0.5452

> <Gold.PLP.Chemscore.Hbond>
2.0000

> <Gold.PLP.Chemscore.CHOScore>
0.0000

> <Gold.PLP.Chemscore.Metal>
0.0000

> <Gold.Chemscore.Hbonds>
donor molecule, donor type, donor heavy atom, donor atom, acceptor molecule, acceptor atom, score
      L1  H     3    21       P1  7957  0.93
      P1  H  7989  7998       L1     5  0.70

> <Gold.PLP.Chemscore.Internal.Correction>
0.0089

> <Gold.Rescore>
     Score         DG    S(hbond)    S(metal)    S(lipo)     H(rot)  DE(clash)    DE(int)     intcor
     15.69     -17.44       1.78        0.00      93.87       1.94       0.07       1.69       ----

> <Gold.Chemscore.Fitness>
15.6863

> <Gold.Chemscore.DG>
-17.4401

> <Gold.Chemscore.ZeroCoef>
-5.4800

> <Gold.Chemscore.Hbond>
1.7759

> <Gold.Chemscore.Metal>
0.0000

> <Gold.Chemscore.Lipo>
93.8748

> <Gold.Chemscore.Internal_Hbond>
0.0000

> <Gold.Chemscore.DEClash>
0.0650

> <Gold.Chemscore.DEInternal>
1.6888

> <Gold.Chemscore.Rot>
1.9355

> <Gold.Chemscore.Internal.Correction>
   9.000000E+99

> <Gold.Chemscore.Hbonds>
donor molecule, donor type, donor heavy atom, donor atom, acceptor molecule, acceptor atom, score
      L1  H     3    21       P1  7957  0.88
      P1  H  7989  7998       L1     5  0.49

> <Gold.Chemscore.Hbond.Weighted>
-5.9315

> <Gold.Chemscore.Metal.Weighted>
-0.0000

> <Gold.Chemscore.Lipo.Weighted>
-10.9834

> <Gold.Chemscore.Internal_Hbond.Weighted>
0.0000

> <Gold.Chemscore.DEClash.Weighted>
0.0650

> <Gold.Chemscore.DEInternal.Weighted>
1.6888

> <Gold.Chemscore.Rot.Weighted>
4.9548

> <Gold.Chemscore.Internal.Correction.Weighted>
   9.000000E+99

> <Gold.Protein.RotatedTorsions>
[ 6907 6896 6895 6894 ] final    7.49 input  -60.11 | X-H torsion
[ 7974 7965 7964 7962 ] final   27.32 input  175.53 | X-H torsion
[ 8008 7997 7996 7995 ] final  -90.43 input   59.86 | X-H torsion
[ 10167 10162 10161 10158 ] final   72.27 input  -65.29 | X-H torsion
[ 10718 10713 10712 10709 ] final   57.34 input   66.30 | X-H torsion
[ 10763 10752 10751 10750 ] final  -50.79 input  -60.55 | X-H torsion
[ 11005 11000 10999 10996 ] final  -92.94 input  -57.11 | X-H torsion

> <Gold.Protein.ActiveResidues>
 VAL166  LYS551  ARG553  GLY616  TRP617  ASP618  TYR619  PRO620  LYS621  CYS622 
 ASP623  PHE694  ASN695  SER759  ASP760  ASP761  ALA762  ILE779  LEU786  VAL792 
 PHE793  MET794  SER795  GLU796  ALA797  LYS798  CYS799  TRP800  GLU811  SER814 

> <Gold.Protein.RotatedAtoms>
  151.6908  135.0947  160.0233 H   0  0  0  0  0  0  0  0  0  0  0  0  # atno 6907 bound_to 6896
  152.3779  133.6502  159.6147 H   0  0  0  0  0  0  0  0  0  0  0  0  # atno 6908 bound_to 6896
  150.7724  133.9078  159.3402 H   0  0  0  0  0  0  0  0  0  0  0  0  # atno 6909 bound_to 6896
  146.1790  139.7207  142.8913 H   0  0  0  0  0  0  0  0  0  0  0  0  # atno 7974 bound_to 7965
  154.6984  140.0530  157.0434 H   0  0  0  0  0  0  0  0  0  0  0  0  # atno 8008 bound_to 7997
  155.0718  140.3200  155.4609 H   0  0  0  0  0  0  0  0  0  0  0  0  # atno 8009 bound_to 7997
  156.2752  140.2080  156.5846 H   0  0  0  0  0  0  0  0  0  0  0  0  # atno 8010 bound_to 7997
  140.0371  144.5419  150.7462 H   0  0  0  0  0  0  0  0  0  0  0  0  # atno 10167 bound_to 10162
  157.5506  130.8763  149.8958 H   0  0  0  0  0  0  0  0  0  0  0  0  # atno 10718 bound_to 10713
  154.1161  135.6542  153.4894 H   0  0  0  0  0  0  0  0  0  0  0  0  # atno 10763 bound_to 10752
  153.0240  135.5259  154.7143 H   0  0  0  0  0  0  0  0  0  0  0  0  # atno 10764 bound_to 10752
  154.6337  135.2979  155.0156 H   0  0  0  0  0  0  0  0  0  0  0  0  # atno 10765 bound_to 10752
  141.1510  133.7854  157.0090 H   0  0  0  0  0  0  0  0  0  0  0  0  # atno 11005 bound_to 11000
  145.4129  141.0398  143.3007 LP  0  0  0  0  0  0  0  0  0  0  0  0  # atno 17320 bound_to 7965
  144.8284  139.5670  143.6955 LP  0  0  0  0  0  0  0  0  0  0  0  0  # atno 17321 bound_to 7965
  140.7276  143.2653  151.4064 LP  0  0  0  0  0  0  0  0  0  0  0  0  # atno 17342 bound_to 10162
  139.6038  144.1240  152.2227 LP  0  0  0  0  0  0  0  0  0  0  0  0  # atno 17343 bound_to 10162
  156.0573  130.3706  150.1061 LP  0  0  0  0  0  0  0  0  0  0  0  0  # atno 17370 bound_to 10713
  156.9234  130.9690  151.3545 LP  0  0  0  0  0  0  0  0  0  0  0  0  # atno 17371 bound_to 10713
  140.0890  134.9603  157.1746 LP  0  0  0  0  0  0  0  0  0  0  0  0  # atno 17394 bound_to 11000
  140.3472  134.2639  155.7203 LP  0  0  0  0  0  0  0  0  0  0  0  0  # atno 17395 bound_to 11000

$$$$
