AV-unprocessed.smi:2281|AV-procd|sdf|9194|dock10
  -GOLD-   2272012413D 1   1.00000     0.00000
 Structure written by MMmdl.
 40 41  0  0  0  0  0  0  0  0  1 V2000
  151.9157  144.7117  160.1317 C   0  0  0  0  0  0  0  0  0  0  0  0
  151.8149  143.5400  159.1714 C   0  0  0  0  0  0  0  0  0  0  0  0
  150.8220  143.6438  158.1937 N   0  0  0  0  0  0  0  0  0  0  0  0
  150.6781  142.7034  157.3187 C   0  0  0  0  0  0  0  0  0  0  0  0
  151.5011  141.5618  157.3150 N   0  0  0  0  0  0  0  0  0  0  0  0
  151.2617  140.5621  156.2515 C   0  0  0  0  0  0  0  0  0  0  0  0
  149.8848  139.8346  156.3325 C   0  0  2  0  0  0  0  0  0  0  0  0
  149.5675  139.4705  157.7985 C   0  0  0  0  0  0  0  0  0  0  0  0
  150.0508  138.5622  155.7319 O   0  0  0  0  0  0  0  0  0  0  0  0
  148.7395  140.6393  155.6987 C   0  0  0  0  0  0  0  0  0  0  0  0
  148.7424  140.9522  154.3186 C   0  0  0  0  0  0  0  0  0  0  0  0
  147.7030  141.7162  153.7562 C   0  0  0  0  0  0  0  0  0  0  0  0
  146.6482  142.1790  154.5637 C   0  0  0  0  0  0  0  0  0  0  0  0
  146.6289  141.8798  155.9425 C   0  0  0  0  0  0  0  0  0  0  0  0
  145.5089  142.3793  156.8423 C   0  0  0  0  0  0  0  0  0  0  0  0
  144.8625  141.3420  157.3743 F   0  0  0  0  0  0  0  0  0  0  0  0
  146.0290  143.1117  157.8269 F   0  0  0  0  0  0  0  0  0  0  0  0
  144.6287  143.1262  156.1748 F   0  0  0  0  0  0  0  0  0  0  0  0
  147.6755  141.1157  156.4994 C   0  0  0  0  0  0  0  0  0  0  0  0
  152.4604  141.3614  158.2649 C   0  0  0  0  0  0  0  0  0  0  0  0
  153.1390  140.3334  158.2938 O   0  0  0  0  0  0  0  0  0  0  0  0
  152.6279  142.4509  159.2400 C   0  0  0  0  0  0  0  0  0  0  0  0
  153.7310  142.2857  160.2781 C   0  0  0  0  0  0  0  0  0  0  0  0
  151.7597  144.3790  161.1583 H   0  0  0  0  0  0  0  0  0  0  0  0
  151.1662  145.4726  159.9103 H   0  0  0  0  0  0  0  0  0  0  0  0
  152.8979  145.1794  160.0612 H   0  0  0  0  0  0  0  0  0  0  0  0
  149.9224  142.7436  156.5324 H   0  0  0  0  0  0  0  0  0  0  0  0
  151.4060  141.0082  155.2652 H   0  0  0  0  0  0  0  0  0  0  0  0
  152.0471  139.8051  156.3024 H   0  0  0  0  0  0  0  0  0  0  0  0
  149.4829  140.3512  158.4346 H   0  0  0  0  0  0  0  0  0  0  0  0
  150.3508  138.8466  158.2319 H   0  0  0  0  0  0  0  0  0  0  0  0
  148.6289  138.9196  157.8762 H   0  0  0  0  0  0  0  0  0  0  0  0
  149.5713  138.5478  154.9177 H   0  0  0  0  0  0  0  0  0  0  0  0
  149.5458  140.6225  153.6769 H   0  0  0  0  0  0  0  0  0  0  0  0
  147.7179  141.9514  152.7022 H   0  0  0  0  0  0  0  0  0  0  0  0
  145.8615  142.7680  154.1161 H   0  0  0  0  0  0  0  0  0  0  0  0
  147.6610  140.9132  157.5595 H   0  0  0  0  0  0  0  0  0  0  0  0
  154.6996  142.1980  159.7847 H   0  0  0  0  0  0  0  0  0  0  0  0
  153.5656  141.3803  160.8631 H   0  0  0  0  0  0  0  0  0  0  0  0
  153.7934  143.1190  160.9761 H   0  0  0  0  0  0  0  0  0  0  0  0
  1  2  1  0  0  0  0
  1 24  1  0  0  0  0
  1 25  1  0  0  0  0
  1 26  1  0  0  0  0
  2 22  2  0  0  0  0
  2  3  1  0  0  0  0
  3  4  2  0  0  0  0
  4  5  1  0  0  0  0
  4 27  1  0  0  0  0
  5  6  1  0  0  0  0
  5 20  1  0  0  0  0
  6  7  1  0  0  0  0
  6 28  1  0  0  0  0
  6 29  1  0  0  0  0
  7  8  1  0  0  0  0
  7  9  1  0  0  0  0
  7 10  1  0  0  0  0
  8 30  1  0  0  0  0
  8 31  1  0  0  0  0
  8 32  1  0  0  0  0
  9 33  1  0  0  0  0
 10 19  1  0  0  0  0
 10 11  2  0  0  0  0
 11 12  1  0  0  0  0
 11 34  1  0  0  0  0
 12 13  2  0  0  0  0
 12 35  1  0  0  0  0
 13 14  1  0  0  0  0
 13 36  1  0  0  0  0
 14 15  1  0  0  0  0
 14 19  2  0  0  0  0
 15 16  1  0  0  0  0
 15 17  1  0  0  0  0
 15 18  1  0  0  0  0
 19 37  1  0  0  0  0
 20 21  2  0  0  0  0
 20 22  1  0  0  0  0
 22 23  1  0  0  0  0
 23 38  1  0  0  0  0
 23 39  1  0  0  0  0
 23 40  1  0  0  0  0
M  END
> <s_m_source_file>
AV-unprocessed.smi

> <i_m_source_file_index>
2281

> <i_lp_mmshare_version>
43012

> <i_f3d_flags>
0

> <s_epik_input>
W0NIM11jMW5bY0hdbihjKD1PKWMxW0NIM10pW0NIMl1bQ0BAXShbQ0gzXSkoW09IXSljMltjSF1bY0hdW2NIXWMoQyhGKShGKUYpW2NIXTI=

> <s_epik_cmdline>
J2VwaWtfcHl0aG9uJywgJy1waCcsICc3LjAnLCAnLXRuJywgJzgnLCAnLW1hJywgJzIwMCcsICctbWV0YWxfYmluZGluZycsICctaW1hZScsICc8aW5maWxlLm1hZT4nLCAnLW9tYWUnLCAnPG91dGZpbGUubWFlPic=

> <r_lp_tautomer_probability>
1

> <r_epik_Ionization_Penalty>
5.68222e-05

> <r_epik_Ionization_Penalty_Charging>
9.07816e-08

> <r_epik_Ionization_Penalty_Neutral>
5.67314e-05

> <r_epik_State_Penalty>
-0

> <r_epik_Charging_Adjusted_Penalty>
9.07816e-08

> <i_epik_Tot_Q>
0

> <i_epik_Tot_abs_Q>
0

> <r_epik_Metal_State_Penalty>
-0

> <b_epik_Metal_Only>
0

> <s_lp_Force_Field>
OPLS_2005

> <r_lp_Energy>
21.2776

> <b_lp_Chiralities_Consistent>
1

> <s_lp_Variant>
AV-unprocessed.smi:2281-2

> <Gold.Version>
5.8.1

> <Gold.Id.Protein>
6NUR|6NUR_protein|mol2

> <Gold.PLP.Fitness>
45.8089

> <Gold.PLP.PLP>
-40.5431

> <Gold.PLP.part.hbond>
-1.0000

> <Gold.PLP.part.metal>
0.0000

> <Gold.PLP.part.buried>
-5.5399

> <Gold.PLP.part.nonpolar>
-33.2052

> <Gold.PLP.part.repulsive>
0.1294

> <Gold.PLP.ligand.clash>
0.0000

> <Gold.PLP.ligand.torsion>
0.5052

> <Gold.PLP.Chemscore.Hbond>
1.0000

> <Gold.PLP.Chemscore.CHOScore>
1.0000

> <Gold.PLP.Chemscore.Metal>
0.0000

> <Gold.Chemscore.Hbonds>
donor molecule, donor type, donor heavy atom, donor atom, acceptor molecule, acceptor atom, score
      P1  H  7997  8008       L1    21  0.90
      L1  C     4    27       P1  8028  0.92

> <Gold.PLP.Chemscore.Internal.Correction>
0.2763

> <Gold.Rescore>
     Score         DG    S(hbond)    S(metal)    S(lipo)     H(rot)  DE(clash)    DE(int)     intcor
     13.00     -13.39       0.93        0.00      86.82       2.09       0.04       0.35       ----

> <Gold.Chemscore.Fitness>
13.0027

> <Gold.Chemscore.DG>
-13.3922

> <Gold.Chemscore.ZeroCoef>
-5.4800

> <Gold.Chemscore.Hbond>
0.9265

> <Gold.Chemscore.Metal>
0.0000

> <Gold.Chemscore.Lipo>
86.8183

> <Gold.Chemscore.Internal_Hbond>
0.0000

> <Gold.Chemscore.DEClash>
0.0369

> <Gold.Chemscore.DEInternal>
0.3527

> <Gold.Chemscore.Rot>
2.0860

> <Gold.Chemscore.Internal.Correction>
   9.000000E+99

> <Gold.Chemscore.Hbonds>
donor molecule, donor type, donor heavy atom, donor atom, acceptor molecule, acceptor atom, score
      P1  H  7997  8008       L1    21  0.86

> <Gold.Chemscore.Hbond.Weighted>
-3.0947

> <Gold.Chemscore.Metal.Weighted>
-0.0000

> <Gold.Chemscore.Lipo.Weighted>
-10.1577

> <Gold.Chemscore.Internal_Hbond.Weighted>
0.0000

> <Gold.Chemscore.DEClash.Weighted>
0.0369

> <Gold.Chemscore.DEInternal.Weighted>
0.3527

> <Gold.Chemscore.Rot.Weighted>
5.3402

> <Gold.Chemscore.Internal.Correction.Weighted>
   9.000000E+99

> <Gold.Protein.RotatedTorsions>
[ 6907 6896 6895 6894 ] final   65.18 input  -60.11 | X-H torsion
[ 7974 7965 7964 7962 ] final -137.09 input  175.53 | X-H torsion
[ 8008 7997 7996 7995 ] final  -84.93 input   59.86 | X-H torsion
[ 10167 10162 10161 10158 ] final  175.50 input  -65.29 | X-H torsion
[ 10718 10713 10712 10709 ] final -135.64 input   66.30 | X-H torsion
[ 10763 10752 10751 10750 ] final  129.65 input  -60.55 | X-H torsion
[ 11005 11000 10999 10996 ] final -176.97 input  -57.11 | X-H torsion

> <Gold.Protein.ActiveResidues>
 VAL166  LYS551  ARG553  GLY616  TRP617  ASP618  TYR619  PRO620  LYS621  CYS622 
 ASP623  PHE694  ASN695  SER759  ASP760  ASP761  ALA762  ILE779  LEU786  VAL792 
 PHE793  MET794  SER795  GLU796  ALA797  LYS798  CYS799  TRP800  GLU811  SER814 

> <Gold.Protein.RotatedAtoms>
  152.4388  134.5633  159.9900 H   0  0  0  0  0  0  0  0  0  0  0  0  # atno 6907 bound_to 6896
  151.5736  133.3381  159.3002 H   0  0  0  0  0  0  0  0  0  0  0  0  # atno 6908 bound_to 6896
  150.8290  134.7569  159.6902 H   0  0  0  0  0  0  0  0  0  0  0  0  # atno 6909 bound_to 6896
  144.8871  140.6590  143.5169 H   0  0  0  0  0  0  0  0  0  0  0  0  # atno 7974 bound_to 7965
  154.6351  140.0598  156.9779 H   0  0  0  0  0  0  0  0  0  0  0  0  # atno 8008 bound_to 7997
  155.1604  140.3282  155.4394 H   0  0  0  0  0  0  0  0  0  0  0  0  # atno 8009 bound_to 7997
  156.2503  140.1932  156.6711 H   0  0  0  0  0  0  0  0  0  0  0  0  # atno 8010 bound_to 7997
  139.5179  144.3024  152.0366 H   0  0  0  0  0  0  0  0  0  0  0  0  # atno 10167 bound_to 10162
  156.2683  130.7251  151.1209 H   0  0  0  0  0  0  0  0  0  0  0  0  # atno 10718 bound_to 10713
  153.7452  135.3218  155.3311 H   0  0  0  0  0  0  0  0  0  0  0  0  # atno 10763 bound_to 10752
  154.8281  135.4554  154.0986 H   0  0  0  0  0  0  0  0  0  0  0  0  # atno 10764 bound_to 10752
  153.2173  135.6943  153.8124 H   0  0  0  0  0  0  0  0  0  0  0  0  # atno 10765 bound_to 10752
  140.4461  134.6386  157.4780 H   0  0  0  0  0  0  0  0  0  0  0  0  # atno 11005 bound_to 11000
  145.3849  139.1629  143.4260 LP  0  0  0  0  0  0  0  0  0  0  0  0  # atno 17320 bound_to 7965
  146.3031  140.3933  142.8697 LP  0  0  0  0  0  0  0  0  0  0  0  0  # atno 17321 bound_to 7965
  140.2471  144.4208  150.6236 LP  0  0  0  0  0  0  0  0  0  0  0  0  # atno 17342 bound_to 10162
  140.6250  143.2180  151.6615 LP  0  0  0  0  0  0  0  0  0  0  0  0  # atno 17343 bound_to 10162
  157.7275  131.0638  150.5862 LP  0  0  0  0  0  0  0  0  0  0  0  0  # atno 17370 bound_to 10713
  156.5956  130.4341  149.5918 LP  0  0  0  0  0  0  0  0  0  0  0  0  # atno 17371 bound_to 10713
  140.0037  134.6796  155.9489 LP  0  0  0  0  0  0  0  0  0  0  0  0  # atno 17394 bound_to 11000
  141.1684  133.6537  156.4563 LP  0  0  0  0  0  0  0  0  0  0  0  0  # atno 17395 bound_to 11000

$$$$
