AV-unprocessed.smi:36|AV-procd|sdf|291|dock10
  -GOLD-   2262016 83D 1   1.00000     0.00000
 Structure written by MMmdl.
 64 67  0  0  0  0  0  0  0  0  1 V2000
  153.2930  127.6666  164.1132 C   0  0  0  0  0  0  0  0  0  0  0  0
  152.8102  127.6999  165.5729 C   0  0  0  0  0  0  0  0  0  0  0  0
  152.0077  126.4239  165.8809 C   0  0  0  0  0  0  0  0  0  0  0  0
  154.0165  127.8029  166.5212 C   0  0  0  0  0  0  0  0  0  0  0  0
  151.6763  129.2165  165.8214 Si  0  0  0  0  0  0  0  0  0  0  0  0
  150.1861  129.1494  164.6416 C   0  0  0  0  0  0  0  0  0  0  0  0
  151.0629  129.3339  167.6152 C   0  0  0  0  0  0  0  0  0  0  0  0
  152.5920  130.6026  165.4924 O   0  0  0  0  0  0  0  0  0  0  0  0
  152.7191  131.1884  164.2125 C   0  0  0  0  0  0  0  0  0  0  0  0
  153.3371  132.5877  164.3598 C   0  0  2  0  0  0  0  0  0  0  0  0
  154.1368  132.9170  163.2311 O   0  0  0  0  0  0  0  0  0  0  0  0
  155.0449  133.9215  163.5716 C   0  0  1  0  0  0  0  0  0  0  0  0
  154.5620  135.2218  163.0087 N   0  0  0  0  0  0  0  0  0  0  0  0
  154.0206  136.2683  163.6643 C   0  0  0  0  0  0  0  0  0  0  0  0
  153.6804  137.3042  162.9010 N   0  0  0  0  0  0  0  0  0  0  0  0
  154.0380  136.8746  161.6272 C   0  0  0  0  0  0  0  0  0  0  0  0
  153.9200  137.5527  160.3176 C   0  0  0  0  0  0  0  0  0  0  0  0
  153.4150  138.7492  160.3002 N   0  0  0  0  0  0  0  0  0  0  0  0
  153.2621  139.4245  159.0957 C   0  0  0  0  0  0  0  0  0  0  0  0
  153.4135  138.9977  157.9475 O   0  0  0  0  0  0  0  0  0  0  0  0
  152.9464  140.8761  159.2659 C   0  0  0  0  0  0  0  0  0  0  0  0
  151.9492  141.4852  158.4740 C   0  0  0  0  0  0  0  0  0  0  0  0
  151.6529  142.8523  158.6389 C   0  0  0  0  0  0  0  0  0  0  0  0
  152.3525  143.6152  159.5939 C   0  0  0  0  0  0  0  0  0  0  0  0
  153.3484  143.0110  160.3852 C   0  0  0  0  0  0  0  0  0  0  0  0
  153.6443  141.6434  160.2229 C   0  0  0  0  0  0  0  0  0  0  0  0
  154.4083  136.7174  159.3044 N   0  0  0  0  0  0  0  0  0  0  0  0
  154.9417  135.4315  159.4825 C   0  0  0  0  0  0  0  0  0  0  0  0
  155.0546  134.8222  160.6325 N   0  0  0  0  0  0  0  0  0  0  0  0
  154.5768  135.6070  161.6724 C   0  0  0  0  0  0  0  0  0  0  0  0
  155.0953  133.9992  165.1056 C   0  0  0  0  0  0  0  0  0  0  0  0
  154.2978  132.7809  165.5369 C   0  0  2  0  0  0  0  0  0  0  0  0
  155.1458  131.6624  165.7182 O   0  0  0  0  0  0  0  0  0  0  0  0
  153.9271  126.7998  163.9250 H   0  0  0  0  0  0  0  0  0  0  0  0
  153.8719  128.5563  163.8645 H   0  0  0  0  0  0  0  0  0  0  0  0
  152.4529  127.6167  163.4196 H   0  0  0  0  0  0  0  0  0  0  0  0
  151.1344  126.3392  165.2330 H   0  0  0  0  0  0  0  0  0  0  0  0
  151.6530  126.4144  166.9118 H   0  0  0  0  0  0  0  0  0  0  0  0
  152.6134  125.5289  165.7351 H   0  0  0  0  0  0  0  0  0  0  0  0
  154.6861  126.9502  166.4041 H   0  0  0  0  0  0  0  0  0  0  0  0
  153.7009  127.8309  167.5644 H   0  0  0  0  0  0  0  0  0  0  0  0
  154.5973  128.7053  166.3284 H   0  0  0  0  0  0  0  0  0  0  0  0
  149.5498  128.2903  164.8525 H   0  0  0  0  0  0  0  0  0  0  0  0
  150.4984  129.0709  163.6006 H   0  0  0  0  0  0  0  0  0  0  0  0
  149.5642  130.0401  164.7280 H   0  0  0  0  0  0  0  0  0  0  0  0
  150.4802  128.4574  167.8982 H   0  0  0  0  0  0  0  0  0  0  0  0
  150.4285  130.2074  167.7632 H   0  0  0  0  0  0  0  0  0  0  0  0
  151.8921  129.4145  168.3175 H   0  0  0  0  0  0  0  0  0  0  0  0
  153.3512  130.5571  163.5871 H   0  0  0  0  0  0  0  0  0  0  0  0
  151.7398  131.2376  163.7363 H   0  0  0  0  0  0  0  0  0  0  0  0
  152.5456  133.3328  164.4453 H   0  0  0  0  0  0  0  0  0  0  0  0
  156.0119  133.7472  163.0984 H   0  0  0  0  0  0  0  0  0  0  0  0
  153.8674  136.2756  164.7333 H   0  0  0  0  0  0  0  0  0  0  0  0
  151.4064  140.9068  157.7402 H   0  0  0  0  0  0  0  0  0  0  0  0
  150.8884  143.3158  158.0327 H   0  0  0  0  0  0  0  0  0  0  0  0
  152.1250  144.6636  159.7194 H   0  0  0  0  0  0  0  0  0  0  0  0
  153.8853  143.5956  161.1176 H   0  0  0  0  0  0  0  0  0  0  0  0
  154.4091  141.1874  160.8350 H   0  0  0  0  0  0  0  0  0  0  0  0
  155.2695  134.9557  158.5572 H   0  0  0  0  0  0  0  0  0  0  0  0
  156.1249  134.0046  165.4653 H   0  0  0  0  0  0  0  0  0  0  0  0
  154.6042  134.9116  165.4486 H   0  0  0  0  0  0  0  0  0  0  0  0
  153.7604  132.9586  166.4687 H   0  0  0  0  0  0  0  0  0  0  0  0
  154.6227  130.9315  166.0099 H   0  0  0  0  0  0  0  0  0  0  0  0
  154.3770  137.0760  158.3608 H   0  0  0  0  0  0  0  0  0  0  0  0
  1  2  1  0  0  0  0
  1 34  1  0  0  0  0
  1 35  1  0  0  0  0
  1 36  1  0  0  0  0
  2  3  1  0  0  0  0
  2  4  1  0  0  0  0
  2  5  1  0  0  0  0
  3 37  1  0  0  0  0
  3 38  1  0  0  0  0
  3 39  1  0  0  0  0
  4 40  1  0  0  0  0
  4 41  1  0  0  0  0
  4 42  1  0  0  0  0
  5  6  1  0  0  0  0
  5  7  1  0  0  0  0
  5  8  1  0  0  0  0
  6 43  1  0  0  0  0
  6 44  1  0  0  0  0
  6 45  1  0  0  0  0
  7 46  1  0  0  0  0
  7 47  1  0  0  0  0
  7 48  1  0  0  0  0
  8  9  1  0  0  0  0
  9 10  1  0  0  0  0
  9 49  1  0  0  0  0
  9 50  1  0  0  0  0
 10 32  1  0  0  0  0
 10 11  1  0  0  0  0
 10 51  1  0  0  0  0
 11 12  1  0  0  0  0
 12 13  1  0  0  0  0
 12 31  1  0  0  0  0
 12 52  1  0  0  0  0
 13 30  1  0  0  0  0
 13 14  1  0  0  0  0
 14 15  2  0  0  0  0
 14 53  1  0  0  0  0
 15 16  1  0  0  0  0
 16 30  2  0  0  0  0
 16 17  1  0  0  0  0
 17 18  2  0  0  0  0
 17 27  1  0  0  0  0
 18 19  1  0  0  0  0
 19 20  2  0  0  0  0
 19 21  1  0  0  0  0
 21 26  1  0  0  0  0
 21 22  2  0  0  0  0
 22 23  1  0  0  0  0
 22 54  1  0  0  0  0
 23 24  2  0  0  0  0
 23 55  1  0  0  0  0
 24 25  1  0  0  0  0
 24 56  1  0  0  0  0
 25 26  2  0  0  0  0
 25 57  1  0  0  0  0
 26 58  1  0  0  0  0
 27 28  1  0  0  0  0
 27 64  1  0  0  0  0
 28 29  2  0  0  0  0
 28 59  1  0  0  0  0
 29 30  1  0  0  0  0
 31 32  1  0  0  0  0
 31 60  1  0  0  0  0
 31 61  1  0  0  0  0
 32 33  1  0  0  0  0
 32 62  1  0  0  0  0
 33 63  1  0  0  0  0
M  END
> <s_m_source_file>
AV-unprocessed.smi

> <i_m_source_file_index>
36

> <i_lp_mmshare_version>
43012

> <i_f3d_flags>
0

> <s_epik_input>
W0NIM11DKFtDSDNdKShbQ0gzXSlbU2ldKFtDSDNdKShbQ0gzXSlPW0NIMl1bQ0BASF0xT1tDQEhdKFtDSDJdW0NASF0xW09IXSluKFtjSF1uMiljKGMyMyluW2NIXW5jM1tOSF1DKD1PKWM0W2NIXVtjSF1bY0hdW2NIXVtjSF00

> <s_epik_cmdline>
J2VwaWtfcHl0aG9uJywgJy1waCcsICc3LjAnLCAnLXRuJywgJzgnLCAnLW1hJywgJzIwMCcsICctbWV0YWxfYmluZGluZycsICctaW1hZScsICc8aW5maWxlLm1hZT4nLCAnLW9tYWUnLCAnPG91dGZpbGUubWFlPic=

> <r_epik_Ionization_Penalty>
0.0850405

> <r_epik_Ionization_Penalty_Charging>
0.0850403

> <r_epik_Ionization_Penalty_Neutral>
1.47497e-07

> <r_epik_State_Penalty>
2.6133

> <r_epik_Charging_Adjusted_Penalty>
2.69834

> <i_epik_Tot_Q>
0

> <i_epik_Tot_abs_Q>
0

> <r_epik_Metal_State_Penalty>
2.92945

> <b_epik_Metal_Only>
0

> <s_epik_Chemistry_Notes>
This compound contains an acetal/aminal-like group ( X-CH(R)-Y where X, Y are N, S, or O) that may be acid/base labile, releasing an aldehyde.

> <s_lp_Force_Field>
OPLS_2005

> <r_lp_Energy>
50.6146

> <b_lp_Chiralities_Consistent>
1

> <s_lp_Variant>
AV-unprocessed.smi:36-13

> <Gold.Version>
5.8.1

> <Gold.Id.Protein>
6NUR|6NUR_protein|mol2

> <Gold.PLP.Fitness>
50.6034

> <Gold.PLP.PLP>
-51.5327

> <Gold.PLP.part.hbond>
-1.0000

> <Gold.PLP.part.metal>
0.0000

> <Gold.PLP.part.buried>
-6.1320

> <Gold.PLP.part.nonpolar>
-44.4001

> <Gold.PLP.part.repulsive>
0.1439

> <Gold.PLP.ligand.clash>
0.0000

> <Gold.PLP.ligand.torsion>
2.0038

> <Gold.PLP.Chemscore.Hbond>
1.0000

> <Gold.PLP.Chemscore.CHOScore>
0.0000

> <Gold.PLP.Chemscore.Metal>
0.0000

> <Gold.Chemscore.Hbonds>
donor molecule, donor type, donor heavy atom, donor atom, acceptor molecule, acceptor atom, score
      P1  H  7997  8009       L1    20  1.00

> <Gold.PLP.Chemscore.Internal.Correction>
0.0782

> <Gold.Rescore>
     Score         DG    S(hbond)    S(metal)    S(lipo)     H(rot)  DE(clash)    DE(int)     intcor
     13.54     -17.22       0.96        0.00     132.16       2.70       0.30       3.37       ----

> <Gold.Chemscore.Fitness>
13.5432

> <Gold.Chemscore.DG>
-17.2156

> <Gold.Chemscore.ZeroCoef>
-5.4800

> <Gold.Chemscore.Hbond>
0.9568

> <Gold.Chemscore.Metal>
0.0000

> <Gold.Chemscore.Lipo>
132.1585

> <Gold.Chemscore.Internal_Hbond>
0.0000

> <Gold.Chemscore.DEClash>
0.3024

> <Gold.Chemscore.DEInternal>
3.3701

> <Gold.Chemscore.Rot>
2.7041

> <Gold.Chemscore.Internal.Correction>
   9.000000E+99

> <Gold.Chemscore.Hbonds>
donor molecule, donor type, donor heavy atom, donor atom, acceptor molecule, acceptor atom, score
      P1  H  7997  8009       L1    20  0.54

> <Gold.Chemscore.Hbond.Weighted>
-3.1956

> <Gold.Chemscore.Metal.Weighted>
-0.0000

> <Gold.Chemscore.Lipo.Weighted>
-15.4625

> <Gold.Chemscore.Internal_Hbond.Weighted>
0.0000

> <Gold.Chemscore.DEClash.Weighted>
0.3024

> <Gold.Chemscore.DEInternal.Weighted>
3.3701

> <Gold.Chemscore.Rot.Weighted>
6.9225

> <Gold.Chemscore.Internal.Correction.Weighted>
   9.000000E+99

> <Gold.Protein.RotatedTorsions>
[ 6907 6896 6895 6894 ] final  123.98 input  -60.11 | X-H torsion
[ 7974 7965 7964 7962 ] final -175.81 input  175.53 | X-H torsion
[ 8008 7997 7996 7995 ] final  138.56 input   59.86 | X-H torsion
[ 10167 10162 10161 10158 ] final -115.67 input  -65.29 | X-H torsion
[ 10718 10713 10712 10709 ] final -174.56 input   66.30 | X-H torsion
[ 10763 10752 10751 10750 ] final  -53.98 input  -60.55 | X-H torsion
[ 11005 11000 10999 10996 ] final  160.42 input  -57.11 | X-H torsion

> <Gold.Protein.ActiveResidues>
 VAL166  LYS551  ARG553  GLY616  TRP617  ASP618  TYR619  PRO620  LYS621  CYS622 
 ASP623  PHE694  ASN695  SER759  ASP760  ASP761  ALA762  ILE779  LEU786  VAL792 
 PHE793  MET794  SER795  GLU796  ALA797  LYS798  CYS799  TRP800  GLU811  SER814 

> <Gold.Protein.RotatedAtoms>
  152.4117  133.6973  159.6403 H   0  0  0  0  0  0  0  0  0  0  0  0  # atno 6907 bound_to 6896
  150.7996  133.8613  159.3241 H   0  0  0  0  0  0  0  0  0  0  0  0  # atno 6908 bound_to 6896
  151.6353  135.1020  160.0182 H   0  0  0  0  0  0  0  0  0  0  0  0  # atno 6909 bound_to 6896
  144.7127  140.1265  143.6401 H   0  0  0  0  0  0  0  0  0  0  0  0  # atno 7974 bound_to 7965
  156.2996  140.2390  156.4093 H   0  0  0  0  0  0  0  0  0  0  0  0  # atno 8008 bound_to 7997
  154.8455  140.0426  157.1590 H   0  0  0  0  0  0  0  0  0  0  0  0  # atno 8009 bound_to 7997
  154.9055  140.2983  155.5298 H   0  0  0  0  0  0  0  0  0  0  0  0  # atno 8010 bound_to 7997
  140.0876  143.4729  152.1889 H   0  0  0  0  0  0  0  0  0  0  0  0  # atno 10167 bound_to 10162
  156.7869  130.9503  151.3120 H   0  0  0  0  0  0  0  0  0  0  0  0  # atno 10718 bound_to 10713
  154.1675  135.6464  153.5001 H   0  0  0  0  0  0  0  0  0  0  0  0  # atno 10763 bound_to 10752
  153.0093  135.5375  154.6647 H   0  0  0  0  0  0  0  0  0  0  0  0  # atno 10764 bound_to 10752
  154.5977  135.2940  155.0540 H   0  0  0  0  0  0  0  0  0  0  0  0  # atno 10765 bound_to 10752
  140.2057  134.8304  157.3067 H   0  0  0  0  0  0  0  0  0  0  0  0  # atno 11005 bound_to 11000
  145.9324  139.2615  143.1317 LP  0  0  0  0  0  0  0  0  0  0  0  0  # atno 17320 bound_to 7965
  145.9509  140.8909  143.0260 LP  0  0  0  0  0  0  0  0  0  0  0  0  # atno 17321 bound_to 7965
  139.5743  144.7479  151.3806 LP  0  0  0  0  0  0  0  0  0  0  0  0  # atno 17342 bound_to 10162
  140.7045  143.7548  150.7459 LP  0  0  0  0  0  0  0  0  0  0  0  0  # atno 17343 bound_to 10162
  157.6620  130.8974  149.9849 LP  0  0  0  0  0  0  0  0  0  0  0  0  # atno 17370 bound_to 10713
  156.1183  130.3647  149.9930 LP  0  0  0  0  0  0  0  0  0  0  0  0  # atno 17371 bound_to 10713
  140.2005  134.4261  155.7665 LP  0  0  0  0  0  0  0  0  0  0  0  0  # atno 17394 bound_to 11000
  141.2227  133.7070  156.8175 LP  0  0  0  0  0  0  0  0  0  0  0  0  # atno 17395 bound_to 11000

$$$$
