AV-unprocessed.smi:837|AV-procd|sdf|3906|dock1
  -GOLD-   22720 1363D 1   1.00000     0.00000
 Structure written by MMmdl.
 49 51  0  0  0  0  0  0  0  0  3 V2000
  150.0033  140.7157  156.7211 C   0  0  0  0  0  0  0  0  0  0  0  0
  149.3547  140.9715  155.3436 C   0  0  2  0  0  0  0  0  0  0  0  0
  147.9870  141.6666  155.5298 C   0  0  0  0  0  0  0  0  0  0  0  0
  147.3274  142.0096  154.1866 C   0  0  0  0  0  0  0  0  0  0  0  0
  147.1711  140.7611  153.3101 C   0  0  0  0  0  0  0  0  0  0  0  0
  148.5263  140.0647  153.0984 C   0  0  0  0  0  0  0  0  0  0  0  0
  149.2532  139.7086  154.4234 C   0  0  1  0  0  0  0  0  0  0  0  0
  150.5785  139.2081  154.0975 N   0  5  0  0  0  0  0  0  0  0  0  0
  150.6716  137.9168  154.4880 C   0  0  0  0  0  0  0  0  0  0  0  0
  151.6475  137.1781  154.3564 O   0  0  0  0  0  0  0  0  0  0  0  0
  149.5335  137.5047  155.0770 N   0  0  0  0  0  0  0  0  0  0  0  0
  149.3349  136.1745  155.6646 C   0  0  0  0  0  0  0  0  0  0  0  0
  148.1648  135.4414  155.0008 C   0  0  0  0  0  0  0  0  0  0  0  0
  147.0146  135.6086  155.4059 O   0  0  0  0  0  0  0  0  0  0  0  0
  148.4816  134.6289  153.9818 N   0  0  0  0  0  0  0  0  0  0  0  0
  147.5497  133.7870  153.2372 C   0  0  0  0  0  0  0  0  0  0  0  0
  146.4842  134.5818  152.4490 C   0  0  0  0  0  0  0  0  0  0  0  0
  145.7104  133.7631  151.4256 C   0  0  0  0  0  0  0  0  0  0  0  0
  146.3811  132.8305  150.6031 C   0  0  0  0  0  0  0  0  0  0  0  0
  145.6487  132.0916  149.6514 C   0  0  0  0  0  0  0  0  0  0  0  0
  144.2608  132.3050  149.5379 C   0  0  0  0  0  0  0  0  0  0  0  0
  143.6514  133.2034  150.3421 N   0  3  0  0  0  0  0  0  0  0  0  0
  144.3163  133.9258  151.2707 C   0  0  0  0  0  0  0  0  0  0  0  0
  148.6288  138.4892  155.1005 C   0  0  0  0  0  0  0  0  0  0  0  0
  147.4978  138.4479  155.5859 O   0  0  0  0  0  0  0  0  0  0  0  0
  149.4088  140.0371  157.3332 H   0  0  0  0  0  0  0  0  0  0  0  0
  150.1112  141.6464  157.2782 H   0  0  0  0  0  0  0  0  0  0  0  0
  150.9985  140.2878  156.6185 H   0  0  0  0  0  0  0  0  0  0  0  0
  149.9996  141.6874  154.8307 H   0  0  0  0  0  0  0  0  0  0  0  0
  147.3174  141.0362  156.1153 H   0  0  0  0  0  0  0  0  0  0  0  0
  148.1160  142.5835  156.1059 H   0  0  0  0  0  0  0  0  0  0  0  0
  146.3530  142.4680  154.3569 H   0  0  0  0  0  0  0  0  0  0  0  0
  147.9313  142.7509  153.6620 H   0  0  0  0  0  0  0  0  0  0  0  0
  146.4588  140.0746  153.7673 H   0  0  0  0  0  0  0  0  0  0  0  0
  146.7467  141.0395  152.3454 H   0  0  0  0  0  0  0  0  0  0  0  0
  148.3753  139.1692  152.4929 H   0  0  0  0  0  0  0  0  0  0  0  0
  149.1618  140.7206  152.5010 H   0  0  0  0  0  0  0  0  0  0  0  0
  150.2333  135.5648  155.5566 H   0  0  0  0  0  0  0  0  0  0  0  0
  149.1681  136.2662  156.7396 H   0  0  0  0  0  0  0  0  0  0  0  0
  149.4556  134.5650  153.7231 H   0  0  0  0  0  0  0  0  0  0  0  0
  148.0955  133.1150  152.5733 H   0  0  0  0  0  0  0  0  0  0  0  0
  147.0507  133.1531  153.9705 H   0  0  0  0  0  0  0  0  0  0  0  0
  145.7767  135.0218  153.1528 H   0  0  0  0  0  0  0  0  0  0  0  0
  146.9565  135.4221  151.9396 H   0  0  0  0  0  0  0  0  0  0  0  0
  147.4481  132.6872  150.6918 H   0  0  0  0  0  0  0  0  0  0  0  0
  146.1476  131.3840  149.0056 H   0  0  0  0  0  0  0  0  0  0  0  0
  143.6269  131.7943  148.8280 H   0  0  0  0  0  0  0  0  0  0  0  0
  143.7186  134.6156  151.8484 H   0  0  0  0  0  0  0  0  0  0  0  0
  142.6468  133.3466  150.2387 H   0  0  0  0  0  0  0  0  0  0  0  0
  1  2  1  0  0  0  0
  1 26  1  0  0  0  0
  1 27  1  0  0  0  0
  1 28  1  0  0  0  0
  2  7  1  0  0  0  0
  2  3  1  0  0  0  0
  2 29  1  0  0  0  0
  3  4  1  0  0  0  0
  3 30  1  0  0  0  0
  3 31  1  0  0  0  0
  4  5  1  0  0  0  0
  4 32  1  0  0  0  0
  4 33  1  0  0  0  0
  5  6  1  0  0  0  0
  5 34  1  0  0  0  0
  5 35  1  0  0  0  0
  6  7  1  0  0  0  0
  6 36  1  0  0  0  0
  6 37  1  0  0  0  0
  7 24  1  0  0  0  0
  7  8  1  0  0  0  0
  8  9  1  0  0  0  0
  9 10  2  0  0  0  0
  9 11  1  0  0  0  0
 11 12  1  0  0  0  0
 11 24  1  0  0  0  0
 12 13  1  0  0  0  0
 12 38  1  0  0  0  0
 12 39  1  0  0  0  0
 13 14  2  0  0  0  0
 13 15  1  0  0  0  0
 15 16  1  0  0  0  0
 15 40  1  0  0  0  0
 16 17  1  0  0  0  0
 16 41  1  0  0  0  0
 16 42  1  0  0  0  0
 17 18  1  0  0  0  0
 17 43  1  0  0  0  0
 17 44  1  0  0  0  0
 18 23  1  0  0  0  0
 18 19  2  0  0  0  0
 19 20  1  0  0  0  0
 19 45  1  0  0  0  0
 20 21  2  0  0  0  0
 20 46  1  0  0  0  0
 21 22  1  0  0  0  0
 21 47  1  0  0  0  0
 22 23  2  0  0  0  0
 22 49  1  0  0  0  0
 23 48  1  0  0  0  0
 24 25  2  0  0  0  0
M  CHG  1   8  -1
M  CHG  1  22   1
M  END
> <s_m_source_file>
AV-unprocessed.smi

> <i_m_source_file_index>
837

> <i_lp_mmshare_version>
43012

> <i_f3d_flags>
0

> <s_epik_input>
W0NIMl0xW0NIMl1bQ0gyXVtDSDJdW0NAQEhdKFtDSDNdKVtDQEBdMTJbTkhdQyg9TylOKEMyPU8pW0NIMl1DKD1PKVtOSF1bQ0gyXVtDSDJdYzNbY0hdW2NIXVtjSF1uW2NIXTM=

> <s_epik_cmdline>
J2VwaWtfcHl0aG9uJywgJy1waCcsICc3LjAnLCAnLXRuJywgJzgnLCAnLW1hJywgJzIwMCcsICctbWV0YWxfYmluZGluZycsICctaW1hZScsICc8aW5maWxlLm1hZT4nLCAnLW9tYWUnLCAnPG91dGZpbGUubWFlPic=

> <r_lp_tautomer_probability>
1

> <r_epik_Ionization_Penalty>
8.27169

> <r_epik_Ionization_Penalty_Charging>
8.27169

> <r_epik_Ionization_Penalty_Neutral>
1.56557e-07

> <r_epik_State_Penalty>
8.42098

> <r_epik_Charging_Adjusted_Penalty>
16.6927

> <i_epik_Tot_Q>
0

> <i_epik_Tot_abs_Q>
2

> <r_epik_Metal_State_Penalty>
4.38565

> <b_epik_Metal_Only>
1

> <s_lp_Force_Field>
OPLS_2005

> <r_lp_Energy>
13.0129

> <b_lp_Chiralities_Consistent>
1

> <s_lp_Variant>
AV-unprocessed.smi:837-15

> <Gold.Version>
5.8.1

> <Gold.Id.Protein>
6NUR|6NUR_protein|mol2

> <Gold.PLP.Fitness>
48.3876

> <Gold.PLP.PLP>
-37.7065

> <Gold.PLP.part.hbond>
-4.0000

> <Gold.PLP.part.metal>
0.0000

> <Gold.PLP.part.buried>
1.6096

> <Gold.PLP.part.nonpolar>
-35.7886

> <Gold.PLP.part.repulsive>
0.5922

> <Gold.PLP.ligand.clash>
0.0000

> <Gold.PLP.ligand.torsion>
0.6617

> <Gold.PLP.Chemscore.Hbond>
3.9913

> <Gold.PLP.Chemscore.CHOScore>
0.0000

> <Gold.PLP.Chemscore.Metal>
0.0000

> <Gold.Chemscore.Hbonds>
donor molecule, donor type, donor heavy atom, donor atom, acceptor molecule, acceptor atom, score
      L1  H    22    49       P1 10186  1.76
      P1  H  7989  7998       L1     8  0.96
      P1  H 10752 10765       L1    10  1.00

> <Gold.PLP.Chemscore.Internal.Correction>
0.0308

> <Gold.Rescore>
     Score         DG    S(hbond)    S(metal)    S(lipo)     H(rot)  DE(clash)    DE(int)     intcor
     14.98     -19.86       2.51        0.00      93.28       1.92       2.99       1.89       ----

> <Gold.Chemscore.Fitness>
14.9767

> <Gold.Chemscore.DG>
-19.8606

> <Gold.Chemscore.ZeroCoef>
-5.4800

> <Gold.Chemscore.Hbond>
2.5076

> <Gold.Chemscore.Metal>
0.0000

> <Gold.Chemscore.Lipo>
93.2808

> <Gold.Chemscore.Internal_Hbond>
0.0000

> <Gold.Chemscore.DEClash>
2.9901

> <Gold.Chemscore.DEInternal>
1.8938

> <Gold.Chemscore.Rot>
1.9175

> <Gold.Chemscore.Internal.Correction>
   9.000000E+99

> <Gold.Chemscore.Hbonds>
donor molecule, donor type, donor heavy atom, donor atom, acceptor molecule, acceptor atom, score
      L1  H    22    49       P1 10186  0.82
      P1  H  7989  7998       L1     8  0.45
      P1  H 10752 10765       L1    10  0.96

> <Gold.Chemscore.Hbond.Weighted>
-8.3755

> <Gold.Chemscore.Metal.Weighted>
-0.0000

> <Gold.Chemscore.Lipo.Weighted>
-10.9139

> <Gold.Chemscore.Internal_Hbond.Weighted>
0.0000

> <Gold.Chemscore.DEClash.Weighted>
2.9901

> <Gold.Chemscore.DEInternal.Weighted>
1.8938

> <Gold.Chemscore.Rot.Weighted>
4.9087

> <Gold.Chemscore.Internal.Correction.Weighted>
   9.000000E+99

> <Gold.Protein.RotatedTorsions>
[ 6907 6896 6895 6894 ] final  131.15 input  -60.11 | X-H torsion
[ 7974 7965 7964 7962 ] final  101.61 input  175.53 | X-H torsion
[ 8008 7997 7996 7995 ] final  171.81 input   59.86 | X-H torsion
[ 10167 10162 10161 10158 ] final   80.87 input  -65.29 | X-H torsion
[ 10718 10713 10712 10709 ] final -123.25 input   66.30 | X-H torsion
[ 10763 10752 10751 10750 ] final  164.29 input  -60.55 | X-H torsion
[ 11005 11000 10999 10996 ] final -123.03 input  -57.11 | X-H torsion

> <Gold.Protein.ActiveResidues>
 VAL166  LYS551  ARG553  GLY616  TRP617  ASP618  TYR619  PRO620  LYS621  CYS622 
 ASP623  PHE694  ASN695  SER759  ASP760  ASP761  ALA762  ILE779  LEU786  VAL792 
 PHE793  MET794  SER795  GLU796  ALA797  LYS798  CYS799  TRP800  GLU811  SER814 

> <Gold.Protein.RotatedAtoms>
  152.3455  133.6117  159.5906 H   0  0  0  0  0  0  0  0  0  0  0  0  # atno 6907 bound_to 6896
  150.7505  133.9656  159.3538 H   0  0  0  0  0  0  0  0  0  0  0  0  # atno 6908 bound_to 6896
  151.7514  135.0832  160.0382 H   0  0  0  0  0  0  0  0  0  0  0  0  # atno 6909 bound_to 6896
  145.3700  139.2400  143.3460 H   0  0  0  0  0  0  0  0  0  0  0  0  # atno 7974 bound_to 7965
  156.1235  140.1502  156.9170 H   0  0  0  0  0  0  0  0  0  0  0  0  # atno 8008 bound_to 7997
  154.4854  140.0867  156.7515 H   0  0  0  0  0  0  0  0  0  0  0  0  # atno 8009 bound_to 7997
  155.4385  140.3430  155.4289 H   0  0  0  0  0  0  0  0  0  0  0  0  # atno 8010 bound_to 7997
  139.9452  144.6063  150.8213 H   0  0  0  0  0  0  0  0  0  0  0  0  # atno 10167 bound_to 10162
  156.1486  130.6518  150.9880 H   0  0  0  0  0  0  0  0  0  0  0  0  # atno 10718 bound_to 10713
  154.3066  135.2758  155.2586 H   0  0  0  0  0  0  0  0  0  0  0  0  # atno 10763 bound_to 10752
  154.4999  135.5811  153.6526 H   0  0  0  0  0  0  0  0  0  0  0  0  # atno 10764 bound_to 10752
  152.9893  135.6155  154.3241 H   0  0  0  0  0  0  0  0  0  0  0  0  # atno 10765 bound_to 10752
  140.9950  134.0485  157.3608 H   0  0  0  0  0  0  0  0  0  0  0  0  # atno 11005 bound_to 11000
  146.2889  140.4350  142.8747 LP  0  0  0  0  0  0  0  0  0  0  0  0  # atno 17320 bound_to 7965
  144.8583  140.7102  143.6124 LP  0  0  0  0  0  0  0  0  0  0  0  0  # atno 17321 bound_to 7965
  140.7599  143.3139  151.2779 LP  0  0  0  0  0  0  0  0  0  0  0  0  # atno 17342 bound_to 10162
  139.6672  144.0084  152.2730 LP  0  0  0  0  0  0  0  0  0  0  0  0  # atno 17343 bound_to 10162
  157.6638  131.0875  150.7776 LP  0  0  0  0  0  0  0  0  0  0  0  0  # atno 17370 bound_to 10713
  156.7846  130.4870  149.5395 LP  0  0  0  0  0  0  0  0  0  0  0  0  # atno 17371 bound_to 10713
  139.9010  135.0164  156.7269 LP  0  0  0  0  0  0  0  0  0  0  0  0  # atno 17394 bound_to 11000
  140.6980  133.9331  155.8007 LP  0  0  0  0  0  0  0  0  0  0  0  0  # atno 17395 bound_to 11000

$$$$
