#       Name:                AV-unprocessed.smi:2421
#       Creating user name   scv26
#       Creation time:       Fri Mar 27 13:18:56 2020


#       File generated by GOLD software.
#

@<TRIPOS>MOLECULE
AV-unprocessed.smi:2421
    51    53     1
SMALL
NO_CHARGES


@<TRIPOS>ATOM
      1 ****        -3.3665  -1.9224   1.4680 C.3            1 S1                 0.0000
      2 ****        -3.7643  -0.4749   1.4897 C.2            1 S1                 0.0000
      3 ****        -5.0430  -0.1350   1.5529 N.2            1 S1                 0.0000
      4 ****        -5.0829   1.2701   1.5459 O.3            1 S1                 0.0000
      5 ****        -3.8116   1.7493   1.4768 C.2            1 S1                 0.0000
      6 ****        -3.6374   3.2297   1.4506 C.3            1 S1                 0.0000
      7 ****        -2.9554   0.6897   1.4502 C.2            1 S1                 0.0000
      8 ****        -1.5497   0.7409   1.3540 N.am           1 S1                 0.0000
      9 ****        -0.7232   0.6981   2.4119 C.2            1 S1                 0.0000
     10 ****        -1.1138   0.6917   3.5781 O.2            1 S1                 0.0000
     11 ****         0.5857   0.6740   2.1019 N.am           1 S1                 0.0000
     12 ****         1.7307   0.6269   3.0137 C.3            1 S1                 0.0000
     13 ****         2.9730   0.1340   2.2616 C.3            1 S1                 0.0000
     14 ****         4.2033   0.1618   3.1794 C.3            1 S1                 0.0000
     15 ****         4.3996   1.4674   3.7196 O.3            1 S1                 0.0000
     16 ****         3.3053   2.0111   4.4674 C.3            1 S1                 0.0000
     17 ****         3.1448   1.3161   5.8315 C.3            1 S1                 0.0000
     18 ****         4.2818   1.8659   6.6977 C.3            1 S1                 0.0000
     19 ****         4.6348   3.2392   6.1091 C.3            1 S1                 0.0000
     20 ****         3.7308   3.4242   4.8842 C.3            1 S1                 0.0000
     21 ****         2.0271   2.0178   3.6013 C.3            1 S1                 0.0000
     22 ****        -2.2825  -2.0365   1.4498 H              1 S1                 0.0000
     23 ****        -3.7670  -2.4257   0.5878 H              1 S1                 0.0000
     24 ****        -3.7384  -2.4438   2.3501 H              1 S1                 0.0000
     25 ****        -2.5810   3.4993   1.4537 H              1 S1                 0.0000
     26 ****        -4.1047   3.6883   2.3220 H              1 S1                 0.0000
     27 ****        -4.0932   3.6560   0.5571 H              1 S1                 0.0000
     28 ****        -1.1485   0.7618   0.4278 H              1 S1                 0.0000
     29 ****         0.8125   0.7205   1.1189 H              1 S1                 0.0000
     30 ****         1.5246  -0.0772   3.8218 H              1 S1                 0.0000
     31 ****         2.8135  -0.8768   1.8847 H              1 S1                 0.0000
     32 ****         3.1589   0.7667   1.3923 H              1 S1                 0.0000
     33 ****         4.1103  -0.5777   3.9740 H              1 S1                 0.0000
     34 ****         5.0933  -0.1115   2.6122 H              1 S1                 0.0000
     35 ****         2.1930   1.6105   6.2762 H              1 S1                 0.0000
     36 ****         3.1436   0.2280   5.7870 H              1 S1                 0.0000
     37 ****         3.9926   1.9294   7.7471 H              1 S1                 0.0000
     38 ****         5.1484   1.2065   6.6363 H              1 S1                 0.0000
     39 ****         4.4901   4.0422   6.8326 H              1 S1                 0.0000
     40 ****         5.6837   3.2543   5.8098 H              1 S1                 0.0000
     41 ****         4.2237   3.9716   4.0798 H              1 S1                 0.0000
     42 ****         2.8522   4.0013   5.1769 H              1 S1                 0.0000
     43 ****         2.1562   2.7296   2.7842 H              1 S1                 0.0000
     44 ****         1.1794   2.3782   4.1853 H              1 S1                 0.0000
     45 ****        -5.8258  -0.7557   1.5970 LP             1 S1                 0.0000
     46 ****        -5.5193   1.5972   2.3841 LP             1 S1                 0.0000
     47 ****        -5.6040   1.5867   0.7533 LP             1 S1                 0.0000
     48 ****        -2.0933   0.7192   3.7775 LP             1 S1                 0.0000
     49 ****        -0.4518   0.6590   4.3270 LP             1 S1                 0.0000
     50 ****         4.5876   2.0879   2.9583 LP             1 S1                 0.0000
     51 ****         5.1950   1.4313   4.3245 LP             1 S1                 0.0000
@<TRIPOS>BOND
    1    1    2 1     
    2    1   22 1     
    3    1   23 1     
    4    1   24 1     
    5    2    7 1     
    6    2    3 2     
    7    3    4 1     
    8    4    5 1     
    9    5    6 1     
   10    5    7 2     
   11    6   25 1     
   12    6   26 1     
   13    6   27 1     
   14    7    8 1     
   15    8    9 am    
   16    8   28 1     
   17    9   10 2     
   18    9   11 am    
   19   11   12 1     
   20   11   29 1     
   21   12   21 1     
   22   12   13 1     
   23   12   30 1     
   24   13   14 1     
   25   13   31 1     
   26   13   32 1     
   27   14   15 1     
   28   14   33 1     
   29   14   34 1     
   30   15   16 1     
   31   16   20 1     
   32   16   17 1     
   33   16   21 1     
   34   17   18 1     
   35   17   35 1     
   36   17   36 1     
   37   18   19 1     
   38   18   37 1     
   39   18   38 1     
   40   19   20 1     
   41   19   39 1     
   42   19   40 1     
   43   20   41 1     
   44   20   42 1     
   45   21   43 1     
   46   21   44 1     
   47    3   45 1     
   48    4   46 1     
   49    4   47 1     
   50   10   48 1     
   51   10   49 1     
   52   15   50 1     
   53   15   51 1     
@<TRIPOS>SUBSTRUCTURE
      1 S1             1
@<TRIPOS>SET
LONE_PAIRS      STATIC     ATOMS    <user>   **** ""
7 45 46 47 48 49 50 51
DONOR_HYDROGENS      STATIC     ATOMS    <user>   **** ""
2 28 29
ATOM$BLUE        STATIC     ATOMS    COLORGROUP SYSTEM
7 45 46 47 48 49 50 51
ATOM$RED        STATIC     ATOMS    COLORGROUP SYSTEM
2 28 29
