AV-unprocessed.smi:1672|AV-procd|sdf|6701|dock9
  -GOLD-   22720 7443D 1   1.00000     0.00000
 Structure written by MMmdl.
 48 50  0  0  0  0  0  0  0  0  2 V2000
  144.7183  137.5497  152.6045 C   0  0  0  0  0  0  0  0  0  0  0  0
  145.9347  138.0031  153.4239 C   0  0  2  0  0  0  0  0  0  0  0  0
  146.9478  138.7719  152.5595 C   0  0  0  0  0  0  0  0  0  0  0  0
  148.1737  139.1971  153.3837 C   0  0  0  0  0  0  0  0  0  0  0  0
  148.8268  138.0217  154.0193 N   0  3  1  0  0  0  0  0  0  0  0  0
  150.0905  138.3660  154.7193 C   0  0  0  0  0  0  0  0  0  0  0  0
  150.0721  139.8058  155.2791 C   0  0  2  0  0  0  0  0  0  0  0  0
  151.3706  140.3525  155.1704 O   0  0  0  0  0  0  0  0  0  0  0  0
  149.6440  139.9006  156.7579 C   0  0  0  0  0  0  0  0  0  0  0  0
  150.7588  140.1364  157.6667 N   0  0  0  0  0  0  0  0  0  0  0  0
  151.4831  139.2280  158.3704 C   0  0  0  0  0  0  0  0  0  0  0  0
  151.2286  137.7531  158.2984 C   0  0  0  0  0  0  0  0  0  0  0  0
  150.8075  137.2156  159.5339 O   0  0  0  0  0  0  0  0  0  0  0  0
  152.4578  139.7279  159.1302 N   0  0  0  0  0  0  0  0  0  0  0  0
  152.3561  141.0859  158.9048 C   0  0  0  0  0  0  0  0  0  0  0  0
  153.1126  142.1610  159.4229 C   0  0  0  0  0  0  0  0  0  0  0  0
  152.8235  143.4869  159.0400 C   0  0  0  0  0  0  0  0  0  0  0  0
  151.7769  143.7560  158.1346 C   0  0  0  0  0  0  0  0  0  0  0  0
  151.0109  142.6990  157.6063 C   0  0  0  0  0  0  0  0  0  0  0  0
  151.3019  141.3767  157.9934 C   0  0  0  0  0  0  0  0  0  0  0  0
  147.8800  137.2785  154.8894 C   0  0  0  0  0  0  0  0  0  0  0  0
  146.6437  136.8166  154.0987 C   0  0  0  0  0  0  0  0  0  0  0  0
  145.0088  136.8645  151.8075 H   0  0  0  0  0  0  0  0  0  0  0  0
  144.2151  138.4010  152.1447 H   0  0  0  0  0  0  0  0  0  0  0  0
  143.9897  137.0381  153.2342 H   0  0  0  0  0  0  0  0  0  0  0  0
  145.5762  138.6748  154.2056 H   0  0  0  0  0  0  0  0  0  0  0  0
  147.2693  138.1509  151.7218 H   0  0  0  0  0  0  0  0  0  0  0  0
  146.4752  139.6540  152.1258 H   0  0  0  0  0  0  0  0  0  0  0  0
  148.8744  139.7168  152.7315 H   0  0  0  0  0  0  0  0  0  0  0  0
  147.8760  139.9102  154.1542 H   0  0  0  0  0  0  0  0  0  0  0  0
  150.2552  137.6324  155.5092 H   0  0  0  0  0  0  0  0  0  0  0  0
  150.9389  138.2699  154.0397 H   0  0  0  0  0  0  0  0  0  0  0  0
  149.4078  140.4310  154.6866 H   0  0  0  0  0  0  0  0  0  0  0  0
  151.7245  140.4686  156.0393 H   0  0  0  0  0  0  0  0  0  0  0  0
  148.9251  140.7110  156.8825 H   0  0  0  0  0  0  0  0  0  0  0  0
  149.1219  138.9946  157.0670 H   0  0  0  0  0  0  0  0  0  0  0  0
  150.4516  137.5644  157.5569 H   0  0  0  0  0  0  0  0  0  0  0  0
  152.1168  137.2237  157.9562 H   0  0  0  0  0  0  0  0  0  0  0  0
  150.7822  137.9143  160.1700 H   0  0  0  0  0  0  0  0  0  0  0  0
  153.9168  141.9653  160.1167 H   0  0  0  0  0  0  0  0  0  0  0  0
  153.4077  144.3012  159.4434 H   0  0  0  0  0  0  0  0  0  0  0  0
  151.5621  144.7750  157.8472 H   0  0  0  0  0  0  0  0  0  0  0  0
  150.2096  142.9069  156.9131 H   0  0  0  0  0  0  0  0  0  0  0  0
  148.3778  136.4053  155.3132 H   0  0  0  0  0  0  0  0  0  0  0  0
  147.5794  137.9108  155.7262 H   0  0  0  0  0  0  0  0  0  0  0  0
  145.9536  136.2995  154.7666 H   0  0  0  0  0  0  0  0  0  0  0  0
  146.9457  136.0886  153.3442 H   0  0  0  0  0  0  0  0  0  0  0  0
  149.0823  137.3867  153.2761 H   0  0  0  0  0  0  0  0  0  0  0  0
  1  2  1  0  0  0  0
  1 23  1  0  0  0  0
  1 24  1  0  0  0  0
  1 25  1  0  0  0  0
  2 22  1  0  0  0  0
  2  3  1  0  0  0  0
  2 26  1  0  0  0  0
  3  4  1  0  0  0  0
  3 27  1  0  0  0  0
  3 28  1  0  0  0  0
  4  5  1  0  0  0  0
  4 29  1  0  0  0  0
  4 30  1  0  0  0  0
  5  6  1  0  0  0  0
  5 21  1  0  0  0  0
  5 48  1  0  0  0  0
  6  7  1  0  0  0  0
  6 31  1  0  0  0  0
  6 32  1  0  0  0  0
  7  8  1  0  0  0  0
  7  9  1  0  0  0  0
  7 33  1  0  0  0  0
  8 34  1  0  0  0  0
  9 10  1  0  0  0  0
  9 35  1  0  0  0  0
  9 36  1  0  0  0  0
 10 20  1  0  0  0  0
 10 11  1  0  0  0  0
 11 12  1  0  0  0  0
 11 14  2  0  0  0  0
 12 13  1  0  0  0  0
 12 37  1  0  0  0  0
 12 38  1  0  0  0  0
 13 39  1  0  0  0  0
 14 15  1  0  0  0  0
 15 20  2  0  0  0  0
 15 16  1  0  0  0  0
 16 17  2  0  0  0  0
 16 40  1  0  0  0  0
 17 18  1  0  0  0  0
 17 41  1  0  0  0  0
 18 19  2  0  0  0  0
 18 42  1  0  0  0  0
 19 20  1  0  0  0  0
 19 43  1  0  0  0  0
 21 22  1  0  0  0  0
 21 44  1  0  0  0  0
 21 45  1  0  0  0  0
 22 46  1  0  0  0  0
 22 47  1  0  0  0  0
M  CHG  1   5   1
M  END
> <s_m_source_file>
AV-unprocessed.smi

> <i_m_source_file_index>
1672

> <i_lp_mmshare_version>
43012

> <i_f3d_flags>
0

> <s_epik_input>
W0NIM11bQ0hdMVtDSDJdW0NIMl1OKFtDSDJdW0NIMl0xKVtDSDJdW0NASF0oW09IXSlbQ0gyXW4oYyhuMilbQ0gyXVtPSF0pYyhjMjMpW2NIXVtjSF1bY0hdW2NIXTM=

> <s_epik_cmdline>
J2VwaWtfcHl0aG9uJywgJy1waCcsICc3LjAnLCAnLXRuJywgJzgnLCAnLW1hJywgJzIwMCcsICctbWV0YWxfYmluZGluZycsICctaW1hZScsICc8aW5maWxlLm1hZT4nLCAnLW9tYWUnLCAnPG91dGZpbGUubWFlPic=

> <r_epik_Ionization_Penalty>
0.0498263

> <r_epik_Ionization_Penalty_Charging>
0.00181365

> <r_epik_Ionization_Penalty_Neutral>
0.0480127

> <r_epik_State_Penalty>
0.0408546

> <r_epik_Charging_Adjusted_Penalty>
0.0426682

> <i_epik_Tot_Q>
1

> <i_epik_Tot_abs_Q>
1

> <r_epik_Metal_State_Penalty>
4.22946e-05

> <b_epik_Metal_Only>
0

> <s_lp_Force_Field>
OPLS_2005

> <r_lp_Energy>
22.4872

> <b_lp_Chiralities_Consistent>
1

> <s_lp_Variant>
AV-unprocessed.smi:1672-1

> <Gold.Version>
5.8.1

> <Gold.Id.Protein>
6NUR|6NUR_protein|mol2

> <Gold.PLP.Fitness>
44.4649

> <Gold.PLP.PLP>
-36.2781

> <Gold.PLP.part.hbond>
-3.0000

> <Gold.PLP.part.metal>
0.0000

> <Gold.PLP.part.buried>
-4.0255

> <Gold.PLP.part.nonpolar>
-30.5399

> <Gold.PLP.part.repulsive>
0.0000

> <Gold.PLP.ligand.clash>
0.0000

> <Gold.PLP.ligand.torsion>
1.9054

> <Gold.PLP.Chemscore.Hbond>
3.9920

> <Gold.PLP.Chemscore.CHOScore>
0.0000

> <Gold.PLP.Chemscore.Metal>
0.0000

> <Gold.Chemscore.Hbonds>
donor molecule, donor type, donor heavy atom, donor atom, acceptor molecule, acceptor atom, score
      L1  H     5    48       P1  7948  2.00
      P1  H  6896  6909       L1    13  0.68
      P1  H  7989  7998       L1     8  0.98

> <Gold.PLP.Chemscore.Internal.Correction>
0.0216

> <Gold.Rescore>
     Score         DG    S(hbond)    S(metal)    S(lipo)     H(rot)  DE(clash)    DE(int)     intcor
     16.35     -19.39       2.94        0.00      98.05       2.88       0.04       3.00       ----

> <Gold.Chemscore.Fitness>
16.3537

> <Gold.Chemscore.DG>
-19.3901

> <Gold.Chemscore.ZeroCoef>
-5.4800

> <Gold.Chemscore.Hbond>
2.9357

> <Gold.Chemscore.Metal>
0.0000

> <Gold.Chemscore.Lipo>
98.0492

> <Gold.Chemscore.Internal_Hbond>
0.0000

> <Gold.Chemscore.DEClash>
0.0379

> <Gold.Chemscore.DEInternal>
2.9984

> <Gold.Chemscore.Rot>
2.8778

> <Gold.Chemscore.Internal.Correction>
   9.000000E+99

> <Gold.Chemscore.Hbonds>
donor molecule, donor type, donor heavy atom, donor atom, acceptor molecule, acceptor atom, score
      L1  H     5    48       P1  7948  1.00
      P1  H  6896  6909       L1    13  0.63
      P1  H  7989  7998       L1     8  0.69

> <Gold.Chemscore.Hbond.Weighted>
-9.8054

> <Gold.Chemscore.Metal.Weighted>
-0.0000

> <Gold.Chemscore.Lipo.Weighted>
-11.4718

> <Gold.Chemscore.Internal_Hbond.Weighted>
0.0000

> <Gold.Chemscore.DEClash.Weighted>
0.0379

> <Gold.Chemscore.DEInternal.Weighted>
2.9984

> <Gold.Chemscore.Rot.Weighted>
7.3671

> <Gold.Chemscore.Internal.Correction.Weighted>
   9.000000E+99

> <Gold.Protein.RotatedTorsions>
[ 6907 6896 6895 6894 ] final  102.29 input  -60.11 | X-H torsion
[ 7974 7965 7964 7962 ] final -140.82 input  175.53 | X-H torsion
[ 8008 7997 7996 7995 ] final  103.88 input   59.86 | X-H torsion
[ 10167 10162 10161 10158 ] final   31.80 input  -65.29 | X-H torsion
[ 10718 10713 10712 10709 ] final  -86.95 input   66.30 | X-H torsion
[ 10763 10752 10751 10750 ] final  164.31 input  -60.55 | X-H torsion
[ 11005 11000 10999 10996 ] final    8.18 input  -57.11 | X-H torsion

> <Gold.Protein.ActiveResidues>
 VAL166  LYS551  ARG553  GLY616  TRP617  ASP618  TYR619  PRO620  LYS621  CYS622 
 ASP623  PHE694  ASN695  SER759  ASP760  ASP761  ALA762  ILE779  LEU786  VAL792 
 PHE793  MET794  SER795  GLU796  ALA797  LYS798  CYS799  TRP800  GLU811  SER814 

> <Gold.Protein.RotatedAtoms>
  152.5327  133.9998  159.7889 H   0  0  0  0  0  0  0  0  0  0  0  0  # atno 6907 bound_to 6896
  151.0219  133.5861  159.2677 H   0  0  0  0  0  0  0  0  0  0  0  0  # atno 6908 bound_to 6896
  151.2898  135.0745  159.9253 H   0  0  0  0  0  0  0  0  0  0  0  0  # atno 6909 bound_to 6896
  144.8567  140.6153  143.5355 H   0  0  0  0  0  0  0  0  0  0  0  0  # atno 7974 bound_to 7965
  156.1524  140.3157  155.8670 H   0  0  0  0  0  0  0  0  0  0  0  0  # atno 8008 bound_to 7997
  155.3945  140.0496  157.3056 H   0  0  0  0  0  0  0  0  0  0  0  0  # atno 8009 bound_to 7997
  154.5070  140.2150  155.9242 H   0  0  0  0  0  0  0  0  0  0  0  0  # atno 8010 bound_to 7997
  140.4556  144.0983  150.6201 H   0  0  0  0  0  0  0  0  0  0  0  0  # atno 10167 bound_to 10162
  155.9987  130.4783  150.4792 H   0  0  0  0  0  0  0  0  0  0  0  0  # atno 10718 bound_to 10713
  154.3070  135.2758  155.2584 H   0  0  0  0  0  0  0  0  0  0  0  0  # atno 10763 bound_to 10752
  154.4995  135.5812  153.6524 H   0  0  0  0  0  0  0  0  0  0  0  0  # atno 10764 bound_to 10752
  152.9893  135.6154  154.3245 H   0  0  0  0  0  0  0  0  0  0  0  0  # atno 10765 bound_to 10752
  140.5398  134.0385  155.7900 H   0  0  0  0  0  0  0  0  0  0  0  0  # atno 11005 bound_to 11000
  145.4393  139.1538  143.3979 LP  0  0  0  0  0  0  0  0  0  0  0  0  # atno 17320 bound_to 7965
  146.2828  140.4513  142.8769 LP  0  0  0  0  0  0  0  0  0  0  0  0  # atno 17321 bound_to 7965
  140.4155  143.2636  151.9780 LP  0  0  0  0  0  0  0  0  0  0  0  0  # atno 17342 bound_to 10162
  139.4801  144.5877  151.7824 LP  0  0  0  0  0  0  0  0  0  0  0  0  # atno 17343 bound_to 10162
  157.2799  131.0605  151.2204 LP  0  0  0  0  0  0  0  0  0  0  0  0  # atno 17370 bound_to 10713
  157.3254  130.6958  149.6293 LP  0  0  0  0  0  0  0  0  0  0  0  0  # atno 17371 bound_to 10713
  141.1233  133.9424  157.2685 LP  0  0  0  0  0  0  0  0  0  0  0  0  # atno 17394 bound_to 11000
  139.9510  135.0175  156.8992 LP  0  0  0  0  0  0  0  0  0  0  0  0  # atno 17395 bound_to 11000

$$$$
