AV-unprocessed.smi:670|AV-procd|sdf|3267|dock3
  -GOLD-   22720 0223D 1   1.00000     0.00000
 Structure written by MMmdl.
 44 45  0  0  0  0  0  0  0  0  2 V2000
  153.6127  141.8260  160.7255 C   0  0  0  0  0  0  0  0  0  0  0  0
  153.1394  143.0309  159.8984 C   0  0  2  0  0  0  0  0  0  0  0  0
  152.3154  144.0162  160.7514 C   0  0  0  0  0  0  0  0  0  0  0  0
  151.8858  145.2465  159.9365 C   0  0  0  0  0  0  0  0  0  0  0  0
  151.1149  144.8381  158.6723 C   0  0  0  0  0  0  0  0  0  0  0  0
  151.9263  143.8507  157.8164 C   0  0  0  0  0  0  0  0  0  0  0  0
  152.3660  142.6155  158.6244 C   0  0  2  0  0  0  0  0  0  0  0  0
  151.1941  141.8910  158.9804 O   0  0  0  0  0  0  0  0  0  0  0  0
  150.6121  141.1540  157.9160 C   0  0  0  0  0  0  0  0  0  0  0  0
  151.1989  139.7354  157.9133 C   0  0  0  0  0  0  0  0  0  0  0  0
  150.1530  138.7207  157.8613 N   0  0  0  0  0  0  0  0  0  0  0  0
  149.9569  137.7598  158.7767 C   0  0  0  0  0  0  0  0  0  0  0  0
  150.6556  137.6266  159.7817 O   0  0  0  0  0  0  0  0  0  0  0  0
  148.7768  136.8148  158.5256 C   0  0  0  0  0  0  0  0  0  0  0  0
  148.3211  136.1611  159.7592 N   0  0  0  0  0  0  0  0  0  0  0  0
  147.8580  137.0964  160.7813 N   0  5  0  0  0  0  0  0  0  0  0  0
  147.3856  136.6104  161.9597 C   0  0  0  0  0  0  0  0  0  0  0  0
  146.9672  137.3350  162.8596 O   0  0  0  0  0  0  0  0  0  0  0  0
  147.3821  135.1699  162.1531 C   0  0  0  0  0  0  0  0  0  0  0  0
  147.8296  134.3308  161.1984 C   0  0  0  0  0  0  0  0  0  0  0  0
  148.3389  134.8066  159.9177 C   0  0  0  0  0  0  0  0  0  0  0  0
  148.7519  134.0444  159.0440 O   0  0  0  0  0  0  0  0  0  0  0  0
  152.7703  141.2712  161.1387 H   0  0  0  0  0  0  0  0  0  0  0  0
  154.2361  142.1460  161.5608 H   0  0  0  0  0  0  0  0  0  0  0  0
  154.2021  141.1380  160.1190 H   0  0  0  0  0  0  0  0  0  0  0  0
  154.0373  143.5574  159.5712 H   0  0  0  0  0  0  0  0  0  0  0  0
  151.4318  143.5137  161.1474 H   0  0  0  0  0  0  0  0  0  0  0  0
  152.8977  144.3382  161.6154 H   0  0  0  0  0  0  0  0  0  0  0  0
  151.2686  145.9015  160.5519 H   0  0  0  0  0  0  0  0  0  0  0  0
  152.7668  145.8252  159.6566 H   0  0  0  0  0  0  0  0  0  0  0  0
  150.1651  144.3827  158.9559 H   0  0  0  0  0  0  0  0  0  0  0  0
  150.8682  145.7229  158.0853 H   0  0  0  0  0  0  0  0  0  0  0  0
  151.3402  143.5400  156.9509 H   0  0  0  0  0  0  0  0  0  0  0  0
  152.8083  144.3573  157.4225 H   0  0  0  0  0  0  0  0  0  0  0  0
  153.0174  142.0127  157.9880 H   0  0  0  0  0  0  0  0  0  0  0  0
  149.5312  141.1091  158.0559 H   0  0  0  0  0  0  0  0  0  0  0  0
  150.7940  141.6427  156.9581 H   0  0  0  0  0  0  0  0  0  0  0  0
  151.8516  139.6038  157.0501 H   0  0  0  0  0  0  0  0  0  0  0  0
  151.8187  139.5828  158.7982 H   0  0  0  0  0  0  0  0  0  0  0  0
  149.5310  138.7435  157.0657 H   0  0  0  0  0  0  0  0  0  0  0  0
  147.9585  137.3750  158.0699 H   0  0  0  0  0  0  0  0  0  0  0  0
  149.0662  136.0716  157.7799 H   0  0  0  0  0  0  0  0  0  0  0  0
  147.0140  134.7640  163.0839 H   0  0  0  0  0  0  0  0  0  0  0  0
  147.8091  133.2676  161.3860 H   0  0  0  0  0  0  0  0  0  0  0  0
  1  2  1  0  0  0  0
  1 23  1  0  0  0  0
  1 24  1  0  0  0  0
  1 25  1  0  0  0  0
  2  7  1  0  0  0  0
  2  3  1  0  0  0  0
  2 26  1  0  0  0  0
  3  4  1  0  0  0  0
  3 27  1  0  0  0  0
  3 28  1  0  0  0  0
  4  5  1  0  0  0  0
  4 29  1  0  0  0  0
  4 30  1  0  0  0  0
  5  6  1  0  0  0  0
  5 31  1  0  0  0  0
  5 32  1  0  0  0  0
  6  7  1  0  0  0  0
  6 33  1  0  0  0  0
  6 34  1  0  0  0  0
  7  8  1  0  0  0  0
  7 35  1  0  0  0  0
  8  9  1  0  0  0  0
  9 10  1  0  0  0  0
  9 36  1  0  0  0  0
  9 37  1  0  0  0  0
 10 11  1  0  0  0  0
 10 38  1  0  0  0  0
 10 39  1  0  0  0  0
 11 12  1  0  0  0  0
 11 40  1  0  0  0  0
 12 13  2  0  0  0  0
 12 14  1  0  0  0  0
 14 41  1  0  0  0  0
 14 42  1  0  0  0  0
 14 15  1  0  0  0  0
 15 16  1  0  0  0  0
 15 21  1  0  0  0  0
 16 17  1  0  0  0  0
 17 18  2  0  0  0  0
 17 19  1  0  0  0  0
 19 43  1  0  0  0  0
 19 20  2  0  0  0  0
 20 44  1  0  0  0  0
 20 21  1  0  0  0  0
 21 22  2  0  0  0  0
M  CHG  1  16  -1
M  END
> <s_m_source_file>
AV-unprocessed.smi

> <i_m_source_file_index>
670

> <i_lp_mmshare_version>
43012

> <i_f3d_flags>
0

> <s_epik_input>
W0NIM11bQ0BASF0xW0NIMl1bQ0gyXVtDSDJdW0NIMl1bQ0BIXTFPW0NIMl1bQ0gyXVtOSF1DKD1PKVtDSDJdbjJbbkhdYyg9TylbY0hdW2NIXWMyPU8=

> <s_epik_cmdline>
J2VwaWtfcHl0aG9uJywgJy1waCcsICc3LjAnLCAnLXRuJywgJzgnLCAnLW1hJywgJzIwMCcsICctbWV0YWxfYmluZGluZycsICctaW1hZScsICc8aW5maWxlLm1hZT4nLCAnLW9tYWUnLCAnPG91dGZpbGUubWFlPic=

> <r_lp_tautomer_probability>
1

> <r_epik_Ionization_Penalty>
0.0975638

> <r_epik_Ionization_Penalty_Charging>
0.0975637

> <r_epik_Ionization_Penalty_Neutral>
2.78599e-08

> <r_epik_State_Penalty>
0.0343507

> <r_epik_Charging_Adjusted_Penalty>
0.131914

> <i_epik_Tot_Q>
-1

> <i_epik_Tot_abs_Q>
1

> <r_epik_Metal_State_Penalty>
0.0343507

> <b_epik_Metal_Only>
0

> <s_lp_Force_Field>
OPLS_2005

> <r_lp_Energy>
29.4365

> <b_lp_Chiralities_Consistent>
1

> <s_lp_Variant>
AV-unprocessed.smi:670-3

> <Gold.Version>
5.8.1

> <Gold.Id.Protein>
6NUR|6NUR_protein|mol2

> <Gold.PLP.Fitness>
58.3961

> <Gold.PLP.PLP>
-49.2062

> <Gold.PLP.part.hbond>
-4.5912

> <Gold.PLP.part.metal>
0.0000

> <Gold.PLP.part.buried>
-6.1004

> <Gold.PLP.part.nonpolar>
-40.2683

> <Gold.PLP.part.repulsive>
0.1050

> <Gold.PLP.ligand.clash>
0.0000

> <Gold.PLP.ligand.torsion>
0.9814

> <Gold.PLP.Chemscore.Hbond>
3.6953

> <Gold.PLP.Chemscore.CHOScore>
0.0000

> <Gold.PLP.Chemscore.Metal>
0.0000

> <Gold.Chemscore.Hbonds>
donor molecule, donor type, donor heavy atom, donor atom, acceptor molecule, acceptor atom, score
      P1  H  6896  6907       L1    22  1.00
      P1  H  6931  6943       L1    16  0.54
      P1  H  6934  6947       L1    16  1.57

> <Gold.PLP.Chemscore.Internal.Correction>
0.0669

> <Gold.Rescore>
     Score         DG    S(hbond)    S(metal)    S(lipo)     H(rot)  DE(clash)    DE(int)     intcor
     16.26     -17.30       1.49        0.00     112.09       2.45       0.09       0.95       ----

> <Gold.Chemscore.Fitness>
16.2603

> <Gold.Chemscore.DG>
-17.2997

> <Gold.Chemscore.ZeroCoef>
-5.4800

> <Gold.Chemscore.Hbond>
1.4895

> <Gold.Chemscore.Metal>
0.0000

> <Gold.Chemscore.Lipo>
112.0879

> <Gold.Chemscore.Internal_Hbond>
0.0000

> <Gold.Chemscore.DEClash>
0.0874

> <Gold.Chemscore.DEInternal>
0.9520

> <Gold.Chemscore.Rot>
2.4490

> <Gold.Chemscore.Internal.Correction>
   9.000000E+99

> <Gold.Chemscore.Hbonds>
donor molecule, donor type, donor heavy atom, donor atom, acceptor molecule, acceptor atom, score
      P1  H  6896  6907       L1    22  0.34
      P1  H  6934  6947       L1    16  0.16

> <Gold.Chemscore.Hbond.Weighted>
-4.9749

> <Gold.Chemscore.Metal.Weighted>
-0.0000

> <Gold.Chemscore.Lipo.Weighted>
-13.1143

> <Gold.Chemscore.Internal_Hbond.Weighted>
0.0000

> <Gold.Chemscore.DEClash.Weighted>
0.0874

> <Gold.Chemscore.DEInternal.Weighted>
0.9520

> <Gold.Chemscore.Rot.Weighted>
6.2694

> <Gold.Chemscore.Internal.Correction.Weighted>
   9.000000E+99

> <Gold.Protein.RotatedTorsions>
[ 6907 6896 6895 6894 ] final -101.89 input  -60.11 | X-H torsion
[ 7974 7965 7964 7962 ] final    2.90 input  175.53 | X-H torsion
[ 8008 7997 7996 7995 ] final -127.90 input   59.86 | X-H torsion
[ 10167 10162 10161 10158 ] final  -99.72 input  -65.29 | X-H torsion
[ 10718 10713 10712 10709 ] final   50.19 input   66.30 | X-H torsion
[ 10763 10752 10751 10750 ] final   47.18 input  -60.55 | X-H torsion
[ 11005 11000 10999 10996 ] final  104.87 input  -57.11 | X-H torsion

> <Gold.Protein.ActiveResidues>
 VAL166  LYS551  ARG553  GLY616  TRP617  ASP618  TYR619  PRO620  LYS621  CYS622 
 ASP623  PHE694  ASN695  SER759  ASP760  ASP761  ALA762  ILE779  LEU786  VAL792 
 PHE793  MET794  SER795  GLU796  ALA797  LYS798  CYS799  TRP800  GLU811  SER814 

> <Gold.Protein.RotatedAtoms>
  150.7173  134.0664  159.3848 H   0  0  0  0  0  0  0  0  0  0  0  0  # atno 6907 bound_to 6896
  151.8645  135.0509  160.0482 H   0  0  0  0  0  0  0  0  0  0  0  0  # atno 6908 bound_to 6896
  152.2691  133.5330  159.5464 H   0  0  0  0  0  0  0  0  0  0  0  0  # atno 6909 bound_to 6896
  146.2444  140.0766  142.8359 H   0  0  0  0  0  0  0  0  0  0  0  0  # atno 7974 bound_to 7965
  155.2538  140.0433  157.2989 H   0  0  0  0  0  0  0  0  0  0  0  0  # atno 8008 bound_to 7997
  154.5753  140.2385  155.8102 H   0  0  0  0  0  0  0  0  0  0  0  0  # atno 8009 bound_to 7997
  156.2153  140.2986  155.9833 H   0  0  0  0  0  0  0  0  0  0  0  0  # atno 8010 bound_to 7997
  140.2595  143.3417  152.0639 H   0  0  0  0  0  0  0  0  0  0  0  0  # atno 10167 bound_to 10162
  157.4861  130.8346  149.8148 H   0  0  0  0  0  0  0  0  0  0  0  0  # atno 10718 bound_to 10713
  152.9802  135.5984  154.3721 H   0  0  0  0  0  0  0  0  0  0  0  0  # atno 10763 bound_to 10752
  154.3393  135.2768  155.2433 H   0  0  0  0  0  0  0  0  0  0  0  0  # atno 10764 bound_to 10752
  154.4521  135.5987  153.6254 H   0  0  0  0  0  0  0  0  0  0  0  0  # atno 10765 bound_to 10752
  139.8796  134.9315  156.5427 H   0  0  0  0  0  0  0  0  0  0  0  0  # atno 11005 bound_to 11000
  145.0769  140.9194  143.4848 LP  0  0  0  0  0  0  0  0  0  0  0  0  # atno 17320 bound_to 7965
  145.0911  139.2889  143.5734 LP  0  0  0  0  0  0  0  0  0  0  0  0  # atno 17321 bound_to 7965
  139.5021  144.6728  151.6201 LP  0  0  0  0  0  0  0  0  0  0  0  0  # atno 17342 bound_to 10162
  140.5977  143.9665  150.6365 LP  0  0  0  0  0  0  0  0  0  0  0  0  # atno 17343 bound_to 10162
  156.0147  130.3818  150.2148 LP  0  0  0  0  0  0  0  0  0  0  0  0  # atno 17370 bound_to 10713
  157.0336  131.0014  151.3305 LP  0  0  0  0  0  0  0  0  0  0  0  0  # atno 17371 bound_to 10713
  140.8299  133.8287  155.8974 LP  0  0  0  0  0  0  0  0  0  0  0  0  # atno 17394 bound_to 11000
  140.9339  134.1987  157.4845 LP  0  0  0  0  0  0  0  0  0  0  0  0  # atno 17395 bound_to 11000

$$$$
