AV-unprocessed.smi:743|AV-procd|sdf|3561|dock2
  -GOLD-   22720 0563D 1   1.00000     0.00000
 Structure written by MMmdl.
 29 30  0  0  0  0  0  0  0  0  2 V2000
  149.5757  130.2967  154.8210 C   0  0  0  0  0  0  0  0  0  0  0  0
  149.0520  131.4813  154.1753 N   0  0  0  0  0  0  0  0  0  0  0  0
  148.2259  131.5668  153.0759 C   0  0  0  0  0  0  0  0  0  0  0  0
  148.0018  132.8940  152.8297 C   0  0  0  0  0  0  0  0  0  0  0  0
  147.1648  133.5390  151.7509 C   0  0  1  0  0  0  0  0  0  0  0  0
  146.6470  132.5282  150.8250 N   0  0  0  0  0  0  0  0  0  0  0  0
  145.4616  132.5474  150.1894 C   0  0  0  0  0  0  0  0  0  0  0  0
  145.1549  131.6757  149.3805 O   0  0  0  0  0  0  0  0  0  0  0  0
  144.4564  133.6638  150.5122 C   0  0  0  0  0  0  0  0  0  0  0  0
  145.0764  134.8608  151.2520 C   0  0  0  0  0  0  0  0  0  0  0  0
  146.0252  134.3889  152.3599 C   0  0  2  0  0  0  0  0  0  0  0  0
  146.5480  135.5292  153.1347 N   0  3  0  0  0  0  0  0  0  0  0  0
  148.7529  133.5449  153.8510 C   0  0  0  0  0  0  0  0  0  0  0  0
  149.3756  132.6994  154.6542 N   0  0  0  0  0  0  0  0  0  0  0  0
  145.4547  133.7712  153.0558 H   0  0  0  0  0  0  0  0  0  0  0  0
  148.9974  129.4221  154.5215 H   0  0  0  0  0  0  0  0  0  0  0  0
  149.5167  130.4043  155.9049 H   0  0  0  0  0  0  0  0  0  0  0  0
  150.6168  130.1517  154.5315 H   0  0  0  0  0  0  0  0  0  0  0  0
  147.8677  130.6846  152.5653 H   0  0  0  0  0  0  0  0  0  0  0  0
  147.7927  134.1948  151.1454 H   0  0  0  0  0  0  0  0  0  0  0  0
  147.2706  131.7642  150.6060 H   0  0  0  0  0  0  0  0  0  0  0  0
  143.9779  134.0000  149.5916 H   0  0  0  0  0  0  0  0  0  0  0  0
  143.6703  133.2260  151.1283 H   0  0  0  0  0  0  0  0  0  0  0  0
  145.6140  135.4926  150.5430 H   0  0  0  0  0  0  0  0  0  0  0  0
  144.2809  135.4769  151.6727 H   0  0  0  0  0  0  0  0  0  0  0  0
  145.8566  136.2650  153.1628 H   0  0  0  0  0  0  0  0  0  0  0  0
  147.3901  135.8740  152.6963 H   0  0  0  0  0  0  0  0  0  0  0  0
  148.8601  134.6040  154.0332 H   0  0  0  0  0  0  0  0  0  0  0  0
  146.7583  135.2289  154.0759 H   0  0  0  0  0  0  0  0  0  0  0  0
  1  2  1  0  0  0  0
  1 16  1  0  0  0  0
  1 17  1  0  0  0  0
  1 18  1  0  0  0  0
  2 14  1  0  0  0  0
  2  3  1  0  0  0  0
  3  4  2  0  0  0  0
  3 19  1  0  0  0  0
  4  5  1  0  0  0  0
  4 13  1  0  0  0  0
  5 11  1  0  0  0  0
  5  6  1  0  0  0  0
  5 20  1  0  0  0  0
  6  7  1  0  0  0  0
  6 21  1  0  0  0  0
  7  8  2  0  0  0  0
  7  9  1  0  0  0  0
  9 10  1  0  0  0  0
  9 22  1  0  0  0  0
  9 23  1  0  0  0  0
 10 11  1  0  0  0  0
 10 24  1  0  0  0  0
 10 25  1  0  0  0  0
 11 15  1  0  0  0  0
 11 12  1  0  0  0  0
 12 26  1  0  0  0  0
 12 27  1  0  0  0  0
 12 29  1  0  0  0  0
 13 14  2  0  0  0  0
 13 28  1  0  0  0  0
M  CHG  1  12   1
M  END
> <s_m_source_file>
AV-unprocessed.smi

> <i_m_source_file_index>
743

> <i_lp_mmshare_version>
43012

> <i_f3d_flags>
0

> <s_epik_input>
W0NIM11uMVtjSF1jKFtjSF1uMSlbQ0BASF0yW05IXUMoPU8pW0NIMl1bQ0gyXVtDQEBIXTJbTkgyXQ==

> <s_epik_cmdline>
J2VwaWtfcHl0aG9uJywgJy1waCcsICc3LjAnLCAnLXRuJywgJzgnLCAnLW1hJywgJzIwMCcsICctbWV0YWxfYmluZGluZycsICctaW1hZScsICc8aW5maWxlLm1hZT4nLCAnLW9tYWUnLCAnPG91dGZpbGUubWFlPic=

> <r_lp_tautomer_probability>
1

> <r_epik_Ionization_Penalty>
0.00878543

> <r_epik_Ionization_Penalty_Charging>
0.00874185

> <r_epik_Ionization_Penalty_Neutral>
4.35793e-05

> <r_epik_State_Penalty>
0.00660351

> <r_epik_Charging_Adjusted_Penalty>
0.0153454

> <i_epik_Tot_Q>
1

> <i_epik_Tot_abs_Q>
1

> <r_epik_Metal_State_Penalty>
0.00660727

> <b_epik_Metal_Only>
0

> <s_lp_Force_Field>
OPLS_2005

> <r_lp_Energy>
10.7235

> <b_lp_Chiralities_Consistent>
1

> <s_lp_Variant>
AV-unprocessed.smi:743-2

> <Gold.Version>
5.8.1

> <Gold.Id.Protein>
6NUR|6NUR_protein|mol2

> <Gold.PLP.Fitness>
37.3807

> <Gold.PLP.PLP>
-24.7769

> <Gold.PLP.part.hbond>
-3.0000

> <Gold.PLP.part.metal>
0.0000

> <Gold.PLP.part.buried>
-0.0174

> <Gold.PLP.part.nonpolar>
-21.5736

> <Gold.PLP.part.repulsive>
0.2633

> <Gold.PLP.ligand.clash>
0.0000

> <Gold.PLP.ligand.torsion>
0.0257

> <Gold.PLP.Chemscore.Hbond>
3.0000

> <Gold.PLP.Chemscore.CHOScore>
1.2112

> <Gold.PLP.Chemscore.Metal>
0.0000

> <Gold.Chemscore.Hbonds>
donor molecule, donor type, donor heavy atom, donor atom, acceptor molecule, acceptor atom, score
      L1  H     6    21       P1 10747  1.00
      L1  H    12    27       P1  7948  2.00
      L1  C     3    19       P1 10747  0.46
      L1  C    13    28       P1  7948  0.45

> <Gold.PLP.Chemscore.Internal.Correction>
0.0216

> <Gold.Rescore>
     Score         DG    S(hbond)    S(metal)    S(lipo)     H(rot)  DE(clash)    DE(int)     intcor
     13.89     -15.00       2.00        0.00      46.24       1.00       0.30       0.81       ----

> <Gold.Chemscore.Fitness>
13.8878

> <Gold.Chemscore.DG>
-14.9960

> <Gold.Chemscore.ZeroCoef>
-5.4800

> <Gold.Chemscore.Hbond>
1.9959

> <Gold.Chemscore.Metal>
0.0000

> <Gold.Chemscore.Lipo>
46.2357

> <Gold.Chemscore.Internal_Hbond>
0.0000

> <Gold.Chemscore.DEClash>
0.2952

> <Gold.Chemscore.DEInternal>
0.8130

> <Gold.Chemscore.Rot>
1.0000

> <Gold.Chemscore.Internal.Correction>
   9.000000E+99

> <Gold.Chemscore.Hbonds>
donor molecule, donor type, donor heavy atom, donor atom, acceptor molecule, acceptor atom, score
      L1  H     6    21       P1 10747  0.98
      L1  H    12    27       P1  7948  1.00

> <Gold.Chemscore.Hbond.Weighted>
-6.6664

> <Gold.Chemscore.Metal.Weighted>
-0.0000

> <Gold.Chemscore.Lipo.Weighted>
-5.4096

> <Gold.Chemscore.Internal_Hbond.Weighted>
0.0000

> <Gold.Chemscore.DEClash.Weighted>
0.2952

> <Gold.Chemscore.DEInternal.Weighted>
0.8130

> <Gold.Chemscore.Rot.Weighted>
2.5600

> <Gold.Chemscore.Internal.Correction.Weighted>
   9.000000E+99

> <Gold.Protein.RotatedTorsions>
[ 6907 6896 6895 6894 ] final  -26.81 input  -60.11 | X-H torsion
[ 7974 7965 7964 7962 ] final  -89.51 input  175.53 | X-H torsion
[ 8008 7997 7996 7995 ] final   98.24 input   59.86 | X-H torsion
[ 10167 10162 10161 10158 ] final  120.12 input  -65.29 | X-H torsion
[ 10718 10713 10712 10709 ] final  121.79 input   66.30 | X-H torsion
[ 10763 10752 10751 10750 ] final   99.27 input  -60.55 | X-H torsion
[ 11005 11000 10999 10996 ] final  128.70 input  -57.11 | X-H torsion

> <Gold.Protein.ActiveResidues>
 VAL166  LYS551  ARG553  GLY616  TRP617  ASP618  TYR619  PRO620  LYS621  CYS622 
 ASP623  PHE694  ASN695  SER759  ASP760  ASP761  ALA762  ILE779  LEU786  VAL792 
 PHE793  MET794  SER795  GLU796  ALA797  LYS798  CYS799  TRP800  GLU811  SER814 

> <Gold.Protein.RotatedAtoms>
  151.1558  135.0249  159.8688 H   0  0  0  0  0  0  0  0  0  0  0  0  # atno 6907 bound_to 6896
  152.5452  134.1336  159.8459 H   0  0  0  0  0  0  0  0  0  0  0  0  # atno 6908 bound_to 6896
  151.1426  133.4915  159.2629 H   0  0  0  0  0  0  0  0  0  0  0  0  # atno 6909 bound_to 6896
  145.4388  140.9558  143.2087 H   0  0  0  0  0  0  0  0  0  0  0  0  # atno 7974 bound_to 7965
  156.0984  140.3246  155.7909 H   0  0  0  0  0  0  0  0  0  0  0  0  # atno 8008 bound_to 7997
  155.4878  140.0559  157.2975 H   0  0  0  0  0  0  0  0  0  0  0  0  # atno 8009 bound_to 7997
  154.4681  140.1999  156.0080 H   0  0  0  0  0  0  0  0  0  0  0  0  # atno 8010 bound_to 7997
  139.6002  144.7054  151.3080 H   0  0  0  0  0  0  0  0  0  0  0  0  # atno 10167 bound_to 10162
  157.5791  131.1076  150.8221 H   0  0  0  0  0  0  0  0  0  0  0  0  # atno 10718 bound_to 10713
  153.2994  135.4119  155.1239 H   0  0  0  0  0  0  0  0  0  0  0  0  # atno 10763 bound_to 10752
  154.8544  135.3537  154.5872 H   0  0  0  0  0  0  0  0  0  0  0  0  # atno 10764 bound_to 10752
  153.6297  135.7061  153.5338 H   0  0  0  0  0  0  0  0  0  0  0  0  # atno 10765 bound_to 10752
  139.9575  134.9610  156.9041 H   0  0  0  0  0  0  0  0  0  0  0  0  # atno 11005 bound_to 11000
  144.8135  139.5919  143.7019 LP  0  0  0  0  0  0  0  0  0  0  0  0  # atno 17320 bound_to 7965
  146.2567  139.6319  142.9390 LP  0  0  0  0  0  0  0  0  0  0  0  0  # atno 17321 bound_to 7965
  140.7244  143.7046  150.7818 LP  0  0  0  0  0  0  0  0  0  0  0  0  # atno 17342 bound_to 10162
  140.0621  143.5145  152.2622 LP  0  0  0  0  0  0  0  0  0  0  0  0  # atno 17343 bound_to 10162
  156.8672  130.5133  149.5299 LP  0  0  0  0  0  0  0  0  0  0  0  0  # atno 17370 bound_to 10713
  156.0836  130.5841  150.9609 LP  0  0  0  0  0  0  0  0  0  0  0  0  # atno 17371 bound_to 10713
  140.5575  134.0567  155.7388 LP  0  0  0  0  0  0  0  0  0  0  0  0  # atno 17394 bound_to 11000
  141.1248  133.9401  157.2657 LP  0  0  0  0  0  0  0  0  0  0  0  0  # atno 17395 bound_to 11000

$$$$
