AV-unprocessed.smi:16|AV-procd|sdf|90|dock4
  -GOLD-   2262015233D 1   1.00000     0.00000
 Structure written by MMmdl.
 60 64  0  0  0  0  0  0  0  0  2 V2000
  150.8407  137.5578  154.3408 C   0  0  0  0  0  0  0  0  0  0  0  0
  151.0626  138.9958  154.8302 C   0  0  0  0  0  0  0  0  0  0  0  0
  149.9121  139.8860  154.5190 N   0  3  2  0  0  0  0  0  0  0  0  0
  149.8467  141.1275  155.3388 C   0  0  0  0  0  0  0  0  0  0  0  0
  149.3436  140.8571  156.7699 C   0  0  0  0  0  0  0  0  0  0  0  0
  147.9951  140.1268  156.7405 C   0  0  2  0  0  0  0  0  0  0  0  0
  147.5890  139.8182  158.0688 O   0  0  0  0  0  0  0  0  0  0  0  0
  146.3052  139.2030  158.0974 C   0  0  0  0  0  0  0  0  0  0  0  0
  146.3507  137.8865  157.3048 C   0  0  0  0  0  0  0  0  0  0  0  0
  146.8255  138.1258  155.9439 N   0  0  0  0  0  0  0  0  0  0  0  0
  146.7678  137.0191  155.1687 C   0  0  0  0  0  0  0  0  0  0  0  0
  147.5721  135.9559  155.4333 N   0  0  0  0  0  0  0  0  0  0  0  0
  147.5231  134.8732  154.6507 C   0  0  0  0  0  0  0  0  0  0  0  0
  146.7707  134.6586  153.5688 N   0  0  0  0  0  0  0  0  0  0  0  0
  145.9734  135.7315  153.2960 C   0  0  0  0  0  0  0  0  0  0  0  0
  145.9064  136.9391  154.0443 C   0  0  0  0  0  0  0  0  0  0  0  0
  144.9789  137.8036  153.4787 N   0  0  0  0  0  0  0  0  0  0  0  0
  144.5139  137.1389  152.4556 C   0  0  0  0  0  0  0  0  0  0  0  0
  145.0796  135.8994  152.2527 N   0  0  0  0  0  0  0  0  0  0  0  0
  144.7331  134.9567  151.2302 C   0  0  0  0  0  0  0  0  0  0  0  0
  144.0410  133.6351  151.5718 C   0  0  0  0  0  0  0  0  0  0  0  0
  144.7780  132.9534  150.3968 C   0  0  0  0  0  0  0  0  0  0  0  0
  145.3206  131.5441  150.6848 C   0  0  0  0  0  0  0  0  0  0  0  0
  146.4107  131.5894  151.5829 O   0  0  0  0  0  0  0  0  0  0  0  0
  144.0117  132.9378  149.0587 C   0  0  0  0  0  0  0  0  0  0  0  0
  142.8281  132.1707  149.1491 O   0  0  0  0  0  0  0  0  0  0  0  0
  145.8035  134.0981  150.5519 C   0  0  0  0  0  0  0  0  0  0  0  0
  148.1127  138.8248  155.9190 C   0  0  1  0  0  0  0  0  0  0  0  0
  148.6073  139.1727  154.4917 C   0  0  0  0  0  0  0  0  0  0  0  0
  147.2522  140.7867  156.2872 H   0  0  0  0  0  0  0  0  0  0  0  0
  148.8474  138.1749  156.3975 H   0  0  0  0  0  0  0  0  0  0  0  0
  151.6514  136.9110  154.6767 H   0  0  0  0  0  0  0  0  0  0  0  0
  150.8088  137.4946  153.2535 H   0  0  0  0  0  0  0  0  0  0  0  0
  149.9090  137.1476  154.7316 H   0  0  0  0  0  0  0  0  0  0  0  0
  151.1994  138.9566  155.9116 H   0  0  0  0  0  0  0  0  0  0  0  0
  151.9896  139.3980  154.4219 H   0  0  0  0  0  0  0  0  0  0  0  0
  150.8122  141.6309  155.3635 H   0  0  0  0  0  0  0  0  0  0  0  0
  149.1631  141.8199  154.8456 H   0  0  0  0  0  0  0  0  0  0  0  0
  150.0748  140.2683  157.3243 H   0  0  0  0  0  0  0  0  0  0  0  0
  149.2414  141.7997  157.3085 H   0  0  0  0  0  0  0  0  0  0  0  0
  146.0268  139.0087  159.1332 H   0  0  0  0  0  0  0  0  0  0  0  0
  145.5538  139.8794  157.6866 H   0  0  0  0  0  0  0  0  0  0  0  0
  147.0117  137.1818  157.8118 H   0  0  0  0  0  0  0  0  0  0  0  0
  145.3581  137.4348  157.2775 H   0  0  0  0  0  0  0  0  0  0  0  0
  148.1833  134.0645  154.9279 H   0  0  0  0  0  0  0  0  0  0  0  0
  143.7464  137.5424  151.8109 H   0  0  0  0  0  0  0  0  0  0  0  0
  144.1563  135.5137  150.4899 H   0  0  0  0  0  0  0  0  0  0  0  0
  144.3420  133.2491  152.5475 H   0  0  0  0  0  0  0  0  0  0  0  0
  142.9544  133.6621  151.4847 H   0  0  0  0  0  0  0  0  0  0  0  0
  144.5488  130.9165  151.1316 H   0  0  0  0  0  0  0  0  0  0  0  0
  145.6329  131.0379  149.7711 H   0  0  0  0  0  0  0  0  0  0  0  0
  147.1916  131.3279  151.1194 H   0  0  0  0  0  0  0  0  0  0  0  0
  143.7309  133.9462  148.7540 H   0  0  0  0  0  0  0  0  0  0  0  0
  144.6268  132.5398  148.2514 H   0  0  0  0  0  0  0  0  0  0  0  0
  142.0979  132.7590  149.2677 H   0  0  0  0  0  0  0  0  0  0  0  0
  146.1826  134.5052  149.6140 H   0  0  0  0  0  0  0  0  0  0  0  0
  146.6236  133.8429  151.2259 H   0  0  0  0  0  0  0  0  0  0  0  0
  147.8740  139.8090  153.9937 H   0  0  0  0  0  0  0  0  0  0  0  0
  148.7044  138.2820  153.8699 H   0  0  0  0  0  0  0  0  0  0  0  0
  150.0699  140.1875  153.5680 H   0  0  0  0  0  0  0  0  0  0  0  0
  1  2  1  0  0  0  0
  1 32  1  0  0  0  0
  1 33  1  0  0  0  0
  1 34  1  0  0  0  0
  2  3  1  0  0  0  0
  2 35  1  0  0  0  0
  2 36  1  0  0  0  0
  3 29  1  0  0  0  0
  3  4  1  0  0  0  0
  3 60  1  0  0  0  0
  4  5  1  0  0  0  0
  4 37  1  0  0  0  0
  4 38  1  0  0  0  0
  5  6  1  0  0  0  0
  5 39  1  0  0  0  0
  5 40  1  0  0  0  0
  6 30  1  0  0  0  0
  6 28  1  0  0  0  0
  6  7  1  0  0  0  0
  7  8  1  0  0  0  0
  8  9  1  0  0  0  0
  8 41  1  0  0  0  0
  8 42  1  0  0  0  0
  9 10  1  0  0  0  0
  9 43  1  0  0  0  0
  9 44  1  0  0  0  0
 10 11  1  0  0  0  0
 10 28  1  0  0  0  0
 11 16  1  0  0  0  0
 11 12  2  0  0  0  0
 12 13  1  0  0  0  0
 13 14  2  0  0  0  0
 13 45  1  0  0  0  0
 14 15  1  0  0  0  0
 15 19  1  0  0  0  0
 15 16  2  0  0  0  0
 16 17  1  0  0  0  0
 17 18  2  0  0  0  0
 18 19  1  0  0  0  0
 18 46  1  0  0  0  0
 19 20  1  0  0  0  0
 20 27  1  0  0  0  0
 20 21  1  0  0  0  0
 20 47  1  0  0  0  0
 21 22  1  0  0  0  0
 21 48  1  0  0  0  0
 21 49  1  0  0  0  0
 22 23  1  0  0  0  0
 22 25  1  0  0  0  0
 22 27  1  0  0  0  0
 23 24  1  0  0  0  0
 23 50  1  0  0  0  0
 23 51  1  0  0  0  0
 24 52  1  0  0  0  0
 25 26  1  0  0  0  0
 25 53  1  0  0  0  0
 25 54  1  0  0  0  0
 26 55  1  0  0  0  0
 27 56  1  0  0  0  0
 27 57  1  0  0  0  0
 28 31  1  0  0  0  0
 28 29  1  0  0  0  0
 29 58  1  0  0  0  0
 29 59  1  0  0  0  0
M  CHG  1   3   1
M  END
> <s_m_source_file>
AV-unprocessed.smi

> <i_m_source_file_index>
16

> <i_lp_mmshare_version>
43012

> <i_f3d_flags>
0

> <s_epik_input>
W0NIM11bQ0gyXU4oW0NIMl1bQ0gyXTEpW0NIMl1bQ0BASF0oW0NAQEhdMTIpTihbQ0gyXVtDSDJdTzIpYyhuW2NIXW4zKWMoYzM0KW5bY0hdbjRbQ0hdKFtDSDJdNSlbQ0gyXUM1KFtDSDJdW09IXSlbQ0gyXVtPSF0=

> <s_epik_cmdline>
J2VwaWtfcHl0aG9uJywgJy1waCcsICc3LjAnLCAnLXRuJywgJzgnLCAnLW1hJywgJzIwMCcsICctbWV0YWxfYmluZGluZycsICctaW1hZScsICc8aW5maWxlLm1hZT4nLCAnLW9tYWUnLCAnPG91dGZpbGUubWFlPic=

> <r_lp_tautomer_probability>
1

> <r_epik_Ionization_Penalty>
0.0135603

> <r_epik_Ionization_Penalty_Charging>
0.0131385

> <r_epik_Ionization_Penalty_Neutral>
0.000421734

> <r_epik_State_Penalty>
0.0102091

> <r_epik_Charging_Adjusted_Penalty>
0.0233476

> <i_epik_Tot_Q>
1

> <i_epik_Tot_abs_Q>
1

> <r_epik_Metal_State_Penalty>
0.0103746

> <b_epik_Metal_Only>
0

> <s_lp_Force_Field>
OPLS_2005

> <r_lp_Energy>
56.2472

> <b_lp_Chiralities_Consistent>
1

> <s_lp_Variant>
AV-unprocessed.smi:16-4

> <Gold.Version>
5.8.1

> <Gold.Id.Protein>
6NUR|6NUR_protein|mol2

> <Gold.PLP.Fitness>
48.5183

> <Gold.PLP.PLP>
-37.1245

> <Gold.PLP.part.hbond>
-5.4216

> <Gold.PLP.part.metal>
0.0000

> <Gold.PLP.part.buried>
-1.6360

> <Gold.PLP.part.nonpolar>
-30.7694

> <Gold.PLP.part.repulsive>
1.9708

> <Gold.PLP.ligand.clash>
0.0000

> <Gold.PLP.ligand.torsion>
1.1216

> <Gold.PLP.Chemscore.Hbond>
3.3813

> <Gold.PLP.Chemscore.CHOScore>
0.9407

> <Gold.PLP.Chemscore.Metal>
0.0000

> <Gold.Chemscore.Hbonds>
donor molecule, donor type, donor heavy atom, donor atom, acceptor molecule, acceptor atom, score
      L1  H    24    52       P1 10747  1.00
      L1  H    26    55       P1 10186  1.00
      P1  H 10785 10796       L1    26  0.83
      L1  C    18    46       P1 10171  1.00

> <Gold.PLP.Chemscore.Internal.Correction>
0.6712

> <Gold.Rescore>
     Score         DG    S(hbond)    S(metal)    S(lipo)     H(rot)  DE(clash)    DE(int)     intcor
     13.44     -15.32       2.66        0.00      80.98       3.33       0.65       1.23       ----

> <Gold.Chemscore.Fitness>
13.4448

> <Gold.Chemscore.DG>
-15.3193

> <Gold.Chemscore.ZeroCoef>
-5.4800

> <Gold.Chemscore.Hbond>
2.6578

> <Gold.Chemscore.Metal>
0.0000

> <Gold.Chemscore.Lipo>
80.9769

> <Gold.Chemscore.Internal_Hbond>
0.0000

> <Gold.Chemscore.DEClash>
0.6469

> <Gold.Chemscore.DEInternal>
1.2277

> <Gold.Chemscore.Rot>
3.3251

> <Gold.Chemscore.Internal.Correction>
   9.000000E+99

> <Gold.Chemscore.Hbonds>
donor molecule, donor type, donor heavy atom, donor atom, acceptor molecule, acceptor atom, score
      L1  H     3    60       P1  7957  0.04
      L1  H    24    52       P1 10747  0.93
      L1  H    26    55       P1 10186  0.97
      P1  H 10785 10796       L1    26  0.66

> <Gold.Chemscore.Hbond.Weighted>
-8.8772

> <Gold.Chemscore.Metal.Weighted>
-0.0000

> <Gold.Chemscore.Lipo.Weighted>
-9.4743

> <Gold.Chemscore.Internal_Hbond.Weighted>
0.0000

> <Gold.Chemscore.DEClash.Weighted>
0.6469

> <Gold.Chemscore.DEInternal.Weighted>
1.2277

> <Gold.Chemscore.Rot.Weighted>
8.5122

> <Gold.Chemscore.Internal.Correction.Weighted>
   9.000000E+99

> <Gold.Protein.RotatedTorsions>
[ 6907 6896 6895 6894 ] final  159.34 input  -60.11 | X-H torsion
[ 7974 7965 7964 7962 ] final   64.16 input  175.53 | X-H torsion
[ 8008 7997 7996 7995 ] final  107.29 input   59.86 | X-H torsion
[ 10167 10162 10161 10158 ] final   67.85 input  -65.29 | X-H torsion
[ 10718 10713 10712 10709 ] final -132.95 input   66.30 | X-H torsion
[ 10763 10752 10751 10750 ] final  -97.31 input  -60.55 | X-H torsion
[ 11005 11000 10999 10996 ] final  -97.61 input  -57.11 | X-H torsion

> <Gold.Protein.ActiveResidues>
 VAL166  LYS551  ARG553  GLY616  TRP617  ASP618  TYR619  PRO620  LYS621  CYS622 
 ASP623  PHE694  ASN695  SER759  ASP760  ASP761  ALA762  ILE779  LEU786  VAL792 
 PHE793  MET794  SER795  GLU796  ALA797  LYS798  CYS799  TRP800  GLU811  SER814 

> <Gold.Protein.RotatedAtoms>
  151.9870  133.3777  159.4129 H   0  0  0  0  0  0  0  0  0  0  0  0  # atno 6907 bound_to 6896
  150.6927  134.3977  159.5114 H   0  0  0  0  0  0  0  0  0  0  0  0  # atno 6908 bound_to 6896
  152.1705  134.8838  160.0585 H   0  0  0  0  0  0  0  0  0  0  0  0  # atno 6909 bound_to 6896
  145.8535  139.3269  143.0861 H   0  0  0  0  0  0  0  0  0  0  0  0  # atno 7974 bound_to 7965
  156.1812  140.3097  155.9152 H   0  0  0  0  0  0  0  0  0  0  0  0  # atno 8008 bound_to 7997
  155.3379  140.0464  157.3061 H   0  0  0  0  0  0  0  0  0  0  0  0  # atno 8009 bound_to 7997
  154.5345  140.2241  155.8757 H   0  0  0  0  0  0  0  0  0  0  0  0  # atno 8010 bound_to 7997
  140.0850  144.5037  150.7136 H   0  0  0  0  0  0  0  0  0  0  0  0  # atno 10167 bound_to 10162
  156.2399  130.7089  151.0946 H   0  0  0  0  0  0  0  0  0  0  0  0  # atno 10718 bound_to 10713
  154.7317  135.5051  153.8974 H   0  0  0  0  0  0  0  0  0  0  0  0  # atno 10763 bound_to 10752
  153.0955  135.6671  153.9779 H   0  0  0  0  0  0  0  0  0  0  0  0  # atno 10764 bound_to 10752
  153.9579  135.3051  155.3414 H   0  0  0  0  0  0  0  0  0  0  0  0  # atno 10765 bound_to 10752
  141.1373  133.8184  157.0729 H   0  0  0  0  0  0  0  0  0  0  0  0  # atno 11005 bound_to 11000
  145.9330  140.9034  143.0346 LP  0  0  0  0  0  0  0  0  0  0  0  0  # atno 17320 bound_to 7965
  144.6728  140.1445  143.7434 LP  0  0  0  0  0  0  0  0  0  0  0  0  # atno 17321 bound_to 7965
  140.7058  143.2467  151.4731 LP  0  0  0  0  0  0  0  0  0  0  0  0  # atno 17342 bound_to 10162
  139.5757  144.1824  152.1900 LP  0  0  0  0  0  0  0  0  0  0  0  0  # atno 17343 bound_to 10162
  157.7170  131.0704  150.6286 LP  0  0  0  0  0  0  0  0  0  0  0  0  # atno 17370 bound_to 10713
  156.6359  130.4445  149.5770 LP  0  0  0  0  0  0  0  0  0  0  0  0  # atno 17371 bound_to 10713
  140.0500  134.9810  157.1118 LP  0  0  0  0  0  0  0  0  0  0  0  0  # atno 17394 bound_to 11000
  140.4005  134.2088  155.7163 LP  0  0  0  0  0  0  0  0  0  0  0  0  # atno 17395 bound_to 11000

$$$$
