#       Name:                AV-unprocessed.smi:2240
#       Creating user name   scv26
#       Creation time:       Fri Mar 27 12:26:24 2020


#       File generated by GOLD software.
#

@<TRIPOS>MOLECULE
AV-unprocessed.smi:2240
    42    43     1
SMALL
NO_CHARGES


@<TRIPOS>ATOM
      1 ****        -1.6896   2.1026  -3.6254 C.3            1 S1                 0.0000
      2 ****        -2.0843   1.2184  -2.5843 O.3            1 S1                 0.0000
      3 ****        -1.6144  -0.1260  -2.6920 C.3            1 S1                 0.0000
      4 ****        -0.0822  -0.2093  -2.5844 C.3            1 S1                 0.0000
      5 ****         0.4094   0.4544  -1.3809 N.am           1 S1                 0.0000
      6 ****         0.7288  -0.1516  -0.2287 C.2            1 S1                 0.0000
      7 ****         0.6662  -1.3697  -0.0593 O.2            1 S1                 0.0000
      8 ****         1.1010   0.7446   0.7020 N.am           1 S1                 0.0000
      9 ****         1.4573   0.5138   2.0573 C.ar           1 S1                 0.0000
     10 ****         2.1447  -0.6684   2.4347 C.ar           1 S1                 0.0000
     11 ****         2.5098  -0.8555   3.7817 C.ar           1 S1                 0.0000
     12 ****         2.1917   0.1459   4.7177 C.ar           1 S1                 0.0000
     13 ****         2.5616  -0.0107   6.1778 C.3            1 S1                 0.0000
     14 ****         1.5222   1.2951   4.2549 C.ar           1 S1                 0.0000
     15 ****         1.1731   1.4773   2.9639 N.ar           1 S1                 0.0000
     16 ****        -2.4625  -1.0037  -1.7501 C.3            1 S1                 0.0000
     17 ****        -2.5981  -2.0206  -2.8840 C.3            1 S1                 0.0000
     18 ****        -2.3129  -0.8695  -3.8491 C.3            1 S1                 0.0000
     19 ****        -2.2020   3.0559  -3.4976 H              1 S1                 0.0000
     20 ****        -1.9503   1.7170  -4.6111 H              1 S1                 0.0000
     21 ****        -0.6192   2.3043  -3.5994 H              1 S1                 0.0000
     22 ****         0.2473  -1.2493  -2.6087 H              1 S1                 0.0000
     23 ****         0.3935   0.2569  -3.4467 H              1 S1                 0.0000
     24 ****         0.4859   1.4601  -1.4228 H              1 S1                 0.0000
     25 ****         1.0081   1.7153   0.4420 H              1 S1                 0.0000
     26 ****         2.4090  -1.4271   1.7138 H              1 S1                 0.0000
     27 ****         3.0301  -1.7514   4.0872 H              1 S1                 0.0000
     28 ****         2.5281   0.9478   6.6966 H              1 S1                 0.0000
     29 ****         3.5697  -0.4143   6.2756 H              1 S1                 0.0000
     30 ****         1.8685  -0.6924   6.6708 H              1 S1                 0.0000
     31 ****         1.2605   2.0928   4.9346 H              1 S1                 0.0000
     32 ****        -1.9449  -1.3823  -0.8693 H              1 S1                 0.0000
     33 ****        -3.4179  -0.5490  -1.4821 H              1 S1                 0.0000
     34 ****        -1.8092  -2.7744  -2.8755 H              1 S1                 0.0000
     35 ****        -3.5876  -2.4675  -2.9833 H              1 S1                 0.0000
     36 ****        -3.2271  -0.3797  -4.1897 H              1 S1                 0.0000
     37 ****        -1.6634  -1.1304  -4.6850 H              1 S1                 0.0000
     38 ****        -3.0839   1.1926  -2.5675 LP             1 S1                 0.0000
     39 ****        -1.7460   1.5924  -1.7208 LP             1 S1                 0.0000
     40 ****         0.3638  -1.9633  -0.8051 LP             1 S1                 0.0000
     41 ****         0.9177  -1.7652   0.8240 LP             1 S1                 0.0000
     42 ****         0.7088   2.3163   2.6801 LP             1 S1                 0.0000
@<TRIPOS>BOND
    1    1    2 1     
    2    1   19 1     
    3    1   20 1     
    4    1   21 1     
    5    2    3 1     
    6    3   18 1     
    7    3    4 1     
    8    3   16 1     
    9    4    5 1     
   10    4   22 1     
   11    4   23 1     
   12    5    6 am    
   13    5   24 1     
   14    6    7 2     
   15    6    8 am    
   16    8    9 1     
   17    8   25 1     
   18    9   15 ar    
   19    9   10 ar    
   20   10   11 ar    
   21   10   26 1     
   22   11   12 ar    
   23   11   27 1     
   24   12   13 1     
   25   12   14 ar    
   26   13   28 1     
   27   13   29 1     
   28   13   30 1     
   29   14   15 ar    
   30   14   31 1     
   31   16   17 1     
   32   16   32 1     
   33   16   33 1     
   34   17   18 1     
   35   17   34 1     
   36   17   35 1     
   37   18   36 1     
   38   18   37 1     
   39    2   38 1     
   40    2   39 1     
   41    7   40 1     
   42    7   41 1     
   43   15   42 1     
@<TRIPOS>SUBSTRUCTURE
      1 S1             1
@<TRIPOS>SET
LONE_PAIRS      STATIC     ATOMS    <user>   **** ""
5 38 39 40 41 42
DONOR_HYDROGENS      STATIC     ATOMS    <user>   **** ""
2 24 25
ATOM$BLUE        STATIC     ATOMS    COLORGROUP SYSTEM
5 38 39 40 41 42
ATOM$RED        STATIC     ATOMS    COLORGROUP SYSTEM
2 24 25
