AV-unprocessed.smi:2439|AV-procd|sdf|9609|dock4
  -GOLD-   2272013243D 1   1.00000     0.00000
 Structure written by MMmdl.
 41 43  0  0  0  0  0  0  0  0  2 V2000
  151.4110  136.7704  154.6187 N   0  0  0  0  0  0  0  0  0  0  0  0
  150.8667  137.7887  154.6908 C   0  0  0  0  0  0  0  0  0  0  0  0
  150.1817  139.0723  154.7834 C   0  0  0  0  0  0  0  0  0  0  0  0
  150.7448  140.0923  155.5789 C   0  0  0  0  0  0  0  0  0  0  0  0
  150.0849  141.3311  155.6733 C   0  0  0  0  0  0  0  0  0  0  0  0
  148.8824  141.5016  154.9639 C   0  0  0  0  0  0  0  0  0  0  0  0
  148.3326  140.5349  154.1993 N   0  0  0  0  0  0  0  0  0  0  0  0
  148.9622  139.3380  154.1043 C   0  0  0  0  0  0  0  0  0  0  0  0
  148.3630  138.3510  153.3017 N   0  0  0  0  0  0  0  0  0  0  0  0
  147.0560  138.5646  152.6967 C   0  0  0  0  0  0  0  0  0  0  0  0
  145.9531  137.7876  153.4419 C   0  0  2  0  0  0  0  0  0  0  0  0
  146.4721  136.5030  154.1150 C   0  0  0  0  0  0  0  0  0  0  0  0
  146.7969  135.4618  153.1116 N   0  3  1  0  0  0  0  0  0  0  0  0
  147.3388  134.2294  153.7389 C   0  0  0  0  0  0  0  0  0  0  0  0
  147.7494  133.1986  152.6758 C   0  0  0  0  0  0  0  0  0  0  0  0
  146.5699  132.8704  151.7522 C   0  0  0  0  0  0  0  0  0  0  0  0
  146.0138  134.1602  151.1351 C   0  0  0  0  0  0  0  0  0  0  0  0
  145.6361  135.1875  152.2217 C   0  0  2  0  0  0  0  0  0  0  0  0
  145.1331  136.4996  151.5899 C   0  0  0  0  0  0  0  0  0  0  0  0
  144.8471  137.4622  152.5992 O   0  0  0  0  0  0  0  0  0  0  0  0
  151.6704  139.9325  156.1135 H   0  0  0  0  0  0  0  0  0  0  0  0
  150.4910  142.1307  156.2753 H   0  0  0  0  0  0  0  0  0  0  0  0
  148.3467  142.4381  155.0118 H   0  0  0  0  0  0  0  0  0  0  0  0
  148.7839  137.4345  153.2404 H   0  0  0  0  0  0  0  0  0  0  0  0
  146.8298  139.6302  152.6632 H   0  0  0  0  0  0  0  0  0  0  0  0
  147.1009  138.2246  151.6613 H   0  0  0  0  0  0  0  0  0  0  0  0
  145.5670  138.4383  154.2277 H   0  0  0  0  0  0  0  0  0  0  0  0
  147.3528  136.7257  154.7188 H   0  0  0  0  0  0  0  0  0  0  0  0
  145.7124  136.1163  154.7963 H   0  0  0  0  0  0  0  0  0  0  0  0
  148.2035  134.4827  154.3535 H   0  0  0  0  0  0  0  0  0  0  0  0
  146.5903  133.7992  154.4064 H   0  0  0  0  0  0  0  0  0  0  0  0
  148.5811  133.5881  152.0871 H   0  0  0  0  0  0  0  0  0  0  0  0
  148.1095  132.2891  153.1575 H   0  0  0  0  0  0  0  0  0  0  0  0
  146.8857  132.1823  150.9673 H   0  0  0  0  0  0  0  0  0  0  0  0
  145.7870  132.3633  152.3177 H   0  0  0  0  0  0  0  0  0  0  0  0
  146.7589  134.5891  150.4631 H   0  0  0  0  0  0  0  0  0  0  0  0
  145.1430  133.9274  150.5209 H   0  0  0  0  0  0  0  0  0  0  0  0
  144.8337  134.7707  152.8333 H   0  0  0  0  0  0  0  0  0  0  0  0
  145.8542  136.8968  150.8751 H   0  0  0  0  0  0  0  0  0  0  0  0
  144.2179  136.3139  151.0274 H   0  0  0  0  0  0  0  0  0  0  0  0
  147.5299  135.8376  152.5270 H   0  0  0  0  0  0  0  0  0  0  0  0
  1  2  3  0  0  0  0
  2  3  1  0  0  0  0
  3  8  1  0  0  0  0
  3  4  2  0  0  0  0
  4  5  1  0  0  0  0
  4 21  1  0  0  0  0
  5  6  2  0  0  0  0
  5 22  1  0  0  0  0
  6  7  1  0  0  0  0
  6 23  1  0  0  0  0
  7  8  2  0  0  0  0
  8  9  1  0  0  0  0
  9 10  1  0  0  0  0
  9 24  1  0  0  0  0
 10 11  1  0  0  0  0
 10 25  1  0  0  0  0
 10 26  1  0  0  0  0
 11 20  1  0  0  0  0
 11 12  1  0  0  0  0
 11 27  1  0  0  0  0
 12 13  1  0  0  0  0
 12 28  1  0  0  0  0
 12 29  1  0  0  0  0
 13 18  1  0  0  0  0
 13 14  1  0  0  0  0
 13 41  1  0  0  0  0
 14 15  1  0  0  0  0
 14 30  1  0  0  0  0
 14 31  1  0  0  0  0
 15 16  1  0  0  0  0
 15 32  1  0  0  0  0
 15 33  1  0  0  0  0
 16 17  1  0  0  0  0
 16 34  1  0  0  0  0
 16 35  1  0  0  0  0
 17 18  1  0  0  0  0
 17 36  1  0  0  0  0
 17 37  1  0  0  0  0
 18 19  1  0  0  0  0
 18 38  1  0  0  0  0
 19 20  1  0  0  0  0
 19 39  1  0  0  0  0
 19 40  1  0  0  0  0
M  CHG  1  13   1
M  END
> <s_m_source_file>
AV-unprocessed.smi

> <i_m_source_file_index>
2439

> <i_lp_mmshare_version>
43012

> <i_f3d_flags>
0

> <s_epik_input>
TiNDYzFbY0hdW2NIXVtjSF1uYzFbTkhdW0NIMl1bQ0BIXShbQ0gyXTIpT1tDSDJdW0NAQEhdKE4yMylbQ0gyXVtDSDJdW0NIMl1bQ0gyXTM=

> <s_epik_cmdline>
J2VwaWtfcHl0aG9uJywgJy1waCcsICc3LjAnLCAnLXRuJywgJzgnLCAnLW1hJywgJzIwMCcsICctbWV0YWxfYmluZGluZycsICctaW1hZScsICc8aW5maWxlLm1hZT4nLCAnLW9tYWUnLCAnPG91dGZpbGUubWFlPic=

> <r_epik_Ionization_Penalty>
0.0803594

> <r_epik_Ionization_Penalty_Charging>
0.0803403

> <r_epik_Ionization_Penalty_Neutral>
1.90988e-05

> <r_epik_State_Penalty>
0.0711481

> <r_epik_Charging_Adjusted_Penalty>
0.151488

> <i_epik_Tot_Q>
1

> <i_epik_Tot_abs_Q>
1

> <r_epik_Metal_State_Penalty>
0.0711482

> <b_epik_Metal_Only>
0

> <s_lp_Force_Field>
OPLS_2005

> <r_lp_Energy>
31.556

> <b_lp_Chiralities_Consistent>
1

> <s_lp_Variant>
AV-unprocessed.smi:2439-7

> <Gold.Version>
5.8.1

> <Gold.Id.Protein>
6NUR|6NUR_protein|mol2

> <Gold.PLP.Fitness>
46.9025

> <Gold.PLP.PLP>
-33.6193

> <Gold.PLP.part.hbond>
-4.0000

> <Gold.PLP.part.metal>
0.0000

> <Gold.PLP.part.buried>
0.2923

> <Gold.PLP.part.nonpolar>
-30.8661

> <Gold.PLP.part.repulsive>
0.9983

> <Gold.PLP.ligand.clash>
0.0000

> <Gold.PLP.ligand.torsion>
0.4669

> <Gold.PLP.Chemscore.Hbond>
3.7360

> <Gold.PLP.Chemscore.CHOScore>
1.0000

> <Gold.PLP.Chemscore.Metal>
0.0000

> <Gold.Chemscore.Hbonds>
donor molecule, donor type, donor heavy atom, donor atom, acceptor molecule, acceptor atom, score
      L1  H     9    24       P1  7948  0.66
      L1  H    13    41       P1  7948  2.00
      P1  H 10752 10765       L1     1  1.00
      L1  C     6    23       P1  8028  1.00

> <Gold.PLP.Chemscore.Internal.Correction>
0.0090

> <Gold.Rescore>
     Score         DG    S(hbond)    S(metal)    S(lipo)     H(rot)  DE(clash)    DE(int)     intcor
     18.66     -19.44       2.69        0.00      70.18       1.27       0.30       0.47       ----

> <Gold.Chemscore.Fitness>
18.6648

> <Gold.Chemscore.DG>
-19.4362

> <Gold.Chemscore.ZeroCoef>
-5.4800

> <Gold.Chemscore.Hbond>
2.6904

> <Gold.Chemscore.Metal>
0.0000

> <Gold.Chemscore.Lipo>
70.1782

> <Gold.Chemscore.Internal_Hbond>
0.0000

> <Gold.Chemscore.DEClash>
0.3033

> <Gold.Chemscore.DEInternal>
0.4681

> <Gold.Chemscore.Rot>
1.2659

> <Gold.Chemscore.Internal.Correction>
   9.000000E+99

> <Gold.Chemscore.Hbonds>
donor molecule, donor type, donor heavy atom, donor atom, acceptor molecule, acceptor atom, score
      L1  H     9    24       P1  7948  0.66
      L1  H    13    41       P1  7948  0.99
      P1  H 10752 10765       L1     1  0.95

> <Gold.Chemscore.Hbond.Weighted>
-8.9861

> <Gold.Chemscore.Metal.Weighted>
-0.0000

> <Gold.Chemscore.Lipo.Weighted>
-8.2108

> <Gold.Chemscore.Internal_Hbond.Weighted>
0.0000

> <Gold.Chemscore.DEClash.Weighted>
0.3033

> <Gold.Chemscore.DEInternal.Weighted>
0.4681

> <Gold.Chemscore.Rot.Weighted>
3.2408

> <Gold.Chemscore.Internal.Correction.Weighted>
   9.000000E+99

> <Gold.Protein.RotatedTorsions>
[ 6907 6896 6895 6894 ] final  -21.10 input  -60.11 | X-H torsion
[ 7974 7965 7964 7962 ] final -147.81 input  175.53 | X-H torsion
[ 8008 7997 7996 7995 ] final -166.47 input   59.86 | X-H torsion
[ 10167 10162 10161 10158 ] final  -14.40 input  -65.29 | X-H torsion
[ 10718 10713 10712 10709 ] final  114.84 input   66.30 | X-H torsion
[ 10763 10752 10751 10750 ] final  151.57 input  -60.55 | X-H torsion
[ 11005 11000 10999 10996 ] final  123.12 input  -57.11 | X-H torsion

> <Gold.Protein.ActiveResidues>
 VAL166  LYS551  ARG553  GLY616  TRP617  ASP618  TYR619  PRO620  LYS621  CYS622 
 ASP623  PHE694  ASN695  SER759  ASP760  ASP761  ALA762  ILE779  LEU786  VAL792 
 PHE793  MET794  SER795  GLU796  ALA797  LYS798  CYS799  TRP800  GLU811  SER814 

> <Gold.Protein.RotatedAtoms>
  151.2383  135.0579  159.9014 H   0  0  0  0  0  0  0  0  0  0  0  0  # atno 6907 bound_to 6896
  152.5396  134.0462  159.8100 H   0  0  0  0  0  0  0  0  0  0  0  0  # atno 6908 bound_to 6896
  151.0652  133.5462  159.2662 H   0  0  0  0  0  0  0  0  0  0  0  0  # atno 6909 bound_to 6896
  144.8069  140.5279  143.5668 H   0  0  0  0  0  0  0  0  0  0  0  0  # atno 7974 bound_to 7965
  155.8643  140.0983  157.1592 H   0  0  0  0  0  0  0  0  0  0  0  0  # atno 8008 bound_to 7997
  154.3992  140.1359  156.4062 H   0  0  0  0  0  0  0  0  0  0  0  0  # atno 8009 bound_to 7997
  155.7822  140.3458  155.5306 H   0  0  0  0  0  0  0  0  0  0  0  0  # atno 8010 bound_to 7997
  140.7200  143.5325  150.9503 H   0  0  0  0  0  0  0  0  0  0  0  0  # atno 10167 bound_to 10162
  157.6258  131.1004  150.7243 H   0  0  0  0  0  0  0  0  0  0  0  0  # atno 10718 bound_to 10713
  154.1060  135.2842  155.3241 H   0  0  0  0  0  0  0  0  0  0  0  0  # atno 10763 bound_to 10752
  154.6523  135.5364  153.7920 H   0  0  0  0  0  0  0  0  0  0  0  0  # atno 10764 bound_to 10752
  153.0362  135.6513  154.1221 H   0  0  0  0  0  0  0  0  0  0  0  0  # atno 10765 bound_to 10752
  139.9298  134.9641  156.8211 H   0  0  0  0  0  0  0  0  0  0  0  0  # atno 11005 bound_to 11000
  145.5416  139.1475  143.3444 LP  0  0  0  0  0  0  0  0  0  0  0  0  # atno 17320 bound_to 7965
  146.2362  140.5555  142.8954 LP  0  0  0  0  0  0  0  0  0  0  0  0  # atno 17321 bound_to 7965
  139.9046  143.6794  152.3125 LP  0  0  0  0  0  0  0  0  0  0  0  0  # atno 17342 bound_to 10162
  139.7156  144.7612  151.1040 LP  0  0  0  0  0  0  0  0  0  0  0  0  # atno 17343 bound_to 10162
  156.7592  130.4793  149.5440 LP  0  0  0  0  0  0  0  0  0  0  0  0  # atno 17370 bound_to 10713
  156.1429  130.6257  151.0491 LP  0  0  0  0  0  0  0  0  0  0  0  0  # atno 17371 bound_to 10713
  140.6233  133.9973  155.7628 LP  0  0  0  0  0  0  0  0  0  0  0  0  # atno 17394 bound_to 11000
  141.0880  133.9961  157.3283 LP  0  0  0  0  0  0  0  0  0  0  0  0  # atno 17395 bound_to 11000

$$$$
