AV-unprocessed.smi:2060|AV-procd|sdf|8354|dock3
  -GOLD-   2272011 23D 1   1.00000     0.00000
 Structure written by MMmdl.
 45 46  0  0  0  0  0  0  0  0  1 V2000
  147.3212  142.2999  153.8678 C   0  0  0  0  0  0  0  0  0  0  0  0
  147.2113  140.7956  153.5579 C   0  0  0  0  0  0  0  0  0  0  0  0
  147.3978  139.8385  154.7783 C   0  0  1  0  0  0  0  0  0  0  0  0
  146.6433  140.4937  155.9666 C   0  0  0  0  0  0  0  0  0  0  0  0
  146.7119  138.4740  154.4411 C   0  0  0  0  0  0  0  0  0  0  0  0
  145.2966  138.5893  154.0882 N   0  0  0  0  0  0  0  0  0  0  0  0
  144.3147  137.7770  154.5061 C   0  0  0  0  0  0  0  0  0  0  0  0
  144.4983  136.8160  155.2529 O   0  0  0  0  0  0  0  0  0  0  0  0
  143.1272  138.1580  154.0064 N   0  0  0  0  0  0  0  0  0  0  0  0
  141.8498  137.5828  154.2316 C   0  0  0  0  0  0  0  0  0  0  0  0
  140.5891  138.2019  153.9875 C   0  0  0  0  0  0  0  0  0  0  0  0
  139.6967  137.2351  154.3558 C   0  0  0  0  0  0  0  0  0  0  0  0
  138.2074  137.1796  154.3643 C   0  0  0  0  0  0  0  0  0  0  0  0
  140.3525  136.1244  154.7879 O   0  0  0  0  0  0  0  0  0  0  0  0
  141.7305  136.3558  154.7046 N   0  0  0  0  0  0  0  0  0  0  0  0
  148.8413  139.6702  155.1106 N   0  0  0  0  0  0  0  0  0  0  0  0
  149.5689  140.9149  155.3870 C   0  0  0  0  0  0  0  0  0  0  0  0
  151.0075  140.6494  155.8620 C   0  0  0  0  0  0  0  0  0  0  0  0
  151.6976  139.8731  154.8901 O   0  0  0  0  0  0  0  0  0  0  0  0
  151.0555  138.6302  154.6323 C   0  0  0  0  0  0  0  0  0  0  0  0
  149.6172  138.8796  154.1475 C   0  0  0  0  0  0  0  0  0  0  0  0
  147.1827  142.8867  152.9598 H   0  0  0  0  0  0  0  0  0  0  0  0
  148.2975  142.5609  154.2762 H   0  0  0  0  0  0  0  0  0  0  0  0
  146.5624  142.6232  154.5797 H   0  0  0  0  0  0  0  0  0  0  0  0
  146.2349  140.6301  153.1014 H   0  0  0  0  0  0  0  0  0  0  0  0
  147.9231  140.5479  152.7704 H   0  0  0  0  0  0  0  0  0  0  0  0
  145.6556  140.8536  155.6772 H   0  0  0  0  0  0  0  0  0  0  0  0
  147.1888  141.3473  156.3699 H   0  0  0  0  0  0  0  0  0  0  0  0
  146.4864  139.7924  156.7864 H   0  0  0  0  0  0  0  0  0  0  0  0
  147.1944  138.0093  153.5819 H   0  0  0  0  0  0  0  0  0  0  0  0
  146.8260  137.7644  155.2608 H   0  0  0  0  0  0  0  0  0  0  0  0
  145.0483  139.3527  153.4759 H   0  0  0  0  0  0  0  0  0  0  0  0
  143.1353  138.9612  153.3953 H   0  0  0  0  0  0  0  0  0  0  0  0
  140.3591  139.1845  153.6047 H   0  0  0  0  0  0  0  0  0  0  0  0
  137.7800  138.1653  154.1795 H   0  0  0  0  0  0  0  0  0  0  0  0
  137.8378  136.8261  155.3270 H   0  0  0  0  0  0  0  0  0  0  0  0
  137.8430  136.5026  153.5916 H   0  0  0  0  0  0  0  0  0  0  0  0
  149.6091  141.5357  154.4922 H   0  0  0  0  0  0  0  0  0  0  0  0
  149.0668  141.4996  156.1553 H   0  0  0  0  0  0  0  0  0  0  0  0
  151.5380  141.5907  156.0066 H   0  0  0  0  0  0  0  0  0  0  0  0
  151.0078  140.1308  156.8219 H   0  0  0  0  0  0  0  0  0  0  0  0
  151.6213  138.0878  153.8750 H   0  0  0  0  0  0  0  0  0  0  0  0
  151.0576  138.0163  155.5342 H   0  0  0  0  0  0  0  0  0  0  0  0
  149.1537  137.9096  153.9754 H   0  0  0  0  0  0  0  0  0  0  0  0
  149.6574  139.3875  153.1842 H   0  0  0  0  0  0  0  0  0  0  0  0
  1  2  1  0  0  0  0
  1 22  1  0  0  0  0
  1 23  1  0  0  0  0
  1 24  1  0  0  0  0
  2  3  1  0  0  0  0
  2 25  1  0  0  0  0
  2 26  1  0  0  0  0
  3  4  1  0  0  0  0
  3  5  1  0  0  0  0
  3 16  1  0  0  0  0
  4 27  1  0  0  0  0
  4 28  1  0  0  0  0
  4 29  1  0  0  0  0
  5  6  1  0  0  0  0
  5 30  1  0  0  0  0
  5 31  1  0  0  0  0
  6  7  1  0  0  0  0
  6 32  1  0  0  0  0
  7  8  2  0  0  0  0
  7  9  1  0  0  0  0
  9 10  1  0  0  0  0
  9 33  1  0  0  0  0
 10 15  2  0  0  0  0
 10 11  1  0  0  0  0
 11 12  2  0  0  0  0
 11 34  1  0  0  0  0
 12 13  1  0  0  0  0
 12 14  1  0  0  0  0
 13 35  1  0  0  0  0
 13 36  1  0  0  0  0
 13 37  1  0  0  0  0
 14 15  1  0  0  0  0
 16 21  1  0  0  0  0
 16 17  1  0  0  0  0
 17 18  1  0  0  0  0
 17 38  1  0  0  0  0
 17 39  1  0  0  0  0
 18 19  1  0  0  0  0
 18 40  1  0  0  0  0
 18 41  1  0  0  0  0
 19 20  1  0  0  0  0
 20 21  1  0  0  0  0
 20 42  1  0  0  0  0
 20 43  1  0  0  0  0
 21 44  1  0  0  0  0
 21 45  1  0  0  0  0
M  END
> <s_m_source_file>
AV-unprocessed.smi

> <i_m_source_file_index>
2060

> <i_lp_mmshare_version>
43012

> <i_f3d_flags>
0

> <s_epik_input>
W0NIMl0xW0NIMl1PW0NIMl1bQ0gyXU4xW0NAQF0oW0NIM10pKFtDSDJdW0NIM10pW0NIMl1bTkhdQyg9TylbTkhdYzJbY0hdYyhbQ0gzXSlvbjI=

> <s_epik_cmdline>
J2VwaWtfcHl0aG9uJywgJy1waCcsICc3LjAnLCAnLXRuJywgJzgnLCAnLW1hJywgJzIwMCcsICctbWV0YWxfYmluZGluZycsICctaW1hZScsICc8aW5maWxlLm1hZT4nLCAnLW9tYWUnLCAnPG91dGZpbGUubWFlPic=

> <r_epik_Ionization_Penalty>
0.289127

> <r_epik_Ionization_Penalty_Charging>
0

> <r_epik_Ionization_Penalty_Neutral>
0.289127

> <r_epik_State_Penalty>
0.282056

> <r_epik_Charging_Adjusted_Penalty>
0.282056

> <i_epik_Tot_Q>
0

> <i_epik_Tot_abs_Q>
0

> <r_epik_Metal_State_Penalty>
0.284526

> <b_epik_Metal_Only>
0

> <s_lp_Force_Field>
OPLS_2005

> <r_lp_Energy>
41.8264

> <b_lp_Chiralities_Consistent>
1

> <s_lp_Variant>
AV-unprocessed.smi:2060-1

> <Gold.Version>
5.8.1

> <Gold.Id.Protein>
6NUR|6NUR_protein|mol2

> <Gold.PLP.Fitness>
43.7516

> <Gold.PLP.PLP>
-32.8120

> <Gold.PLP.part.hbond>
-4.0000

> <Gold.PLP.part.metal>
0.0000

> <Gold.PLP.part.buried>
-7.0091

> <Gold.PLP.part.nonpolar>
-22.9115

> <Gold.PLP.part.repulsive>
0.2286

> <Gold.PLP.ligand.clash>
0.0000

> <Gold.PLP.ligand.torsion>
0.5612

> <Gold.PLP.Chemscore.Hbond>
3.9760

> <Gold.PLP.Chemscore.CHOScore>
0.0000

> <Gold.PLP.Chemscore.Metal>
0.0000

> <Gold.Chemscore.Hbonds>
donor molecule, donor type, donor heavy atom, donor atom, acceptor molecule, acceptor atom, score
      L1  H     6    32       P1 10175  0.99
      L1  H     9    33       P1 10175  1.00
      P1  H  7989  7998       L1    19  1.00
      P1  H 11000 11005       L1    14  0.94

> <Gold.PLP.Chemscore.Internal.Correction>
0.1339

> <Gold.Rescore>
     Score         DG    S(hbond)    S(metal)    S(lipo)     H(rot)  DE(clash)    DE(int)     intcor
     18.04     -20.05       3.28        0.00      68.45       1.71       0.00       2.00       ----

> <Gold.Chemscore.Fitness>
18.0437

> <Gold.Chemscore.DG>
-20.0479

> <Gold.Chemscore.ZeroCoef>
-5.4800

> <Gold.Chemscore.Hbond>
3.2778

> <Gold.Chemscore.Metal>
0.0000

> <Gold.Chemscore.Lipo>
68.4495

> <Gold.Chemscore.Internal_Hbond>
0.0000

> <Gold.Chemscore.DEClash>
0.0030

> <Gold.Chemscore.DEInternal>
2.0012

> <Gold.Chemscore.Rot>
1.7143

> <Gold.Chemscore.Internal.Correction>
   9.000000E+99

> <Gold.Chemscore.Hbonds>
donor molecule, donor type, donor heavy atom, donor atom, acceptor molecule, acceptor atom, score
      L1  H     6    32       P1 10175  0.88
      L1  H     9    33       P1 10175  1.00
      P1  H  7989  7998       L1    19  0.30
      P1  H 11000 11005       L1    14  0.68

> <Gold.Chemscore.Hbond.Weighted>
-10.9479

> <Gold.Chemscore.Metal.Weighted>
-0.0000

> <Gold.Chemscore.Lipo.Weighted>
-8.0086

> <Gold.Chemscore.Internal_Hbond.Weighted>
0.0000

> <Gold.Chemscore.DEClash.Weighted>
0.0030

> <Gold.Chemscore.DEInternal.Weighted>
2.0012

> <Gold.Chemscore.Rot.Weighted>
4.3885

> <Gold.Chemscore.Internal.Correction.Weighted>
   9.000000E+99

> <Gold.Protein.RotatedTorsions>
[ 6907 6896 6895 6894 ] final -164.88 input  -60.11 | X-H torsion
[ 7974 7965 7964 7962 ] final   65.69 input  175.53 | X-H torsion
[ 8008 7997 7996 7995 ] final -117.34 input   59.86 | X-H torsion
[ 10167 10162 10161 10158 ] final -138.34 input  -65.29 | X-H torsion
[ 10718 10713 10712 10709 ] final   22.90 input   66.30 | X-H torsion
[ 10763 10752 10751 10750 ] final -115.77 input  -60.55 | X-H torsion
[ 11005 11000 10999 10996 ] final   61.17 input  -57.11 | X-H torsion

> <Gold.Protein.ActiveResidues>
 VAL166  LYS551  ARG553  GLY616  TRP617  ASP618  TYR619  PRO620  LYS621  CYS622 
 ASP623  PHE694  ASN695  SER759  ASP760  ASP761  ALA762  ILE779  LEU786  VAL792 
 PHE793  MET794  SER795  GLU796  ALA797  LYS798  CYS799  TRP800  GLU811  SER814 

> <Gold.Protein.RotatedAtoms>
  151.4188  133.3705  159.2753 H   0  0  0  0  0  0  0  0  0  0  0  0  # atno 6907 bound_to 6896
  150.9309  134.8725  159.7561 H   0  0  0  0  0  0  0  0  0  0  0  0  # atno 6908 bound_to 6896
  152.5027  134.4132  159.9508 H   0  0  0  0  0  0  0  0  0  0  0  0  # atno 6909 bound_to 6896
  145.8355  139.3164  143.0962 H   0  0  0  0  0  0  0  0  0  0  0  0  # atno 7974 bound_to 7965
  155.0821  140.0394  157.2642 H   0  0  0  0  0  0  0  0  0  0  0  0  # atno 8008 bound_to 7997
  154.6898  140.2651  155.6799 H   0  0  0  0  0  0  0  0  0  0  0  0  # atno 8009 bound_to 7997
  156.2725  140.2762  156.1472 H   0  0  0  0  0  0  0  0  0  0  0  0  # atno 8010 bound_to 7997
  139.8488  143.7226  152.2659 H   0  0  0  0  0  0  0  0  0  0  0  0  # atno 10167 bound_to 10162
  157.1587  130.6707  149.6037 H   0  0  0  0  0  0  0  0  0  0  0  0  # atno 10718 bound_to 10713
  154.8494  135.4369  154.1716 H   0  0  0  0  0  0  0  0  0  0  0  0  # atno 10763 bound_to 10752
  153.2828  135.6955  153.7374 H   0  0  0  0  0  0  0  0  0  0  0  0  # atno 10764 bound_to 10752
  153.6572  135.3441  155.3091 H   0  0  0  0  0  0  0  0  0  0  0  0  # atno 10765 bound_to 10752
  140.0180  134.6196  155.9681 H   0  0  0  0  0  0  0  0  0  0  0  0  # atno 11005 bound_to 11000
  145.9523  140.8899  143.0252 LP  0  0  0  0  0  0  0  0  0  0  0  0  # atno 17320 bound_to 7965
  144.6737  140.1698  143.7415 LP  0  0  0  0  0  0  0  0  0  0  0  0  # atno 17321 bound_to 7965
  139.7486  144.7540  151.0541 LP  0  0  0  0  0  0  0  0  0  0  0  0  # atno 17342 bound_to 10162
  140.7790  143.4887  150.9922 LP  0  0  0  0  0  0  0  0  0  0  0  0  # atno 17343 bound_to 10162
  155.9757  130.4719  150.6480 LP  0  0  0  0  0  0  0  0  0  0  0  0  # atno 17370 bound_to 10713
  157.4152  131.0829  151.1183 LP  0  0  0  0  0  0  0  0  0  0  0  0  # atno 17371 bound_to 10713
  141.1755  133.6540  156.4813 LP  0  0  0  0  0  0  0  0  0  0  0  0  # atno 17394 bound_to 11000
  140.4437  134.6992  157.5005 LP  0  0  0  0  0  0  0  0  0  0  0  0  # atno 17395 bound_to 11000

$$$$
