#       Name:                AV-unprocessed.smi:301
#       Creating user name   scv26
#       Creation time:       Thu Mar 26 22:16:17 2020


#       File generated by GOLD software.
#

@<TRIPOS>MOLECULE
AV-unprocessed.smi:301
    37    38     1
SMALL
NO_CHARGES


@<TRIPOS>ATOM
      1 ****        -4.0041   4.5990   1.5108 C.3            1 S1                 0.0000
      2 ****        -3.4053   3.7002   0.4837 C.2            1 S1                 0.0000
      3 ****        -3.0443   2.4379   0.7271 N.2            1 S1                 0.0000
      4 ****        -2.4984   1.8058  -0.3956 C.2            1 S1                 0.0000
      5 ****        -2.0355   0.3803  -0.3022 C.3            1 S1                 0.0000
      6 ****        -0.5144   0.3132  -0.1364 C.2            1 S1                 0.0000
      7 ****         0.0393   0.9330   0.7725 O.2            1 S1                 0.0000
      8 ****         0.1510  -0.4498  -1.0174 N.am           1 S1                 0.0000
      9 ****         1.5940  -0.6615  -1.0208 C.3            1 S1                 0.0000
     10 ****         2.0153  -1.7095   0.0227 C.3            1 S1                 0.0000
     11 ****         3.5211  -1.9408   0.0909 C.3            1 S1                 0.0000
     12 ****         3.5919  -3.2933   0.7669 C.3            1 S1                 0.0000
     13 ****         2.3402  -4.0040   0.2469 C.3            1 S1                 0.0000
     14 ****         1.5060  -2.9933  -0.3156 O.3            1 S1                 0.0000
     15 ****        -2.4632   2.6143  -1.5054 C.2            1 S1                 0.0000
     16 ****        -3.1007   4.2017  -1.1748 S.3            1 S1                 0.0000
     17 ****        -4.2774   4.0350   2.4032 H              1 S1                 0.0000
     18 ****        -4.8995   5.0765   1.1126 H              1 S1                 0.0000
     19 ****        -3.2883   5.3721   1.7905 H              1 S1                 0.0000
     20 ****        -2.4978  -0.1236   0.5474 H              1 S1                 0.0000
     21 ****        -2.3413  -0.1744  -1.1906 H              1 S1                 0.0000
     22 ****        -0.3815  -0.9315  -1.7274 H              1 S1                 0.0000
     23 ****         1.8935  -0.9835  -2.0186 H              1 S1                 0.0000
     24 ****         2.1055   0.2843  -0.8344 H              1 S1                 0.0000
     25 ****         1.6484  -1.4386   1.0145 H              1 S1                 0.0000
     26 ****         3.9462  -2.0009  -0.9122 H              1 S1                 0.0000
     27 ****         4.0474  -1.1603   0.6411 H              1 S1                 0.0000
     28 ****         4.5122  -3.8334   0.5426 H              1 S1                 0.0000
     29 ****         3.5271  -3.1696   1.8489 H              1 S1                 0.0000
     30 ****         2.5893  -4.7294  -0.5280 H              1 S1                 0.0000
     31 ****         1.8207  -4.5303   1.0483 H              1 S1                 0.0000
     32 ****        -2.0976   2.3740  -2.4927 H              1 S1                 0.0000
     33 ****        -3.1524   1.9924   1.6159 LP             1 S1                 0.0000
     34 ****        -0.5046   1.4831   1.4063 LP             1 S1                 0.0000
     35 ****         1.0327   0.8861   0.8768 LP             1 S1                 0.0000
     36 ****         1.4883  -3.0924  -1.3105 LP             1 S1                 0.0000
     37 ****         0.5784  -3.0888   0.0455 LP             1 S1                 0.0000
@<TRIPOS>BOND
    1    1    2 1     
    2    1   17 1     
    3    1   18 1     
    4    1   19 1     
    5    2   16 1     
    6    2    3 2     
    7    3    4 1     
    8    4    5 1     
    9    4   15 2     
   10    5    6 1     
   11    5   20 1     
   12    5   21 1     
   13    6    7 2     
   14    6    8 am    
   15    8    9 1     
   16    8   22 1     
   17    9   10 1     
   18    9   23 1     
   19    9   24 1     
   20   10   14 1     
   21   10   11 1     
   22   10   25 1     
   23   11   12 1     
   24   11   26 1     
   25   11   27 1     
   26   12   13 1     
   27   12   28 1     
   28   12   29 1     
   29   13   14 1     
   30   13   30 1     
   31   13   31 1     
   32   15   16 1     
   33   15   32 1     
   34    3   33 1     
   35    7   34 1     
   36    7   35 1     
   37   14   36 1     
   38   14   37 1     
@<TRIPOS>SUBSTRUCTURE
      1 S1             1
@<TRIPOS>SET
LONE_PAIRS      STATIC     ATOMS    <user>   **** ""
5 33 34 35 36 37
DONOR_HYDROGENS      STATIC     ATOMS    <user>   **** ""
1 22
ATOM$BLUE        STATIC     ATOMS    COLORGROUP SYSTEM
5 33 34 35 36 37
ATOM$RED        STATIC     ATOMS    COLORGROUP SYSTEM
1 22
