AV-unprocessed.smi:1088|AV-procd|sdf|4729|dock4
  -GOLD-   22720 3263D 1   1.00000     0.00000
 Structure written by MMmdl.
 48 49  0  0  0  0  0  0  0  0  2 V2000
  144.3534  133.8981  150.2351 C   0  0  0  0  0  0  0  0  0  0  0  0
  145.0699  134.3289  151.3791 O   0  0  0  0  0  0  0  0  0  0  0  0
  145.4704  135.6859  151.2902 C   0  0  0  0  0  0  0  0  0  0  0  0
  145.6008  136.2629  152.7090 C   0  0  0  0  0  0  0  0  0  0  0  0
  146.6834  137.2784  152.8160 N   0  3  1  0  0  0  0  0  0  0  0  0
  146.4502  138.5032  152.0130 C   0  0  0  0  0  0  0  0  0  0  0  0
  147.1849  139.6270  152.7346 C   0  0  0  0  0  0  0  0  0  0  0  0
  147.0002  139.2444  154.1936 C   0  0  0  0  0  0  0  0  0  0  0  0
  147.1048  137.7107  154.1849 C   0  0  1  0  0  0  0  0  0  0  0  0
  146.3906  137.0255  155.3778 C   0  0  0  0  0  0  0  0  0  0  0  0
  147.2585  136.9509  156.5497 N   0  0  0  0  0  0  0  0  0  0  0  0
  147.0590  137.5994  157.7074 C   0  0  0  0  0  0  0  0  0  0  0  0
  146.0688  138.2970  157.9296 O   0  0  0  0  0  0  0  0  0  0  0  0
  148.1474  137.4315  158.7756 C   0  0  0  0  0  0  0  0  0  0  0  0
  148.0207  136.1686  159.5151 N   0  0  0  0  0  0  0  0  0  0  0  0
  148.1316  134.9655  158.8420 C   0  0  0  0  0  0  0  0  0  0  0  0
  148.0043  133.7621  159.4421 C   0  0  0  0  0  0  0  0  0  0  0  0
  147.7383  133.6632  160.8718 C   0  0  0  0  0  0  0  0  0  0  0  0
  147.5891  132.5896  161.4568 O   0  0  0  0  0  0  0  0  0  0  0  0
  147.6482  134.9068  161.5404 N   0  0  0  0  0  0  0  0  0  0  0  0
  147.3588  134.8869  162.9595 C   0  0  0  0  0  0  0  0  0  0  0  0
  147.7657  136.1637  160.9042 C   0  0  0  0  0  0  0  0  0  0  0  0
  147.6419  137.2253  161.5205 O   0  0  0  0  0  0  0  0  0  0  0  0
  144.0746  132.8508  150.3499 H   0  0  0  0  0  0  0  0  0  0  0  0
  144.9600  133.9872  149.3328 H   0  0  0  0  0  0  0  0  0  0  0  0
  143.4387  134.4771  150.1010 H   0  0  0  0  0  0  0  0  0  0  0  0
  146.4041  135.7789  150.7340 H   0  0  0  0  0  0  0  0  0  0  0  0
  144.7160  136.2509  150.7403 H   0  0  0  0  0  0  0  0  0  0  0  0
  144.6514  136.7059  153.0130 H   0  0  0  0  0  0  0  0  0  0  0  0
  145.8004  135.4322  153.3853 H   0  0  0  0  0  0  0  0  0  0  0  0
  146.7920  138.3813  150.9846 H   0  0  0  0  0  0  0  0  0  0  0  0
  145.3833  138.7318  151.9884 H   0  0  0  0  0  0  0  0  0  0  0  0
  148.2444  139.6151  152.4745 H   0  0  0  0  0  0  0  0  0  0  0  0
  146.7871  140.6148  152.5004 H   0  0  0  0  0  0  0  0  0  0  0  0
  147.7332  139.7161  154.8488 H   0  0  0  0  0  0  0  0  0  0  0  0
  146.0075  139.5548  154.5230 H   0  0  0  0  0  0  0  0  0  0  0  0
  148.1643  137.4575  154.2462 H   0  0  0  0  0  0  0  0  0  0  0  0
  145.4596  137.5386  155.6237 H   0  0  0  0  0  0  0  0  0  0  0  0
  146.1250  136.0000  155.1219 H   0  0  0  0  0  0  0  0  0  0  0  0
  148.0950  136.3919  156.4619 H   0  0  0  0  0  0  0  0  0  0  0  0
  149.1191  137.4850  158.2830 H   0  0  0  0  0  0  0  0  0  0  0  0
  148.1222  138.2706  159.4735 H   0  0  0  0  0  0  0  0  0  0  0  0
  148.3226  134.9849  157.7788 H   0  0  0  0  0  0  0  0  0  0  0  0
  148.0954  132.8598  158.8554 H   0  0  0  0  0  0  0  0  0  0  0  0
  147.7754  135.7755  163.4352 H   0  0  0  0  0  0  0  0  0  0  0  0
  147.8300  134.0131  163.4121 H   0  0  0  0  0  0  0  0  0  0  0  0
  146.2734  134.8526  163.0599 H   0  0  0  0  0  0  0  0  0  0  0  0
  147.5041  136.8416  152.4209 H   0  0  0  0  0  0  0  0  0  0  0  0
  1  2  1  0  0  0  0
  1 24  1  0  0  0  0
  1 25  1  0  0  0  0
  1 26  1  0  0  0  0
  2  3  1  0  0  0  0
  3  4  1  0  0  0  0
  3 27  1  0  0  0  0
  3 28  1  0  0  0  0
  4  5  1  0  0  0  0
  4 29  1  0  0  0  0
  4 30  1  0  0  0  0
  5  9  1  0  0  0  0
  5  6  1  0  0  0  0
  5 48  1  0  0  0  0
  6  7  1  0  0  0  0
  6 31  1  0  0  0  0
  6 32  1  0  0  0  0
  7  8  1  0  0  0  0
  7 33  1  0  0  0  0
  7 34  1  0  0  0  0
  8  9  1  0  0  0  0
  8 35  1  0  0  0  0
  8 36  1  0  0  0  0
  9 10  1  0  0  0  0
  9 37  1  0  0  0  0
 10 11  1  0  0  0  0
 10 38  1  0  0  0  0
 10 39  1  0  0  0  0
 11 12  1  0  0  0  0
 11 40  1  0  0  0  0
 12 13  2  0  0  0  0
 12 14  1  0  0  0  0
 14 15  1  0  0  0  0
 14 41  1  0  0  0  0
 14 42  1  0  0  0  0
 15 22  1  0  0  0  0
 15 16  1  0  0  0  0
 16 17  2  0  0  0  0
 16 43  1  0  0  0  0
 17 18  1  0  0  0  0
 17 44  1  0  0  0  0
 18 19  2  0  0  0  0
 18 20  1  0  0  0  0
 20 21  1  0  0  0  0
 20 22  1  0  0  0  0
 21 45  1  0  0  0  0
 21 46  1  0  0  0  0
 21 47  1  0  0  0  0
 22 23  2  0  0  0  0
M  CHG  1   5   1
M  END
> <s_m_source_file>
AV-unprocessed.smi

> <i_m_source_file_index>
1088

> <i_lp_mmshare_version>
43012

> <i_f3d_flags>
0

> <s_epik_input>
W0NIM11PW0NIMl1bQ0gyXU4xW0NIMl1bQ0gyXVtDSDJdW0NASF0xW0NIMl1bTkhdQyg9TylbQ0gyXW4yW2NIXVtjSF1jKD1PKW4oW0NIM10pYzI9Tw==

> <s_epik_cmdline>
J2VwaWtfcHl0aG9uJywgJy1waCcsICc3LjAnLCAnLXRuJywgJzgnLCAnLW1hJywgJzIwMCcsICctbWV0YWxfYmluZGluZycsICctaW1hZScsICc8aW5maWxlLm1hZT4nLCAnLW9tYWUnLCAnPG91dGZpbGUubWFlPic=

> <r_lp_tautomer_probability>
1

> <r_epik_Ionization_Penalty>
0.0127388

> <r_epik_Ionization_Penalty_Charging>
0.0127387

> <r_epik_Ionization_Penalty_Neutral>
8.26414e-08

> <r_epik_State_Penalty>
0.00987716

> <r_epik_Charging_Adjusted_Penalty>
0.0226159

> <i_epik_Tot_Q>
1

> <i_epik_Tot_abs_Q>
1

> <r_epik_Metal_State_Penalty>
0.00987836

> <b_epik_Metal_Only>
0

> <s_lp_Force_Field>
OPLS_2005

> <r_lp_Energy>
40.5069

> <b_lp_Chiralities_Consistent>
1

> <s_lp_Variant>
AV-unprocessed.smi:1088-2

> <Gold.Version>
5.8.1

> <Gold.Id.Protein>
6NUR|6NUR_protein|mol2

> <Gold.PLP.Fitness>
42.5291

> <Gold.PLP.PLP>
-33.0712

> <Gold.PLP.part.hbond>
-3.0000

> <Gold.PLP.part.metal>
0.0000

> <Gold.PLP.part.buried>
-2.7157

> <Gold.PLP.part.nonpolar>
-27.4701

> <Gold.PLP.part.repulsive>
0.1668

> <Gold.PLP.ligand.clash>
0.0000

> <Gold.PLP.ligand.torsion>
1.0673

> <Gold.PLP.Chemscore.Hbond>
3.7920

> <Gold.PLP.Chemscore.CHOScore>
0.0000

> <Gold.PLP.Chemscore.Metal>
0.0000

> <Gold.Chemscore.Hbonds>
donor molecule, donor type, donor heavy atom, donor atom, acceptor molecule, acceptor atom, score
      L1  H     5    48       P1  7948  2.00
      P1  H  6931  6943       L1    23  0.98
      P1  H  6934  6947       L1    23  0.78

> <Gold.PLP.Chemscore.Internal.Correction>
0.2166

> <Gold.Rescore>
     Score         DG    S(hbond)    S(metal)    S(lipo)     H(rot)  DE(clash)    DE(int)     intcor
     13.99     -15.05       2.74        0.00      59.78       2.57       0.04       1.03       ----

> <Gold.Chemscore.Fitness>
13.9851

> <Gold.Chemscore.DG>
-15.0496

> <Gold.Chemscore.ZeroCoef>
-5.4800

> <Gold.Chemscore.Hbond>
2.7402

> <Gold.Chemscore.Metal>
0.0000

> <Gold.Chemscore.Lipo>
59.7836

> <Gold.Chemscore.Internal_Hbond>
0.0000

> <Gold.Chemscore.DEClash>
0.0391

> <Gold.Chemscore.DEInternal>
1.0254

> <Gold.Chemscore.Rot>
2.5692

> <Gold.Chemscore.Internal.Correction>
   9.000000E+99

> <Gold.Chemscore.Hbonds>
donor molecule, donor type, donor heavy atom, donor atom, acceptor molecule, acceptor atom, score
      L1  H     5    48       P1  7948  1.00
      P1  H  6931  6943       L1    23  0.92
      P1  H  6934  6947       L1    23  0.77

> <Gold.Chemscore.Hbond.Weighted>
-9.1521

> <Gold.Chemscore.Metal.Weighted>
-0.0000

> <Gold.Chemscore.Lipo.Weighted>
-6.9947

> <Gold.Chemscore.Internal_Hbond.Weighted>
0.0000

> <Gold.Chemscore.DEClash.Weighted>
0.0391

> <Gold.Chemscore.DEInternal.Weighted>
1.0254

> <Gold.Chemscore.Rot.Weighted>
6.5772

> <Gold.Chemscore.Internal.Correction.Weighted>
   9.000000E+99

> <Gold.Protein.RotatedTorsions>
[ 6907 6896 6895 6894 ] final  -10.78 input  -60.11 | X-H torsion
[ 7974 7965 7964 7962 ] final  -21.18 input  175.53 | X-H torsion
[ 8008 7997 7996 7995 ] final  -75.78 input   59.86 | X-H torsion
[ 10167 10162 10161 10158 ] final   14.69 input  -65.29 | X-H torsion
[ 10718 10713 10712 10709 ] final  -33.78 input   66.30 | X-H torsion
[ 10763 10752 10751 10750 ] final   -6.23 input  -60.55 | X-H torsion
[ 11005 11000 10999 10996 ] final  -29.03 input  -57.11 | X-H torsion

> <Gold.Protein.ActiveResidues>
 VAL166  LYS551  ARG553  GLY616  TRP617  ASP618  TYR619  PRO620  LYS621  CYS622 
 ASP623  PHE694  ASN695  SER759  ASP760  ASP761  ALA762  ILE779  LEU786  VAL792 
 PHE793  MET794  SER795  GLU796  ALA797  LYS798  CYS799  TRP800  GLU811  SER814 

> <Gold.Protein.RotatedAtoms>
  151.3966  135.0964  159.9542 H   0  0  0  0  0  0  0  0  0  0  0  0  # atno 6907 bound_to 6896
  152.5063  133.8929  159.7413 H   0  0  0  0  0  0  0  0  0  0  0  0  # atno 6908 bound_to 6896
  150.9393  133.6618  159.2822 H   0  0  0  0  0  0  0  0  0  0  0  0  # atno 6909 bound_to 6896
  146.1747  140.4305  142.8518 H   0  0  0  0  0  0  0  0  0  0  0  0  # atno 7974 bound_to 7965
  154.5447  140.0738  156.8568 H   0  0  0  0  0  0  0  0  0  0  0  0  # atno 8008 bound_to 7997
  155.3111  140.3390  155.4226 H   0  0  0  0  0  0  0  0  0  0  0  0  # atno 8009 bound_to 7997
  156.1907  140.1685  156.8084 H   0  0  0  0  0  0  0  0  0  0  0  0  # atno 8010 bound_to 7997
  140.5918  143.8780  150.6881 H   0  0  0  0  0  0  0  0  0  0  0  0  # atno 10167 bound_to 10162
  156.3585  130.4320  149.7644 H   0  0  0  0  0  0  0  0  0  0  0  0  # atno 10718 bound_to 10713
  153.4094  135.7007  153.6370 H   0  0  0  0  0  0  0  0  0  0  0  0  # atno 10763 bound_to 10752
  153.4870  135.3681  155.2472 H   0  0  0  0  0  0  0  0  0  0  0  0  # atno 10764 bound_to 10752
  154.8716  135.4080  154.3443 H   0  0  0  0  0  0  0  0  0  0  0  0  # atno 10765 bound_to 10752
  140.9260  133.7368  156.0868 H   0  0  0  0  0  0  0  0  0  0  0  0  # atno 11005 bound_to 11000
  144.8218  140.6562  143.6348 LP  0  0  0  0  0  0  0  0  0  0  0  0  # atno 17320 bound_to 7965
  145.4243  139.1559  143.4057 LP  0  0  0  0  0  0  0  0  0  0  0  0  # atno 17321 bound_to 7965
  140.2304  143.3740  152.1570 LP  0  0  0  0  0  0  0  0  0  0  0  0  # atno 17342 bound_to 10162
  139.5232  144.7069  151.5326 LP  0  0  0  0  0  0  0  0  0  0  0  0  # atno 17343 bound_to 10162
  156.4817  130.8044  151.3058 LP  0  0  0  0  0  0  0  0  0  0  0  0  # atno 17370 bound_to 10713
  157.7470  131.0003  150.2923 LP  0  0  0  0  0  0  0  0  0  0  0  0  # atno 17371 bound_to 10713
  140.7925  134.3601  157.5461 LP  0  0  0  0  0  0  0  0  0  0  0  0  # atno 17394 bound_to 11000
  139.8785  134.9149  156.3118 LP  0  0  0  0  0  0  0  0  0  0  0  0  # atno 17395 bound_to 11000

$$$$
