AV-unprocessed.smi:2663|AV-procd|sdf|10324|dock6
  -GOLD-   2272014343D 1   1.00000     0.00000
 Structure written by MMmdl.
 38 39  0  0  0  0  0  0  0  0  2 V2000
  152.0562  137.2846  157.0398 C   0  0  0  0  0  0  0  0  0  0  0  0
  150.6384  137.4978  156.4487 C   0  0  1  0  0  0  0  0  0  0  0  0
  150.2682  136.2560  155.5855 C   0  0  0  0  0  0  0  0  0  0  0  0
  151.0152  136.1952  154.3865 O   0  0  0  0  0  0  0  0  0  0  0  0
  149.6564  137.6418  157.5353 N   0  0  0  0  0  0  0  0  0  0  0  0
  149.3339  136.7922  158.5248 C   0  0  0  0  0  0  0  0  0  0  0  0
  149.8889  135.6957  158.6186 O   0  0  0  0  0  0  0  0  0  0  0  0
  148.3803  137.2750  159.3534 N   0  5  0  0  0  0  0  0  0  0  0  0
  147.9611  136.5397  160.3964 C   0  0  0  0  0  0  0  0  0  0  0  0
  147.6021  137.0903  161.5673 N   0  0  0  0  0  0  0  0  0  0  0  0
  147.2032  136.1534  162.5112 N   0  0  0  0  0  0  0  0  0  0  0  0
  147.2808  134.9136  162.0281 C   0  0  0  0  0  0  0  0  0  0  0  0
  147.8523  134.7775  160.3789 S   0  0  0  0  0  0  0  0  0  0  0  0
  150.5987  138.8228  155.6059 C   0  0  0  0  0  0  0  0  0  0  0  0
  150.7452  140.1084  156.4661 C   0  0  0  0  0  0  0  0  0  0  0  0
  150.7560  141.3862  155.6118 C   0  0  0  0  0  0  0  0  0  0  0  0
  149.4978  141.4845  154.7407 C   0  0  0  0  0  0  0  0  0  0  0  0
  149.3491  140.2347  153.8650 C   0  0  0  0  0  0  0  0  0  0  0  0
  149.3332  138.9545  154.7158 C   0  0  0  0  0  0  0  0  0  0  0  0
  152.8246  137.3886  156.2734 H   0  0  0  0  0  0  0  0  0  0  0  0
  152.1745  136.2904  157.4706 H   0  0  0  0  0  0  0  0  0  0  0  0
  152.2817  137.9966  157.8333 H   0  0  0  0  0  0  0  0  0  0  0  0
  150.4509  135.3295  156.1293 H   0  0  0  0  0  0  0  0  0  0  0  0
  149.2071  136.2485  155.3365 H   0  0  0  0  0  0  0  0  0  0  0  0
  150.4261  136.3425  153.6625 H   0  0  0  0  0  0  0  0  0  0  0  0
  149.1504  138.5152  157.5371 H   0  0  0  0  0  0  0  0  0  0  0  0
  147.0030  134.0740  162.6475 H   0  0  0  0  0  0  0  0  0  0  0  0
  151.4564  138.8073  154.9319 H   0  0  0  0  0  0  0  0  0  0  0  0
  149.9319  140.1745  157.1898 H   0  0  0  0  0  0  0  0  0  0  0  0
  151.6683  140.0853  157.0432 H   0  0  0  0  0  0  0  0  0  0  0  0
  150.8288  142.2624  156.2567 H   0  0  0  0  0  0  0  0  0  0  0  0
  151.6429  141.3949  154.9770 H   0  0  0  0  0  0  0  0  0  0  0  0
  148.6178  141.5959  155.3756 H   0  0  0  0  0  0  0  0  0  0  0  0
  149.5451  142.3763  154.1151 H   0  0  0  0  0  0  0  0  0  0  0  0
  148.4329  140.3003  153.2776 H   0  0  0  0  0  0  0  0  0  0  0  0
  150.1717  140.1882  153.1502 H   0  0  0  0  0  0  0  0  0  0  0  0
  149.2471  138.1070  154.0377 H   0  0  0  0  0  0  0  0  0  0  0  0
  148.4347  138.9467  155.3340 H   0  0  0  0  0  0  0  0  0  0  0  0
  1  2  1  0  0  0  0
  1 20  1  0  0  0  0
  1 21  1  0  0  0  0
  1 22  1  0  0  0  0
  2  3  1  0  0  0  0
  2  5  1  0  0  0  0
  2 14  1  0  0  0  0
  3  4  1  0  0  0  0
  3 23  1  0  0  0  0
  3 24  1  0  0  0  0
  4 25  1  0  0  0  0
  5  6  1  0  0  0  0
  5 26  1  0  0  0  0
  6  7  2  0  0  0  0
  6  8  1  0  0  0  0
  8  9  1  0  0  0  0
  9 13  1  0  0  0  0
  9 10  2  0  0  0  0
 10 11  1  0  0  0  0
 11 12  2  0  0  0  0
 12 13  1  0  0  0  0
 12 27  1  0  0  0  0
 14 19  1  0  0  0  0
 14 15  1  0  0  0  0
 14 28  1  0  0  0  0
 15 16  1  0  0  0  0
 15 29  1  0  0  0  0
 15 30  1  0  0  0  0
 16 17  1  0  0  0  0
 16 31  1  0  0  0  0
 16 32  1  0  0  0  0
 17 18  1  0  0  0  0
 17 33  1  0  0  0  0
 17 34  1  0  0  0  0
 18 19  1  0  0  0  0
 18 35  1  0  0  0  0
 18 36  1  0  0  0  0
 19 37  1  0  0  0  0
 19 38  1  0  0  0  0
M  CHG  1   8  -1
M  END
> <s_m_source_file>
AV-unprocessed.smi

> <i_m_source_file_index>
2663

> <i_lp_mmshare_version>
43012

> <i_f3d_flags>
0

> <s_epik_input>
W0NIMl0xW0NIMl1bQ0gyXVtDSDJdW0NIMl1bQ0hdMVtDQF0oW0NIM10pKFtDSDJdW09IXSlbTkhdQyg9TylbTkhdYzJubltjSF1zMg==

> <s_epik_cmdline>
J2VwaWtfcHl0aG9uJywgJy1waCcsICc3LjAnLCAnLXRuJywgJzgnLCAnLW1hJywgJzIwMCcsICctbWV0YWxfYmluZGluZycsICctaW1hZScsICc8aW5maWxlLm1hZT4nLCAnLW9tYWUnLCAnPG91dGZpbGUubWFlPic=

> <r_lp_tautomer_probability>
1

> <r_epik_Ionization_Penalty>
4.39194

> <r_epik_Ionization_Penalty_Charging>
4.34423

> <r_epik_Ionization_Penalty_Neutral>
0.047714

> <r_epik_State_Penalty>
4.34384

> <r_epik_Charging_Adjusted_Penalty>
8.68806

> <i_epik_Tot_Q>
-1

> <i_epik_Tot_abs_Q>
1

> <r_epik_Metal_State_Penalty>
0.746645

> <b_epik_Metal_Only>
1

> <s_lp_Force_Field>
OPLS_2005

> <r_lp_Energy>
17.2717

> <b_lp_Chiralities_Consistent>
1

> <s_lp_Variant>
AV-unprocessed.smi:2663-3

> <Gold.Version>
5.8.1

> <Gold.Id.Protein>
6NUR|6NUR_protein|mol2

> <Gold.PLP.Fitness>
39.4329

> <Gold.PLP.PLP>
-28.5289

> <Gold.PLP.part.hbond>
-5.6911

> <Gold.PLP.part.metal>
0.0000

> <Gold.PLP.part.buried>
-0.7485

> <Gold.PLP.part.nonpolar>
-21.0463

> <Gold.PLP.part.repulsive>
0.0428

> <Gold.PLP.ligand.clash>
0.0000

> <Gold.PLP.ligand.torsion>
0.5136

> <Gold.PLP.Chemscore.Hbond>
3.9609

> <Gold.PLP.Chemscore.CHOScore>
0.0000

> <Gold.PLP.Chemscore.Metal>
0.0000

> <Gold.Chemscore.Hbonds>
donor molecule, donor type, donor heavy atom, donor atom, acceptor molecule, acceptor atom, score
      L1  H     4    25       P1  7948  0.16
      P1  H  6896  6907       L1     7  1.00
      P1  H  6931  6943       L1    10  1.00
      P1  H  6934  6947       L1    10  0.73
      P1  H 10752 10765       L1     4  1.00

> <Gold.PLP.Chemscore.Internal.Correction>
0.0486

> <Gold.Rescore>
     Score         DG    S(hbond)    S(metal)    S(lipo)     H(rot)  DE(clash)    DE(int)     intcor
     15.39     -17.49       2.93        0.00      66.70       2.18       1.39       0.71       ----

> <Gold.Chemscore.Fitness>
15.3933

> <Gold.Chemscore.DG>
-17.4875

> <Gold.Chemscore.ZeroCoef>
-5.4800

> <Gold.Chemscore.Hbond>
2.9282

> <Gold.Chemscore.Metal>
0.0000

> <Gold.Chemscore.Lipo>
66.6997

> <Gold.Chemscore.Internal_Hbond>
0.0000

> <Gold.Chemscore.DEClash>
1.3851

> <Gold.Chemscore.DEInternal>
0.7091

> <Gold.Chemscore.Rot>
2.1783

> <Gold.Chemscore.Internal.Correction>
   9.000000E+99

> <Gold.Chemscore.Hbonds>
donor molecule, donor type, donor heavy atom, donor atom, acceptor molecule, acceptor atom, score
      P1  H  6896  6907       L1     7  0.99
      P1  H  6931  6943       L1    10  0.33
      P1  H  6934  6947       L1    10  0.18
      P1  H 10752 10765       L1     4  0.96

> <Gold.Chemscore.Hbond.Weighted>
-9.7801

> <Gold.Chemscore.Metal.Weighted>
-0.0000

> <Gold.Chemscore.Lipo.Weighted>
-7.8039

> <Gold.Chemscore.Internal_Hbond.Weighted>
0.0000

> <Gold.Chemscore.DEClash.Weighted>
1.3851

> <Gold.Chemscore.DEInternal.Weighted>
0.7091

> <Gold.Chemscore.Rot.Weighted>
5.5765

> <Gold.Chemscore.Internal.Correction.Weighted>
   9.000000E+99

> <Gold.Protein.RotatedTorsions>
[ 6907 6896 6895 6894 ] final  -55.77 input  -60.11 | X-H torsion
[ 7974 7965 7964 7962 ] final   85.70 input  175.53 | X-H torsion
[ 8008 7997 7996 7995 ] final -157.28 input   59.86 | X-H torsion
[ 10167 10162 10161 10158 ] final  -86.09 input  -65.29 | X-H torsion
[ 10718 10713 10712 10709 ] final -146.34 input   66.30 | X-H torsion
[ 10763 10752 10751 10750 ] final  162.69 input  -60.55 | X-H torsion
[ 11005 11000 10999 10996 ] final   18.57 input  -57.11 | X-H torsion

> <Gold.Protein.ActiveResidues>
 VAL166  LYS551  ARG553  GLY616  TRP617  ASP618  TYR619  PRO620  LYS621  CYS622 
 ASP623  PHE694  ASN695  SER759  ASP760  ASP761  ALA762  ILE779  LEU786  VAL792 
 PHE793  MET794  SER795  GLU796  ALA797  LYS798  CYS799  TRP800  GLU811  SER814 

> <Gold.Protein.RotatedAtoms>
  150.8224  134.7438  159.6783 H   0  0  0  0  0  0  0  0  0  0  0  0  # atno 6907 bound_to 6896
  152.4338  134.5723  159.9934 H   0  0  0  0  0  0  0  0  0  0  0  0  # atno 6908 bound_to 6896
  151.5904  133.3330  159.3062 H   0  0  0  0  0  0  0  0  0  0  0  0  # atno 6909 bound_to 6896
  145.5821  139.2326  143.2347 H   0  0  0  0  0  0  0  0  0  0  0  0  # atno 7974 bound_to 7965
  155.7300  140.0801  157.2293 H   0  0  0  0  0  0  0  0  0  0  0  0  # atno 8008 bound_to 7997
  154.4034  140.1597  156.2553 H   0  0  0  0  0  0  0  0  0  0  0  0  # atno 8009 bound_to 7997
  155.9117  140.3403  155.6107 H   0  0  0  0  0  0  0  0  0  0  0  0  # atno 8010 bound_to 7997
  140.3975  143.2677  151.9185 H   0  0  0  0  0  0  0  0  0  0  0  0  # atno 10167 bound_to 10162
  156.3937  130.7899  151.2103 H   0  0  0  0  0  0  0  0  0  0  0  0  # atno 10718 bound_to 10713
  154.2823  135.2763  155.2692 H   0  0  0  0  0  0  0  0  0  0  0  0  # atno 10763 bound_to 10752
  154.5207  135.5757  153.6682 H   0  0  0  0  0  0  0  0  0  0  0  0  # atno 10764 bound_to 10752
  152.9927  135.6204  154.2983 H   0  0  0  0  0  0  0  0  0  0  0  0  # atno 10765 bound_to 10752
  140.4233  134.1496  155.7674 H   0  0  0  0  0  0  0  0  0  0  0  0  # atno 11005 bound_to 11000
  146.1709  140.6647  142.9234 LP  0  0  0  0  0  0  0  0  0  0  0  0  # atno 17320 bound_to 7965
  144.7389  140.4887  143.6883 LP  0  0  0  0  0  0  0  0  0  0  0  0  # atno 17321 bound_to 7965
  139.4786  144.5666  151.8154 LP  0  0  0  0  0  0  0  0  0  0  0  0  # atno 17342 bound_to 10162
  140.4775  144.1498  150.5927 LP  0  0  0  0  0  0  0  0  0  0  0  0  # atno 17343 bound_to 10162
  157.7500  131.0308  150.4151 LP  0  0  0  0  0  0  0  0  0  0  0  0  # atno 17370 bound_to 10713
  156.4418  130.3993  149.6692 LP  0  0  0  0  0  0  0  0  0  0  0  0  # atno 17371 bound_to 10713
  141.1775  133.8483  157.1371 LP  0  0  0  0  0  0  0  0  0  0  0  0  # atno 17394 bound_to 11000
  140.0185  134.9957  157.0542 LP  0  0  0  0  0  0  0  0  0  0  0  0  # atno 17395 bound_to 11000

$$$$
