AV-unprocessed.smi:1450|AV-procd|sdf|5898|dock5
  -GOLD-   22720 5583D 1   1.00000     0.00000
 Structure written by MMmdl.
 31 32  0  0  0  0  0  0  0  0  1 V2000
  145.6167  138.3953  153.4123 O   0  0  0  0  0  0  0  0  0  0  0  0
  146.5794  137.7399  153.0148 C   0  0  0  0  0  0  0  0  0  0  0  0
  146.4612  136.5621  152.3858 N   0  0  0  0  0  0  0  0  0  0  0  0
  145.2001  135.8828  152.1070 C   0  0  0  0  0  0  0  0  0  0  0  0
  145.3082  134.9347  150.8970 C   0  0  1  0  0  0  0  0  0  0  0  0
  146.4547  133.9366  150.9925 C   0  0  0  0  0  0  0  0  0  0  0  0
  145.9097  132.6678  150.3261 C   0  0  0  0  0  0  0  0  0  0  0  0
  144.6148  133.0078  149.8478 O   0  0  0  0  0  0  0  0  0  0  0  0
  144.0989  134.0263  150.6868 C   0  0  0  0  0  0  0  0  0  0  0  0
  147.8694  138.0990  153.1313 N   0  0  0  0  0  0  0  0  0  0  0  0
  148.4190  139.2503  153.7586 C   0  0  0  0  0  0  0  0  0  0  0  0
  147.6101  140.4021  153.8446 C   0  0  0  0  0  0  0  0  0  0  0  0
  148.1311  141.5648  154.4432 C   0  0  0  0  0  0  0  0  0  0  0  0
  149.4525  141.5329  154.9285 C   0  0  0  0  0  0  0  0  0  0  0  0
  150.2458  140.4446  154.8424 N   0  0  0  0  0  0  0  0  0  0  0  0
  149.7391  139.3320  154.2682 C   0  0  0  0  0  0  0  0  0  0  0  0
  147.3046  136.0958  152.0853 H   0  0  0  0  0  0  0  0  0  0  0  0
  144.8703  135.3334  152.9902 H   0  0  0  0  0  0  0  0  0  0  0  0
  144.4433  136.6451  151.9193 H   0  0  0  0  0  0  0  0  0  0  0  0
  145.4507  135.5210  149.9876 H   0  0  0  0  0  0  0  0  0  0  0  0
  147.3484  134.3110  150.4920 H   0  0  0  0  0  0  0  0  0  0  0  0
  146.7187  133.7261  152.0299 H   0  0  0  0  0  0  0  0  0  0  0  0
  146.5425  132.3228  149.5082 H   0  0  0  0  0  0  0  0  0  0  0  0
  145.8251  131.8597  151.0539 H   0  0  0  0  0  0  0  0  0  0  0  0
  143.7593  133.5902  151.6278 H   0  0  0  0  0  0  0  0  0  0  0  0
  143.2590  134.5415  150.2199 H   0  0  0  0  0  0  0  0  0  0  0  0
  148.5394  137.4915  152.6830 H   0  0  0  0  0  0  0  0  0  0  0  0
  146.6006  140.3968  153.4601 H   0  0  0  0  0  0  0  0  0  0  0  0
  147.5329  142.4600  154.5274 H   0  0  0  0  0  0  0  0  0  0  0  0
  149.8855  142.4064  155.3930 H   0  0  0  0  0  0  0  0  0  0  0  0
  150.4302  138.5062  154.2071 H   0  0  0  0  0  0  0  0  0  0  0  0
  1  2  2  0  0  0  0
  2  3  1  0  0  0  0
  2 10  1  0  0  0  0
  3  4  1  0  0  0  0
  3 17  1  0  0  0  0
  4  5  1  0  0  0  0
  4 18  1  0  0  0  0
  4 19  1  0  0  0  0
  5  9  1  0  0  0  0
  5  6  1  0  0  0  0
  5 20  1  0  0  0  0
  6  7  1  0  0  0  0
  6 21  1  0  0  0  0
  6 22  1  0  0  0  0
  7  8  1  0  0  0  0
  7 23  1  0  0  0  0
  7 24  1  0  0  0  0
  8  9  1  0  0  0  0
  9 25  1  0  0  0  0
  9 26  1  0  0  0  0
 10 11  1  0  0  0  0
 10 27  1  0  0  0  0
 11 16  1  0  0  0  0
 11 12  2  0  0  0  0
 12 13  1  0  0  0  0
 12 28  1  0  0  0  0
 13 14  2  0  0  0  0
 13 29  1  0  0  0  0
 14 15  1  0  0  0  0
 14 30  1  0  0  0  0
 15 16  2  0  0  0  0
 16 31  1  0  0  0  0
M  END
> <s_m_source_file>
AV-unprocessed.smi

> <i_m_source_file_index>
1450

> <i_lp_mmshare_version>
43012

> <i_f3d_flags>
0

> <s_epik_input>
W2NIXTFuW2NIXVtjSF1bY0hdYzFbTkhdQyg9TylbTkhdW0NIMl1bQ0BASF0yW0NIMl1bQ0gyXU9bQ0gyXTI=

> <s_epik_cmdline>
J2VwaWtfcHl0aG9uJywgJy1waCcsICc3LjAnLCAnLXRuJywgJzgnLCAnLW1hJywgJzIwMCcsICctbWV0YWxfYmluZGluZycsICctaW1hZScsICc8aW5maWxlLm1hZT4nLCAnLW9tYWUnLCAnPG91dGZpbGUubWFlPic=

> <r_epik_Ionization_Penalty>
0.00478342

> <r_epik_Ionization_Penalty_Charging>
0

> <r_epik_Ionization_Penalty_Neutral>
0.00478342

> <r_epik_State_Penalty>
0.0034384

> <r_epik_Charging_Adjusted_Penalty>
0.0034384

> <i_epik_Tot_Q>
0

> <i_epik_Tot_abs_Q>
0

> <r_epik_Metal_State_Penalty>
-0

> <b_epik_Metal_Only>
0

> <s_lp_Force_Field>
OPLS_2005

> <r_lp_Energy>
21.9504

> <b_lp_Chiralities_Consistent>
1

> <s_lp_Variant>
AV-unprocessed.smi:1450-2

> <Gold.Version>
5.8.1

> <Gold.Id.Protein>
6NUR|6NUR_protein|mol2

> <Gold.PLP.Fitness>
37.8627

> <Gold.PLP.PLP>
-26.8335

> <Gold.PLP.part.hbond>
-3.0300

> <Gold.PLP.part.metal>
0.0000

> <Gold.PLP.part.buried>
-2.2671

> <Gold.PLP.part.nonpolar>
-23.3246

> <Gold.PLP.part.repulsive>
1.1760

> <Gold.PLP.ligand.clash>
0.0000

> <Gold.PLP.ligand.torsion>
0.3480

> <Gold.PLP.Chemscore.Hbond>
2.9200

> <Gold.PLP.Chemscore.CHOScore>
0.9875

> <Gold.PLP.Chemscore.Metal>
0.0000

> <Gold.Chemscore.Hbonds>
donor molecule, donor type, donor heavy atom, donor atom, acceptor molecule, acceptor atom, score
      L1  H     3    17       P1  7948  0.94
      L1  H    10    27       P1  7948  1.00
      P1  H  7989  7998       L1    15  0.94
      L1  C    14    30       P1  8028  0.97

> <Gold.PLP.Chemscore.Internal.Correction>
0.0027

> <Gold.Rescore>
     Score         DG    S(hbond)    S(metal)    S(lipo)     H(rot)  DE(clash)    DE(int)     intcor
     15.40     -17.19       2.30        0.00      61.60       1.24       0.13       1.67       ----

> <Gold.Chemscore.Fitness>
15.3952

> <Gold.Chemscore.DG>
-17.1901

> <Gold.Chemscore.ZeroCoef>
-5.4800

> <Gold.Chemscore.Hbond>
2.2979

> <Gold.Chemscore.Metal>
0.0000

> <Gold.Chemscore.Lipo>
61.5960

> <Gold.Chemscore.Internal_Hbond>
0.0000

> <Gold.Chemscore.DEClash>
0.1252

> <Gold.Chemscore.DEInternal>
1.6696

> <Gold.Chemscore.Rot>
1.2390

> <Gold.Chemscore.Internal.Correction>
   9.000000E+99

> <Gold.Chemscore.Hbonds>
donor molecule, donor type, donor heavy atom, donor atom, acceptor molecule, acceptor atom, score
      L1  H     3    17       P1  7948  0.91
      L1  H    10    27       P1  7948  0.93
      P1  H  7989  7998       L1    15  0.11

> <Gold.Chemscore.Hbond.Weighted>
-7.6752

> <Gold.Chemscore.Metal.Weighted>
-0.0000

> <Gold.Chemscore.Lipo.Weighted>
-7.2067

> <Gold.Chemscore.Internal_Hbond.Weighted>
0.0000

> <Gold.Chemscore.DEClash.Weighted>
0.1252

> <Gold.Chemscore.DEInternal.Weighted>
1.6696

> <Gold.Chemscore.Rot.Weighted>
3.1718

> <Gold.Chemscore.Internal.Correction.Weighted>
   9.000000E+99

> <Gold.Protein.RotatedTorsions>
[ 6907 6896 6895 6894 ] final -127.96 input  -60.11 | X-H torsion
[ 7974 7965 7964 7962 ] final -158.68 input  175.53 | X-H torsion
[ 8008 7997 7996 7995 ] final -169.45 input   59.86 | X-H torsion
[ 10167 10162 10161 10158 ] final -117.26 input  -65.29 | X-H torsion
[ 10718 10713 10712 10709 ] final  101.24 input   66.30 | X-H torsion
[ 10763 10752 10751 10750 ] final   37.40 input  -60.55 | X-H torsion
[ 11005 11000 10999 10996 ] final  -60.33 input  -57.11 | X-H torsion

> <Gold.Protein.ActiveResidues>
 VAL166  LYS551  ARG553  GLY616  TRP617  ASP618  TYR619  PRO620  LYS621  CYS622 
 ASP623  PHE694  ASN695  SER759  ASP760  ASP761  ALA762  ILE779  LEU786  VAL792 
 PHE793  MET794  SER795  GLU796  ALA797  LYS798  CYS799  TRP800  GLU811  SER814 

> <Gold.Protein.RotatedAtoms>
  150.9128  133.6977  159.2850 H   0  0  0  0  0  0  0  0  0  0  0  0  # atno 6907 bound_to 6896
  151.4458  135.1023  159.9693 H   0  0  0  0  0  0  0  0  0  0  0  0  # atno 6908 bound_to 6896
  152.4939  133.8525  159.7264 H   0  0  0  0  0  0  0  0  0  0  0  0  # atno 6909 bound_to 6896
  144.7495  140.3793  143.6058 H   0  0  0  0  0  0  0  0  0  0  0  0  # atno 7974 bound_to 7965
  155.9051  140.1047  157.1321 H   0  0  0  0  0  0  0  0  0  0  0  0  # atno 8008 bound_to 7997
  154.4031  140.1285  156.4550 H   0  0  0  0  0  0  0  0  0  0  0  0  # atno 8009 bound_to 7997
  155.7377  140.3467  155.5091 H   0  0  0  0  0  0  0  0  0  0  0  0  # atno 8010 bound_to 7997
  140.0703  143.4883  152.1983 H   0  0  0  0  0  0  0  0  0  0  0  0  # atno 10167 bound_to 10162
  157.6834  131.0721  150.5223 H   0  0  0  0  0  0  0  0  0  0  0  0  # atno 10718 bound_to 10713
  153.0039  135.6279  154.2139 H   0  0  0  0  0  0  0  0  0  0  0  0  # atno 10763 bound_to 10752
  154.1882  135.2810  155.3032 H   0  0  0  0  0  0  0  0  0  0  0  0  # atno 10764 bound_to 10752
  154.5781  135.5656  153.7218 H   0  0  0  0  0  0  0  0  0  0  0  0  # atno 10765 bound_to 10752
  141.1283  133.6621  156.5206 H   0  0  0  0  0  0  0  0  0  0  0  0  # atno 11005 bound_to 11000
  145.6995  139.1658  143.2601 LP  0  0  0  0  0  0  0  0  0  0  0  0  # atno 17320 bound_to 7965
  146.1426  140.7037  142.9360 LP  0  0  0  0  0  0  0  0  0  0  0  0  # atno 17321 bound_to 7965
  139.5840  144.7523  151.3567 LP  0  0  0  0  0  0  0  0  0  0  0  0  # atno 17342 bound_to 10162
  140.7129  143.7344  150.7600 LP  0  0  0  0  0  0  0  0  0  0  0  0  # atno 17343 bound_to 10162
  156.5536  130.4238  149.6096 LP  0  0  0  0  0  0  0  0  0  0  0  0  # atno 17370 bound_to 10713
  156.2881  130.7109  151.1951 LP  0  0  0  0  0  0  0  0  0  0  0  0  # atno 17371 bound_to 10713
  140.4295  134.7115  157.4934 LP  0  0  0  0  0  0  0  0  0  0  0  0  # atno 17394 bound_to 11000
  140.0304  134.6415  155.9115 LP  0  0  0  0  0  0  0  0  0  0  0  0  # atno 17395 bound_to 11000

$$$$
