#       Name:                AV-unprocessed.smi:2886
#       Creating user name   scv26
#       Creation time:       Fri Mar 27 15:56:17 2020


#       File generated by GOLD software.
#

@<TRIPOS>MOLECULE
AV-unprocessed.smi:2886
    33    35     1
SMALL
NO_CHARGES


@<TRIPOS>ATOM
      1 ****        -4.2018  -3.5240  -0.7993 O.2            1 S1                 0.0000
      2 ****        -3.6318  -2.4359  -0.7458 C.2            1 S1                 0.0000
      3 ****        -4.2612  -1.2904  -1.0987 N.am           1 S1                 0.0000
      4 ****        -3.7309  -0.0237  -1.0719 N.2            1 S1                 0.0000
      5 ****        -2.5108   0.1228  -0.6821 C.2            1 S1                 0.0000
      6 ****        -1.6695  -0.9983  -0.2757 C.2            1 S1                 0.0000
      7 ****        -0.3549  -0.8401   0.1450 N.pl3          1 S1                 0.0000
      8 ****         0.4251   0.3835   0.2678 C.3            1 S1                 0.0000
      9 ****         0.6200   0.8105   1.7249 C.3            1 S1                 0.0000
     10 ****         2.1488   0.8838   1.8278 C.3            1 S1                 0.0000
     11 ****         2.7326   2.0464   1.0128 C.3            1 S1                 0.0000
     12 ****         2.5728   1.5363  -0.4193 C.3            1 S1                 0.0000
     13 ****         1.8773   0.1864  -0.1977 C.3            1 S1                 0.0000
     14 ****         2.5061  -0.2156   1.0087 O.3            1 S1                 0.0000
     15 ****        -2.2433  -2.2333  -0.3094 C.2            1 S1                 0.0000
     16 ****        -1.3410  -3.6346   0.1622 Cl             1 S1                 0.0000
     17 ****        -5.2198  -1.3316  -1.4134 H              1 S1                 0.0000
     18 ****        -2.0533   1.1102  -0.6350 H              1 S1                 0.0000
     19 ****         0.1808  -1.6876   0.2705 H              1 S1                 0.0000
     20 ****        -0.0316   1.1789  -0.3204 H              1 S1                 0.0000
     21 ****         0.1403   1.7633   1.9510 H              1 S1                 0.0000
     22 ****         0.2300   0.0628   2.4175 H              1 S1                 0.0000
     23 ****         2.5264   0.8246   2.8490 H              1 S1                 0.0000
     24 ****         2.2034   2.9830   1.1913 H              1 S1                 0.0000
     25 ****         3.7864   2.1981   1.2490 H              1 S1                 0.0000
     26 ****         1.9893   2.2095  -1.0480 H              1 S1                 0.0000
     27 ****         3.5490   1.3955  -0.8851 H              1 S1                 0.0000
     28 ****         1.9973  -0.5090  -1.0293 H              1 S1                 0.0000
     29 ****        -3.7158  -4.3566  -0.5336 LP             1 S1                 0.0000
     30 ****        -5.1513  -3.5764  -1.1085 LP             1 S1                 0.0000
     31 ****        -4.2782   0.7662  -1.3482 LP             1 S1                 0.0000
     32 ****         2.1346  -1.0768   1.3554 LP             1 S1                 0.0000
     33 ****         3.4973  -0.2981   0.9046 LP             1 S1                 0.0000
@<TRIPOS>BOND
    1    1    2 2     
    2    2   15 1     
    3    2    3 am    
    4    3   17 1     
    5    3    4 1     
    6    4    5 2     
    7    5    6 1     
    8    5   18 1     
    9    6    7 1     
   10    6   15 2     
   11    7    8 1     
   12    7   19 1     
   13    8   13 1     
   14    8    9 1     
   15    8   20 1     
   16    9   10 1     
   17    9   21 1     
   18    9   22 1     
   19   10   14 1     
   20   10   11 1     
   21   10   23 1     
   22   11   12 1     
   23   11   24 1     
   24   11   25 1     
   25   12   13 1     
   26   12   26 1     
   27   12   27 1     
   28   13   14 1     
   29   13   28 1     
   30   15   16 1     
   31    1   29 1     
   32    1   30 1     
   33    4   31 1     
   34   14   32 1     
   35   14   33 1     
@<TRIPOS>SUBSTRUCTURE
      1 S1             1
@<TRIPOS>SET
LONE_PAIRS      STATIC     ATOMS    <user>   **** ""
5 29 30 31 32 33
DONOR_HYDROGENS      STATIC     ATOMS    <user>   **** ""
2 17 19
ATOM$BLUE        STATIC     ATOMS    COLORGROUP SYSTEM
5 29 30 31 32 33
ATOM$RED        STATIC     ATOMS    COLORGROUP SYSTEM
2 17 19
