#       Name:                AV-unprocessed.smi:232
#       Creating user name   scv26
#       Creation time:       Thu Mar 26 20:32:23 2020


#       File generated by GOLD software.
#

@<TRIPOS>MOLECULE
AV-unprocessed.smi:232
    60    63     1
SMALL
NO_CHARGES


@<TRIPOS>ATOM
      1 ****        -3.4841  -2.1201  -3.1911 C.3            1 S1                 0.0000
      2 ****        -2.8674  -1.3383  -2.0241 C.3            1 S1                 0.0000
      3 ****        -2.7286   0.1726  -2.3120 C.3            1 S1                 0.0000
      4 ****        -4.0847   0.8952  -2.4374 C.3            1 S1                 0.0000
      5 ****        -3.9971   2.1046  -1.5001 C.3            1 S1                 0.0000
      6 ****        -2.5049   2.2573  -1.2041 C.3            1 S1                 0.0000
      7 ****        -1.8131   3.1858  -2.2237 C.3            1 S1                 0.0000
      8 ****        -2.0119   0.8853  -1.2536 N.3            1 S1                 0.0000
      9 ****        -0.6807   0.6954  -1.0495 C.ar           1 S1                 0.0000
     10 ****         0.0672   0.0601  -1.9912 N.ar           1 S1                 0.0000
     11 ****         1.3790  -0.1152  -1.8097 C.ar           1 S1                 0.0000
     12 ****         2.1357   0.2606  -0.7777 N.ar           1 S1                 0.0000
     13 ****         1.3921   0.8955   0.1726 C.ar           1 S1                 0.0000
     14 ****        -0.0072   1.1525   0.1187 C.ar           1 S1                 0.0000
     15 ****        -0.4098   1.8086   1.2764 N.2            1 S1                 0.0000
     16 ****         0.6860   1.9295   1.9747 C.2            1 S1                 0.0000
     17 ****         1.8140   1.4046   1.3881 N.pl3          1 S1                 0.0000
     18 ****         3.1527   1.3861   1.9482 C.3            1 S1                 0.0000
     19 ****         3.3677   0.2391   2.9581 C.3            1 S1                 0.0000
     20 ****         4.6960   0.3415   3.4303 O.3            1 S1                 0.0000
     21 ****         3.1447  -1.1740   2.3743 C.3            1 S1                 0.0000
     22 ****         3.4945  -2.3228   3.3229 C.3            1 S1                 0.0000
     23 ****         2.6607  -3.4845   2.8047 C.3            1 S1                 0.0000
     24 ****         1.6162  -2.8171   1.9068 C.3            1 S1                 0.0000
     25 ****         1.7659  -1.4265   2.1478 O.3            1 S1                 0.0000
     26 ****        -3.5376  -3.1838  -2.9583 H              1 S1                 0.0000
     27 ****        -2.8865  -2.0080  -4.0963 H              1 S1                 0.0000
     28 ****        -4.4958  -1.7804  -3.4128 H              1 S1                 0.0000
     29 ****        -3.4662  -1.4885  -1.1249 H              1 S1                 0.0000
     30 ****        -1.8914  -1.7721  -1.8079 H              1 S1                 0.0000
     31 ****        -2.1822   0.3080  -3.2468 H              1 S1                 0.0000
     32 ****        -4.2409   1.2149  -3.4683 H              1 S1                 0.0000
     33 ****        -4.9285   0.2622  -2.1611 H              1 S1                 0.0000
     34 ****        -4.4494   3.0034  -1.9205 H              1 S1                 0.0000
     35 ****        -4.5248   1.8765  -0.5729 H              1 S1                 0.0000
     36 ****        -2.3851   2.6726  -0.2039 H              1 S1                 0.0000
     37 ****        -2.2508   4.1838  -2.1974 H              1 S1                 0.0000
     38 ****        -1.9074   2.8107  -3.2432 H              1 S1                 0.0000
     39 ****        -0.7502   3.2949  -2.0064 H              1 S1                 0.0000
     40 ****         1.8959  -0.6299  -2.6061 H              1 S1                 0.0000
     41 ****         0.7007   2.4007   2.9468 H              1 S1                 0.0000
     42 ****         3.8698   1.3117   1.1295 H              1 S1                 0.0000
     43 ****         3.3308   2.3493   2.4286 H              1 S1                 0.0000
     44 ****         2.7059   0.3817   3.8135 H              1 S1                 0.0000
     45 ****         5.2835   0.2142   2.7013 H              1 S1                 0.0000
     46 ****         3.6910  -1.2893   1.4358 H              1 S1                 0.0000
     47 ****         4.5619  -2.5447   3.3422 H              1 S1                 0.0000
     48 ****         3.1842  -2.0767   4.3395 H              1 S1                 0.0000
     49 ****         3.2666  -4.1865   2.2310 H              1 S1                 0.0000
     50 ****         2.1984  -4.0316   3.6271 H              1 S1                 0.0000
     51 ****         1.8232  -3.0225   0.8554 H              1 S1                 0.0000
     52 ****         0.6002  -3.1458   2.1260 H              1 S1                 0.0000
     53 ****        -2.2472   0.3963  -0.4137 LP             1 S1                 0.0000
     54 ****        -0.3680  -0.2783  -2.8255 LP             1 S1                 0.0000
     55 ****         3.1201   0.0979  -0.7097 LP             1 S1                 0.0000
     56 ****        -1.3295   2.1175   1.5188 LP             1 S1                 0.0000
     57 ****         4.8625  -0.3591   4.1242 LP             1 S1                 0.0000
     58 ****         4.8437   1.2468   3.8286 LP             1 S1                 0.0000
     59 ****         1.4505  -0.9072   1.3536 LP             1 S1                 0.0000
     60 ****         1.2344  -1.1610   2.9521 LP             1 S1                 0.0000
@<TRIPOS>BOND
    1    1    2 1     
    2    1   26 1     
    3    1   27 1     
    4    1   28 1     
    5    2    3 1     
    6    2   29 1     
    7    2   30 1     
    8    3    8 1     
    9    3    4 1     
   10    3   31 1     
   11    4    5 1     
   12    4   32 1     
   13    4   33 1     
   14    5    6 1     
   15    5   34 1     
   16    5   35 1     
   17    6    7 1     
   18    6    8 1     
   19    6   36 1     
   20    7   37 1     
   21    7   38 1     
   22    7   39 1     
   23    8    9 1     
   24    9   14 ar    
   25    9   10 ar    
   26   10   11 ar    
   27   11   12 ar    
   28   11   40 1     
   29   12   13 ar    
   30   13   17 1     
   31   13   14 ar    
   32   14   15 1     
   33   15   16 2     
   34   16   17 1     
   35   16   41 1     
   36   17   18 1     
   37   18   19 1     
   38   18   42 1     
   39   18   43 1     
   40   19   20 1     
   41   19   21 1     
   42   19   44 1     
   43   20   45 1     
   44   21   25 1     
   45   21   22 1     
   46   21   46 1     
   47   22   23 1     
   48   22   47 1     
   49   22   48 1     
   50   23   24 1     
   51   23   49 1     
   52   23   50 1     
   53   24   25 1     
   54   24   51 1     
   55   24   52 1     
   56    8   53 1     
   57   10   54 1     
   58   12   55 1     
   59   15   56 1     
   60   20   57 1     
   61   20   58 1     
   62   25   59 1     
   63   25   60 1     
@<TRIPOS>SUBSTRUCTURE
      1 S1             1
@<TRIPOS>SET
LONE_PAIRS      STATIC     ATOMS    <user>   **** ""
8 53 54 55 56 57 58 59 60
DONOR_HYDROGENS      STATIC     ATOMS    <user>   **** ""
1 45
ATOM$BLUE        STATIC     ATOMS    COLORGROUP SYSTEM
8 53 54 55 56 57 58 59 60
ATOM$RED        STATIC     ATOMS    COLORGROUP SYSTEM
1 45
