#       Name:                AV-unprocessed.smi:3042
#       Creating user name   scv26
#       Creation time:       Fri Mar 27 16:58:10 2020


#       File generated by GOLD software.
#

@<TRIPOS>MOLECULE
AV-unprocessed.smi:3042
    37    38     1
SMALL
NO_CHARGES


@<TRIPOS>ATOM
      1 ****        -2.5652   1.9395  -0.4171 N.3            1 S1                 0.0000
      2 ****        -2.0814   0.5492  -0.4397 C.3            1 S1                 0.0000
      3 ****        -0.5364   0.4391  -0.3863 C.3            1 S1                 0.0000
      4 ****        -0.0305   1.1737   0.8546 C.ar           1 S1                 0.0000
      5 ****         0.7207   2.3618   0.7321 C.ar           1 S1                 0.0000
      6 ****         1.1660   3.0099   1.9002 C.ar           1 S1                 0.0000
      7 ****         0.8390   2.4424   3.1478 C.ar           1 S1                 0.0000
      8 ****         0.1203   1.3072   3.2804 N.ar           1 S1                 0.0000
      9 ****        -0.3030   0.6922   2.1549 C.ar           1 S1                 0.0000
     10 ****        -0.0225  -0.9455  -0.4414 N.3            1 S1                 0.0000
     11 ****         1.4445  -0.9855  -0.4419 C.3            1 S1                 0.0000
     12 ****         1.9961  -2.4200  -0.5040 C.3            1 S1                 0.0000
     13 ****         1.4881  -3.0751  -1.6590 O.3            1 S1                 0.0000
     14 ****         0.0671  -3.1166  -1.6733 C.3            1 S1                 0.0000
     15 ****        -0.4957  -1.6857  -1.6143 C.3            1 S1                 0.0000
     16 ****        -2.1942   2.4587  -1.2114 H              1 S1                 0.0000
     17 ****        -3.5811   1.9641  -0.4923 H              1 S1                 0.0000
     18 ****        -2.5184  -0.0024   0.3932 H              1 S1                 0.0000
     19 ****        -2.4628   0.0822  -1.3462 H              1 S1                 0.0000
     20 ****        -0.1495   0.9730  -1.2560 H              1 S1                 0.0000
     21 ****         0.9539   2.7715  -0.2398 H              1 S1                 0.0000
     22 ****         1.7435   3.9206   1.8416 H              1 S1                 0.0000
     23 ****         1.1632   2.9139   4.0638 H              1 S1                 0.0000
     24 ****        -0.8751  -0.2129   2.2967 H              1 S1                 0.0000
     25 ****         1.8280  -0.4168  -1.2905 H              1 S1                 0.0000
     26 ****         1.8428  -0.5107   0.4545 H              1 S1                 0.0000
     27 ****         3.0848  -2.4051  -0.5546 H              1 S1                 0.0000
     28 ****         1.7240  -2.9792   0.3926 H              1 S1                 0.0000
     29 ****        -0.2648  -3.6167  -2.5832 H              1 S1                 0.0000
     30 ****        -0.2957  -3.7090  -0.8318 H              1 S1                 0.0000
     31 ****        -1.5812  -1.7659  -1.6058 H              1 S1                 0.0000
     32 ****        -0.2230  -1.1507  -2.5251 H              1 S1                 0.0000
     33 ****        -2.2634   2.3469   0.4449 LP             1 S1                 0.0000
     34 ****        -0.0919   0.9335   4.1834 LP             1 S1                 0.0000
     35 ****        -0.3784  -1.3831   0.3844 LP             1 S1                 0.0000
     36 ****         1.8375  -4.0119  -1.6774 LP             1 S1                 0.0000
     37 ****         1.8039  -2.5855  -2.4717 LP             1 S1                 0.0000
@<TRIPOS>BOND
    1    1    2 1     
    2    1   16 1     
    3    1   17 1     
    4    2    3 1     
    5    2   18 1     
    6    2   19 1     
    7    3    4 1     
    8    3   10 1     
    9    3   20 1     
   10    4    9 ar    
   11    4    5 ar    
   12    5    6 ar    
   13    5   21 1     
   14    6    7 ar    
   15    6   22 1     
   16    7    8 ar    
   17    7   23 1     
   18    8    9 ar    
   19    9   24 1     
   20   10   15 1     
   21   10   11 1     
   22   11   12 1     
   23   11   25 1     
   24   11   26 1     
   25   12   13 1     
   26   12   27 1     
   27   12   28 1     
   28   13   14 1     
   29   14   15 1     
   30   14   29 1     
   31   14   30 1     
   32   15   31 1     
   33   15   32 1     
   34    1   33 1     
   35    8   34 1     
   36   10   35 1     
   37   13   36 1     
   38   13   37 1     
@<TRIPOS>SUBSTRUCTURE
      1 S1             1
@<TRIPOS>SET
LONE_PAIRS      STATIC     ATOMS    <user>   **** ""
5 33 34 35 36 37
DONOR_HYDROGENS      STATIC     ATOMS    <user>   **** ""
2 16 17
ATOM$BLUE        STATIC     ATOMS    COLORGROUP SYSTEM
5 33 34 35 36 37
ATOM$RED        STATIC     ATOMS    COLORGROUP SYSTEM
2 16 17
