AV-unprocessed.smi:373|AV-procd|sdf|2450|dock6
  -GOLD-   2262022393D 1   1.00000     0.00000
 Structure written by MMmdl.
 40 41  0  0  0  0  0  0  0  0  1 V2000
  150.8358  141.9246  158.6240 C   0  0  0  0  0  0  0  0  0  0  0  0
  150.4962  140.9051  157.5301 C   0  0  0  0  0  0  0  0  0  0  0  0
  151.3160  141.1048  156.2491 C   0  0  0  0  0  0  0  0  0  0  0  0
  150.7985  140.2626  155.2287 O   0  0  0  0  0  0  0  0  0  0  0  0
  149.3853  140.3088  155.0838 C   0  0  1  0  0  0  0  0  0  0  0  0
  149.0161  141.7255  154.6111 C   0  0  0  0  0  0  0  0  0  0  0  0
  147.5071  141.8256  154.3391 C   0  0  0  0  0  0  0  0  0  0  0  0
  147.0557  140.7407  153.3480 C   0  0  0  0  0  0  0  0  0  0  0  0
  147.4584  139.4155  153.8127 N   0  0  0  0  0  0  0  0  0  0  0  0
  146.8259  138.3700  153.1153 C   0  0  0  0  0  0  0  0  0  0  0  0
  146.5673  138.5568  151.7982 N   0  0  0  0  0  0  0  0  0  0  0  0
  145.9379  137.5787  151.1138 C   0  0  0  0  0  0  0  0  0  0  0  0
  145.5209  136.3624  151.6988 C   0  0  0  0  0  0  0  0  0  0  0  0
  144.8433  135.2897  150.8962 C   0  0  0  0  0  0  0  0  0  0  0  0
  144.3330  135.6654  149.7194 N   0  0  0  0  0  0  0  0  0  0  0  0
  144.7217  134.1466  151.3324 O   0  0  0  0  0  0  0  0  0  0  0  0
  145.8064  136.1630  153.0660 C   0  0  0  0  0  0  0  0  0  0  0  0
  146.4625  137.1778  153.7898 C   0  0  0  0  0  0  0  0  0  0  0  0
  146.8240  136.9270  155.4627 Cl  0  0  0  0  0  0  0  0  0  0  0  0
  148.8913  139.2609  154.0633 C   0  0  0  0  0  0  0  0  0  0  0  0
  150.2433  141.7421  159.5208 H   0  0  0  0  0  0  0  0  0  0  0  0
  150.6309  142.9430  158.2929 H   0  0  0  0  0  0  0  0  0  0  0  0
  151.8883  141.8678  158.9029 H   0  0  0  0  0  0  0  0  0  0  0  0
  150.6757  139.9009  157.9151 H   0  0  0  0  0  0  0  0  0  0  0  0
  149.4323  140.9577  157.2961 H   0  0  0  0  0  0  0  0  0  0  0  0
  151.2864  142.1518  155.9468 H   0  0  0  0  0  0  0  0  0  0  0  0
  152.3588  140.8505  156.4440 H   0  0  0  0  0  0  0  0  0  0  0  0
  148.9088  140.1353  156.0506 H   0  0  0  0  0  0  0  0  0  0  0  0
  149.3120  142.4615  155.3594 H   0  0  0  0  0  0  0  0  0  0  0  0
  149.5673  141.9661  153.7008 H   0  0  0  0  0  0  0  0  0  0  0  0
  146.9582  141.7148  155.2753 H   0  0  0  0  0  0  0  0  0  0  0  0
  147.2606  142.8135  153.9493 H   0  0  0  0  0  0  0  0  0  0  0  0
  145.9747  140.7911  153.2146 H   0  0  0  0  0  0  0  0  0  0  0  0
  147.5018  140.9217  152.3692 H   0  0  0  0  0  0  0  0  0  0  0  0
  145.7679  137.7825  150.0664 H   0  0  0  0  0  0  0  0  0  0  0  0
  143.8693  134.9901  149.1292 H   0  0  0  0  0  0  0  0  0  0  0  0
  144.4189  136.6266  149.4218 H   0  0  0  0  0  0  0  0  0  0  0  0
  145.5261  135.2446  153.5615 H   0  0  0  0  0  0  0  0  0  0  0  0
  149.4383  139.3732  153.1259 H   0  0  0  0  0  0  0  0  0  0  0  0
  149.0820  138.2521  154.4299 H   0  0  0  0  0  0  0  0  0  0  0  0
  1  2  1  0  0  0  0
  1 21  1  0  0  0  0
  1 22  1  0  0  0  0
  1 23  1  0  0  0  0
  2  3  1  0  0  0  0
  2 24  1  0  0  0  0
  2 25  1  0  0  0  0
  3  4  1  0  0  0  0
  3 26  1  0  0  0  0
  3 27  1  0  0  0  0
  4  5  1  0  0  0  0
  5 20  1  0  0  0  0
  5  6  1  0  0  0  0
  5 28  1  0  0  0  0
  6  7  1  0  0  0  0
  6 29  1  0  0  0  0
  6 30  1  0  0  0  0
  7  8  1  0  0  0  0
  7 31  1  0  0  0  0
  7 32  1  0  0  0  0
  8  9  1  0  0  0  0
  8 33  1  0  0  0  0
  8 34  1  0  0  0  0
  9 10  1  0  0  0  0
  9 20  1  0  0  0  0
 10 18  1  0  0  0  0
 10 11  2  0  0  0  0
 11 12  1  0  0  0  0
 12 13  2  0  0  0  0
 12 35  1  0  0  0  0
 13 14  1  0  0  0  0
 13 17  1  0  0  0  0
 14 15  1  0  0  0  0
 14 16  2  0  0  0  0
 15 36  1  0  0  0  0
 15 37  1  0  0  0  0
 17 18  2  0  0  0  0
 17 38  1  0  0  0  0
 18 19  1  0  0  0  0
 20 39  1  0  0  0  0
 20 40  1  0  0  0  0
M  END
> <s_m_source_file>
AV-unprocessed.smi

> <i_m_source_file_index>
373

> <i_lp_mmshare_version>
43012

> <i_f3d_flags>
0

> <s_epik_input>
W0NIM11bQ0gyXVtDSDJdT1tDQEBIXTFbQ0gyXVtDSDJdW0NIMl1OKFtDSDJdMSljMm5bY0hdYyhDKD1PKVtOSDJdKVtjSF1jMkNs

> <s_epik_cmdline>
J2VwaWtfcHl0aG9uJywgJy1waCcsICc3LjAnLCAnLXRuJywgJzgnLCAnLW1hJywgJzIwMCcsICctbWV0YWxfYmluZGluZycsICctaW1hZScsICc8aW5maWxlLm1hZT4nLCAnLW9tYWUnLCAnPG91dGZpbGUubWFlPic=

> <r_lp_tautomer_probability>
1

> <r_epik_Ionization_Penalty>
3.23666e-05

> <r_epik_Ionization_Penalty_Charging>
0

> <r_epik_Ionization_Penalty_Neutral>
3.23666e-05

> <r_epik_State_Penalty>
-0

> <r_epik_Charging_Adjusted_Penalty>
0

> <i_epik_Tot_Q>
0

> <i_epik_Tot_abs_Q>
0

> <r_epik_Metal_State_Penalty>
-0

> <b_epik_Metal_Only>
0

> <s_lp_Force_Field>
OPLS_2005

> <r_lp_Energy>
19.6268

> <b_lp_Chiralities_Consistent>
1

> <s_lp_Variant>
AV-unprocessed.smi:373-2

> <Gold.Version>
5.8.1

> <Gold.Id.Protein>
6NUR|6NUR_protein|mol2

> <Gold.PLP.Fitness>
37.3399

> <Gold.PLP.PLP>
-30.7570

> <Gold.PLP.part.hbond>
-3.0000

> <Gold.PLP.part.metal>
0.0000

> <Gold.PLP.part.buried>
0.9218

> <Gold.PLP.part.nonpolar>
-29.7616

> <Gold.PLP.part.repulsive>
0.8087

> <Gold.PLP.ligand.clash>
0.0000

> <Gold.PLP.ligand.torsion>
0.7819

> <Gold.PLP.Chemscore.Hbond>
1.9600

> <Gold.PLP.Chemscore.CHOScore>
0.6614

> <Gold.PLP.Chemscore.Metal>
0.0000

> <Gold.Chemscore.Hbonds>
donor molecule, donor type, donor heavy atom, donor atom, acceptor molecule, acceptor atom, score
      L1  H    15    37       P1 10171  0.92
      P1  H  7989  7998       L1     4  1.00
      L1  C    12    35       P1 10171  0.62

> <Gold.PLP.Chemscore.Internal.Correction>
0.2823

> <Gold.Rescore>
     Score         DG    S(hbond)    S(metal)    S(lipo)     H(rot)  DE(clash)    DE(int)     intcor
     12.35     -14.75       1.57        0.00      68.86       1.57       1.76       0.64       ----

> <Gold.Chemscore.Fitness>
12.3549

> <Gold.Chemscore.DG>
-14.7485

> <Gold.Chemscore.ZeroCoef>
-5.4800

> <Gold.Chemscore.Hbond>
1.5652

> <Gold.Chemscore.Metal>
0.0000

> <Gold.Chemscore.Lipo>
68.8599

> <Gold.Chemscore.Internal_Hbond>
0.0000

> <Gold.Chemscore.DEClash>
1.7562

> <Gold.Chemscore.DEInternal>
0.6374

> <Gold.Chemscore.Rot>
1.5687

> <Gold.Chemscore.Internal.Correction>
   9.000000E+99

> <Gold.Chemscore.Hbonds>
donor molecule, donor type, donor heavy atom, donor atom, acceptor molecule, acceptor atom, score
      L1  H    15    37       P1 10171  0.83
      P1  H  7989  7998       L1     4  0.34

> <Gold.Chemscore.Hbond.Weighted>
-5.2276

> <Gold.Chemscore.Metal.Weighted>
-0.0000

> <Gold.Chemscore.Lipo.Weighted>
-8.0566

> <Gold.Chemscore.Internal_Hbond.Weighted>
0.0000

> <Gold.Chemscore.DEClash.Weighted>
1.7562

> <Gold.Chemscore.DEInternal.Weighted>
0.6374

> <Gold.Chemscore.Rot.Weighted>
4.0158

> <Gold.Chemscore.Internal.Correction.Weighted>
   9.000000E+99

> <Gold.Protein.RotatedTorsions>
[ 6907 6896 6895 6894 ] final  143.35 input  -60.11 | X-H torsion
[ 7974 7965 7964 7962 ] final -129.61 input  175.53 | X-H torsion
[ 8008 7997 7996 7995 ] final   80.32 input   59.86 | X-H torsion
[ 10167 10162 10161 10158 ] final  -56.09 input  -65.29 | X-H torsion
[ 10718 10713 10712 10709 ] final   47.15 input   66.30 | X-H torsion
[ 10763 10752 10751 10750 ] final -138.93 input  -60.55 | X-H torsion
[ 11005 11000 10999 10996 ] final   97.81 input  -57.11 | X-H torsion

> <Gold.Protein.ActiveResidues>
 VAL166  LYS551  ARG553  GLY616  TRP617  ASP618  TYR619  PRO620  LYS621  CYS622 
 ASP623  PHE694  ASN695  SER759  ASP760  ASP761  ALA762  ILE779  LEU786  VAL792 
 PHE793  MET794  SER795  GLU796  ALA797  LYS798  CYS799  TRP800  GLU811  SER814 

> <Gold.Protein.RotatedAtoms>
  152.2074  133.4886  159.5091 H   0  0  0  0  0  0  0  0  0  0  0  0  # atno 6907 bound_to 6896
  150.6982  134.1511  159.4150 H   0  0  0  0  0  0  0  0  0  0  0  0  # atno 6908 bound_to 6896
  151.9430  135.0204  160.0588 H   0  0  0  0  0  0  0  0  0  0  0  0  # atno 6909 bound_to 6896
  144.9555  140.7391  143.4761 H   0  0  0  0  0  0  0  0  0  0  0  0  # atno 7974 bound_to 7965
  155.8819  140.3443  155.5894 H   0  0  0  0  0  0  0  0  0  0  0  0  # atno 8008 bound_to 7997
  155.7710  140.0845  157.2127 H   0  0  0  0  0  0  0  0  0  0  0  0  # atno 8009 bound_to 7997
  154.4025  140.1518  156.2929 H   0  0  0  0  0  0  0  0  0  0  0  0  # atno 8010 bound_to 7997
  140.6337  143.2471  151.5174 H   0  0  0  0  0  0  0  0  0  0  0  0  # atno 10167 bound_to 10162
  157.4555  130.8164  149.7832 H   0  0  0  0  0  0  0  0  0  0  0  0  # atno 10718 bound_to 10713
  154.8623  135.3597  154.5465 H   0  0  0  0  0  0  0  0  0  0  0  0  # atno 10763 bound_to 10752
  153.6085  135.7010  153.5361 H   0  0  0  0  0  0  0  0  0  0  0  0  # atno 10764 bound_to 10752
  153.3230  135.4146  155.1393 H   0  0  0  0  0  0  0  0  0  0  0  0  # atno 10765 bound_to 10752
  139.8774  134.9019  156.4362 H   0  0  0  0  0  0  0  0  0  0  0  0  # atno 11005 bound_to 11000
  145.2779  139.1929  143.4807 LP  0  0  0  0  0  0  0  0  0  0  0  0  # atno 17320 bound_to 7965
  146.3336  140.2736  142.8607 LP  0  0  0  0  0  0  0  0  0  0  0  0  # atno 17321 bound_to 7965
  139.5549  144.2301  152.1594 LP  0  0  0  0  0  0  0  0  0  0  0  0  # atno 17342 bound_to 10162
  140.1552  144.5077  150.6664 LP  0  0  0  0  0  0  0  0  0  0  0  0  # atno 17343 bound_to 10162
  156.0005  130.3883  150.2624 LP  0  0  0  0  0  0  0  0  0  0  0  0  # atno 17370 bound_to 10713
  157.0798  131.0140  151.3160 LP  0  0  0  0  0  0  0  0  0  0  0  0  # atno 17371 bound_to 10713
  140.9032  133.7765  155.9704 LP  0  0  0  0  0  0  0  0  0  0  0  0  # atno 17394 bound_to 11000
  140.8628  134.2820  157.5226 LP  0  0  0  0  0  0  0  0  0  0  0  0  # atno 17395 bound_to 11000

$$$$
