AV-unprocessed.smi:862|AV-procd|sdf|3980|dock4
  -GOLD-   22720 1453D 1   1.00000     0.00000
 Structure written by MMmdl.
 45 47  0  0  0  0  0  0  0  0  3 V2000
  148.5572  131.1269  157.5488 N   0  0  0  0  0  0  0  0  0  0  0  0
  149.3059  132.0547  156.9444 C   0  0  0  0  0  0  0  0  0  0  0  0
  149.9652  132.8610  157.5982 O   0  0  0  0  0  0  0  0  0  0  0  0
  149.3122  132.0006  155.5885 N   0  0  0  0  0  0  0  0  0  0  0  0
  148.4036  131.2034  154.7480 C   0  0  0  0  0  0  0  0  0  0  0  0
  147.3616  132.1446  154.1155 C   0  0  0  0  0  0  0  0  0  0  0  0
  148.0396  133.2687  153.3035 C   0  0  0  0  0  0  0  0  0  0  0  0
  147.0184  134.2287  152.8264 N   0  3  0  0  0  0  0  0  0  0  0  0
  145.8482  133.6457  152.1284 C   0  0  2  0  0  0  0  0  0  0  0  0
  146.2195  132.5674  151.1060 C   0  0  0  0  0  0  0  0  0  0  0  0
  145.0333  132.5104  150.1364 C   0  0  0  0  0  0  0  0  0  0  0  0
  144.3225  133.8691  150.2359 C   0  0  0  0  0  0  0  0  0  0  0  0
  145.1135  134.6870  151.2710 C   0  0  1  0  0  0  0  0  0  0  0  0
  144.2847  135.6274  152.0435 N   0  0  0  0  0  0  0  0  0  0  0  0
  143.2090  135.3119  152.8350 C   0  0  0  0  0  0  0  0  0  0  0  0
  142.7456  136.4911  153.3589 C   0  0  0  0  0  0  0  0  0  0  0  0
  143.5543  137.4786  152.8655 N   0  3  0  0  0  0  0  0  0  0  0  0
  144.4878  136.9533  152.0655 C   0  0  0  0  0  0  0  0  0  0  0  0
  149.1239  133.9738  154.1500 C   0  0  0  0  0  0  0  0  0  0  0  0
  150.0860  132.9510  154.7808 C   0  0  0  0  0  0  0  0  0  0  0  0
  148.5153  131.0996  158.5574 H   0  0  0  0  0  0  0  0  0  0  0  0
  148.0471  130.4509  156.9998 H   0  0  0  0  0  0  0  0  0  0  0  0
  148.9815  130.7068  153.9674 H   0  0  0  0  0  0  0  0  0  0  0  0
  147.8960  130.4024  155.2851 H   0  0  0  0  0  0  0  0  0  0  0  0
  146.6904  131.5733  153.4731 H   0  0  0  0  0  0  0  0  0  0  0  0
  146.7428  132.5755  154.9045 H   0  0  0  0  0  0  0  0  0  0  0  0
  148.5197  132.8011  152.4423 H   0  0  0  0  0  0  0  0  0  0  0  0
  146.6607  134.7000  153.6448 H   0  0  0  0  0  0  0  0  0  0  0  0
  145.1582  133.2221  152.8601 H   0  0  0  0  0  0  0  0  0  0  0  0
  147.1169  132.8615  150.5590 H   0  0  0  0  0  0  0  0  0  0  0  0
  146.4143  131.5993  151.5686 H   0  0  0  0  0  0  0  0  0  0  0  0
  145.3608  132.2949  149.1187 H   0  0  0  0  0  0  0  0  0  0  0  0
  144.3469  131.7154  150.4310 H   0  0  0  0  0  0  0  0  0  0  0  0
  144.2929  134.3802  149.2730 H   0  0  0  0  0  0  0  0  0  0  0  0
  143.2887  133.7112  150.5444 H   0  0  0  0  0  0  0  0  0  0  0  0
  145.8557  135.2779  150.7304 H   0  0  0  0  0  0  0  0  0  0  0  0
  142.8618  134.2972  152.9685 H   0  0  0  0  0  0  0  0  0  0  0  0
  141.9237  136.6962  154.0297 H   0  0  0  0  0  0  0  0  0  0  0  0
  145.2573  137.4968  151.5460 H   0  0  0  0  0  0  0  0  0  0  0  0
  149.6941  134.6760  153.5435 H   0  0  0  0  0  0  0  0  0  0  0  0
  148.6545  134.5608  154.9410 H   0  0  0  0  0  0  0  0  0  0  0  0
  150.8524  133.4664  155.3615 H   0  0  0  0  0  0  0  0  0  0  0  0
  150.6236  132.4096  154.0011 H   0  0  0  0  0  0  0  0  0  0  0  0
  147.4618  134.9174  152.2350 H   0  0  0  0  0  0  0  0  0  0  0  0
  143.4638  138.4644  153.0785 H   0  0  0  0  0  0  0  0  0  0  0  0
  1  2  1  0  0  0  0
  1 21  1  0  0  0  0
  1 22  1  0  0  0  0
  2  3  2  0  0  0  0
  2  4  1  0  0  0  0
  4 20  1  0  0  0  0
  4  5  1  0  0  0  0
  5  6  1  0  0  0  0
  5 23  1  0  0  0  0
  5 24  1  0  0  0  0
  6  7  1  0  0  0  0
  6 25  1  0  0  0  0
  6 26  1  0  0  0  0
  7  8  1  0  0  0  0
  7 19  1  0  0  0  0
  7 27  1  0  0  0  0
  8  9  1  0  0  0  0
  8 28  1  0  0  0  0
  8 44  1  0  0  0  0
  9 13  1  0  0  0  0
  9 10  1  0  0  0  0
  9 29  1  0  0  0  0
 10 11  1  0  0  0  0
 10 30  1  0  0  0  0
 10 31  1  0  0  0  0
 11 12  1  0  0  0  0
 11 32  1  0  0  0  0
 11 33  1  0  0  0  0
 12 13  1  0  0  0  0
 12 34  1  0  0  0  0
 12 35  1  0  0  0  0
 13 14  1  0  0  0  0
 13 36  1  0  0  0  0
 14 18  1  0  0  0  0
 14 15  1  0  0  0  0
 15 16  2  0  0  0  0
 15 37  1  0  0  0  0
 16 17  1  0  0  0  0
 16 38  1  0  0  0  0
 17 18  2  0  0  0  0
 17 45  1  0  0  0  0
 18 39  1  0  0  0  0
 19 20  1  0  0  0  0
 19 40  1  0  0  0  0
 19 41  1  0  0  0  0
 20 42  1  0  0  0  0
 20 43  1  0  0  0  0
M  CHG  1   8   1
M  CHG  1  17   1
M  END
> <s_m_source_file>
AV-unprocessed.smi

> <i_m_source_file_index>
862

> <i_lp_mmshare_version>
43012

> <i_f3d_flags>
0

> <s_epik_input>
W05IMl1DKD1PKU4xW0NIMl1bQ0gyXVtDSF0oW0NIMl1bQ0gyXTEpW05IXVtDQEBIXTJbQ0gyXVtDSDJdW0NIMl1bQ0BIXTJuM1tjSF1bY0hdbltjSF0z

> <s_epik_cmdline>
J2VwaWtfcHl0aG9uJywgJy1waCcsICc3LjAnLCAnLXRuJywgJzgnLCAnLW1hJywgJzIwMCcsICctbWV0YWxfYmluZGluZycsICctaW1hZScsICc8aW5maWxlLm1hZT4nLCAnLW9tYWUnLCAnPG91dGZpbGUubWFlPic=

> <r_lp_tautomer_probability>
1

> <r_epik_Ionization_Penalty>
1.30217

> <r_epik_Ionization_Penalty_Charging>
0.00439521

> <r_epik_Ionization_Penalty_Neutral>
1.29777

> <r_epik_State_Penalty>
0.977606

> <r_epik_Charging_Adjusted_Penalty>
0.982001

> <i_epik_Tot_Q>
2

> <i_epik_Tot_abs_Q>
2

> <r_epik_Metal_State_Penalty>
1.03289

> <b_epik_Metal_Only>
0

> <s_lp_Force_Field>
OPLS_2005

> <r_lp_Energy>
65.3299

> <b_lp_Chiralities_Consistent>
1

> <s_lp_Variant>
AV-unprocessed.smi:862-5

> <Gold.Version>
5.8.1

> <Gold.Id.Protein>
6NUR|6NUR_protein|mol2

> <Gold.PLP.Fitness>
47.7317

> <Gold.PLP.PLP>
-32.4100

> <Gold.PLP.part.hbond>
-4.0000

> <Gold.PLP.part.metal>
0.0000

> <Gold.PLP.part.buried>
-1.4604

> <Gold.PLP.part.nonpolar>
-26.8092

> <Gold.PLP.part.repulsive>
0.0419

> <Gold.PLP.ligand.clash>
0.0000

> <Gold.PLP.ligand.torsion>
0.2102

> <Gold.PLP.Chemscore.Hbond>
5.0000

> <Gold.PLP.Chemscore.CHOScore>
0.2299

> <Gold.PLP.Chemscore.Metal>
0.0000

> <Gold.Chemscore.Hbonds>
donor molecule, donor type, donor heavy atom, donor atom, acceptor molecule, acceptor atom, score
      L1  H     8    44       P1  7948  2.00
      L1  H    17    45       P1 10175  1.74
      P1  H  6896  6907       L1     3  0.93
      L1  C    18    39       P1 10171  0.39

> <Gold.PLP.Chemscore.Internal.Correction>
0.0524

> <Gold.Rescore>
     Score         DG    S(hbond)    S(metal)    S(lipo)     H(rot)  DE(clash)    DE(int)     intcor
     17.01     -17.38       2.65        0.00      62.96       1.68       0.24       0.13       ----

> <Gold.Chemscore.Fitness>
17.0110

> <Gold.Chemscore.DG>
-17.3774

> <Gold.Chemscore.ZeroCoef>
-5.4800

> <Gold.Chemscore.Hbond>
2.6455

> <Gold.Chemscore.Metal>
0.0000

> <Gold.Chemscore.Lipo>
62.9560

> <Gold.Chemscore.Internal_Hbond>
0.0000

> <Gold.Chemscore.DEClash>
0.2395

> <Gold.Chemscore.DEInternal>
0.1269

> <Gold.Chemscore.Rot>
1.6814

> <Gold.Chemscore.Internal.Correction>
   9.000000E+99

> <Gold.Chemscore.Hbonds>
donor molecule, donor type, donor heavy atom, donor atom, acceptor molecule, acceptor atom, score
      L1  H     8    44       P1  7948  0.88
      L1  H    17    45       P1 10175  0.81
      P1  H  6896  6907       L1     3  0.88

> <Gold.Chemscore.Hbond.Weighted>
-8.8359

> <Gold.Chemscore.Metal.Weighted>
-0.0000

> <Gold.Chemscore.Lipo.Weighted>
-7.3659

> <Gold.Chemscore.Internal_Hbond.Weighted>
0.0000

> <Gold.Chemscore.DEClash.Weighted>
0.2395

> <Gold.Chemscore.DEInternal.Weighted>
0.1269

> <Gold.Chemscore.Rot.Weighted>
4.3043

> <Gold.Chemscore.Internal.Correction.Weighted>
   9.000000E+99

> <Gold.Protein.RotatedTorsions>
[ 6907 6896 6895 6894 ] final -145.30 input  -60.11 | X-H torsion
[ 7974 7965 7964 7962 ] final   77.57 input  175.53 | X-H torsion
[ 8008 7997 7996 7995 ] final   73.53 input   59.86 | X-H torsion
[ 10167 10162 10161 10158 ] final  -51.76 input  -65.29 | X-H torsion
[ 10718 10713 10712 10709 ] final   28.29 input   66.30 | X-H torsion
[ 10763 10752 10751 10750 ] final   -2.57 input  -60.55 | X-H torsion
[ 11005 11000 10999 10996 ] final  119.13 input  -57.11 | X-H torsion

> <Gold.Protein.ActiveResidues>
 VAL166  LYS551  ARG553  GLY616  TRP617  ASP618  TYR619  PRO620  LYS621  CYS622 
 ASP623  PHE694  ASN695  SER759  ASP760  ASP761  ALA762  ILE779  LEU786  VAL792 
 PHE793  MET794  SER795  GLU796  ALA797  LYS798  CYS799  TRP800  GLU811  SER814 

> <Gold.Protein.RotatedAtoms>
  151.1258  133.5071  159.2600 H   0  0  0  0  0  0  0  0  0  0  0  0  # atno 6907 bound_to 6896
  151.1811  135.0361  159.8803 H   0  0  0  0  0  0  0  0  0  0  0  0  # atno 6908 bound_to 6896
  152.5458  134.1110  159.8412 H   0  0  0  0  0  0  0  0  0  0  0  0  # atno 6909 bound_to 6896
  145.6884  139.2545  143.1774 H   0  0  0  0  0  0  0  0  0  0  0  0  # atno 7974 bound_to 7965
  155.7850  140.3481  155.5318 H   0  0  0  0  0  0  0  0  0  0  0  0  # atno 8008 bound_to 7997
  155.8691  140.0983  157.1583 H   0  0  0  0  0  0  0  0  0  0  0  0  # atno 8009 bound_to 7997
  154.4016  140.1344  156.4043 H   0  0  0  0  0  0  0  0  0  0  0  0  # atno 8010 bound_to 7997
  140.6572  143.2608  151.4550 H   0  0  0  0  0  0  0  0  0  0  0  0  # atno 10167 bound_to 10162
  157.2315  130.7026  149.6316 H   0  0  0  0  0  0  0  0  0  0  0  0  # atno 10718 bound_to 10713
  153.3598  135.6990  153.6721 H   0  0  0  0  0  0  0  0  0  0  0  0  # atno 10763 bound_to 10752
  153.5414  135.3572  155.2720 H   0  0  0  0  0  0  0  0  0  0  0  0  # atno 10764 bound_to 10752
  154.8666  135.4204  154.2853 H   0  0  0  0  0  0  0  0  0  0  0  0  # atno 10765 bound_to 10752
  139.9135  134.9626  156.7609 H   0  0  0  0  0  0  0  0  0  0  0  0  # atno 11005 bound_to 11000
  146.0903  140.7663  142.9598 LP  0  0  0  0  0  0  0  0  0  0  0  0  # atno 17320 bound_to 7965
  144.7004  140.3627  143.7160 LP  0  0  0  0  0  0  0  0  0  0  0  0  # atno 17321 bound_to 7965
  139.5797  144.1738  152.1951 LP  0  0  0  0  0  0  0  0  0  0  0  0  # atno 17342 bound_to 10162
  140.1059  144.5499  150.6957 LP  0  0  0  0  0  0  0  0  0  0  0  0  # atno 17343 bound_to 10162
  155.9675  130.4487  150.5630 LP  0  0  0  0  0  0  0  0  0  0  0  0  # atno 17370 bound_to 10713
  157.3473  131.0727  151.1741 LP  0  0  0  0  0  0  0  0  0  0  0  0  # atno 17371 bound_to 10713
  140.6698  133.9570  155.7850 LP  0  0  0  0  0  0  0  0  0  0  0  0  # atno 17394 bound_to 11000
  141.0585  134.0380  157.3690 LP  0  0  0  0  0  0  0  0  0  0  0  0  # atno 17395 bound_to 11000

$$$$
