AV-unprocessed.smi:2138|AV-procd|sdf|8711|dock5
  -GOLD-   2272011473D 1   1.00000     0.00000
 Structure written by MMmdl.
 46 47  0  0  0  0  0  0  0  0  1 V2000
  152.8083  142.8377  159.8561 C   0  0  0  0  0  0  0  0  0  0  0  0
  151.5583  142.9724  159.2030 O   0  0  0  0  0  0  0  0  0  0  0  0
  151.6382  142.6921  157.8156 C   0  0  0  0  0  0  0  0  0  0  0  0
  151.3910  141.1977  157.5926 C   0  0  0  0  0  0  0  0  0  0  0  0
  151.3758  140.9410  156.1916 O   0  0  0  0  0  0  0  0  0  0  0  0
  151.1801  139.6444  155.7613 C   0  0  0  0  0  0  0  0  0  0  0  0
  150.5386  138.7365  156.6266 C   0  0  0  0  0  0  0  0  0  0  0  0
  150.3295  137.4126  156.1942 C   0  0  0  0  0  0  0  0  0  0  0  0
  150.7778  137.0343  154.9051 C   0  0  0  0  0  0  0  0  0  0  0  0
  150.6189  135.7414  154.3340 N   0  0  0  0  0  0  0  0  0  0  0  0
  149.8936  134.6949  154.7708 C   0  0  0  0  0  0  0  0  0  0  0  0
  149.2310  134.6816  155.8079 O   0  0  0  0  0  0  0  0  0  0  0  0
  149.9363  133.4406  153.8825 C   0  0  1  0  0  0  0  0  0  0  0  0
  149.9529  132.1485  154.7209 C   0  0  0  0  0  0  0  0  0  0  0  0
  148.6106  131.4991  154.4274 C   0  0  0  0  0  0  0  0  0  0  0  0
  148.2339  130.4781  155.0007 O   0  0  0  0  0  0  0  0  0  0  0  0
  147.9325  132.1859  153.4963 N   0  0  0  0  0  0  0  0  0  0  0  0
  146.6030  131.8926  152.9460 C   0  0  0  0  0  0  0  0  0  0  0  0
  146.5145  130.4497  152.4190 C   0  0  0  0  0  0  0  0  0  0  0  0
  146.1926  132.9245  151.8811 C   0  0  0  0  0  0  0  0  0  0  0  0
  148.6889  133.3172  152.9821 C   0  0  0  0  0  0  0  0  0  0  0  0
  151.4039  138.0214  154.1158 C   0  0  0  0  0  0  0  0  0  0  0  0
  151.6061  139.2918  154.5236 N   0  0  0  0  0  0  0  0  0  0  0  0
  152.6930  143.0598  160.9170 H   0  0  0  0  0  0  0  0  0  0  0  0
  153.5446  143.5297  159.4454 H   0  0  0  0  0  0  0  0  0  0  0  0
  153.1939  141.8213  159.7650 H   0  0  0  0  0  0  0  0  0  0  0  0
  150.8974  143.2786  157.2701 H   0  0  0  0  0  0  0  0  0  0  0  0
  152.6233  142.9674  157.4357 H   0  0  0  0  0  0  0  0  0  0  0  0
  152.1819  140.6200  158.0739 H   0  0  0  0  0  0  0  0  0  0  0  0
  150.4393  140.9115  158.0439 H   0  0  0  0  0  0  0  0  0  0  0  0
  150.2064  139.0518  157.6048 H   0  0  0  0  0  0  0  0  0  0  0  0
  149.8227  136.7297  156.8566 H   0  0  0  0  0  0  0  0  0  0  0  0
  151.1517  135.5791  153.4917 H   0  0  0  0  0  0  0  0  0  0  0  0
  150.8292  133.4782  153.2559 H   0  0  0  0  0  0  0  0  0  0  0  0
  150.7554  131.4832  154.4011 H   0  0  0  0  0  0  0  0  0  0  0  0
  150.0662  132.3205  155.7926 H   0  0  0  0  0  0  0  0  0  0  0  0
  145.8862  131.9770  153.7643 H   0  0  0  0  0  0  0  0  0  0  0  0
  145.4969  130.2119  152.1086 H   0  0  0  0  0  0  0  0  0  0  0  0
  146.7993  129.7326  153.1899 H   0  0  0  0  0  0  0  0  0  0  0  0
  147.1639  130.2895  151.5581 H   0  0  0  0  0  0  0  0  0  0  0  0
  145.1651  132.7597  151.5558 H   0  0  0  0  0  0  0  0  0  0  0  0
  146.8272  132.8702  150.9964 H   0  0  0  0  0  0  0  0  0  0  0  0
  146.2529  133.9396  152.2749 H   0  0  0  0  0  0  0  0  0  0  0  0
  148.0744  134.2196  152.9813 H   0  0  0  0  0  0  0  0  0  0  0  0
  148.9769  133.1166  151.9494 H   0  0  0  0  0  0  0  0  0  0  0  0
  151.7562  137.7861  153.1221 H   0  0  0  0  0  0  0  0  0  0  0  0
  1  2  1  0  0  0  0
  1 24  1  0  0  0  0
  1 25  1  0  0  0  0
  1 26  1  0  0  0  0
  2  3  1  0  0  0  0
  3  4  1  0  0  0  0
  3 27  1  0  0  0  0
  3 28  1  0  0  0  0
  4  5  1  0  0  0  0
  4 29  1  0  0  0  0
  4 30  1  0  0  0  0
  5  6  1  0  0  0  0
  6 23  1  0  0  0  0
  6  7  2  0  0  0  0
  7  8  1  0  0  0  0
  7 31  1  0  0  0  0
  8  9  2  0  0  0  0
  8 32  1  0  0  0  0
  9 10  1  0  0  0  0
  9 22  1  0  0  0  0
 10 11  1  0  0  0  0
 10 33  1  0  0  0  0
 11 12  2  0  0  0  0
 11 13  1  0  0  0  0
 13 21  1  0  0  0  0
 13 14  1  0  0  0  0
 13 34  1  0  0  0  0
 14 15  1  0  0  0  0
 14 35  1  0  0  0  0
 14 36  1  0  0  0  0
 15 16  2  0  0  0  0
 15 17  1  0  0  0  0
 17 18  1  0  0  0  0
 17 21  1  0  0  0  0
 18 19  1  0  0  0  0
 18 20  1  0  0  0  0
 18 37  1  0  0  0  0
 19 38  1  0  0  0  0
 19 39  1  0  0  0  0
 19 40  1  0  0  0  0
 20 41  1  0  0  0  0
 20 42  1  0  0  0  0
 20 43  1  0  0  0  0
 21 44  1  0  0  0  0
 21 45  1  0  0  0  0
 22 23  2  0  0  0  0
 22 46  1  0  0  0  0
M  END
> <s_m_source_file>
AV-unprocessed.smi

> <i_m_source_file_index>
2138

> <i_lp_mmshare_version>
43012

> <i_f3d_flags>
0

> <s_epik_input>
W0NIM11PW0NIMl1bQ0gyXU9jMVtjSF1bY0hdYyhbY0hdbjEpW05IXUMoPU8pW0NAQEhdMltDSDJdQyg9TylOKFtDSDJdMilbQ0hdKFtDSDNdKVtDSDNd

> <s_epik_cmdline>
J2VwaWtfcHl0aG9uJywgJy1waCcsICc3LjAnLCAnLXRuJywgJzgnLCAnLW1hJywgJzIwMCcsICctbWV0YWxfYmluZGluZycsICctaW1hZScsICc8aW5maWxlLm1hZT4nLCAnLW9tYWUnLCAnPG91dGZpbGUubWFlPic=

> <r_lp_tautomer_probability>
1

> <r_epik_Ionization_Penalty>
1.72652e-05

> <r_epik_Ionization_Penalty_Charging>
0

> <r_epik_Ionization_Penalty_Neutral>
1.72652e-05

> <r_epik_State_Penalty>
-0

> <r_epik_Charging_Adjusted_Penalty>
0

> <i_epik_Tot_Q>
0

> <i_epik_Tot_abs_Q>
0

> <r_epik_Metal_State_Penalty>
-0

> <b_epik_Metal_Only>
0

> <s_lp_Force_Field>
OPLS_2005

> <r_lp_Energy>
21.5992

> <b_lp_Chiralities_Consistent>
1

> <s_lp_Variant>
AV-unprocessed.smi:2138-2

> <Gold.Version>
5.8.1

> <Gold.Id.Protein>
6NUR|6NUR_protein|mol2

> <Gold.PLP.Fitness>
43.4492

> <Gold.PLP.PLP>
-37.5396

> <Gold.PLP.part.hbond>
-3.0000

> <Gold.PLP.part.metal>
0.0000

> <Gold.PLP.part.buried>
-4.7950

> <Gold.PLP.part.nonpolar>
-29.0911

> <Gold.PLP.part.repulsive>
0.2589

> <Gold.PLP.ligand.clash>
0.0000

> <Gold.PLP.ligand.torsion>
1.1769

> <Gold.PLP.Chemscore.Hbond>
1.7254

> <Gold.PLP.Chemscore.CHOScore>
0.9982

> <Gold.PLP.Chemscore.Metal>
0.0000

> <Gold.Chemscore.Hbonds>
donor molecule, donor type, donor heavy atom, donor atom, acceptor molecule, acceptor atom, score
      L1  H    10    33       P1  7949  0.85
      P1  H  7989  7998       L1    23  1.00
      L1  C    22    46       P1  7949  1.00

> <Gold.PLP.Chemscore.Internal.Correction>
0.0926

> <Gold.Rescore>
     Score         DG    S(hbond)    S(metal)    S(lipo)     H(rot)  DE(clash)    DE(int)     intcor
     10.92     -13.41       1.01        0.00      82.71       2.00       0.12       2.37       ----

> <Gold.Chemscore.Fitness>
10.9201

> <Gold.Chemscore.DG>
-13.4117

> <Gold.Chemscore.ZeroCoef>
-5.4800

> <Gold.Chemscore.Hbond>
1.0132

> <Gold.Chemscore.Metal>
0.0000

> <Gold.Chemscore.Lipo>
82.7062

> <Gold.Chemscore.Internal_Hbond>
0.0000

> <Gold.Chemscore.DEClash>
0.1167

> <Gold.Chemscore.DEInternal>
2.3750

> <Gold.Chemscore.Rot>
2.0035

> <Gold.Chemscore.Internal.Correction>
   9.000000E+99

> <Gold.Chemscore.Hbonds>
donor molecule, donor type, donor heavy atom, donor atom, acceptor molecule, acceptor atom, score
      L1  H    10    33       P1  7949  0.20
      P1  H  7989  7998       L1    23  0.59

> <Gold.Chemscore.Hbond.Weighted>
-3.3841

> <Gold.Chemscore.Metal.Weighted>
-0.0000

> <Gold.Chemscore.Lipo.Weighted>
-9.6766

> <Gold.Chemscore.Internal_Hbond.Weighted>
0.0000

> <Gold.Chemscore.DEClash.Weighted>
0.1167

> <Gold.Chemscore.DEInternal.Weighted>
2.3750

> <Gold.Chemscore.Rot.Weighted>
5.1290

> <Gold.Chemscore.Internal.Correction.Weighted>
   9.000000E+99

> <Gold.Protein.RotatedTorsions>
[ 6907 6896 6895 6894 ] final  -58.34 input  -60.11 | X-H torsion
[ 7974 7965 7964 7962 ] final  137.13 input  175.53 | X-H torsion
[ 8008 7997 7996 7995 ] final  -48.83 input   59.86 | X-H torsion
[ 10167 10162 10161 10158 ] final  140.38 input  -65.29 | X-H torsion
[ 10718 10713 10712 10709 ] final  157.40 input   66.30 | X-H torsion
[ 10763 10752 10751 10750 ] final -124.03 input  -60.55 | X-H torsion
[ 11005 11000 10999 10996 ] final  -94.48 input  -57.11 | X-H torsion

> <Gold.Protein.ActiveResidues>
 VAL166  LYS551  ARG553  GLY616  TRP617  ASP618  TYR619  PRO620  LYS621  CYS622 
 ASP623  PHE694  ASN695  SER759  ASP760  ASP761  ALA762  ILE779  LEU786  VAL792 
 PHE793  MET794  SER795  GLU796  ALA797  LYS798  CYS799  TRP800  GLU811  SER814 

> <Gold.Protein.RotatedAtoms>
  150.8015  134.7111  159.6604 H   0  0  0  0  0  0  0  0  0  0  0  0  # atno 6907 bound_to 6896
  152.4132  134.6084  160.0029 H   0  0  0  0  0  0  0  0  0  0  0  0  # atno 6908 bound_to 6896
  151.6321  133.3294  159.3147 H   0  0  0  0  0  0  0  0  0  0  0  0  # atno 6909 bound_to 6896
  144.9498  139.4832  143.5531 H   0  0  0  0  0  0  0  0  0  0  0  0  # atno 7974 bound_to 7965
  154.4034  140.1312  156.4403 H   0  0  0  0  0  0  0  0  0  0  0  0  # atno 8008 bound_to 7997
  155.7465  140.3489  155.5109 H   0  0  0  0  0  0  0  0  0  0  0  0  # atno 8009 bound_to 7997
  155.8990  140.1016  157.1354 H   0  0  0  0  0  0  0  0  0  0  0  0  # atno 8010 bound_to 7997
  139.5050  144.6237  151.5988 H   0  0  0  0  0  0  0  0  0  0  0  0  # atno 10167 bound_to 10162
  157.1920  131.0657  151.2074 H   0  0  0  0  0  0  0  0  0  0  0  0  # atno 10718 bound_to 10713
  154.8717  135.4078  154.3039 H   0  0  0  0  0  0  0  0  0  0  0  0  # atno 10763 bound_to 10752
  153.3894  135.7014  153.6511 H   0  0  0  0  0  0  0  0  0  0  0  0  # atno 10764 bound_to 10752
  153.5300  135.3669  155.2643 H   0  0  0  0  0  0  0  0  0  0  0  0  # atno 10765 bound_to 10752
  141.1469  133.7959  157.0303 H   0  0  0  0  0  0  0  0  0  0  0  0  # atno 11005 bound_to 11000
  146.3317  139.8575  142.8862 LP  0  0  0  0  0  0  0  0  0  0  0  0  # atno 17320 bound_to 7965
  145.2862  141.0153  143.3689 LP  0  0  0  0  0  0  0  0  0  0  0  0  # atno 17321 bound_to 7965
  140.5948  143.9716  150.6347 LP  0  0  0  0  0  0  0  0  0  0  0  0  # atno 17342 bound_to 10162
  140.2908  143.3325  152.1064 LP  0  0  0  0  0  0  0  0  0  0  0  0  # atno 17343 bound_to 10162
  157.3851  130.7252  149.6657 LP  0  0  0  0  0  0  0  0  0  0  0  0  # atno 17370 bound_to 10713
  155.9710  130.4162  150.4218 LP  0  0  0  0  0  0  0  0  0  0  0  0  # atno 17371 bound_to 10713
  140.0758  134.9676  157.1543 LP  0  0  0  0  0  0  0  0  0  0  0  0  # atno 17394 bound_to 11000
  140.3646  134.2457  155.7183 LP  0  0  0  0  0  0  0  0  0  0  0  0  # atno 17395 bound_to 11000

$$$$
