AV-unprocessed.smi:62|AV-procd|sdf|606|dock2
  -GOLD-   2262016503D 1   1.00000     0.00000
 Structure written by MMmdl.
 30 31  0  0  0  0  0  0  0  0  2 V2000
  151.6846  142.4133  159.2421 C   0  0  0  0  0  0  0  0  0  0  0  0
  151.3951  141.8315  157.9492 N   0  0  0  0  0  0  0  0  0  0  0  0
  150.4163  142.1809  157.0476 C   0  0  0  0  0  0  0  0  0  0  0  0
  150.5268  141.3561  155.9627 C   0  0  0  0  0  0  0  0  0  0  0  0
  149.6591  141.3989  154.7269 C   0  0  0  0  0  0  0  0  0  0  0  0
  148.4876  140.5347  154.8339 N   0  0  0  0  0  0  0  0  0  0  0  0
  148.7933  139.1139  154.8231 C   0  0  0  0  0  0  0  0  0  0  0  0
  147.4935  138.3918  154.4415 C   0  0  0  0  0  0  0  0  0  0  0  0
  146.6075  139.5022  153.8532 C   0  0  2  0  0  0  0  0  0  0  0  0
  146.0468  139.1527  152.6050 O   0  0  0  0  0  0  0  0  0  0  0  0
  147.5544  140.6980  153.7396 C   0  0  0  0  0  0  0  0  0  0  0  0
  151.6338  140.5087  156.3107 C   0  0  0  0  0  0  0  0  0  0  0  0
  152.1331  139.4125  155.4062 C   0  0  0  0  0  0  0  0  0  0  0  0
  153.1506  138.7548  155.7161 O   0  0  0  0  0  0  0  0  0  0  0  0
  151.5016  139.1975  154.3478 O   0  5  0  0  0  0  0  0  0  0  0  0
  152.1439  140.8081  157.4989 N   0  0  0  0  0  0  0  0  0  0  0  0
  150.9194  143.1451  159.5028 H   0  0  0  0  0  0  0  0  0  0  0  0
  152.6554  142.9087  159.2130 H   0  0  0  0  0  0  0  0  0  0  0  0
  151.7023  141.6331  160.0039 H   0  0  0  0  0  0  0  0  0  0  0  0
  149.7260  142.9871  157.2461 H   0  0  0  0  0  0  0  0  0  0  0  0
  149.3338  142.4206  154.5302 H   0  0  0  0  0  0  0  0  0  0  0  0
  150.2371  141.1153  153.8461 H   0  0  0  0  0  0  0  0  0  0  0  0
  149.5527  138.9020  154.0688 H   0  0  0  0  0  0  0  0  0  0  0  0
  149.1825  138.7819  155.7861 H   0  0  0  0  0  0  0  0  0  0  0  0
  147.6937  137.5909  153.7286 H   0  0  0  0  0  0  0  0  0  0  0  0
  147.0179  137.9483  155.3169 H   0  0  0  0  0  0  0  0  0  0  0  0
  145.8045  139.7375  154.5531 H   0  0  0  0  0  0  0  0  0  0  0  0
  145.2115  139.5864  152.5207 H   0  0  0  0  0  0  0  0  0  0  0  0
  147.0292  141.6520  153.7966 H   0  0  0  0  0  0  0  0  0  0  0  0
  148.0889  140.6646  152.7883 H   0  0  0  0  0  0  0  0  0  0  0  0
  1  2  1  0  0  0  0
  1 17  1  0  0  0  0
  1 18  1  0  0  0  0
  1 19  1  0  0  0  0
  2 16  1  0  0  0  0
  2  3  1  0  0  0  0
  3  4  2  0  0  0  0
  3 20  1  0  0  0  0
  4  5  1  0  0  0  0
  4 12  1  0  0  0  0
  5  6  1  0  0  0  0
  5 21  1  0  0  0  0
  5 22  1  0  0  0  0
  6 11  1  0  0  0  0
  6  7  1  0  0  0  0
  7  8  1  0  0  0  0
  7 23  1  0  0  0  0
  7 24  1  0  0  0  0
  8  9  1  0  0  0  0
  8 25  1  0  0  0  0
  8 26  1  0  0  0  0
  9 10  1  0  0  0  0
  9 11  1  0  0  0  0
  9 27  1  0  0  0  0
 10 28  1  0  0  0  0
 11 29  1  0  0  0  0
 11 30  1  0  0  0  0
 12 13  1  0  0  0  0
 12 16  2  0  0  0  0
 13 14  2  0  0  0  0
 13 15  1  0  0  0  0
M  CHG  1  15  -1
M  END
> <s_m_source_file>
AV-unprocessed.smi

> <i_m_source_file_index>
62

> <i_lp_mmshare_version>
43012

> <i_f3d_flags>
0

> <s_epik_input>
W0NIM11uMVtjSF1jKGMobjEpQyg9TylbT0hdKVtDSDJdTjJbQ0gyXVtDSDJdW0NAQEhdKFtPSF0pW0NIMl0y

> <s_epik_cmdline>
J2VwaWtfcHl0aG9uJywgJy1waCcsICc3LjAnLCAnLXRuJywgJzgnLCAnLW1hJywgJzIwMCcsICctbWV0YWxfYmluZGluZycsICctaW1hZScsICc8aW5maWxlLm1hZT4nLCAnLW9tYWUnLCAnPG91dGZpbGUubWFlPic=

> <r_epik_Ionization_Penalty>
1.46526

> <r_epik_Ionization_Penalty_Charging>
0.000523675

> <r_epik_Ionization_Penalty_Neutral>
1.46474

> <r_epik_State_Penalty>
1.55202

> <r_epik_Charging_Adjusted_Penalty>
1.55254

> <i_epik_Tot_Q>
-1

> <i_epik_Tot_abs_Q>
1

> <r_epik_Metal_State_Penalty>
1.552

> <b_epik_Metal_Only>
0

> <s_lp_Force_Field>
OPLS_2005

> <r_lp_Energy>
37.4103

> <b_lp_Chiralities_Consistent>
1

> <s_lp_Variant>
AV-unprocessed.smi:62-6

> <Gold.Version>
5.8.1

> <Gold.Id.Protein>
6NUR|6NUR_protein|mol2

> <Gold.PLP.Fitness>
39.5999

> <Gold.PLP.PLP>
-25.4259

> <Gold.PLP.part.hbond>
-3.0000

> <Gold.PLP.part.metal>
0.0000

> <Gold.PLP.part.buried>
-1.2631

> <Gold.PLP.part.nonpolar>
-20.8784

> <Gold.PLP.part.repulsive>
0.2262

> <Gold.PLP.ligand.clash>
0.0000

> <Gold.PLP.ligand.torsion>
0.4201

> <Gold.PLP.Chemscore.Hbond>
4.0000

> <Gold.PLP.Chemscore.CHOScore>
1.0000

> <Gold.PLP.Chemscore.Metal>
0.0000

> <Gold.Chemscore.Hbonds>
donor molecule, donor type, donor heavy atom, donor atom, acceptor molecule, acceptor atom, score
      L1  H    10    28       P1 10175  1.00
      P1  H  7989  7998       L1    15  1.00
      P1  H  7997  8009       L1    14  2.00
      L1  C     3    20       P1  8028  0.97

> <Gold.PLP.Chemscore.Internal.Correction>
0.0140

> <Gold.Rescore>
     Score         DG    S(hbond)    S(metal)    S(lipo)     H(rot)  DE(clash)    DE(int)     intcor
     12.96     -16.34       2.73        0.00      53.59       1.77       0.37       3.00       ----

> <Gold.Chemscore.Fitness>
12.9625

> <Gold.Chemscore.DG>
-16.3355

> <Gold.Chemscore.ZeroCoef>
-5.4800

> <Gold.Chemscore.Hbond>
2.7275

> <Gold.Chemscore.Metal>
0.0000

> <Gold.Chemscore.Lipo>
53.5925

> <Gold.Chemscore.Internal_Hbond>
0.0000

> <Gold.Chemscore.DEClash>
0.3707

> <Gold.Chemscore.DEInternal>
3.0023

> <Gold.Chemscore.Rot>
1.7674

> <Gold.Chemscore.Internal.Correction>
   9.000000E+99

> <Gold.Chemscore.Hbonds>
donor molecule, donor type, donor heavy atom, donor atom, acceptor molecule, acceptor atom, score
      L1  H    10    28       P1 10175  1.00
      P1  H  7989  7998       L1    15  0.34
      P1  H  7997  8009       L1    14  0.38

> <Gold.Chemscore.Hbond.Weighted>
-9.1097

> <Gold.Chemscore.Metal.Weighted>
-0.0000

> <Gold.Chemscore.Lipo.Weighted>
-6.2703

> <Gold.Chemscore.Internal_Hbond.Weighted>
0.0000

> <Gold.Chemscore.DEClash.Weighted>
0.3707

> <Gold.Chemscore.DEInternal.Weighted>
3.0023

> <Gold.Chemscore.Rot.Weighted>
4.5245

> <Gold.Chemscore.Internal.Correction.Weighted>
   9.000000E+99

> <Gold.Protein.RotatedTorsions>
[ 6907 6896 6895 6894 ] final  -29.53 input  -60.11 | X-H torsion
[ 7974 7965 7964 7962 ] final -146.42 input  175.53 | X-H torsion
[ 8008 7997 7996 7995 ] final -160.73 input   59.86 | X-H torsion
[ 10167 10162 10161 10158 ] final   34.84 input  -65.29 | X-H torsion
[ 10718 10713 10712 10709 ] final   37.68 input   66.30 | X-H torsion
[ 10763 10752 10751 10750 ] final   14.18 input  -60.55 | X-H torsion
[ 11005 11000 10999 10996 ] final   42.25 input  -57.11 | X-H torsion

> <Gold.Protein.ActiveResidues>
 VAL166  LYS551  ARG553  GLY616  TRP617  ASP618  TYR619  PRO620  LYS621  CYS622 
 ASP623  PHE694  ASN695  SER759  ASP760  ASP761  ALA762  ILE779  LEU786  VAL792 
 PHE793  MET794  SER795  GLU796  ALA797  LYS798  CYS799  TRP800  GLU811  SER814 

> <Gold.Protein.RotatedAtoms>
  151.1179  135.0063  159.8524 H   0  0  0  0  0  0  0  0  0  0  0  0  # atno 6907 bound_to 6896
  152.5446  134.1758  159.8625 H   0  0  0  0  0  0  0  0  0  0  0  0  # atno 6908 bound_to 6896
  151.1814  133.4678  159.2627 H   0  0  0  0  0  0  0  0  0  0  0  0  # atno 6909 bound_to 6896
  144.8161  140.5458  143.5610 H   0  0  0  0  0  0  0  0  0  0  0  0  # atno 7974 bound_to 7965
  155.7818  140.0866  157.2055 H   0  0  0  0  0  0  0  0  0  0  0  0  # atno 8008 bound_to 7997
  154.3990  140.1506  156.3119 H   0  0  0  0  0  0  0  0  0  0  0  0  # atno 8009 bound_to 7997
  155.8646  140.3428  155.5782 H   0  0  0  0  0  0  0  0  0  0  0  0  # atno 8010 bound_to 7997
  140.4277  144.1369  150.6155 H   0  0  0  0  0  0  0  0  0  0  0  0  # atno 10167 bound_to 10162
  157.3498  130.7592  149.6970 H   0  0  0  0  0  0  0  0  0  0  0  0  # atno 10718 bound_to 10713
  153.1647  135.6802  153.8692 H   0  0  0  0  0  0  0  0  0  0  0  0  # atno 10763 bound_to 10752
  153.8075  135.3147  155.3398 H   0  0  0  0  0  0  0  0  0  0  0  0  # atno 10764 bound_to 10752
  154.7957  135.4808  154.0246 H   0  0  0  0  0  0  0  0  0  0  0  0  # atno 10765 bound_to 10752
  140.1757  134.4166  155.8230 H   0  0  0  0  0  0  0  0  0  0  0  0  # atno 11005 bound_to 11000
  145.5212  139.1476  143.3551 LP  0  0  0  0  0  0  0  0  0  0  0  0  # atno 17320 bound_to 7965
  146.2464  140.5353  142.8912 LP  0  0  0  0  0  0  0  0  0  0  0  0  # atno 17321 bound_to 7965
  140.4462  143.2505  151.9408 LP  0  0  0  0  0  0  0  0  0  0  0  0  # atno 17342 bound_to 10162
  139.4784  144.5606  151.8244 LP  0  0  0  0  0  0  0  0  0  0  0  0  # atno 17343 bound_to 10162
  155.9720  130.4144  150.4129 LP  0  0  0  0  0  0  0  0  0  0  0  0  # atno 17370 bound_to 10713
  157.2190  131.0478  151.2557 LP  0  0  0  0  0  0  0  0  0  0  0  0  # atno 17371 bound_to 10713
  141.2220  133.6977  156.7842 LP  0  0  0  0  0  0  0  0  0  0  0  0  # atno 17394 bound_to 11000
  140.2325  134.8675  157.3491 LP  0  0  0  0  0  0  0  0  0  0  0  0  # atno 17395 bound_to 11000

$$$$
