AV-unprocessed.smi:35|AV-procd|sdf|277|dock7
  -GOLD-   2262016 43D 1   1.00000     0.00000
 Structure written by MMmdl.
 28 29  0  0  0  0  0  0  0  0  2 V2000
  152.8898  140.8848  158.7635 O   0  0  0  0  0  0  0  0  0  0  0  0
  152.1527  140.9155  157.7797 C   0  0  0  0  0  0  0  0  0  0  0  0
  152.3139  140.0878  156.7069 N   0  5  0  0  0  0  0  0  0  0  0  0
  151.4903  140.1239  155.6184 C   0  0  0  0  0  0  0  0  0  0  0  0
  151.6197  139.3748  154.6500 O   0  0  0  0  0  0  0  0  0  0  0  0
  150.4210  141.0608  155.5939 N   0  0  0  0  0  0  0  0  0  0  0  0
  149.5091  141.0957  154.3828 C   0  0  2  0  0  0  0  0  0  0  0  0
  148.5979  142.1561  154.5019 O   0  0  0  0  0  0  0  0  0  0  0  0
  147.2461  141.7002  154.4362 C   0  0  2  0  0  0  0  0  0  0  0  0
  146.6506  141.6837  155.8604 C   0  0  0  0  0  0  0  0  0  0  0  0
  147.2413  142.6813  156.6672 O   0  0  0  0  0  0  0  0  0  0  0  0
  147.3602  140.3451  153.7249 C   0  0  2  0  0  0  0  0  0  0  0  0
  146.2728  139.4592  153.9161 O   0  0  0  0  0  0  0  0  0  0  0  0
  148.6986  139.7951  154.1935 C   0  0  2  0  0  0  0  0  0  0  0  0
  148.5874  139.0155  155.3743 O   0  0  0  0  0  0  0  0  0  0  0  0
  150.2349  141.9157  156.6674 C   0  0  0  0  0  0  0  0  0  0  0  0
  151.0506  141.8728  157.7400 C   0  0  0  0  0  0  0  0  0  0  0  0
  150.6632  143.1514  159.2036 Br  0  0  0  0  0  0  0  0  0  0  0  0
  150.1582  141.3196  153.5343 H   0  0  0  0  0  0  0  0  0  0  0  0
  146.6799  142.4047  153.8254 H   0  0  0  0  0  0  0  0  0  0  0  0
  145.5680  141.8025  155.8543 H   0  0  0  0  0  0  0  0  0  0  0  0
  146.8622  140.7258  156.3351 H   0  0  0  0  0  0  0  0  0  0  0  0
  147.9061  143.1217  156.1603 H   0  0  0  0  0  0  0  0  0  0  0  0
  147.4369  140.5383  152.6539 H   0  0  0  0  0  0  0  0  0  0  0  0
  145.5257  139.7984  153.4478 H   0  0  0  0  0  0  0  0  0  0  0  0
  149.1711  139.1808  153.4263 H   0  0  0  0  0  0  0  0  0  0  0  0
  148.7568  139.5770  156.1159 H   0  0  0  0  0  0  0  0  0  0  0  0
  149.4302  142.6328  156.6623 H   0  0  0  0  0  0  0  0  0  0  0  0
  1  2  2  0  0  0  0
  2 17  1  0  0  0  0
  2  3  1  0  0  0  0
  3  4  1  0  0  0  0
  4  5  2  0  0  0  0
  4  6  1  0  0  0  0
  6  7  1  0  0  0  0
  6 16  1  0  0  0  0
  7 14  1  0  0  0  0
  7  8  1  0  0  0  0
  7 19  1  0  0  0  0
  8  9  1  0  0  0  0
  9 10  1  0  0  0  0
  9 12  1  0  0  0  0
  9 20  1  0  0  0  0
 10 11  1  0  0  0  0
 10 21  1  0  0  0  0
 10 22  1  0  0  0  0
 11 23  1  0  0  0  0
 12 13  1  0  0  0  0
 12 14  1  0  0  0  0
 12 24  1  0  0  0  0
 13 25  1  0  0  0  0
 14 15  1  0  0  0  0
 14 26  1  0  0  0  0
 15 27  1  0  0  0  0
 16 17  2  0  0  0  0
 16 28  1  0  0  0  0
 17 18  1  0  0  0  0
M  CHG  1   3  -1
M  END
> <s_m_source_file>
AV-unprocessed.smi

> <i_m_source_file_index>
35

> <i_lp_mmshare_version>
43012

> <i_f3d_flags>
0

> <s_epik_input>
Tz1jMVtuSF1jKD1PKW4oW2NIXWMxQnIpW0NAQEhdMk9bQ0BASF0oW0NIMl1bT0hdKVtDQEBIXShbT0hdKVtDQEhdMltPSF0=

> <s_epik_cmdline>
J2VwaWtfcHl0aG9uJywgJy1waCcsICc3LjAnLCAnLXRuJywgJzgnLCAnLW1hJywgJzIwMCcsICctbWV0YWxfYmluZGluZycsICctaW1hZScsICc8aW5maWxlLm1hZT4nLCAnLW9tYWUnLCAnPG91dGZpbGUubWFlPic=

> <r_epik_Ionization_Penalty>
1.06112

> <r_epik_Ionization_Penalty_Charging>
2.1796e-09

> <r_epik_Ionization_Penalty_Neutral>
1.06112

> <r_epik_State_Penalty>
1.11484

> <r_epik_Charging_Adjusted_Penalty>
1.11484

> <i_epik_Tot_Q>
-1

> <i_epik_Tot_abs_Q>
1

> <r_epik_Metal_State_Penalty>
0.0032876

> <b_epik_Metal_Only>
0

> <s_epik_Chemistry_Notes>
This compound contains an acetal/aminal-like group ( X-CH(R)-Y where X, Y are N, S, or O) that may be acid/base labile, releasing an aldehyde.

> <s_lp_Force_Field>
OPLS_2005

> <r_lp_Energy>
49.5496

> <b_lp_Chiralities_Consistent>
1

> <s_lp_Variant>
AV-unprocessed.smi:35-31

> <Gold.Version>
5.8.1

> <Gold.Id.Protein>
6NUR|6NUR_protein|mol2

> <Gold.PLP.Fitness>
39.7720

> <Gold.PLP.PLP>
-25.2793

> <Gold.PLP.part.hbond>
-4.6205

> <Gold.PLP.part.metal>
0.0000

> <Gold.PLP.part.buried>
1.6388

> <Gold.PLP.part.nonpolar>
-22.4282

> <Gold.PLP.part.repulsive>
2.2594

> <Gold.PLP.ligand.clash>
0.0000

> <Gold.PLP.ligand.torsion>
0.4564

> <Gold.PLP.Chemscore.Hbond>
4.1338

> <Gold.PLP.Chemscore.CHOScore>
1.0000

> <Gold.PLP.Chemscore.Metal>
0.0000

> <Gold.Chemscore.Hbonds>
donor molecule, donor type, donor heavy atom, donor atom, acceptor molecule, acceptor atom, score
      L1  H    11    23       P1  8028  1.00
      L1  H    13    25       P1 10175  0.60
      P1  H  7989  7998       L1     5  0.55
      P1  H  7997  8008       L1     3  1.98
      L1  C    16    28       P1  8028  1.00

> <Gold.PLP.Chemscore.Internal.Correction>
0.0043

> <Gold.Rescore>
     Score         DG    S(hbond)    S(metal)    S(lipo)     H(rot)  DE(clash)    DE(int)     intcor
      3.53      -5.23       1.29        0.00      40.24       3.63       1.26       0.43       ----

> <Gold.Chemscore.Fitness>
3.5282

> <Gold.Chemscore.DG>
-5.2271

> <Gold.Chemscore.ZeroCoef>
-5.4800

> <Gold.Chemscore.Hbond>
1.2940

> <Gold.Chemscore.Metal>
0.0000

> <Gold.Chemscore.Lipo>
40.2396

> <Gold.Chemscore.Internal_Hbond>
0.0000

> <Gold.Chemscore.DEClash>
1.2647

> <Gold.Chemscore.DEInternal>
0.4342

> <Gold.Chemscore.Rot>
3.6261

> <Gold.Chemscore.Internal.Correction>
   9.000000E+99

> <Gold.Chemscore.Hbonds>
donor molecule, donor type, donor heavy atom, donor atom, acceptor molecule, acceptor atom, score
      L1  H    11    23       P1  8028  0.28
      L1  H    13    25       P1 10175  0.58
      P1  H  7989  7998       L1     5  0.03
      P1  H  7997  8008       L1     3  0.31

> <Gold.Chemscore.Hbond.Weighted>
-4.3218

> <Gold.Chemscore.Metal.Weighted>
-0.0000

> <Gold.Chemscore.Lipo.Weighted>
-4.7080

> <Gold.Chemscore.Internal_Hbond.Weighted>
0.0000

> <Gold.Chemscore.DEClash.Weighted>
1.2647

> <Gold.Chemscore.DEInternal.Weighted>
0.4342

> <Gold.Chemscore.Rot.Weighted>
9.2828

> <Gold.Chemscore.Internal.Correction.Weighted>
   9.000000E+99

> <Gold.Protein.RotatedTorsions>
[ 6907 6896 6895 6894 ] final   25.57 input  -60.11 | X-H torsion
[ 7974 7965 7964 7962 ] final   16.74 input  175.53 | X-H torsion
[ 8008 7997 7996 7995 ] final  -49.56 input   59.86 | X-H torsion
[ 10167 10162 10161 10158 ] final  -28.26 input  -65.29 | X-H torsion
[ 10718 10713 10712 10709 ] final  -38.89 input   66.30 | X-H torsion
[ 10763 10752 10751 10750 ] final   63.44 input  -60.55 | X-H torsion
[ 11005 11000 10999 10996 ] final  -48.10 input  -57.11 | X-H torsion

> <Gold.Protein.ActiveResidues>
 VAL166  LYS551  ARG553  GLY616  TRP617  ASP618  TYR619  PRO620  LYS621  CYS622 
 ASP623  PHE694  ASN695  SER759  ASP760  ASP761  ALA762  ILE779  LEU786  VAL792 
 PHE793  MET794  SER795  GLU796  ALA797  LYS798  CYS799  TRP800  GLU811  SER814 

> <Gold.Protein.RotatedAtoms>
  151.9745  135.0060  160.0554 H   0  0  0  0  0  0  0  0  0  0  0  0  # atno 6907 bound_to 6896
  152.1752  133.4666  159.4938 H   0  0  0  0  0  0  0  0  0  0  0  0  # atno 6908 bound_to 6896
  150.6908  134.1820  159.4295 H   0  0  0  0  0  0  0  0  0  0  0  0  # atno 6909 bound_to 6896
  146.2240  139.8704  142.8588 H   0  0  0  0  0  0  0  0  0  0  0  0  # atno 7974 bound_to 7965
  154.4046  140.1293  156.4523 H   0  0  0  0  0  0  0  0  0  0  0  0  # atno 8008 bound_to 7997
  155.7354  140.3490  155.5059 H   0  0  0  0  0  0  0  0  0  0  0  0  # atno 8009 bound_to 7997
  155.9088  140.1032  157.1285 H   0  0  0  0  0  0  0  0  0  0  0  0  # atno 8010 bound_to 7997
  140.7271  143.4024  151.1242 H   0  0  0  0  0  0  0  0  0  0  0  0  # atno 10167 bound_to 10162
  156.2986  130.4237  149.8165 H   0  0  0  0  0  0  0  0  0  0  0  0  # atno 10718 bound_to 10713
  153.0018  135.5429  154.6352 H   0  0  0  0  0  0  0  0  0  0  0  0  # atno 10763 bound_to 10752
  154.5620  135.2834  155.0912 H   0  0  0  0  0  0  0  0  0  0  0  0  # atno 10764 bound_to 10752
  154.2111  135.6467  153.5168 H   0  0  0  0  0  0  0  0  0  0  0  0  # atno 10765 bound_to 10752
  141.0681  133.6687  156.3393 H   0  0  0  0  0  0  0  0  0  0  0  0  # atno 11005 bound_to 11000
  145.2614  141.0078  143.3824 LP  0  0  0  0  0  0  0  0  0  0  0  0  # atno 17320 bound_to 7965
  144.9295  139.4315  143.6502 LP  0  0  0  0  0  0  0  0  0  0  0  0  # atno 17321 bound_to 7965
  139.7646  143.8584  152.3108 LP  0  0  0  0  0  0  0  0  0  0  0  0  # atno 17342 bound_to 10162
  139.8482  144.7177  150.9247 LP  0  0  0  0  0  0  0  0  0  0  0  0  # atno 17343 bound_to 10162
  156.5552  130.8359  151.3312 LP  0  0  0  0  0  0  0  0  0  0  0  0  # atno 17370 bound_to 10713
  157.7362  130.9775  150.2123 LP  0  0  0  0  0  0  0  0  0  0  0  0  # atno 17371 bound_to 10713
  140.5731  134.5820  157.5462 LP  0  0  0  0  0  0  0  0  0  0  0  0  # atno 17394 bound_to 11000
  139.9496  134.7641  156.0480 LP  0  0  0  0  0  0  0  0  0  0  0  0  # atno 17395 bound_to 11000

$$$$
