AV-unprocessed.smi:1695|AV-procd|sdf|6792|dock2
  -GOLD-   22720 7553D 1   1.00000     0.00000
 Structure written by MMmdl.
 51 53  0  0  0  0  0  0  0  0  2 V2000
  152.9636  143.1358  161.4754 C   0  0  0  0  0  0  0  0  0  0  0  0
  152.4438  142.7664  160.0973 C   0  0  0  0  0  0  0  0  0  0  0  0
  152.3241  141.4019  159.7507 C   0  0  0  0  0  0  0  0  0  0  0  0
  151.8451  141.0169  158.4794 C   0  0  0  0  0  0  0  0  0  0  0  0
  151.6488  139.7587  157.9368 N   0  0  0  0  0  0  0  0  0  0  0  0
  151.1838  140.0580  156.7282 C   0  0  0  0  0  0  0  0  0  0  0  0
  151.0684  141.3636  156.4157 N   0  0  0  0  0  0  0  0  0  0  0  0
  150.5941  141.9249  155.1604 C   0  0  0  0  0  0  0  0  0  0  0  0
  149.3027  141.2645  154.6279 C   0  0  1  0  0  0  0  0  0  0  0  0
  149.6199  139.9892  154.1042 O   0  0  0  0  0  0  0  0  0  0  0  0
  148.2090  141.1020  155.7077 C   0  0  0  0  0  0  0  0  0  0  0  0
  147.1313  142.1184  155.5976 N   0  3  1  0  0  0  0  0  0  0  0  0
  146.4185  142.0451  154.2961 C   0  0  0  0  0  0  0  0  0  0  0  0
  145.4154  143.2012  154.1483 C   0  0  0  0  0  0  0  0  0  0  0  0
  144.4039  143.2161  155.3108 C   0  0  2  0  0  0  0  0  0  0  0  0
  143.4470  144.4101  155.1932 C   0  0  0  0  0  0  0  0  0  0  0  0
  142.5592  144.3863  154.1961 N   0  0  0  0  0  0  0  0  0  0  0  0
  143.5079  145.3431  155.9919 O   0  0  0  0  0  0  0  0  0  0  0  0
  145.1728  143.2510  156.6456 C   0  0  0  0  0  0  0  0  0  0  0  0
  146.1775  142.0909  156.7381 C   0  0  0  0  0  0  0  0  0  0  0  0
  151.4876  142.0424  157.5557 C   0  0  0  0  0  0  0  0  0  0  0  0
  151.5996  143.4034  157.8905 C   0  0  0  0  0  0  0  0  0  0  0  0
  152.0800  143.7707  159.1648 C   0  0  0  0  0  0  0  0  0  0  0  0
  152.1992  145.2434  159.5149 C   0  0  0  0  0  0  0  0  0  0  0  0
  153.2030  142.2486  162.0624 H   0  0  0  0  0  0  0  0  0  0  0  0
  152.2163  143.7088  162.0246 H   0  0  0  0  0  0  0  0  0  0  0  0
  153.8700  143.7360  161.3937 H   0  0  0  0  0  0  0  0  0  0  0  0
  152.5989  140.6365  160.4616 H   0  0  0  0  0  0  0  0  0  0  0  0
  150.9195  139.2824  156.0245 H   0  0  0  0  0  0  0  0  0  0  0  0
  150.4231  142.9917  155.3113 H   0  0  0  0  0  0  0  0  0  0  0  0
  151.3935  141.8481  154.4218 H   0  0  0  0  0  0  0  0  0  0  0  0
  148.9408  141.8763  153.8027 H   0  0  0  0  0  0  0  0  0  0  0  0
  149.7291  140.0578  153.1683 H   0  0  0  0  0  0  0  0  0  0  0  0
  147.7783  140.1030  155.6207 H   0  0  0  0  0  0  0  0  0  0  0  0
  148.6474  141.1557  156.7056 H   0  0  0  0  0  0  0  0  0  0  0  0
  147.1372  142.0931  153.4771 H   0  0  0  0  0  0  0  0  0  0  0  0
  145.9061  141.0852  154.2127 H   0  0  0  0  0  0  0  0  0  0  0  0
  145.9619  144.1452  154.1086 H   0  0  0  0  0  0  0  0  0  0  0  0
  144.8909  143.1088  153.1962 H   0  0  0  0  0  0  0  0  0  0  0  0
  143.8195  142.2948  155.2726 H   0  0  0  0  0  0  0  0  0  0  0  0
  141.9083  145.1489  154.0762 H   0  0  0  0  0  0  0  0  0  0  0  0
  142.5424  143.6009  153.5611 H   0  0  0  0  0  0  0  0  0  0  0  0
  145.7067  144.1970  156.7528 H   0  0  0  0  0  0  0  0  0  0  0  0
  144.4741  143.1949  157.4817 H   0  0  0  0  0  0  0  0  0  0  0  0
  145.6471  141.1371  156.7477 H   0  0  0  0  0  0  0  0  0  0  0  0
  146.7103  142.1613  157.6855 H   0  0  0  0  0  0  0  0  0  0  0  0
  151.3198  144.1585  157.1708 H   0  0  0  0  0  0  0  0  0  0  0  0
  151.8814  145.8759  158.6856 H   0  0  0  0  0  0  0  0  0  0  0  0
  153.2324  145.4979  159.7520 H   0  0  0  0  0  0  0  0  0  0  0  0
  151.5757  145.4832  160.3766 H   0  0  0  0  0  0  0  0  0  0  0  0
  147.5881  143.0191  155.6129 H   0  0  0  0  0  0  0  0  0  0  0  0
  1  2  1  0  0  0  0
  1 25  1  0  0  0  0
  1 26  1  0  0  0  0
  1 27  1  0  0  0  0
  2 23  1  0  0  0  0
  2  3  2  0  0  0  0
  3  4  1  0  0  0  0
  3 28  1  0  0  0  0
  4 21  2  0  0  0  0
  4  5  1  0  0  0  0
  5  6  2  0  0  0  0
  6  7  1  0  0  0  0
  6 29  1  0  0  0  0
  7  8  1  0  0  0  0
  7 21  1  0  0  0  0
  8  9  1  0  0  0  0
  8 30  1  0  0  0  0
  8 31  1  0  0  0  0
  9 10  1  0  0  0  0
  9 11  1  0  0  0  0
  9 32  1  0  0  0  0
 10 33  1  0  0  0  0
 11 12  1  0  0  0  0
 11 34  1  0  0  0  0
 11 35  1  0  0  0  0
 12 20  1  0  0  0  0
 12 13  1  0  0  0  0
 12 51  1  0  0  0  0
 13 14  1  0  0  0  0
 13 36  1  0  0  0  0
 13 37  1  0  0  0  0
 14 15  1  0  0  0  0
 14 38  1  0  0  0  0
 14 39  1  0  0  0  0
 15 16  1  0  0  0  0
 15 19  1  0  0  0  0
 15 40  1  0  0  0  0
 16 17  1  0  0  0  0
 16 18  2  0  0  0  0
 17 41  1  0  0  0  0
 17 42  1  0  0  0  0
 19 20  1  0  0  0  0
 19 43  1  0  0  0  0
 19 44  1  0  0  0  0
 20 45  1  0  0  0  0
 20 46  1  0  0  0  0
 21 22  1  0  0  0  0
 22 23  2  0  0  0  0
 22 47  1  0  0  0  0
 23 24  1  0  0  0  0
 24 48  1  0  0  0  0
 24 49  1  0  0  0  0
 24 50  1  0  0  0  0
M  CHG  1  12   1
M  END
> <s_m_source_file>
AV-unprocessed.smi

> <i_m_source_file_index>
1695

> <i_lp_mmshare_version>
43012

> <i_f3d_flags>
0

> <s_epik_input>
W0NIM11jKFtjSF0xKWMoW0NIM10pW2NIXWMoYzEyKW4oW2NIXW4yKVtDSDJdW0NASF0oW09IXSlbQ0gyXU4zW0NIMl1bQ0gyXVtDSF0oQyg9TylbTkgyXSlbQ0gyXVtDSDJdMw==

> <s_epik_cmdline>
J2VwaWtfcHl0aG9uJywgJy1waCcsICc3LjAnLCAnLXRuJywgJzgnLCAnLW1hJywgJzIwMCcsICctbWV0YWxfYmluZGluZycsICctaW1hZScsICc8aW5maWxlLm1hZT4nLCAnLW9tYWUnLCAnPG91dGZpbGUubWFlPic=

> <r_epik_Ionization_Penalty>
0.113899

> <r_epik_Ionization_Penalty_Charging>
0.0258844

> <r_epik_Ionization_Penalty_Neutral>
0.0880147

> <r_epik_State_Penalty>
0.0974403

> <r_epik_Charging_Adjusted_Penalty>
0.123325

> <i_epik_Tot_Q>
1

> <i_epik_Tot_abs_Q>
1

> <r_epik_Metal_State_Penalty>
0.0851148

> <b_epik_Metal_Only>
0

> <s_lp_Force_Field>
OPLS_2005

> <r_lp_Energy>
20.1405

> <b_lp_Chiralities_Consistent>
1

> <s_lp_Variant>
AV-unprocessed.smi:1695-4

> <Gold.Version>
5.8.1

> <Gold.Id.Protein>
6NUR|6NUR_protein|mol2

> <Gold.PLP.Fitness>
58.4776

> <Gold.PLP.PLP>
-48.5464

> <Gold.PLP.part.hbond>
-4.0000

> <Gold.PLP.part.metal>
0.0000

> <Gold.PLP.part.buried>
-4.8678

> <Gold.PLP.part.nonpolar>
-39.0623

> <Gold.PLP.part.repulsive>
0.4652

> <Gold.PLP.ligand.clash>
0.0000

> <Gold.PLP.ligand.torsion>
1.0774

> <Gold.PLP.Chemscore.Hbond>
4.0000

> <Gold.PLP.Chemscore.CHOScore>
0.0000

> <Gold.PLP.Chemscore.Metal>
0.0000

> <Gold.Chemscore.Hbonds>
donor molecule, donor type, donor heavy atom, donor atom, acceptor molecule, acceptor atom, score
      L1  H    10    33       P1  7957  1.00
      L1  H    12    51       P1  8028  1.62
      L1  H    17    42       P1 10174  1.00

> <Gold.PLP.Chemscore.Internal.Correction>
0.0860

> <Gold.Rescore>
     Score         DG    S(hbond)    S(metal)    S(lipo)     H(rot)  DE(clash)    DE(int)     intcor
     17.94     -22.14       2.56        0.00     131.68       2.85       3.02       1.18       ----

> <Gold.Chemscore.Fitness>
17.9435

> <Gold.Chemscore.DG>
-22.1392

> <Gold.Chemscore.ZeroCoef>
-5.4800

> <Gold.Chemscore.Hbond>
2.5565

> <Gold.Chemscore.Metal>
0.0000

> <Gold.Chemscore.Lipo>
131.6846

> <Gold.Chemscore.Internal_Hbond>
0.0000

> <Gold.Chemscore.DEClash>
3.0173

> <Gold.Chemscore.DEInternal>
1.1785

> <Gold.Chemscore.Rot>
2.8464

> <Gold.Chemscore.Internal.Correction>
   9.000000E+99

> <Gold.Chemscore.Hbonds>
donor molecule, donor type, donor heavy atom, donor atom, acceptor molecule, acceptor atom, score
      L1  H    10    33       P1  7957  0.95
      L1  H    12    51       P1  8028  0.24
      L1  H    17    42       P1 10174  1.00

> <Gold.Chemscore.Hbond.Weighted>
-8.5388

> <Gold.Chemscore.Metal.Weighted>
-0.0000

> <Gold.Chemscore.Lipo.Weighted>
-15.4071

> <Gold.Chemscore.Internal_Hbond.Weighted>
0.0000

> <Gold.Chemscore.DEClash.Weighted>
3.0173

> <Gold.Chemscore.DEInternal.Weighted>
1.1785

> <Gold.Chemscore.Rot.Weighted>
7.2867

> <Gold.Chemscore.Internal.Correction.Weighted>
   9.000000E+99

> <Gold.Protein.RotatedTorsions>
[ 6907 6896 6895 6894 ] final  -36.68 input  -60.11 | X-H torsion
[ 7974 7965 7964 7962 ] final  130.05 input  175.53 | X-H torsion
[ 8008 7997 7996 7995 ] final    4.66 input   59.86 | X-H torsion
[ 10167 10162 10161 10158 ] final  142.55 input  -65.29 | X-H torsion
[ 10718 10713 10712 10709 ] final -142.56 input   66.30 | X-H torsion
[ 10763 10752 10751 10750 ] final  -82.72 input  -60.55 | X-H torsion
[ 11005 11000 10999 10996 ] final   39.63 input  -57.11 | X-H torsion

> <Gold.Protein.ActiveResidues>
 VAL166  LYS551  ARG553  GLY616  TRP617  ASP618  TYR619  PRO620  LYS621  CYS622 
 ASP623  PHE694  ASN695  SER759  ASP760  ASP761  ALA762  ILE779  LEU786  VAL792 
 PHE793  MET794  SER795  GLU796  ALA797  LYS798  CYS799  TRP800  GLU811  SER814 

> <Gold.Protein.RotatedAtoms>
  151.0241  134.9491  159.8075 H   0  0  0  0  0  0  0  0  0  0  0  0  # atno 6907 bound_to 6896
  152.5331  134.2865  159.9037 H   0  0  0  0  0  0  0  0  0  0  0  0  # atno 6908 bound_to 6896
  151.2873  133.4139  159.2665 H   0  0  0  0  0  0  0  0  0  0  0  0  # atno 6909 bound_to 6896
  145.0221  139.4122  143.5192 H   0  0  0  0  0  0  0  0  0  0  0  0  # atno 7974 bound_to 7965
  154.7187  140.2707  155.6561 H   0  0  0  0  0  0  0  0  0  0  0  0  # atno 8008 bound_to 7997
  156.2817  140.2739  156.1776 H   0  0  0  0  0  0  0  0  0  0  0  0  # atno 8009 bound_to 7997
  155.0536  140.0371  157.2542 H   0  0  0  0  0  0  0  0  0  0  0  0  # atno 8010 bound_to 7997
  139.4991  144.6100  151.6294 H   0  0  0  0  0  0  0  0  0  0  0  0  # atno 10167 bound_to 10162
  156.3474  130.7670  151.1817 H   0  0  0  0  0  0  0  0  0  0  0  0  # atno 10718 bound_to 10713
  154.5792  135.5581  153.7169 H   0  0  0  0  0  0  0  0  0  0  0  0  # atno 10763 bound_to 10752
  153.0075  135.6316  154.2006 H   0  0  0  0  0  0  0  0  0  0  0  0  # atno 10764 bound_to 10752
  154.1947  135.2880  155.2990 H   0  0  0  0  0  0  0  0  0  0  0  0  # atno 10765 bound_to 10752
  140.2009  134.3871  155.8096 H   0  0  0  0  0  0  0  0  0  0  0  0  # atno 11005 bound_to 11000
  146.3487  139.9724  142.8705 LP  0  0  0  0  0  0  0  0  0  0  0  0  # atno 17320 bound_to 7965
  145.1882  140.9799  143.4226 LP  0  0  0  0  0  0  0  0  0  0  0  0  # atno 17321 bound_to 7965
  140.5772  144.0009  150.6248 LP  0  0  0  0  0  0  0  0  0  0  0  0  # atno 17342 bound_to 10162
  140.3146  143.3176  152.0845 LP  0  0  0  0  0  0  0  0  0  0  0  0  # atno 17343 bound_to 10162
  157.7456  131.0437  150.4758 LP  0  0  0  0  0  0  0  0  0  0  0  0  # atno 17370 bound_to 10713
  156.4947  130.4103  149.6386 LP  0  0  0  0  0  0  0  0  0  0  0  0  # atno 17371 bound_to 10713
  141.2227  133.7093  156.8256 LP  0  0  0  0  0  0  0  0  0  0  0  0  # atno 17394 bound_to 11000
  140.2055  134.8866  157.3217 LP  0  0  0  0  0  0  0  0  0  0  0  0  # atno 17395 bound_to 11000

$$$$
