AV-unprocessed.smi:3116|AV-procd|sdf|11869|dock2
  -GOLD-   2272017253D 1   1.00000     0.00000
 Structure written by MMmdl.
 34 34  0  0  0  0  0  0  0  0  2 V2000
  146.7138  137.3591  154.3858 C   0  0  0  0  0  0  0  0  0  0  0  0
  147.0612  138.5665  153.5022 C   0  0  1  0  0  0  0  0  0  0  0  0
  148.5179  138.5858  153.2334 N   0  3  0  0  0  0  0  0  0  0  0  0
  149.3927  138.8397  154.4042 C   0  0  1  0  0  0  0  0  0  0  0  0
  150.6870  138.0211  154.2483 C   0  0  0  0  0  0  0  0  0  0  0  0
  149.6084  140.3649  154.5999 C   0  0  1  0  0  0  0  0  0  0  0  0
  148.2939  141.1642  154.5014 C   0  0  0  0  0  0  0  0  0  0  0  0
  150.3515  140.6850  155.8162 N   0  0  0  0  0  0  0  0  0  0  0  0
  150.7598  141.9289  156.2540 C   0  0  0  0  0  0  0  0  0  0  0  0
  151.4473  141.7499  157.4200 C   0  0  0  0  0  0  0  0  0  0  0  0
  151.4140  140.3421  157.6191 C   0  0  0  0  0  0  0  0  0  0  0  0
  150.7668  139.7082  156.6555 N   0  0  0  0  0  0  0  0  0  0  0  0
  146.2486  138.5136  152.2011 C   0  0  0  0  0  0  0  0  0  0  0  0
  144.9235  138.3962  152.3147 N   0  0  0  0  0  0  0  0  0  0  0  0
  146.8101  138.5622  151.1082 O   0  0  0  0  0  0  0  0  0  0  0  0
  145.6489  137.3330  154.6214 H   0  0  0  0  0  0  0  0  0  0  0  0
  147.2540  137.3995  155.3322 H   0  0  0  0  0  0  0  0  0  0  0  0
  146.9697  136.4171  153.8987 H   0  0  0  0  0  0  0  0  0  0  0  0
  146.8002  139.4705  154.0557 H   0  0  0  0  0  0  0  0  0  0  0  0
  148.7753  137.6841  152.8588 H   0  0  0  0  0  0  0  0  0  0  0  0
  148.8899  138.4715  155.2998 H   0  0  0  0  0  0  0  0  0  0  0  0
  151.3665  138.1809  155.0850 H   0  0  0  0  0  0  0  0  0  0  0  0
  151.2199  138.2734  153.3313 H   0  0  0  0  0  0  0  0  0  0  0  0
  150.4673  136.9537  154.2109 H   0  0  0  0  0  0  0  0  0  0  0  0
  150.2219  140.7155  153.7693 H   0  0  0  0  0  0  0  0  0  0  0  0
  147.8006  140.9876  153.5453 H   0  0  0  0  0  0  0  0  0  0  0  0
  148.4831  142.2355  154.5766 H   0  0  0  0  0  0  0  0  0  0  0  0
  147.5880  140.8985  155.2882 H   0  0  0  0  0  0  0  0  0  0  0  0
  150.5282  142.8305  155.7060 H   0  0  0  0  0  0  0  0  0  0  0  0
  151.9045  142.5090  158.0374 H   0  0  0  0  0  0  0  0  0  0  0  0
  151.8407  139.7656  158.4269 H   0  0  0  0  0  0  0  0  0  0  0  0
  144.3424  138.3632  151.4895 H   0  0  0  0  0  0  0  0  0  0  0  0
  144.5032  138.3466  153.2319 H   0  0  0  0  0  0  0  0  0  0  0  0
  148.7016  139.2858  152.5287 H   0  0  0  0  0  0  0  0  0  0  0  0
  1  2  1  0  0  0  0
  1 16  1  0  0  0  0
  1 17  1  0  0  0  0
  1 18  1  0  0  0  0
  2  3  1  0  0  0  0
  2 13  1  0  0  0  0
  2 19  1  0  0  0  0
  3  4  1  0  0  0  0
  3 20  1  0  0  0  0
  3 34  1  0  0  0  0
  4  5  1  0  0  0  0
  4  6  1  0  0  0  0
  4 21  1  0  0  0  0
  5 22  1  0  0  0  0
  5 23  1  0  0  0  0
  5 24  1  0  0  0  0
  6  7  1  0  0  0  0
  6  8  1  0  0  0  0
  6 25  1  0  0  0  0
  7 26  1  0  0  0  0
  7 27  1  0  0  0  0
  7 28  1  0  0  0  0
  8 12  1  0  0  0  0
  8  9  1  0  0  0  0
  9 10  2  0  0  0  0
  9 29  1  0  0  0  0
 10 11  1  0  0  0  0
 10 30  1  0  0  0  0
 11 12  2  0  0  0  0
 11 31  1  0  0  0  0
 13 14  1  0  0  0  0
 13 15  2  0  0  0  0
 14 32  1  0  0  0  0
 14 33  1  0  0  0  0
M  CHG  1   3   1
M  END
> <s_m_source_file>
AV-unprocessed.smi

> <i_m_source_file_index>
3116

> <i_lp_mmshare_version>
43012

> <i_f3d_flags>
0

> <s_epik_input>
W05IMl1DKD1PKVtDQEhdKFtDSDNdKVtOSF1bQ0BIXShbQ0gzXSlbQ0BIXShbQ0gzXSluMVtjSF1bY0hdW2NIXW4x

> <s_epik_cmdline>
J2VwaWtfcHl0aG9uJywgJy1waCcsICc3LjAnLCAnLXRuJywgJzgnLCAnLW1hJywgJzIwMCcsICctbWV0YWxfYmluZGluZycsICctaW1hZScsICc8aW5maWxlLm1hZT4nLCAnLW9tYWUnLCAnPG91dGZpbGUubWFlPic=

> <r_lp_tautomer_probability>
1

> <r_epik_Ionization_Penalty>
0.15658

> <r_epik_Ionization_Penalty_Charging>
0.156568

> <r_epik_Ionization_Penalty_Neutral>
1.19778e-05

> <r_epik_State_Penalty>
0.145866

> <r_epik_Charging_Adjusted_Penalty>
0.302434

> <i_epik_Tot_Q>
1

> <i_epik_Tot_abs_Q>
1

> <r_epik_Metal_State_Penalty>
0.146064

> <b_epik_Metal_Only>
0

> <s_lp_Force_Field>
OPLS_2005

> <r_lp_Energy>
10.8176

> <b_lp_Chiralities_Consistent>
1

> <s_lp_Variant>
AV-unprocessed.smi:3116-8

> <Gold.Version>
5.8.1

> <Gold.Id.Protein>
6NUR|6NUR_protein|mol2

> <Gold.PLP.Fitness>
47.4324

> <Gold.PLP.PLP>
-30.4805

> <Gold.PLP.part.hbond>
-5.0000

> <Gold.PLP.part.metal>
0.0000

> <Gold.PLP.part.buried>
-5.7307

> <Gold.PLP.part.nonpolar>
-22.4792

> <Gold.PLP.part.repulsive>
0.4224

> <Gold.PLP.ligand.clash>
0.0000

> <Gold.PLP.ligand.torsion>
0.6206

> <Gold.PLP.Chemscore.Hbond>
5.0000

> <Gold.PLP.Chemscore.CHOScore>
1.0000

> <Gold.PLP.Chemscore.Metal>
0.0000

> <Gold.Chemscore.Hbonds>
donor molecule, donor type, donor heavy atom, donor atom, acceptor molecule, acceptor atom, score
      L1  H     3    20       P1  7948  2.00
      L1  H     3    34       P1  7957  1.00
      L1  H    14    32       P1 10171  1.00
      P1  H  7954  7966       L1    15  1.00
      L1  C     9    29       P1  8028  1.00

> <Gold.PLP.Chemscore.Internal.Correction>
0.1932

> <Gold.Rescore>
     Score         DG    S(hbond)    S(metal)    S(lipo)     H(rot)  DE(clash)    DE(int)     intcor
     17.04     -19.10       3.95        0.00      57.22       2.45       0.19       1.86       ----

> <Gold.Chemscore.Fitness>
17.0430

> <Gold.Chemscore.DG>
-19.0954

> <Gold.Chemscore.ZeroCoef>
-5.4800

> <Gold.Chemscore.Hbond>
3.9473

> <Gold.Chemscore.Metal>
0.0000

> <Gold.Chemscore.Lipo>
57.2197

> <Gold.Chemscore.Internal_Hbond>
0.0000

> <Gold.Chemscore.DEClash>
0.1927

> <Gold.Chemscore.DEInternal>
1.8597

> <Gold.Chemscore.Rot>
2.4465

> <Gold.Chemscore.Internal.Correction>
   9.000000E+99

> <Gold.Chemscore.Hbonds>
donor molecule, donor type, donor heavy atom, donor atom, acceptor molecule, acceptor atom, score
      L1  H     3    20       P1  7948  1.00
      L1  H     3    34       P1  7957  0.98
      L1  H    14    32       P1 10171  0.99
      P1  H  7954  7966       L1    15  0.95

> <Gold.Chemscore.Hbond.Weighted>
-13.1838

> <Gold.Chemscore.Metal.Weighted>
-0.0000

> <Gold.Chemscore.Lipo.Weighted>
-6.6947

> <Gold.Chemscore.Internal_Hbond.Weighted>
0.0000

> <Gold.Chemscore.DEClash.Weighted>
0.1927

> <Gold.Chemscore.DEInternal.Weighted>
1.8597

> <Gold.Chemscore.Rot.Weighted>
6.2631

> <Gold.Chemscore.Internal.Correction.Weighted>
   9.000000E+99

> <Gold.Protein.RotatedTorsions>
[ 6907 6896 6895 6894 ] final  -23.66 input  -60.11 | X-H torsion
[ 7974 7965 7964 7962 ] final  126.75 input  175.53 | X-H torsion
[ 8008 7997 7996 7995 ] final  140.19 input   59.86 | X-H torsion
[ 10167 10162 10161 10158 ] final   33.50 input  -65.29 | X-H torsion
[ 10718 10713 10712 10709 ] final  167.28 input   66.30 | X-H torsion
[ 10763 10752 10751 10750 ] final  102.01 input  -60.55 | X-H torsion
[ 11005 11000 10999 10996 ] final  -85.96 input  -57.11 | X-H torsion

> <Gold.Protein.ActiveResidues>
 VAL166  LYS551  ARG553  GLY616  TRP617  ASP618  TYR619  PRO620  LYS621  CYS622 
 ASP623  PHE694  ASN695  SER759  ASP760  ASP761  ALA762  ILE779  LEU786  VAL792 
 PHE793  MET794  SER795  GLU796  ALA797  LYS798  CYS799  TRP800  GLU811  SER814 

> <Gold.Protein.RotatedAtoms>
  151.2008  135.0442  159.8871 H   0  0  0  0  0  0  0  0  0  0  0  0  # atno 6907 bound_to 6896
  152.5433  134.0852  159.8263 H   0  0  0  0  0  0  0  0  0  0  0  0  # atno 6908 bound_to 6896
  151.0993  133.5208  159.2643 H   0  0  0  0  0  0  0  0  0  0  0  0  # atno 6909 bound_to 6896
  145.0583  139.3826  143.5019 H   0  0  0  0  0  0  0  0  0  0  0  0  # atno 7974 bound_to 7965
  156.2982  140.2348  156.4361 H   0  0  0  0  0  0  0  0  0  0  0  0  # atno 8008 bound_to 7997
  154.8227  140.0437  157.1443 H   0  0  0  0  0  0  0  0  0  0  0  0  # atno 8009 bound_to 7997
  154.9296  140.3015  155.5178 H   0  0  0  0  0  0  0  0  0  0  0  0  # atno 8010 bound_to 7997
  140.4401  144.1200  150.6172 H   0  0  0  0  0  0  0  0  0  0  0  0  # atno 10167 bound_to 10162
  157.0538  131.0321  151.2671 H   0  0  0  0  0  0  0  0  0  0  0  0  # atno 10718 bound_to 10713
  153.3340  135.4025  155.1518 H   0  0  0  0  0  0  0  0  0  0  0  0  # atno 10763 bound_to 10752
  154.8629  135.3617  154.5433 H   0  0  0  0  0  0  0  0  0  0  0  0  # atno 10764 bound_to 10752
  153.5873  135.7075  153.5497 H   0  0  0  0  0  0  0  0  0  0  0  0  # atno 10765 bound_to 10752
  141.1635  133.7428  156.9091 H   0  0  0  0  0  0  0  0  0  0  0  0  # atno 11005 bound_to 11000
  146.3523  140.0268  142.8654 LP  0  0  0  0  0  0  0  0  0  0  0  0  # atno 17320 bound_to 7965
  145.1441  140.9587  143.4471 LP  0  0  0  0  0  0  0  0  0  0  0  0  # atno 17321 bound_to 7965
  140.4328  143.2560  151.9573 LP  0  0  0  0  0  0  0  0  0  0  0  0  # atno 17342 bound_to 10162
  139.4789  144.5728  151.8061 LP  0  0  0  0  0  0  0  0  0  0  0  0  # atno 17343 bound_to 10162
  157.5009  130.7879  149.7604 LP  0  0  0  0  0  0  0  0  0  0  0  0  # atno 17370 bound_to 10713
  155.9999  130.3886  150.2646 LP  0  0  0  0  0  0  0  0  0  0  0  0  # atno 17371 bound_to 10713
  140.1529  134.9218  157.2616 LP  0  0  0  0  0  0  0  0  0  0  0  0  # atno 17394 bound_to 11000
  140.2701  134.3470  155.7376 LP  0  0  0  0  0  0  0  0  0  0  0  0  # atno 17395 bound_to 11000

$$$$
