AV-unprocessed.smi:3064|AV-procd|sdf|11689|dock9
  -GOLD-   2272017 93D 1   1.00000     0.00000
 Structure written by MMmdl.
 21 22  0  0  0  0  0  0  0  0  1 V2000
  151.8360  145.2649  158.8915 C   0  0  0  0  0  0  0  0  0  0  0  0
  151.5906  145.3579  160.2377 C   0  0  0  0  0  0  0  0  0  0  0  0
  152.2048  143.9753  161.1020 S   0  0  0  0  0  0  0  0  0  0  0  0
  152.7644  143.3030  159.5733 C   0  0  0  0  0  0  0  0  0  0  0  0
  153.5043  142.0062  159.4812 C   0  0  2  0  0  0  0  0  0  0  0  0
  152.7208  140.9403  158.6909 C   0  0  0  0  0  0  0  0  0  0  0  0
  153.4477  139.6718  158.6945 N   0  0  0  0  0  0  0  0  0  0  0  0
  153.7444  139.2373  160.0586 C   0  0  0  0  0  0  0  0  0  0  0  0
  154.4958  140.3433  160.8217 C   0  0  0  0  0  0  0  0  0  0  0  0
  153.7257  141.5407  160.8108 O   0  0  0  0  0  0  0  0  0  0  0  0
  152.5128  144.0984  158.5279 N   0  0  0  0  0  0  0  0  0  0  0  0
  151.5696  145.9785  158.1260 H   0  0  0  0  0  0  0  0  0  0  0  0
  151.0918  146.1533  160.7710 H   0  0  0  0  0  0  0  0  0  0  0  0
  154.4650  142.2003  159.0004 H   0  0  0  0  0  0  0  0  0  0  0  0
  151.7346  140.8020  159.1361 H   0  0  0  0  0  0  0  0  0  0  0  0
  152.5580  141.2746  157.6661 H   0  0  0  0  0  0  0  0  0  0  0  0
  152.8957  138.9620  158.2238 H   0  0  0  0  0  0  0  0  0  0  0  0
  152.8180  138.9968  160.5817 H   0  0  0  0  0  0  0  0  0  0  0  0
  154.3395  138.3240  160.0395 H   0  0  0  0  0  0  0  0  0  0  0  0
  154.6605  140.0392  161.8554 H   0  0  0  0  0  0  0  0  0  0  0  0
  155.4785  140.5225  160.3827 H   0  0  0  0  0  0  0  0  0  0  0  0
  1 11  1  0  0  0  0
  1  2  2  0  0  0  0
  1 12  1  0  0  0  0
  2  3  1  0  0  0  0
  2 13  1  0  0  0  0
  3  4  1  0  0  0  0
  4  5  1  0  0  0  0
  4 11  2  0  0  0  0
  5 10  1  0  0  0  0
  5  6  1  0  0  0  0
  5 14  1  0  0  0  0
  6  7  1  0  0  0  0
  6 15  1  0  0  0  0
  6 16  1  0  0  0  0
  7  8  1  0  0  0  0
  7 17  1  0  0  0  0
  8  9  1  0  0  0  0
  8 18  1  0  0  0  0
  8 19  1  0  0  0  0
  9 10  1  0  0  0  0
  9 20  1  0  0  0  0
  9 21  1  0  0  0  0
M  END
> <s_m_source_file>
AV-unprocessed.smi

> <i_m_source_file_index>
3064

> <i_lp_mmshare_version>
43012

> <i_f3d_flags>
0

> <s_epik_input>
bjFbY0hdW2NIXXNjMVtDQEBIXTJbQ0gyXVtOSF1bQ0gyXVtDSDJdTzI=

> <s_epik_cmdline>
J2VwaWtfcHl0aG9uJywgJy1waCcsICc3LjAnLCAnLXRuJywgJzgnLCAnLW1hJywgJzIwMCcsICctbWV0YWxfYmluZGluZycsICctaW1hZScsICc8aW5maWxlLm1hZT4nLCAnLW9tYWUnLCAnPG91dGZpbGUubWFlPic=

> <r_epik_Ionization_Penalty>
0.980767

> <r_epik_Ionization_Penalty_Charging>
0

> <r_epik_Ionization_Penalty_Neutral>
0.980767

> <r_epik_State_Penalty>
1.0271

> <r_epik_Charging_Adjusted_Penalty>
1.0271

> <i_epik_Tot_Q>
0

> <i_epik_Tot_abs_Q>
0

> <r_epik_Metal_State_Penalty>
1.02673

> <b_epik_Metal_Only>
0

> <s_lp_Force_Field>
OPLS_2005

> <r_lp_Energy>
8.04051

> <b_lp_Chiralities_Consistent>
1

> <s_lp_Variant>
AV-unprocessed.smi:3064-3

> <Gold.Version>
5.8.1

> <Gold.Id.Protein>
6NUR|6NUR_protein|mol2

> <Gold.PLP.Fitness>
31.4174

> <Gold.PLP.PLP>
-28.5441

> <Gold.PLP.part.hbond>
-1.0000

> <Gold.PLP.part.metal>
0.0000

> <Gold.PLP.part.buried>
-5.0199

> <Gold.PLP.part.nonpolar>
-22.5802

> <Gold.PLP.part.repulsive>
0.0157

> <Gold.PLP.ligand.clash>
0.0000

> <Gold.PLP.ligand.torsion>
0.0687

> <Gold.PLP.Chemscore.Hbond>
1.0000

> <Gold.PLP.Chemscore.CHOScore>
0.0000

> <Gold.PLP.Chemscore.Metal>
0.0000

> <Gold.Chemscore.Hbonds>
donor molecule, donor type, donor heavy atom, donor atom, acceptor molecule, acceptor atom, score
      P1  H  7997  8008       L1     7  0.80

> <Gold.PLP.Chemscore.Internal.Correction>
0.0106

> <Gold.Rescore>
     Score         DG    S(hbond)    S(metal)    S(lipo)     H(rot)  DE(clash)    DE(int)     intcor
     12.64     -12.65       0.00        0.00      83.18       1.00       0.01       0.01       ----

> <Gold.Chemscore.Fitness>
12.6355

> <Gold.Chemscore.DG>
-12.6523

> <Gold.Chemscore.ZeroCoef>
-5.4800

> <Gold.Chemscore.Hbond>
0.0000

> <Gold.Chemscore.Metal>
0.0000

> <Gold.Chemscore.Lipo>
83.1821

> <Gold.Chemscore.Internal_Hbond>
0.0000

> <Gold.Chemscore.DEClash>
0.0082

> <Gold.Chemscore.DEInternal>
0.0086

> <Gold.Chemscore.Rot>
1.0000

> <Gold.Chemscore.Internal.Correction>
   9.000000E+99

> <Gold.Chemscore.Hbonds>
donor molecule, donor type, donor heavy atom, donor atom, acceptor molecule, acceptor atom, score
      P1  H  7997  8008       L1     7  0.03

> <Gold.Chemscore.Hbond.Weighted>
-0.0000

> <Gold.Chemscore.Metal.Weighted>
-0.0000

> <Gold.Chemscore.Lipo.Weighted>
-9.7323

> <Gold.Chemscore.Internal_Hbond.Weighted>
0.0000

> <Gold.Chemscore.DEClash.Weighted>
0.0082

> <Gold.Chemscore.DEInternal.Weighted>
0.0086

> <Gold.Chemscore.Rot.Weighted>
2.5600

> <Gold.Chemscore.Internal.Correction.Weighted>
   9.000000E+99

> <Gold.Protein.RotatedTorsions>
[ 6907 6896 6895 6894 ] final  155.62 input  -60.11 | X-H torsion
[ 7974 7965 7964 7962 ] final   83.16 input  175.53 | X-H torsion
[ 8008 7997 7996 7995 ] final  -96.96 input   59.86 | X-H torsion
[ 10167 10162 10161 10158 ] final  102.03 input  -65.29 | X-H torsion
[ 10718 10713 10712 10709 ] final  115.19 input   66.30 | X-H torsion
[ 10763 10752 10751 10750 ] final  -96.63 input  -60.55 | X-H torsion
[ 11005 11000 10999 10996 ] final  121.36 input  -57.11 | X-H torsion

> <Gold.Protein.ActiveResidues>
 VAL166  LYS551  ARG553  GLY616  TRP617  ASP618  TYR619  PRO620  LYS621  CYS622 
 ASP623  PHE694  ASN695  SER759  ASP760  ASP761  ALA762  ILE779  LEU786  VAL792 
 PHE793  MET794  SER795  GLU796  ALA797  LYS798  CYS799  TRP800  GLU811  SER814 

> <Gold.Protein.RotatedAtoms>
  152.0415  133.3979  159.4338 H   0  0  0  0  0  0  0  0  0  0  0  0  # atno 6907 bound_to 6896
  150.6875  134.3410  159.4877 H   0  0  0  0  0  0  0  0  0  0  0  0  # atno 6908 bound_to 6896
  152.1209  134.9206  160.0613 H   0  0  0  0  0  0  0  0  0  0  0  0  # atno 6909 bound_to 6896
  145.6155  139.2376  143.2168 H   0  0  0  0  0  0  0  0  0  0  0  0  # atno 7974 bound_to 7965
  154.7814  140.0467  157.1130 H   0  0  0  0  0  0  0  0  0  0  0  0  # atno 8008 bound_to 7997
  154.9700  140.3088  155.4972 H   0  0  0  0  0  0  0  0  0  0  0  0  # atno 8009 bound_to 7997
  156.2937  140.2255  156.4792 H   0  0  0  0  0  0  0  0  0  0  0  0  # atno 8010 bound_to 7997
  139.7386  144.7017  151.0611 H   0  0  0  0  0  0  0  0  0  0  0  0  # atno 10167 bound_to 10162
  157.6236  131.1009  150.7295 H   0  0  0  0  0  0  0  0  0  0  0  0  # atno 10718 bound_to 10713
  154.7256  135.5076  153.8881 H   0  0  0  0  0  0  0  0  0  0  0  0  # atno 10763 bound_to 10752
  153.0902  135.6657  153.9878 H   0  0  0  0  0  0  0  0  0  0  0  0  # atno 10764 bound_to 10752
  153.9691  135.3040  155.3408 H   0  0  0  0  0  0  0  0  0  0  0  0  # atno 10765 bound_to 10752
  139.9223  134.9638  156.7947 H   0  0  0  0  0  0  0  0  0  0  0  0  # atno 11005 bound_to 11000
  146.1471  140.6977  142.9339 LP  0  0  0  0  0  0  0  0  0  0  0  0  # atno 17320 bound_to 7965
  144.7252  140.4502  143.6978 LP  0  0  0  0  0  0  0  0  0  0  0  0  # atno 17321 bound_to 7965
  140.7782  143.4953  150.9840 LP  0  0  0  0  0  0  0  0  0  0  0  0  # atno 17342 bound_to 10162
  139.8641  143.7276  152.3171 LP  0  0  0  0  0  0  0  0  0  0  0  0  # atno 17343 bound_to 10162
  156.7647  130.4810  149.5430 LP  0  0  0  0  0  0  0  0  0  0  0  0  # atno 17370 bound_to 10713
  156.1396  130.6235  151.0448 LP  0  0  0  0  0  0  0  0  0  0  0  0  # atno 17371 bound_to 10713
  140.6438  133.9794  155.7721 LP  0  0  0  0  0  0  0  0  0  0  0  0  # atno 17394 bound_to 11000
  141.0753  134.0144  157.3466 LP  0  0  0  0  0  0  0  0  0  0  0  0  # atno 17395 bound_to 11000

$$$$
