#       Name:                AV-unprocessed.smi:23
#       Creating user name   scv26
#       Creation time:       Thu Mar 26 15:43:08 2020


#       File generated by GOLD software.
#

@<TRIPOS>MOLECULE
AV-unprocessed.smi:23
    63    66     1
SMALL
NO_CHARGES


@<TRIPOS>ATOM
      1 ****        -5.0603  -0.6486  -3.3910 C.3            1 S1                 0.0000
      2 ****        -4.8793  -1.3814  -2.1848 O.3            1 S1                 0.0000
      3 ****        -4.4374  -0.6854  -1.0144 C.3            1 S1                 0.0000
      4 ****        -4.1893  -1.8338  -0.0155 C.3            1 S1                 0.0000
      5 ****        -5.5363   0.2795  -0.4986 C.3            1 S1                 0.0000
      6 ****        -5.0538   1.0939   0.7150 C.3            1 S1                 0.0000
      7 ****        -3.7241   1.8056   0.4141 C.3            1 S1                 0.0000
      8 ****        -2.7261   0.8559  -0.0791 N.3            1 S1                 0.0000
      9 ****        -1.4215   1.2257  -0.0475 C.ar           1 S1                 0.0000
     10 ****        -1.0895   2.5445  -0.0476 N.ar           1 S1                 0.0000
     11 ****         0.1938   2.9165  -0.0307 C.ar           1 S1                 0.0000
     12 ****         1.2851   2.1492  -0.0064 N.ar           1 S1                 0.0000
     13 ****         0.9593   0.8248   0.0066 C.ar           1 S1                 0.0000
     14 ****        -0.3565   0.2816  -0.0176 C.ar           1 S1                 0.0000
     15 ****        -0.2952  -1.1070  -0.0000 N.2            1 S1                 0.0000
     16 ****         0.9832  -1.3690   0.0159 C.2            1 S1                 0.0000
     17 ****         1.8086  -0.2675   0.0518 N.pl3          1 S1                 0.0000
     18 ****         3.2426  -0.2689   0.0355 C.3            1 S1                 0.0000
     19 ****         4.0405  -1.4085   0.6770 C.3            1 S1                 0.0000
     20 ****         5.1179  -0.4064   1.1476 C.3            1 S1                 0.0000
     21 ****         5.5648  -0.5665   2.6089 C.3            1 S1                 0.0000
     22 ****         6.2104  -1.8062   2.8185 O.3            1 S1                 0.0000
     23 ****         6.3991  -0.2940   0.2910 C.3            1 S1                 0.0000
     24 ****         6.1407  -0.0792  -1.0817 O.3            1 S1                 0.0000
     25 ****         4.0463   0.6845   0.9254 C.3            1 S1                 0.0000
     26 ****        -3.1236   0.0958  -1.2646 C.3            1 S1                 0.0000
     27 ****        -5.4413  -1.3259  -4.1552 H              1 S1                 0.0000
     28 ****        -4.1232  -0.2411  -3.7685 H              1 S1                 0.0000
     29 ****        -5.7847   0.1579  -3.2897 H              1 S1                 0.0000
     30 ****        -3.8164  -1.4770   0.9441 H              1 S1                 0.0000
     31 ****        -3.4503  -2.5355  -0.4038 H              1 S1                 0.0000
     32 ****        -5.1046  -2.3948   0.1760 H              1 S1                 0.0000
     33 ****        -5.8166   0.9892  -1.2755 H              1 S1                 0.0000
     34 ****        -6.4425  -0.2724  -0.2468 H              1 S1                 0.0000
     35 ****        -5.8105   1.8272   0.9951 H              1 S1                 0.0000
     36 ****        -4.9329   0.4414   1.5797 H              1 S1                 0.0000
     37 ****        -3.8783   2.5838  -0.3347 H              1 S1                 0.0000
     38 ****        -3.3634   2.2959   1.3194 H              1 S1                 0.0000
     39 ****         0.3718   3.9818  -0.0366 H              1 S1                 0.0000
     40 ****         1.3601  -2.3815   0.0093 H              1 S1                 0.0000
     41 ****         3.5242  -0.1460  -1.0109 H              1 S1                 0.0000
     42 ****         3.5081  -1.8732   1.5088 H              1 S1                 0.0000
     43 ****         4.3938  -2.1623  -0.0272 H              1 S1                 0.0000
     44 ****         6.2376   0.2383   2.9071 H              1 S1                 0.0000
     45 ****         4.7104  -0.5192   3.2847 H              1 S1                 0.0000
     46 ****         6.4486  -1.8709   3.7308 H              1 S1                 0.0000
     47 ****         7.0257   0.5269   0.6411 H              1 S1                 0.0000
     48 ****         7.0009  -1.1999   0.3683 H              1 S1                 0.0000
     49 ****         6.9665  -0.0340  -1.5392 H              1 S1                 0.0000
     50 ****         4.4015   1.5810   0.4159 H              1 S1                 0.0000
     51 ****         3.5087   0.9469   1.8381 H              1 S1                 0.0000
     52 ****        -2.3416  -0.5903  -1.5890 H              1 S1                 0.0000
     53 ****        -3.2533   0.8194  -2.0691 H              1 S1                 0.0000
     54 ****        -4.2058  -2.0962  -2.3734 LP             1 S1                 0.0000
     55 ****        -5.7585  -1.8023  -1.9619 LP             1 S1                 0.0000
     56 ****        -2.7396   0.1894   0.6663 LP             1 S1                 0.0000
     57 ****        -1.8089   3.2389  -0.0604 LP             1 S1                 0.0000
     58 ****         2.2215   2.5000   0.0013 LP             1 S1                 0.0000
     59 ****        -1.0559  -1.7561   0.0004 LP             1 S1                 0.0000
     60 ****         7.0322  -1.8585   2.2510 LP             1 S1                 0.0000
     61 ****         5.5912  -2.5537   2.5780 LP             1 S1                 0.0000
     62 ****         5.6419   0.7793  -1.2006 LP             1 S1                 0.0000
     63 ****         5.5952  -0.8347  -1.4444 LP             1 S1                 0.0000
@<TRIPOS>BOND
    1    1    2 1     
    2    1   27 1     
    3    1   28 1     
    4    1   29 1     
    5    2    3 1     
    6    3   26 1     
    7    3    4 1     
    8    3    5 1     
    9    4   30 1     
   10    4   31 1     
   11    4   32 1     
   12    5    6 1     
   13    5   33 1     
   14    5   34 1     
   15    6    7 1     
   16    6   35 1     
   17    6   36 1     
   18    7    8 1     
   19    7   37 1     
   20    7   38 1     
   21    8    9 1     
   22    8   26 1     
   23    9   14 ar    
   24    9   10 ar    
   25   10   11 ar    
   26   11   12 ar    
   27   11   39 1     
   28   12   13 ar    
   29   13   17 1     
   30   13   14 ar    
   31   14   15 1     
   32   15   16 2     
   33   16   17 1     
   34   16   40 1     
   35   17   18 1     
   36   18   25 1     
   37   18   19 1     
   38   18   41 1     
   39   19   20 1     
   40   19   42 1     
   41   19   43 1     
   42   20   21 1     
   43   20   23 1     
   44   20   25 1     
   45   21   22 1     
   46   21   44 1     
   47   21   45 1     
   48   22   46 1     
   49   23   24 1     
   50   23   47 1     
   51   23   48 1     
   52   24   49 1     
   53   25   50 1     
   54   25   51 1     
   55   26   52 1     
   56   26   53 1     
   57    2   54 1     
   58    2   55 1     
   59    8   56 1     
   60   10   57 1     
   61   12   58 1     
   62   15   59 1     
   63   22   60 1     
   64   22   61 1     
   65   24   62 1     
   66   24   63 1     
@<TRIPOS>SUBSTRUCTURE
      1 S1             1
@<TRIPOS>SET
LONE_PAIRS      STATIC     ATOMS    <user>   **** ""
10 54 55 56 57 58 59 60 61 62 63
DONOR_HYDROGENS      STATIC     ATOMS    <user>   **** ""
2 46 49
ATOM$BLUE        STATIC     ATOMS    COLORGROUP SYSTEM
10 54 55 56 57 58 59 60 61 62 63
ATOM$RED        STATIC     ATOMS    COLORGROUP SYSTEM
2 46 49
