#       Name:                AV-unprocessed.smi:213
#       Creating user name   scv26
#       Creation time:       Thu Mar 26 19:59:16 2020


#       File generated by GOLD software.
#

@<TRIPOS>MOLECULE
AV-unprocessed.smi:213
    68    71     1
SMALL
NO_CHARGES


@<TRIPOS>ATOM
      1 ****        -3.5452  -2.0294   1.4411 C.3            1 S1                 0.0000
      2 ****        -2.3368  -1.6339   0.5720 C.3            1 S1                 0.0000
      3 ****        -2.7437  -1.3190  -0.8867 C.3            1 S1                 0.0000
      4 ****        -3.2730  -2.5080  -1.6004 N.4            1 S1                 1.0000
      5 ****        -4.1498  -2.1447  -2.7387 C.3            1 S1                 0.0000
      6 ****        -4.7112  -3.4094  -3.4107 C.3            1 S1                 0.0000
      7 ****        -3.6382  -4.2415  -3.8330 O.3            1 S1                 0.0000
      8 ****        -2.8363  -4.6711  -2.7400 C.3            1 S1                 0.0000
      9 ****        -2.2141  -3.4495  -2.0427 C.3            1 S1                 0.0000
     10 ****        -1.5979  -0.5169   1.1765 N.pl3          1 S1                 0.0000
     11 ****        -2.2810   0.7452   1.4530 C.3            1 S1                 0.0000
     12 ****        -0.2384  -0.4713   1.0814 C.ar           1 S1                 0.0000
     13 ****         0.3919  -1.2409   0.1524 N.ar           1 S1                 0.0000
     14 ****         1.7214  -1.2108   0.0280 C.ar           1 S1                 0.0000
     15 ****         2.6067  -0.4949   0.7209 N.ar           1 S1                 0.0000
     16 ****         1.9891   0.2772   1.6596 C.ar           1 S1                 0.0000
     17 ****         0.5879   0.3491   1.9073 C.ar           1 S1                 0.0000
     18 ****         0.3459   1.2363   2.9514 N.2            1 S1                 0.0000
     19 ****         1.5278   1.6777   3.2831 C.2            1 S1                 0.0000
     20 ****         2.5717   1.1598   2.5524 N.pl3          1 S1                 0.0000
     21 ****         3.9823   1.4784   2.6998 C.3            1 S1                 0.0000
     22 ****         4.4070   2.7952   2.0108 C.3            1 S1                 0.0000
     23 ****         3.7961   3.9100   2.6318 O.3            1 S1                 0.0000
     24 ****         4.1886   2.8408   0.4807 C.3            1 S1                 0.0000
     25 ****         4.6945   4.0969  -0.2296 C.3            1 S1                 0.0000
     26 ****         3.9245   4.0277  -1.5297 C.3            1 S1                 0.0000
     27 ****         2.5695   3.4903  -1.0728 C.3            1 S1                 0.0000
     28 ****         2.8193   2.7270   0.1039 O.3            1 S1                 0.0000
     29 ****        -4.0225  -2.9336   1.0633 H              1 S1                 0.0000
     30 ****        -4.3040  -1.2475   1.4693 H              1 S1                 0.0000
     31 ****        -3.2371  -2.2315   2.4674 H              1 S1                 0.0000
     32 ****        -1.6820  -2.5042   0.5793 H              1 S1                 0.0000
     33 ****        -3.5032  -0.5361  -0.8772 H              1 S1                 0.0000
     34 ****        -1.9021  -0.9126  -1.4495 H              1 S1                 0.0000
     35 ****        -4.9738  -1.5219  -2.3887 H              1 S1                 0.0000
     36 ****        -3.5851  -1.5546  -3.4623 H              1 S1                 0.0000
     37 ****        -5.3652  -3.9559  -2.7291 H              1 S1                 0.0000
     38 ****        -5.3116  -3.1386  -4.2792 H              1 S1                 0.0000
     39 ****        -3.4355  -5.2566  -2.0407 H              1 S1                 0.0000
     40 ****        -2.0524  -5.3289  -3.1156 H              1 S1                 0.0000
     41 ****        -1.5333  -2.9400  -2.7267 H              1 S1                 0.0000
     42 ****        -1.6193  -3.7839  -1.1935 H              1 S1                 0.0000
     43 ****        -1.7366   1.5926   1.0339 H              1 S1                 0.0000
     44 ****        -2.3759   0.8930   2.5289 H              1 S1                 0.0000
     45 ****        -3.2830   0.7641   1.0265 H              1 S1                 0.0000
     46 ****         2.1353  -1.8509  -0.7371 H              1 S1                 0.0000
     47 ****         1.6711   2.4022   4.0715 H              1 S1                 0.0000
     48 ****         4.2115   1.5224   3.7652 H              1 S1                 0.0000
     49 ****         4.5669   0.6497   2.2993 H              1 S1                 0.0000
     50 ****         5.4772   2.9118   2.1843 H              1 S1                 0.0000
     51 ****         4.0295   3.9092   3.5473 H              1 S1                 0.0000
     52 ****         4.6972   1.9821   0.0390 H              1 S1                 0.0000
     53 ****         4.4184   5.0005   0.3147 H              1 S1                 0.0000
     54 ****         5.7752   4.0991  -0.3726 H              1 S1                 0.0000
     55 ****         3.8523   4.9886  -2.0395 H              1 S1                 0.0000
     56 ****         4.4004   3.3169  -2.2066 H              1 S1                 0.0000
     57 ****         1.8993   4.3107  -0.8147 H              1 S1                 0.0000
     58 ****         2.0853   2.8857  -1.8396 H              1 S1                 0.0000
     59 ****        -3.8568  -3.0034  -0.9417 H              1 S1                 0.0000
     60 ****        -3.0648  -3.7295  -4.4726 LP             1 S1                 0.0000
     61 ****        -4.0147  -5.0456  -4.2930 LP             1 S1                 0.0000
     62 ****        -0.1468  -1.8359  -0.4440 LP             1 S1                 0.0000
     63 ****         3.5952  -0.5207   0.5717 LP             1 S1                 0.0000
     64 ****        -0.5353   1.4805   3.3563 LP             1 S1                 0.0000
     65 ****         2.8027   3.8463   2.5371 LP             1 S1                 0.0000
     66 ****         4.1184   4.7537   2.2025 LP             1 S1                 0.0000
     67 ****         2.2426   3.0666   0.8470 LP             1 S1                 0.0000
     68 ****         2.6038   1.7667  -0.0730 LP             1 S1                 0.0000
@<TRIPOS>BOND
    1    1    2 1     
    2    1   29 1     
    3    1   30 1     
    4    1   31 1     
    5    2    3 1     
    6    2   10 1     
    7    2   32 1     
    8    3    4 1     
    9    3   33 1     
   10    3   34 1     
   11    4    9 1     
   12    4    5 1     
   13    4   59 1     
   14    5    6 1     
   15    5   35 1     
   16    5   36 1     
   17    6    7 1     
   18    6   37 1     
   19    6   38 1     
   20    7    8 1     
   21    8    9 1     
   22    8   39 1     
   23    8   40 1     
   24    9   41 1     
   25    9   42 1     
   26   10   11 1     
   27   10   12 1     
   28   11   43 1     
   29   11   44 1     
   30   11   45 1     
   31   12   17 ar    
   32   12   13 ar    
   33   13   14 ar    
   34   14   15 ar    
   35   14   46 1     
   36   15   16 ar    
   37   16   20 1     
   38   16   17 ar    
   39   17   18 1     
   40   18   19 2     
   41   19   20 1     
   42   19   47 1     
   43   20   21 1     
   44   21   22 1     
   45   21   48 1     
   46   21   49 1     
   47   22   23 1     
   48   22   24 1     
   49   22   50 1     
   50   23   51 1     
   51   24   28 1     
   52   24   25 1     
   53   24   52 1     
   54   25   26 1     
   55   25   53 1     
   56   25   54 1     
   57   26   27 1     
   58   26   55 1     
   59   26   56 1     
   60   27   28 1     
   61   27   57 1     
   62   27   58 1     
   63    7   60 1     
   64    7   61 1     
   65   13   62 1     
   66   15   63 1     
   67   18   64 1     
   68   23   65 1     
   69   23   66 1     
   70   28   67 1     
   71   28   68 1     
@<TRIPOS>SUBSTRUCTURE
      1 S1             1
@<TRIPOS>SET
LONE_PAIRS      STATIC     ATOMS    <user>   **** ""
9 60 61 62 63 64 65 66 67 68
DONOR_HYDROGENS      STATIC     ATOMS    <user>   **** ""
2 59 51
ATOM$BLUE        STATIC     ATOMS    COLORGROUP SYSTEM
9 60 61 62 63 64 65 66 67 68
ATOM$RED        STATIC     ATOMS    COLORGROUP SYSTEM
2 59 51
