AV-unprocessed.smi:298|AV-procd|sdf|2262|dock4
  -GOLD-   2262022153D 1   1.00000     0.00000
 Structure written by MMmdl.
 38 40  0  0  0  0  0  0  0  0  1 V2000
  153.9433  142.6195  163.5264 C   0  0  0  0  0  0  0  0  0  0  0  0
  153.3194  142.7694  162.1502 C   0  0  0  0  0  0  0  0  0  0  0  0
  152.4114  143.8274  161.9189 C   0  0  0  0  0  0  0  0  0  0  0  0
  151.8128  144.0046  160.6524 C   0  0  0  0  0  0  0  0  0  0  0  0
  150.9134  144.9587  160.2075 N   0  0  0  0  0  0  0  0  0  0  0  0
  150.7404  144.5944  158.9400 C   0  0  0  0  0  0  0  0  0  0  0  0
  151.4233  143.5159  158.5106 N   0  0  0  0  0  0  0  0  0  0  0  0
  151.4014  142.9377  157.1794 C   0  0  0  0  0  0  0  0  0  0  0  0
  150.2425  141.9356  156.9903 C   0  0  1  0  0  0  0  0  0  0  0  0
  149.0027  142.6115  157.0826 O   0  0  0  0  0  0  0  0  0  0  0  0
  150.3100  141.1581  155.6575 C   0  0  0  0  0  0  0  0  0  0  0  0
  151.2090  140.0156  155.6893 N   0  0  0  0  0  0  0  0  0  0  0  0
  151.1917  138.9197  156.4551 C   0  0  0  0  0  0  0  0  0  0  0  0
  152.1851  138.0740  156.2115 N   0  0  0  0  0  0  0  0  0  0  0  0
  152.8092  138.7638  155.2130 C   0  0  0  0  0  0  0  0  0  0  0  0
  154.0080  138.2519  154.5707 C   0  0  0  0  0  0  0  0  0  0  0  0
  154.9629  137.8446  154.0592 N   0  0  0  0  0  0  0  0  0  0  0  0
  152.2714  139.9268  154.8522 N   0  0  0  0  0  0  0  0  0  0  0  0
  152.1501  143.0865  159.6156 C   0  0  0  0  0  0  0  0  0  0  0  0
  153.0506  142.0289  159.8333 C   0  0  0  0  0  0  0  0  0  0  0  0
  153.6401  141.8666  161.1045 C   0  0  0  0  0  0  0  0  0  0  0  0
  154.6137  140.7231  161.3287 C   0  0  0  0  0  0  0  0  0  0  0  0
  153.5787  143.3830  164.2141 H   0  0  0  0  0  0  0  0  0  0  0  0
  155.0278  142.7143  163.4663 H   0  0  0  0  0  0  0  0  0  0  0  0
  153.7032  141.6447  163.9518 H   0  0  0  0  0  0  0  0  0  0  0  0
  152.1682  144.5160  162.7148 H   0  0  0  0  0  0  0  0  0  0  0  0
  150.0824  145.1452  158.2838 H   0  0  0  0  0  0  0  0  0  0  0  0
  151.3368  143.7523  156.4573 H   0  0  0  0  0  0  0  0  0  0  0  0
  152.3577  142.4428  157.0045 H   0  0  0  0  0  0  0  0  0  0  0  0
  150.2696  141.2122  157.8060 H   0  0  0  0  0  0  0  0  0  0  0  0
  149.0094  143.3363  156.4760 H   0  0  0  0  0  0  0  0  0  0  0  0
  149.3154  140.7942  155.3972 H   0  0  0  0  0  0  0  0  0  0  0  0
  150.6146  141.8205  154.8458 H   0  0  0  0  0  0  0  0  0  0  0  0
  150.4401  138.7408  157.2101 H   0  0  0  0  0  0  0  0  0  0  0  0
  153.2883  141.3509  159.0267 H   0  0  0  0  0  0  0  0  0  0  0  0
  154.7610  140.1411  160.4183 H   0  0  0  0  0  0  0  0  0  0  0  0
  154.2402  140.0492  162.1000 H   0  0  0  0  0  0  0  0  0  0  0  0
  155.5860  141.1042  161.6420 H   0  0  0  0  0  0  0  0  0  0  0  0
  1  2  1  0  0  0  0
  1 23  1  0  0  0  0
  1 24  1  0  0  0  0
  1 25  1  0  0  0  0
  2 21  1  0  0  0  0
  2  3  2  0  0  0  0
  3  4  1  0  0  0  0
  3 26  1  0  0  0  0
  4 19  2  0  0  0  0
  4  5  1  0  0  0  0
  5  6  2  0  0  0  0
  6  7  1  0  0  0  0
  6 27  1  0  0  0  0
  7  8  1  0  0  0  0
  7 19  1  0  0  0  0
  8  9  1  0  0  0  0
  8 28  1  0  0  0  0
  8 29  1  0  0  0  0
  9 10  1  0  0  0  0
  9 11  1  0  0  0  0
  9 30  1  0  0  0  0
 10 31  1  0  0  0  0
 11 12  1  0  0  0  0
 11 32  1  0  0  0  0
 11 33  1  0  0  0  0
 12 18  1  0  0  0  0
 12 13  1  0  0  0  0
 13 14  2  0  0  0  0
 13 34  1  0  0  0  0
 14 15  1  0  0  0  0
 15 16  1  0  0  0  0
 15 18  2  0  0  0  0
 16 17  3  0  0  0  0
 19 20  1  0  0  0  0
 20 21  2  0  0  0  0
 20 35  1  0  0  0  0
 21 22  1  0  0  0  0
 22 36  1  0  0  0  0
 22 37  1  0  0  0  0
 22 38  1  0  0  0  0
M  END
> <s_m_source_file>
AV-unprocessed.smi

> <i_m_source_file_index>
298

> <i_lp_mmshare_version>
43012

> <i_f3d_flags>
0

> <s_epik_input>
W0NIM11jKFtjSF0xKWMoW0NIM10pW2NIXWMoYzEyKW4oW2NIXW4yKVtDSDJdW0NASF0oW09IXSlbQ0gyXW4zW2NIXW5jKG4zKUMjTg==

> <s_epik_cmdline>
J2VwaWtfcHl0aG9uJywgJy1waCcsICc3LjAnLCAnLXRuJywgJzgnLCAnLW1hJywgJzIwMCcsICctbWV0YWxfYmluZGluZycsICctaW1hZScsICc8aW5maWxlLm1hZT4nLCAnLW9tYWUnLCAnPG91dGZpbGUubWFlPic=

> <r_epik_Ionization_Penalty>
0.0968684

> <r_epik_Ionization_Penalty_Charging>
0

> <r_epik_Ionization_Penalty_Neutral>
0.0968684

> <r_epik_State_Penalty>
0.0870047

> <r_epik_Charging_Adjusted_Penalty>
0.0870047

> <i_epik_Tot_Q>
0

> <i_epik_Tot_abs_Q>
0

> <r_epik_Metal_State_Penalty>
0.0746849

> <b_epik_Metal_Only>
0

> <s_lp_Force_Field>
OPLS_2005

> <r_lp_Energy>
12.6861

> <b_lp_Chiralities_Consistent>
1

> <s_lp_Variant>
AV-unprocessed.smi:298-2

> <Gold.Version>
5.8.1

> <Gold.Id.Protein>
6NUR|6NUR_protein|mol2

> <Gold.PLP.Fitness>
60.0253

> <Gold.PLP.PLP>
-52.5956

> <Gold.PLP.part.hbond>
-2.9757

> <Gold.PLP.part.metal>
0.0000

> <Gold.PLP.part.buried>
-3.1392

> <Gold.PLP.part.nonpolar>
-46.6346

> <Gold.PLP.part.repulsive>
0.2162

> <Gold.PLP.ligand.clash>
0.0000

> <Gold.PLP.ligand.torsion>
0.6302

> <Gold.PLP.Chemscore.Hbond>
1.8531

> <Gold.PLP.Chemscore.CHOScore>
1.0393

> <Gold.PLP.Chemscore.Metal>
0.0000

> <Gold.Chemscore.Hbonds>
donor molecule, donor type, donor heavy atom, donor atom, acceptor molecule, acceptor atom, score
      L1  H    10    31       P1  8028  1.00
      P1  H  7989  7998       L1    18  0.70
      P1  H 10752 10765       L1    17  0.11
      L1  C     6    27       P1  8028  0.04
      L1  C     6    27       P1  8029  1.00

> <Gold.PLP.Chemscore.Internal.Correction>
0.0128

> <Gold.Rescore>
     Score         DG    S(hbond)    S(metal)    S(lipo)     H(rot)  DE(clash)    DE(int)     intcor
     14.63     -16.11       1.60        0.00     111.55       3.03       0.82       0.66       ----

> <Gold.Chemscore.Fitness>
14.6260

> <Gold.Chemscore.DG>
-16.1118

> <Gold.Chemscore.ZeroCoef>
-5.4800

> <Gold.Chemscore.Hbond>
1.5991

> <Gold.Chemscore.Metal>
0.0000

> <Gold.Chemscore.Lipo>
111.5520

> <Gold.Chemscore.Internal_Hbond>
0.0000

> <Gold.Chemscore.DEClash>
0.8230

> <Gold.Chemscore.DEInternal>
0.6628

> <Gold.Chemscore.Rot>
3.0316

> <Gold.Chemscore.Internal.Correction>
   9.000000E+99

> <Gold.Chemscore.Hbonds>
donor molecule, donor type, donor heavy atom, donor atom, acceptor molecule, acceptor atom, score
      L1  H    10    31       P1  8028  0.97
      P1  H  7989  7998       L1    18  0.18
      P1  H 10752 10765       L1    17  0.07

> <Gold.Chemscore.Hbond.Weighted>
-5.3411

> <Gold.Chemscore.Metal.Weighted>
-0.0000

> <Gold.Chemscore.Lipo.Weighted>
-13.0516

> <Gold.Chemscore.Internal_Hbond.Weighted>
0.0000

> <Gold.Chemscore.DEClash.Weighted>
0.8230

> <Gold.Chemscore.DEInternal.Weighted>
0.6628

> <Gold.Chemscore.Rot.Weighted>
7.7609

> <Gold.Chemscore.Internal.Correction.Weighted>
   9.000000E+99

> <Gold.Protein.RotatedTorsions>
[ 6907 6896 6895 6894 ] final    0.81 input  -60.11 | X-H torsion
[ 7974 7965 7964 7962 ] final  152.32 input  175.53 | X-H torsion
[ 8008 7997 7996 7995 ] final -117.92 input   59.86 | X-H torsion
[ 10167 10162 10161 10158 ] final -154.94 input  -65.29 | X-H torsion
[ 10718 10713 10712 10709 ] final  -61.08 input   66.30 | X-H torsion
[ 10763 10752 10751 10750 ] final   25.84 input  -60.55 | X-H torsion
[ 11005 11000 10999 10996 ] final -116.80 input  -57.11 | X-H torsion

> <Gold.Protein.ActiveResidues>
 VAL166  LYS551  ARG553  GLY616  TRP617  ASP618  TYR619  PRO620  LYS621  CYS622 
 ASP623  PHE694  ASN695  SER759  ASP760  ASP761  ALA762  ILE779  LEU786  VAL792 
 PHE793  MET794  SER795  GLU796  ALA797  LYS798  CYS799  TRP800  GLU811  SER814 

> <Gold.Protein.RotatedAtoms>
  151.5825  135.1057  160.0020 H   0  0  0  0  0  0  0  0  0  0  0  0  # atno 6907 bound_to 6896
  152.4347  133.7335  159.6611 H   0  0  0  0  0  0  0  0  0  0  0  0  # atno 6908 bound_to 6896
  150.8243  133.8129  159.3148 H   0  0  0  0  0  0  0  0  0  0  0  0  # atno 6909 bound_to 6896
  144.8230  139.6653  143.6092 H   0  0  0  0  0  0  0  0  0  0  0  0  # atno 7974 bound_to 7965
  155.0914  140.0395  157.2670 H   0  0  0  0  0  0  0  0  0  0  0  0  # atno 8008 bound_to 7997
  154.6829  140.2637  155.6865 H   0  0  0  0  0  0  0  0  0  0  0  0  # atno 8009 bound_to 7997
  156.2701  140.2775  156.1379 H   0  0  0  0  0  0  0  0  0  0  0  0  # atno 8010 bound_to 7997
  139.6972  143.9323  152.2412 H   0  0  0  0  0  0  0  0  0  0  0  0  # atno 10167 bound_to 10162
  156.0946  130.4195  150.0944 H   0  0  0  0  0  0  0  0  0  0  0  0  # atno 10718 bound_to 10713
  153.0664  135.6574  154.0346 H   0  0  0  0  0  0  0  0  0  0  0  0  # atno 10763 bound_to 10752
  154.0002  135.2938  155.3405 H   0  0  0  0  0  0  0  0  0  0  0  0  # atno 10764 bound_to 10752
  154.7023  135.5239  153.8613 H   0  0  0  0  0  0  0  0  0  0  0  0  # atno 10765 bound_to 10752
  141.0397  133.9854  157.3014 H   0  0  0  0  0  0  0  0  0  0  0  0  # atno 11005 bound_to 11000
  146.2536  139.6253  142.9410 LP  0  0  0  0  0  0  0  0  0  0  0  0  # atno 17320 bound_to 7965
  145.5062  141.0436  143.2513 LP  0  0  0  0  0  0  0  0  0  0  0  0  # atno 17321 bound_to 7965
  139.9155  144.6831  150.8516 LP  0  0  0  0  0  0  0  0  0  0  0  0  # atno 17342 bound_to 10162
  140.7699  143.3412  151.2204 LP  0  0  0  0  0  0  0  0  0  0  0  0  # atno 17343 bound_to 10162
  156.8946  130.9600  151.3584 LP  0  0  0  0  0  0  0  0  0  0  0  0  # atno 17370 bound_to 10713
  157.6104  130.8578  149.8942 LP  0  0  0  0  0  0  0  0  0  0  0  0  # atno 17371 bound_to 10713
  139.9267  135.0201  156.8258 LP  0  0  0  0  0  0  0  0  0  0  0  0  # atno 17394 bound_to 11000
  140.6256  133.9953  155.7638 LP  0  0  0  0  0  0  0  0  0  0  0  0  # atno 17395 bound_to 11000

$$$$
