AV-unprocessed.smi:1475|AV-procd|sdf|5979|dock5
  -GOLD-   22720 6 73D 1   1.00000     0.00000
 Structure written by MMmdl.
 50 51  0  0  0  0  0  0  0  0  2 V2000
  152.7635  138.6718  154.5506 C   0  0  0  0  0  0  0  0  0  0  0  0
  151.3804  139.2192  154.7469 C   0  0  0  0  0  0  0  0  0  0  0  0
  150.9820  140.3603  155.4979 C   0  0  0  0  0  0  0  0  0  0  0  0
  149.6249  140.4078  155.3468 C   0  0  0  0  0  0  0  0  0  0  0  0
  148.6299  141.3764  155.8971 C   0  0  0  0  0  0  0  0  0  0  0  0
  149.2725  139.3363  154.5442 N   0  0  0  0  0  0  0  0  0  0  0  0
  147.9528  138.9233  154.0840 C   0  0  0  0  0  0  0  0  0  0  0  0
  147.4852  137.6172  154.7370 C   0  0  0  0  0  0  0  0  0  0  0  0
  147.0894  137.6237  155.9019 O   0  0  0  0  0  0  0  0  0  0  0  0
  147.5465  136.5020  153.9930 N   0  0  0  0  0  0  0  0  0  0  0  0
  147.1279  135.1833  154.4443 C   0  0  0  0  0  0  0  0  0  0  0  0
  146.1536  134.5590  153.4329 C   0  0  0  0  0  0  0  0  0  0  0  0
  146.8435  134.0580  152.2138 N   0  3  1  0  0  0  0  0  0  0  0  0
  147.5379  132.7596  152.4184 C   0  0  0  0  0  0  0  0  0  0  0  0
  146.5516  131.5737  152.4681 C   0  0  2  0  0  0  0  0  0  0  0  0
  147.2864  130.2429  152.6827 C   0  0  0  0  0  0  0  0  0  0  0  0
  145.6996  131.5431  151.1870 C   0  0  0  0  0  0  0  0  0  0  0  0
  144.9873  132.8891  150.9653 C   0  0  2  0  0  0  0  0  0  0  0  0
  144.1724  132.8815  149.6644 C   0  0  0  0  0  0  0  0  0  0  0  0
  146.0100  134.0469  150.9801 C   0  0  0  0  0  0  0  0  0  0  0  0
  150.3522  138.6102  154.1800 N   0  0  0  0  0  0  0  0  0  0  0  0
  153.5195  139.3890  154.8704 H   0  0  0  0  0  0  0  0  0  0  0  0
  152.9517  138.4385  153.5021 H   0  0  0  0  0  0  0  0  0  0  0  0
  152.9073  137.7577  155.1267 H   0  0  0  0  0  0  0  0  0  0  0  0
  151.6009  141.0423  156.0623 H   0  0  0  0  0  0  0  0  0  0  0  0
  149.1176  142.1159  156.5327 H   0  0  0  0  0  0  0  0  0  0  0  0
  147.8768  140.8644  156.4962 H   0  0  0  0  0  0  0  0  0  0  0  0
  148.1216  141.9097  155.0938 H   0  0  0  0  0  0  0  0  0  0  0  0
  147.2303  139.7115  154.2954 H   0  0  0  0  0  0  0  0  0  0  0  0
  147.9809  138.8050  152.9996 H   0  0  0  0  0  0  0  0  0  0  0  0
  147.8863  136.5817  153.0455 H   0  0  0  0  0  0  0  0  0  0  0  0
  148.0186  134.5679  154.5693 H   0  0  0  0  0  0  0  0  0  0  0  0
  146.6480  135.2636  155.4213 H   0  0  0  0  0  0  0  0  0  0  0  0
  145.6544  133.7225  153.9245 H   0  0  0  0  0  0  0  0  0  0  0  0
  145.3680  135.2673  153.1707 H   0  0  0  0  0  0  0  0  0  0  0  0
  148.2412  132.6160  151.5968 H   0  0  0  0  0  0  0  0  0  0  0  0
  148.1413  132.7980  153.3263 H   0  0  0  0  0  0  0  0  0  0  0  0
  145.8833  131.7138  153.3189 H   0  0  0  0  0  0  0  0  0  0  0  0
  147.9701  130.0292  151.8604 H   0  0  0  0  0  0  0  0  0  0  0  0
  146.5828  129.4130  152.7541 H   0  0  0  0  0  0  0  0  0  0  0  0
  147.8690  130.2596  153.6043 H   0  0  0  0  0  0  0  0  0  0  0  0
  146.3341  131.3171  150.3285 H   0  0  0  0  0  0  0  0  0  0  0  0
  144.9644  130.7396  151.2481 H   0  0  0  0  0  0  0  0  0  0  0  0
  144.2798  133.0361  151.7814 H   0  0  0  0  0  0  0  0  0  0  0  0
  144.8138  132.7413  148.7937 H   0  0  0  0  0  0  0  0  0  0  0  0
  143.6337  133.8206  149.5338 H   0  0  0  0  0  0  0  0  0  0  0  0
  143.4357  132.0777  149.6674 H   0  0  0  0  0  0  0  0  0  0  0  0
  145.5054  135.0028  150.8466 H   0  0  0  0  0  0  0  0  0  0  0  0
  146.6807  133.9455  150.1258 H   0  0  0  0  0  0  0  0  0  0  0  0
  147.5806  134.7276  152.0443 H   0  0  0  0  0  0  0  0  0  0  0  0
  1  2  1  0  0  0  0
  1 22  1  0  0  0  0
  1 23  1  0  0  0  0
  1 24  1  0  0  0  0
  2 21  2  0  0  0  0
  2  3  1  0  0  0  0
  3  4  2  0  0  0  0
  3 25  1  0  0  0  0
  4  5  1  0  0  0  0
  4  6  1  0  0  0  0
  5 26  1  0  0  0  0
  5 27  1  0  0  0  0
  5 28  1  0  0  0  0
  6  7  1  0  0  0  0
  6 21  1  0  0  0  0
  7  8  1  0  0  0  0
  7 29  1  0  0  0  0
  7 30  1  0  0  0  0
  8  9  2  0  0  0  0
  8 10  1  0  0  0  0
 10 11  1  0  0  0  0
 10 31  1  0  0  0  0
 11 12  1  0  0  0  0
 11 32  1  0  0  0  0
 11 33  1  0  0  0  0
 12 13  1  0  0  0  0
 12 34  1  0  0  0  0
 12 35  1  0  0  0  0
 13 20  1  0  0  0  0
 13 14  1  0  0  0  0
 13 50  1  0  0  0  0
 14 15  1  0  0  0  0
 14 36  1  0  0  0  0
 14 37  1  0  0  0  0
 15 16  1  0  0  0  0
 15 17  1  0  0  0  0
 15 38  1  0  0  0  0
 16 39  1  0  0  0  0
 16 40  1  0  0  0  0
 16 41  1  0  0  0  0
 17 18  1  0  0  0  0
 17 42  1  0  0  0  0
 17 43  1  0  0  0  0
 18 19  1  0  0  0  0
 18 20  1  0  0  0  0
 18 44  1  0  0  0  0
 19 45  1  0  0  0  0
 19 46  1  0  0  0  0
 19 47  1  0  0  0  0
 20 48  1  0  0  0  0
 20 49  1  0  0  0  0
M  CHG  1  13   1
M  END
> <s_m_source_file>
AV-unprocessed.smi

> <i_m_source_file_index>
1475

> <i_lp_mmshare_version>
43012

> <i_f3d_flags>
0

> <s_epik_input>
W0NIM11jMVtjSF1jKFtDSDNdKW4objEpW0NIMl1DKD1PKVtOSF1bQ0gyXVtDSDJdTjJbQ0gyXVtDQEBIXShbQ0gzXSlbQ0gyXVtDQEBIXShbQ0gzXSlbQ0gyXTI=

> <s_epik_cmdline>
J2VwaWtfcHl0aG9uJywgJy1waCcsICc3LjAnLCAnLXRuJywgJzgnLCAnLW1hJywgJzIwMCcsICctbWV0YWxfYmluZGluZycsICctaW1hZScsICc8aW5maWxlLm1hZT4nLCAnLW9tYWUnLCAnPG91dGZpbGUubWFlPic=

> <r_lp_tautomer_probability>
1

> <r_epik_Ionization_Penalty>
0.00206431

> <r_epik_Ionization_Penalty_Charging>
0.00187095

> <r_epik_Ionization_Penalty_Neutral>
0.000193364

> <r_epik_State_Penalty>
-0

> <r_epik_Charging_Adjusted_Penalty>
0.00187095

> <i_epik_Tot_Q>
1

> <i_epik_Tot_abs_Q>
1

> <r_epik_Metal_State_Penalty>
-0

> <b_epik_Metal_Only>
0

> <s_lp_Force_Field>
OPLS_2005

> <r_lp_Energy>
18.0361

> <b_lp_Chiralities_Consistent>
1

> <s_lp_Variant>
AV-unprocessed.smi:1475-4

> <Gold.Version>
5.8.1

> <Gold.Id.Protein>
6NUR|6NUR_protein|mol2

> <Gold.PLP.Fitness>
44.4947

> <Gold.PLP.PLP>
-36.6881

> <Gold.PLP.part.hbond>
-1.8806

> <Gold.PLP.part.metal>
0.0000

> <Gold.PLP.part.buried>
-3.4551

> <Gold.PLP.part.nonpolar>
-32.6100

> <Gold.PLP.part.repulsive>
0.2663

> <Gold.PLP.ligand.clash>
0.0000

> <Gold.PLP.ligand.torsion>
0.6230

> <Gold.PLP.Chemscore.Hbond>
3.0000

> <Gold.PLP.Chemscore.CHOScore>
0.0000

> <Gold.PLP.Chemscore.Metal>
0.0000

> <Gold.Chemscore.Hbonds>
donor molecule, donor type, donor heavy atom, donor atom, acceptor molecule, acceptor atom, score
      L1  H    10    31       P1  7948  1.00
      L1  H    13    50       P1  7948  2.00

> <Gold.PLP.Chemscore.Internal.Correction>
0.0526

> <Gold.Rescore>
     Score         DG    S(hbond)    S(metal)    S(lipo)     H(rot)  DE(clash)    DE(int)     intcor
     17.91     -18.43       1.93        0.00      91.35       1.64       0.16       0.37       ----

> <Gold.Chemscore.Fitness>
17.9069

> <Gold.Chemscore.DG>
-18.4312

> <Gold.Chemscore.ZeroCoef>
-5.4800

> <Gold.Chemscore.Hbond>
1.9344

> <Gold.Chemscore.Metal>
0.0000

> <Gold.Chemscore.Lipo>
91.3537

> <Gold.Chemscore.Internal_Hbond>
0.0000

> <Gold.Chemscore.DEClash>
0.1559

> <Gold.Chemscore.DEInternal>
0.3684

> <Gold.Chemscore.Rot>
1.6399

> <Gold.Chemscore.Internal.Correction>
   9.000000E+99

> <Gold.Chemscore.Hbonds>
donor molecule, donor type, donor heavy atom, donor atom, acceptor molecule, acceptor atom, score
      L1  H    10    31       P1  7948  0.96
      L1  H    13    50       P1  7948  0.67

> <Gold.Chemscore.Hbond.Weighted>
-6.4610

> <Gold.Chemscore.Metal.Weighted>
-0.0000

> <Gold.Chemscore.Lipo.Weighted>
-10.6884

> <Gold.Chemscore.Internal_Hbond.Weighted>
0.0000

> <Gold.Chemscore.DEClash.Weighted>
0.1559

> <Gold.Chemscore.DEInternal.Weighted>
0.3684

> <Gold.Chemscore.Rot.Weighted>
4.1982

> <Gold.Chemscore.Internal.Correction.Weighted>
   9.000000E+99

> <Gold.Protein.RotatedTorsions>
[ 6907 6896 6895 6894 ] final -124.49 input  -60.11 | X-H torsion
[ 7974 7965 7964 7962 ] final -106.79 input  175.53 | X-H torsion
[ 8008 7997 7996 7995 ] final   11.81 input   59.86 | X-H torsion
[ 10167 10162 10161 10158 ] final   87.76 input  -65.29 | X-H torsion
[ 10718 10713 10712 10709 ] final  -42.44 input   66.30 | X-H torsion
[ 10763 10752 10751 10750 ] final  -27.87 input  -60.55 | X-H torsion
[ 11005 11000 10999 10996 ] final  -22.99 input  -57.11 | X-H torsion

> <Gold.Protein.ActiveResidues>
 VAL166  LYS551  ARG553  GLY616  TRP617  ASP618  TYR619  PRO620  LYS621  CYS622 
 ASP623  PHE694  ASN695  SER759  ASP760  ASP761  ALA762  ILE779  LEU786  VAL792 
 PHE793  MET794  SER795  GLU796  ALA797  LYS798  CYS799  TRP800  GLU811  SER814 

> <Gold.Protein.RotatedAtoms>
  150.8773  133.7421  159.2942 H   0  0  0  0  0  0  0  0  0  0  0  0  # atno 6907 bound_to 6896
  151.5014  135.1060  159.9839 H   0  0  0  0  0  0  0  0  0  0  0  0  # atno 6908 bound_to 6896
  152.4736  133.8041  159.7024 H   0  0  0  0  0  0  0  0  0  0  0  0  # atno 6909 bound_to 6896
  145.2134  140.9105  143.3301 H   0  0  0  0  0  0  0  0  0  0  0  0  # atno 7974 bound_to 7965
  154.8120  140.2869  155.5847 H   0  0  0  0  0  0  0  0  0  0  0  0  # atno 8008 bound_to 7997
  156.2989  140.2566  156.2940 H   0  0  0  0  0  0  0  0  0  0  0  0  # atno 8009 bound_to 7997
  154.9437  140.0381  157.2099 H   0  0  0  0  0  0  0  0  0  0  0  0  # atno 8010 bound_to 7997
  139.8741  144.6476  150.8916 H   0  0  0  0  0  0  0  0  0  0  0  0  # atno 10167 bound_to 10162
  156.2596  130.4195  149.8557 H   0  0  0  0  0  0  0  0  0  0  0  0  # atno 10718 bound_to 10713
  153.7391  135.6933  153.4971 H   0  0  0  0  0  0  0  0  0  0  0  0  # atno 10763 bound_to 10752
  153.2082  135.4412  155.0346 H   0  0  0  0  0  0  0  0  0  0  0  0  # atno 10764 bound_to 10752
  154.8227  135.3430  154.6917 H   0  0  0  0  0  0  0  0  0  0  0  0  # atno 10765 bound_to 10752
  140.8709  133.7721  156.0185 H   0  0  0  0  0  0  0  0  0  0  0  0  # atno 11005 bound_to 11000
  144.9834  139.3761  143.6251 LP  0  0  0  0  0  0  0  0  0  0  0  0  # atno 17320 bound_to 7965
  146.3392  139.8984  142.8798 LP  0  0  0  0  0  0  0  0  0  0  0  0  # atno 17321 bound_to 7965
  140.7756  143.3639  151.1775 LP  0  0  0  0  0  0  0  0  0  0  0  0  # atno 17342 bound_to 10162
  139.7256  143.9153  152.3001 LP  0  0  0  0  0  0  0  0  0  0  0  0  # atno 17343 bound_to 10162
  156.6077  130.8573  151.3447 LP  0  0  0  0  0  0  0  0  0  0  0  0  # atno 17370 bound_to 10713
  157.7245  130.9604  150.1578 LP  0  0  0  0  0  0  0  0  0  0  0  0  # atno 17371 bound_to 10713
  140.8574  134.2881  157.5249 LP  0  0  0  0  0  0  0  0  0  0  0  0  # atno 17394 bound_to 11000
  139.8712  134.9500  156.4043 LP  0  0  0  0  0  0  0  0  0  0  0  0  # atno 17395 bound_to 11000

$$$$
