AV-unprocessed.smi:290|AV-procd|sdf|2225|dock1
  -GOLD-   2262022 73D 1   1.00000     0.00000
 Structure written by MMmdl.
 59 62  0  0  0  0  0  0  0  0  2 V2000
  147.6222  137.0836  158.8360 C   0  0  0  0  0  0  0  0  0  0  0  0
  146.8957  136.6058  160.1040 C   0  0  2  0  0  0  0  0  0  0  0  0
  147.4206  137.2596  161.2590 O   0  0  0  0  0  0  0  0  0  0  0  0
  147.9218  136.2984  162.1764 C   0  0  0  0  0  0  0  0  0  0  0  0
  147.0856  135.0549  161.9060 C   0  0  0  0  0  0  0  0  0  0  0  0
  146.9317  135.0858  160.3913 C   0  0  2  0  0  0  0  0  0  0  0  0
  148.0833  134.4877  159.8169 O   0  0  0  0  0  0  0  0  0  0  0  0
  145.6793  134.3416  159.8701 C   0  0  0  0  0  0  0  0  0  0  0  0
  145.5841  134.3227  158.4191 N   0  0  0  0  0  0  0  0  0  0  0  0
  146.3314  133.5563  157.5521 C   0  0  0  0  0  0  0  0  0  0  0  0
  146.0657  133.7273  156.2854 N   0  0  0  0  0  0  0  0  0  0  0  0
  145.0514  134.6758  156.2824 C   0  0  0  0  0  0  0  0  0  0  0  0
  144.3023  135.3124  155.2602 C   0  0  0  0  0  0  0  0  0  0  0  0
  144.5163  135.0374  153.9546 N   0  0  0  0  0  0  0  0  0  0  0  0
  145.8299  135.4210  153.4625 C   0  0  0  0  0  0  0  0  0  0  0  0
  145.7410  135.3302  151.9350 C   0  0  0  0  0  0  0  0  0  0  0  0
  144.2302  135.4109  151.6217 C   0  0  1  0  0  0  0  0  0  0  0  0
  143.6887  134.2728  150.8147 N   0  3  2  0  0  0  0  0  0  0  0  0
  143.6029  132.9693  151.5224 C   0  0  0  0  0  0  0  0  0  0  0  0
  144.3184  134.1372  149.4763 C   0  0  0  0  0  0  0  0  0  0  0  0
  143.5831  133.1228  148.5835 C   0  0  0  0  0  0  0  0  0  0  0  0
  143.6616  133.5237  147.2318 O   0  0  0  0  0  0  0  0  0  0  0  0
  143.5609  135.5848  153.0014 C   0  0  1  0  0  0  0  0  0  0  0  0
  142.1242  135.0473  153.1598 C   0  0  0  0  0  0  0  0  0  0  0  0
  143.3527  136.2117  155.6302 N   0  0  0  0  0  0  0  0  0  0  0  0
  143.1529  136.4733  156.9260 C   0  0  0  0  0  0  0  0  0  0  0  0
  143.7788  135.9594  157.9875 N   0  0  0  0  0  0  0  0  0  0  0  0
  144.7299  135.0558  157.6143 C   0  0  0  0  0  0  0  0  0  0  0  0
  144.0375  136.3309  151.0704 H   0  0  0  0  0  0  0  0  0  0  0  0
  143.5123  136.6600  153.1835 H   0  0  0  0  0  0  0  0  0  0  0  0
  147.2417  136.5738  157.9506 H   0  0  0  0  0  0  0  0  0  0  0  0
  148.6959  136.9032  158.8956 H   0  0  0  0  0  0  0  0  0  0  0  0
  147.4791  138.1543  158.6899 H   0  0  0  0  0  0  0  0  0  0  0  0
  145.8554  136.9271  160.0374 H   0  0  0  0  0  0  0  0  0  0  0  0
  148.9744  136.1107  161.9599 H   0  0  0  0  0  0  0  0  0  0  0  0
  147.8411  136.6464  163.2063 H   0  0  0  0  0  0  0  0  0  0  0  0
  147.5430  134.1398  162.2852 H   0  0  0  0  0  0  0  0  0  0  0  0
  146.1130  135.1677  162.3869 H   0  0  0  0  0  0  0  0  0  0  0  0
  148.4254  135.0689  159.1551 H   0  0  0  0  0  0  0  0  0  0  0  0
  145.6814  133.3080  160.2189 H   0  0  0  0  0  0  0  0  0  0  0  0
  144.7735  134.7975  160.2725 H   0  0  0  0  0  0  0  0  0  0  0  0
  147.0909  132.8670  157.8919 H   0  0  0  0  0  0  0  0  0  0  0  0
  146.0685  136.4420  153.7651 H   0  0  0  0  0  0  0  0  0  0  0  0
  146.6045  134.7631  153.8578 H   0  0  0  0  0  0  0  0  0  0  0  0
  146.2900  136.1483  151.4679 H   0  0  0  0  0  0  0  0  0  0  0  0
  146.2038  134.4097  151.5849 H   0  0  0  0  0  0  0  0  0  0  0  0
  144.5698  132.4692  151.5737 H   0  0  0  0  0  0  0  0  0  0  0  0
  142.9227  132.3057  150.9874 H   0  0  0  0  0  0  0  0  0  0  0  0
  143.2209  133.0741  152.5371 H   0  0  0  0  0  0  0  0  0  0  0  0
  144.3590  135.1138  148.9918 H   0  0  0  0  0  0  0  0  0  0  0  0
  145.3544  133.8101  149.5824 H   0  0  0  0  0  0  0  0  0  0  0  0
  143.9800  132.1136  148.6887 H   0  0  0  0  0  0  0  0  0  0  0  0
  142.5310  133.0787  148.8661 H   0  0  0  0  0  0  0  0  0  0  0  0
  142.8010  133.4552  146.8458 H   0  0  0  0  0  0  0  0  0  0  0  0
  141.4708  135.4493  152.3851 H   0  0  0  0  0  0  0  0  0  0  0  0
  141.7025  135.3395  154.1219 H   0  0  0  0  0  0  0  0  0  0  0  0
  142.0791  133.9602  153.1065 H   0  0  0  0  0  0  0  0  0  0  0  0
  142.3833  137.1991  157.1447 H   0  0  0  0  0  0  0  0  0  0  0  0
  142.7296  134.5236  150.6197 H   0  0  0  0  0  0  0  0  0  0  0  0
  1  2  1  0  0  0  0
  1 31  1  0  0  0  0
  1 32  1  0  0  0  0
  1 33  1  0  0  0  0
  2  6  1  0  0  0  0
  2  3  1  0  0  0  0
  2 34  1  0  0  0  0
  3  4  1  0  0  0  0
  4  5  1  0  0  0  0
  4 35  1  0  0  0  0
  4 36  1  0  0  0  0
  5  6  1  0  0  0  0
  5 37  1  0  0  0  0
  5 38  1  0  0  0  0
  6  7  1  0  0  0  0
  6  8  1  0  0  0  0
  7 39  1  0  0  0  0
  8  9  1  0  0  0  0
  8 40  1  0  0  0  0
  8 41  1  0  0  0  0
  9 28  1  0  0  0  0
  9 10  1  0  0  0  0
 10 11  2  0  0  0  0
 10 42  1  0  0  0  0
 11 12  1  0  0  0  0
 12 28  2  0  0  0  0
 12 13  1  0  0  0  0
 13 14  1  0  0  0  0
 13 25  2  0  0  0  0
 14 23  1  0  0  0  0
 14 15  1  0  0  0  0
 15 16  1  0  0  0  0
 15 43  1  0  0  0  0
 15 44  1  0  0  0  0
 16 17  1  0  0  0  0
 16 45  1  0  0  0  0
 16 46  1  0  0  0  0
 17 29  1  0  0  0  0
 17 18  1  0  0  0  0
 17 23  1  0  0  0  0
 18 19  1  0  0  0  0
 18 20  1  0  0  0  0
 18 59  1  0  0  0  0
 19 47  1  0  0  0  0
 19 48  1  0  0  0  0
 19 49  1  0  0  0  0
 20 21  1  0  0  0  0
 20 50  1  0  0  0  0
 20 51  1  0  0  0  0
 21 22  1  0  0  0  0
 21 52  1  0  0  0  0
 21 53  1  0  0  0  0
 22 54  1  0  0  0  0
 23 30  1  0  0  0  0
 23 24  1  0  0  0  0
 24 55  1  0  0  0  0
 24 56  1  0  0  0  0
 24 57  1  0  0  0  0
 25 26  1  0  0  0  0
 26 27  2  0  0  0  0
 26 58  1  0  0  0  0
 27 28  1  0  0  0  0
M  CHG  1  18   1
M  END
> <s_m_source_file>
AV-unprocessed.smi

> <i_m_source_file_index>
290

> <i_lp_mmshare_version>
43012

> <i_f3d_flags>
0

> <s_epik_input>
W0NIMl0xW0NIMl1PW0NAQEhdKFtDSDNdKVtDQEBdMShbT0hdKVtDSDJdbihbY0hdbjIpYyhjMjMpbltjSF1uYzNONFtDSDJdW0NIMl1bQ0BIXShbQ0BIXTRbQ0gzXSlOKFtDSDNdKVtDSDJdW0NIMl1bT0hd

> <s_epik_cmdline>
J2VwaWtfcHl0aG9uJywgJy1waCcsICc3LjAnLCAnLXRuJywgJzgnLCAnLW1hJywgJzIwMCcsICctbWV0YWxfYmluZGluZycsICctaW1hZScsICc8aW5maWxlLm1hZT4nLCAnLW9tYWUnLCAnPG91dGZpbGUubWFlPic=

> <r_lp_tautomer_probability>
1

> <r_epik_Ionization_Penalty>
0.0036983

> <r_epik_Ionization_Penalty_Charging>
0.0032725

> <r_epik_Ionization_Penalty_Neutral>
0.000425798

> <r_epik_State_Penalty>
-0

> <r_epik_Charging_Adjusted_Penalty>
0.0032725

> <i_epik_Tot_Q>
1

> <i_epik_Tot_abs_Q>
1

> <r_epik_Metal_State_Penalty>
-0

> <b_epik_Metal_Only>
0

> <s_lp_Force_Field>
OPLS_2005

> <r_lp_Energy>
70.3682

> <b_lp_Chiralities_Consistent>
1

> <s_lp_Variant>
AV-unprocessed.smi:290-11

> <Gold.Version>
5.8.1

> <Gold.Id.Protein>
6NUR|6NUR_protein|mol2

> <Gold.PLP.Fitness>
47.9983

> <Gold.PLP.PLP>
-32.8509

> <Gold.PLP.part.hbond>
-6.3899

> <Gold.PLP.part.metal>
0.0000

> <Gold.PLP.part.buried>
-1.1384

> <Gold.PLP.part.nonpolar>
-25.2330

> <Gold.PLP.part.repulsive>
0.1265

> <Gold.PLP.ligand.clash>
0.0000

> <Gold.PLP.ligand.torsion>
0.5915

> <Gold.PLP.Chemscore.Hbond>
5.3344

> <Gold.PLP.Chemscore.CHOScore>
0.0000

> <Gold.PLP.Chemscore.Metal>
0.0000

> <Gold.Chemscore.Hbonds>
donor molecule, donor type, donor heavy atom, donor atom, acceptor molecule, acceptor atom, score
      L1  H    18    59       P1 10186  2.00
      L1  H    22    54       P1 10195  1.00
      P1  H  6931  6943       L1     3  0.04
      P1  H  6934  6947       L1     3  0.96
      P1  H  7918  7932       L1    22  0.98

> <Gold.PLP.Chemscore.Internal.Correction>
0.3273

> <Gold.Rescore>
     Score         DG    S(hbond)    S(metal)    S(lipo)     H(rot)  DE(clash)    DE(int)     intcor
     13.41     -16.69       3.38        0.00      79.65       3.67       1.57       1.71       ----

> <Gold.Chemscore.Fitness>
13.4144

> <Gold.Chemscore.DG>
-16.6934

> <Gold.Chemscore.ZeroCoef>
-5.4800

> <Gold.Chemscore.Hbond>
3.3768

> <Gold.Chemscore.Metal>
0.0000

> <Gold.Chemscore.Lipo>
79.6516

> <Gold.Chemscore.Internal_Hbond>
0.0000

> <Gold.Chemscore.DEClash>
1.5668

> <Gold.Chemscore.DEInternal>
1.7123

> <Gold.Chemscore.Rot>
3.6658

> <Gold.Chemscore.Internal.Correction>
   9.000000E+99

> <Gold.Chemscore.Hbonds>
donor molecule, donor type, donor heavy atom, donor atom, acceptor molecule, acceptor atom, score
      L1  H    18    59       P1 10186  0.32
      L1  H    22    54       P1 10195  0.96
      P1  H  6934  6947       L1     3  0.46
      P1  H  7918  7932       L1    22  0.88

> <Gold.Chemscore.Hbond.Weighted>
-11.2786

> <Gold.Chemscore.Metal.Weighted>
-0.0000

> <Gold.Chemscore.Lipo.Weighted>
-9.3192

> <Gold.Chemscore.Internal_Hbond.Weighted>
0.0000

> <Gold.Chemscore.DEClash.Weighted>
1.5668

> <Gold.Chemscore.DEInternal.Weighted>
1.7123

> <Gold.Chemscore.Rot.Weighted>
9.3844

> <Gold.Chemscore.Internal.Correction.Weighted>
   9.000000E+99

> <Gold.Protein.RotatedTorsions>
[ 6907 6896 6895 6894 ] final   56.67 input  -60.11 | X-H torsion
[ 7974 7965 7964 7962 ] final  -20.73 input  175.53 | X-H torsion
[ 8008 7997 7996 7995 ] final  -70.64 input   59.86 | X-H torsion
[ 10167 10162 10161 10158 ] final  153.52 input  -65.29 | X-H torsion
[ 10718 10713 10712 10709 ] final   66.14 input   66.30 | X-H torsion
[ 10763 10752 10751 10750 ] final   55.03 input  -60.55 | X-H torsion
[ 11005 11000 10999 10996 ] final    8.93 input  -57.11 | X-H torsion

> <Gold.Protein.ActiveResidues>
 VAL166  LYS551  ARG553  GLY616  TRP617  ASP618  TYR619  PRO620  LYS621  CYS622 
 ASP623  PHE694  ASN695  SER759  ASP760  ASP761  ALA762  ILE779  LEU786  VAL792 
 PHE793  MET794  SER795  GLU796  ALA797  LYS798  CYS799  TRP800  GLU811  SER814 

> <Gold.Protein.RotatedAtoms>
  152.3659  134.6805  160.0191 H   0  0  0  0  0  0  0  0  0  0  0  0  # atno 6907 bound_to 6896
  151.7114  133.3307  159.3300 H   0  0  0  0  0  0  0  0  0  0  0  0  # atno 6908 bound_to 6896
  150.7638  134.6463  159.6309 H   0  0  0  0  0  0  0  0  0  0  0  0  # atno 6909 bound_to 6896
  146.1772  140.4242  142.8509 H   0  0  0  0  0  0  0  0  0  0  0  0  # atno 7974 bound_to 7965
  154.5027  140.0830  156.7831 H   0  0  0  0  0  0  0  0  0  0  0  0  # atno 8008 bound_to 7997
  155.3965  140.3435  155.4236 H   0  0  0  0  0  0  0  0  0  0  0  0  # atno 8009 bound_to 7997
  156.1477  140.1548  156.8808 H   0  0  0  0  0  0  0  0  0  0  0  0  # atno 8010 bound_to 7997
  139.4827  144.5266  151.7791 H   0  0  0  0  0  0  0  0  0  0  0  0  # atno 10167 bound_to 10162
  157.6150  130.9252  150.0069 H   0  0  0  0  0  0  0  0  0  0  0  0  # atno 10718 bound_to 10713
  152.9811  135.5724  154.5001 H   0  0  0  0  0  0  0  0  0  0  0  0  # atno 10763 bound_to 10752
  154.4521  135.2779  155.1775 H   0  0  0  0  0  0  0  0  0  0  0  0  # atno 10764 bound_to 10752
  154.3399  135.6231  153.5644 H   0  0  0  0  0  0  0  0  0  0  0  0  # atno 10765 bound_to 10752
  140.5314  134.0463  155.7874 H   0  0  0  0  0  0  0  0  0  0  0  0  # atno 11005 bound_to 11000
  144.8256  140.6622  143.6325 LP  0  0  0  0  0  0  0  0  0  0  0  0  # atno 17320 bound_to 7965
  145.4178  139.1569  143.4091 LP  0  0  0  0  0  0  0  0  0  0  0  0  # atno 17321 bound_to 7965
  140.4786  144.1482  150.5929 LP  0  0  0  0  0  0  0  0  0  0  0  0  # atno 17342 bound_to 10162
  140.4303  143.2571  151.9604 LP  0  0  0  0  0  0  0  0  0  0  0  0  # atno 17343 bound_to 10162
  156.1268  130.3644  149.9796 LP  0  0  0  0  0  0  0  0  0  0  0  0  # atno 17370 bound_to 10713
  156.7865  130.9240  151.3646 LP  0  0  0  0  0  0  0  0  0  0  0  0  # atno 17371 bound_to 10713
  141.1279  133.9352  157.2597 LP  0  0  0  0  0  0  0  0  0  0  0  0  # atno 17394 bound_to 11000
  139.9552  135.0167  156.9108 LP  0  0  0  0  0  0  0  0  0  0  0  0  # atno 17395 bound_to 11000

$$$$
