#       Name:                AV-unprocessed.smi:3303
#       Creating user name   scv26
#       Creation time:       Fri Mar 27 19:00:02 2020


#       File generated by GOLD software.
#

@<TRIPOS>MOLECULE
AV-unprocessed.smi:3303
    46    47     1
SMALL
NO_CHARGES


@<TRIPOS>ATOM
      1 ****        -1.3787  -0.1182  -2.5056 C.3            1 S1                 0.0000
      2 ****        -1.8127  -0.8062  -1.2004 C.3            1 S1                 0.0000
      3 ****        -1.4460  -2.3030  -1.1806 C.3            1 S1                 0.0000
      4 ****        -1.9517  -2.9812   0.0422 N.4            1 S1                 1.0000
      5 ****        -1.7109  -4.4432  -0.0271 C.3            1 S1                 0.0000
      6 ****        -1.4448  -2.3416   1.2942 C.3            1 S1                 0.0000
      7 ****        -2.0049  -3.0068   2.5667 C.3            1 S1                 0.0000
      8 ****        -1.7823  -0.8328   1.3123 C.3            1 S1                 0.0000
      9 ****        -1.2898  -0.0874   0.0607 C.3            1 S1                 0.0000
     10 ****         0.1890   0.0288   0.0676 N.4            1 S1                 1.0000
     11 ****         0.7009   1.4138   0.0516 C.3            1 S1                 0.0000
     12 ****         2.2349   1.4349   0.0260 C.3            1 S1                 0.0000
     13 ****         2.7866   2.8476   0.0224 C.ar           1 S1                 0.0000
     14 ****         3.2526   3.4384  -1.1715 C.ar           1 S1                 0.0000
     15 ****         3.7480   4.7559  -1.1177 C.ar           1 S1                 0.0000
     16 ****         3.7577   5.4272   0.1203 C.ar           1 S1                 0.0000
     17 ****         3.2683   4.7494   1.2546 C.ar           1 S1                 0.0000
     18 ****         2.7892   3.4869   1.2136 N.ar           1 S1                 0.0000
     19 ****        -0.2989  -0.1654  -2.6497 H              1 S1                 0.0000
     20 ****        -1.6709   0.9324  -2.5121 H              1 S1                 0.0000
     21 ****        -1.8450  -0.5919  -3.3701 H              1 S1                 0.0000
     22 ****        -2.9022  -0.7465  -1.1720 H              1 S1                 0.0000
     23 ****        -1.8766  -2.7853  -2.0594 H              1 S1                 0.0000
     24 ****        -0.3648  -2.4341  -1.2510 H              1 S1                 0.0000
     25 ****        -0.6506  -4.6717   0.0884 H              1 S1                 0.0000
     26 ****        -2.0404  -4.8458  -0.9854 H              1 S1                 0.0000
     27 ****        -2.2675  -4.9781   0.7418 H              1 S1                 0.0000
     28 ****        -0.3591  -2.4529   1.3104 H              1 S1                 0.0000
     29 ****        -1.6977  -2.4603   3.4590 H              1 S1                 0.0000
     30 ****        -1.6427  -4.0273   2.6907 H              1 S1                 0.0000
     31 ****        -3.0953  -3.0325   2.5564 H              1 S1                 0.0000
     32 ****        -2.8641  -0.7120   1.3897 H              1 S1                 0.0000
     33 ****        -1.3661  -0.3643   2.2057 H              1 S1                 0.0000
     34 ****        -1.7195   0.9160   0.0839 H              1 S1                 0.0000
     35 ****         0.5439  -0.4253   0.8971 H              1 S1                 0.0000
     36 ****         0.3083   1.9334  -0.8237 H              1 S1                 0.0000
     37 ****         0.3330   1.9390   0.9345 H              1 S1                 0.0000
     38 ****         2.6331   0.9034   0.8917 H              1 S1                 0.0000
     39 ****         2.6008   0.9050  -0.8546 H              1 S1                 0.0000
     40 ****         3.2331   2.8995  -2.1076 H              1 S1                 0.0000
     41 ****         4.1140   5.2426  -2.0098 H              1 S1                 0.0000
     42 ****         4.1310   6.4376   0.1988 H              1 S1                 0.0000
     43 ****         3.2597   5.2342   2.2196 H              1 S1                 0.0000
     44 ****         0.5528  -0.4521  -0.7427 H              1 S1                 0.0000
     45 ****        -2.9550  -2.8609   0.0406 H              1 S1                 0.0000
     46 ****         2.4469   3.0388   2.0394 LP             1 S1                 0.0000
@<TRIPOS>BOND
    1    1    2 1     
    2    1   19 1     
    3    1   20 1     
    4    1   21 1     
    5    2    9 1     
    6    2    3 1     
    7    2   22 1     
    8    3    4 1     
    9    3   23 1     
   10    3   24 1     
   11    4    5 1     
   12    4    6 1     
   13    4   45 1     
   14    5   25 1     
   15    5   26 1     
   16    5   27 1     
   17    6    7 1     
   18    6    8 1     
   19    6   28 1     
   20    7   29 1     
   21    7   30 1     
   22    7   31 1     
   23    8    9 1     
   24    8   32 1     
   25    8   33 1     
   26    9   10 1     
   27    9   34 1     
   28   10   11 1     
   29   10   35 1     
   30   10   44 1     
   31   11   12 1     
   32   11   36 1     
   33   11   37 1     
   34   12   13 1     
   35   12   38 1     
   36   12   39 1     
   37   13   18 ar    
   38   13   14 ar    
   39   14   15 ar    
   40   14   40 1     
   41   15   16 ar    
   42   15   41 1     
   43   16   17 ar    
   44   16   42 1     
   45   17   18 ar    
   46   17   43 1     
   47   18   46 1     
@<TRIPOS>SUBSTRUCTURE
      1 S1             1
@<TRIPOS>SET
LONE_PAIRS      STATIC     ATOMS    <user>   **** ""
1 46
DONOR_HYDROGENS      STATIC     ATOMS    <user>   **** ""
3 45 35 44
ATOM$BLUE        STATIC     ATOMS    COLORGROUP SYSTEM
1 46
ATOM$RED        STATIC     ATOMS    COLORGROUP SYSTEM
3 45 35 44
