AV-unprocessed.smi:1644|AV-procd|sdf|6588|dock3
  -GOLD-   22720 7283D 1   1.00000     0.00000
 Structure written by MMmdl.
 50 52  0  0  0  0  0  0  0  0  2 V2000
  147.7828  133.1074  152.6231 C   0  0  0  0  0  0  0  0  0  0  0  0
  148.6566  132.6391  153.7918 C   0  0  0  0  0  0  0  0  0  0  0  0
  149.7484  133.6580  154.1554 C   0  0  0  0  0  0  0  0  0  0  0  0
  149.2852  134.6993  155.1930 C   0  0  2  0  0  0  0  0  0  0  0  0
  148.1470  135.4741  154.7396 N   0  0  0  0  0  0  0  0  0  0  0  0
  148.4060  136.7867  154.6847 C   0  0  0  0  0  0  0  0  0  0  0  0
  147.6096  137.6523  154.3250 O   0  0  0  0  0  0  0  0  0  0  0  0
  149.6773  136.9847  155.0786 N   0  0  0  0  0  0  0  0  0  0  0  0
  150.3338  138.2950  155.1295 C   0  0  0  0  0  0  0  0  0  0  0  0
  151.2338  138.4386  156.3739 C   0  0  2  0  0  0  0  0  0  0  0  0
  150.4093  138.6299  157.5073 O   0  0  0  0  0  0  0  0  0  0  0  0
  152.1882  139.6426  156.2486 C   0  0  0  0  0  0  0  0  0  0  0  0
  151.5443  140.9183  156.5931 N   0  0  0  0  0  0  0  0  0  0  0  0
  150.6393  141.6496  155.8882 C   0  0  0  0  0  0  0  0  0  0  0  0
  150.3432  142.7568  156.6233 N   0  3  0  0  0  0  0  0  0  0  0  0
  151.0720  142.7337  157.8142 C   0  0  0  0  0  0  0  0  0  0  0  0
  151.1130  143.6331  158.8728 C   0  0  0  0  0  0  0  0  0  0  0  0
  151.9715  143.3217  159.9514 C   0  0  0  0  0  0  0  0  0  0  0  0
  152.0435  144.2864  161.1229 C   0  0  0  0  0  0  0  0  0  0  0  0
  152.7522  142.1367  159.9442 C   0  0  0  0  0  0  0  0  0  0  0  0
  153.6737  141.8121  161.1078 C   0  0  0  0  0  0  0  0  0  0  0  0
  152.6949  141.2339  158.8584 C   0  0  0  0  0  0  0  0  0  0  0  0
  151.8447  141.5561  157.8028 C   0  0  0  0  0  0  0  0  0  0  0  0
  150.2816  135.8281  155.3798 C   0  0  0  0  0  0  0  0  0  0  0  0
  151.4476  135.6672  155.7399 O   0  0  0  0  0  0  0  0  0  0  0  0
  147.0236  132.3627  152.3831 H   0  0  0  0  0  0  0  0  0  0  0  0
  148.3806  133.2739  151.7266 H   0  0  0  0  0  0  0  0  0  0  0  0
  147.2704  134.0393  152.8633 H   0  0  0  0  0  0  0  0  0  0  0  0
  148.0204  132.4499  154.6570 H   0  0  0  0  0  0  0  0  0  0  0  0
  149.1190  131.6857  153.5341 H   0  0  0  0  0  0  0  0  0  0  0  0
  150.6127  133.1216  154.5501 H   0  0  0  0  0  0  0  0  0  0  0  0
  150.0913  134.1611  153.2495 H   0  0  0  0  0  0  0  0  0  0  0  0
  149.0648  134.2341  156.1546 H   0  0  0  0  0  0  0  0  0  0  0  0
  147.2620  135.0558  154.4921 H   0  0  0  0  0  0  0  0  0  0  0  0
  150.9388  138.4017  154.2272 H   0  0  0  0  0  0  0  0  0  0  0  0
  149.6049  139.1064  155.0792 H   0  0  0  0  0  0  0  0  0  0  0  0
  151.8268  137.5343  156.5193 H   0  0  0  0  0  0  0  0  0  0  0  0
  149.5089  138.6656  157.2219 H   0  0  0  0  0  0  0  0  0  0  0  0
  153.0291  139.5195  156.9325 H   0  0  0  0  0  0  0  0  0  0  0  0
  152.6171  139.7100  155.2484 H   0  0  0  0  0  0  0  0  0  0  0  0
  150.2307  141.3977  154.9200 H   0  0  0  0  0  0  0  0  0  0  0  0
  150.5165  144.5337  158.8703 H   0  0  0  0  0  0  0  0  0  0  0  0
  151.7219  143.7966  162.0423 H   0  0  0  0  0  0  0  0  0  0  0  0
  151.4019  145.1541  160.9658 H   0  0  0  0  0  0  0  0  0  0  0  0
  153.0632  144.6476  161.2603 H   0  0  0  0  0  0  0  0  0  0  0  0
  154.1782  140.8564  160.9626 H   0  0  0  0  0  0  0  0  0  0  0  0
  153.1096  141.7509  162.0387 H   0  0  0  0  0  0  0  0  0  0  0  0
  154.4395  142.5805  161.2153 H   0  0  0  0  0  0  0  0  0  0  0  0
  153.2958  140.3367  158.8501 H   0  0  0  0  0  0  0  0  0  0  0  0
  149.6933  143.4749  156.3299 H   0  0  0  0  0  0  0  0  0  0  0  0
  1  2  1  0  0  0  0
  1 26  1  0  0  0  0
  1 27  1  0  0  0  0
  1 28  1  0  0  0  0
  2  3  1  0  0  0  0
  2 29  1  0  0  0  0
  2 30  1  0  0  0  0
  3  4  1  0  0  0  0
  3 31  1  0  0  0  0
  3 32  1  0  0  0  0
  4 24  1  0  0  0  0
  4  5  1  0  0  0  0
  4 33  1  0  0  0  0
  5  6  1  0  0  0  0
  5 34  1  0  0  0  0
  6  7  2  0  0  0  0
  6  8  1  0  0  0  0
  8  9  1  0  0  0  0
  8 24  1  0  0  0  0
  9 10  1  0  0  0  0
  9 35  1  0  0  0  0
  9 36  1  0  0  0  0
 10 11  1  0  0  0  0
 10 12  1  0  0  0  0
 10 37  1  0  0  0  0
 11 38  1  0  0  0  0
 12 13  1  0  0  0  0
 12 39  1  0  0  0  0
 12 40  1  0  0  0  0
 13 23  1  0  0  0  0
 13 14  1  0  0  0  0
 14 15  2  0  0  0  0
 14 41  1  0  0  0  0
 15 16  1  0  0  0  0
 15 50  1  0  0  0  0
 16 23  2  0  0  0  0
 16 17  1  0  0  0  0
 17 18  2  0  0  0  0
 17 42  1  0  0  0  0
 18 19  1  0  0  0  0
 18 20  1  0  0  0  0
 19 43  1  0  0  0  0
 19 44  1  0  0  0  0
 19 45  1  0  0  0  0
 20 21  1  0  0  0  0
 20 22  2  0  0  0  0
 21 46  1  0  0  0  0
 21 47  1  0  0  0  0
 21 48  1  0  0  0  0
 22 23  1  0  0  0  0
 22 49  1  0  0  0  0
 24 25  2  0  0  0  0
M  CHG  1  15   1
M  END
> <s_m_source_file>
AV-unprocessed.smi

> <i_m_source_file_index>
1644

> <i_lp_mmshare_version>
43012

> <i_f3d_flags>
0

> <s_epik_input>
W0NIM11bQ0gyXVtDSDJdW0NAQEhdMVtOSF1DKD1PKU4oQzE9TylbQ0gyXVtDQEhdKFtPSF0pW0NIMl1uKFtjSF1uMiljKGMyMylbY0hdYyhbQ0gzXSljKFtjSF0zKVtDSDNd

> <s_epik_cmdline>
J2VwaWtfcHl0aG9uJywgJy1waCcsICc3LjAnLCAnLXRuJywgJzgnLCAnLW1hJywgJzIwMCcsICctbWV0YWxfYmluZGluZycsICctaW1hZScsICc8aW5maWxlLm1hZT4nLCAnLW9tYWUnLCAnPG91dGZpbGUubWFlPic=

> <r_lp_tautomer_probability>
1

> <r_epik_Ionization_Penalty>
1.06742

> <r_epik_Ionization_Penalty_Charging>
1.06736

> <r_epik_Ionization_Penalty_Neutral>
5.56132e-05

> <r_epik_State_Penalty>
1.12163

> <r_epik_Charging_Adjusted_Penalty>
2.18899

> <i_epik_Tot_Q>
1

> <i_epik_Tot_abs_Q>
1

> <r_epik_Metal_State_Penalty>
1.26636

> <b_epik_Metal_Only>
0

> <s_lp_Force_Field>
OPLS_2005

> <r_lp_Energy>
29.1926

> <b_lp_Chiralities_Consistent>
1

> <s_lp_Variant>
AV-unprocessed.smi:1644-5

> <Gold.Version>
5.8.1

> <Gold.Id.Protein>
6NUR|6NUR_protein|mol2

> <Gold.PLP.Fitness>
53.7870

> <Gold.PLP.PLP>
-46.5886

> <Gold.PLP.part.hbond>
-2.8293

> <Gold.PLP.part.metal>
0.0000

> <Gold.PLP.part.buried>
-4.1640

> <Gold.PLP.part.nonpolar>
-38.7406

> <Gold.PLP.part.repulsive>
0.2291

> <Gold.PLP.ligand.clash>
0.0000

> <Gold.PLP.ligand.torsion>
0.9551

> <Gold.PLP.Chemscore.Hbond>
3.0000

> <Gold.PLP.Chemscore.CHOScore>
0.0000

> <Gold.PLP.Chemscore.Metal>
0.0000

> <Gold.Chemscore.Hbonds>
donor molecule, donor type, donor heavy atom, donor atom, acceptor molecule, acceptor atom, score
      L1  H    15    50       P1  8028  2.00
      P1  H 10752 10764       L1    25  1.00

> <Gold.PLP.Chemscore.Internal.Correction>
0.1087

> <Gold.Rescore>
     Score         DG    S(hbond)    S(metal)    S(lipo)     H(rot)  DE(clash)    DE(int)     intcor
     17.14     -18.96       1.99        0.00     119.51       2.80       0.02       1.79       ----

> <Gold.Chemscore.Fitness>
17.1392

> <Gold.Chemscore.DG>
-18.9569

> <Gold.Chemscore.ZeroCoef>
-5.4800

> <Gold.Chemscore.Hbond>
1.9916

> <Gold.Chemscore.Metal>
0.0000

> <Gold.Chemscore.Lipo>
119.5130

> <Gold.Chemscore.Internal_Hbond>
0.0000

> <Gold.Chemscore.DEClash>
0.0234

> <Gold.Chemscore.DEInternal>
1.7943

> <Gold.Chemscore.Rot>
2.7961

> <Gold.Chemscore.Internal.Correction>
   9.000000E+99

> <Gold.Chemscore.Hbonds>
donor molecule, donor type, donor heavy atom, donor atom, acceptor molecule, acceptor atom, score
      L1  H    15    50       P1  8028  0.99
      P1  H 10752 10764       L1    25  0.99

> <Gold.Chemscore.Hbond.Weighted>
-6.6519

> <Gold.Chemscore.Metal.Weighted>
-0.0000

> <Gold.Chemscore.Lipo.Weighted>
-13.9830

> <Gold.Chemscore.Internal_Hbond.Weighted>
0.0000

> <Gold.Chemscore.DEClash.Weighted>
0.0234

> <Gold.Chemscore.DEInternal.Weighted>
1.7943

> <Gold.Chemscore.Rot.Weighted>
7.1580

> <Gold.Chemscore.Internal.Correction.Weighted>
   9.000000E+99

> <Gold.Protein.RotatedTorsions>
[ 6907 6896 6895 6894 ] final -159.51 input  -60.11 | X-H torsion
[ 7974 7965 7964 7962 ] final -149.31 input  175.53 | X-H torsion
[ 8008 7997 7996 7995 ] final   -3.41 input   59.86 | X-H torsion
[ 10167 10162 10161 10158 ] final  -38.81 input  -65.29 | X-H torsion
[ 10718 10713 10712 10709 ] final   30.15 input   66.30 | X-H torsion
[ 10763 10752 10751 10750 ] final  -53.37 input  -60.55 | X-H torsion
[ 11005 11000 10999 10996 ] final  172.20 input  -57.11 | X-H torsion

> <Gold.Protein.ActiveResidues>
 VAL166  LYS551  ARG553  GLY616  TRP617  ASP618  TYR619  PRO620  LYS621  CYS622 
 ASP623  PHE694  ASN695  SER759  ASP760  ASP761  ALA762  ILE779  LEU786  VAL792 
 PHE793  MET794  SER795  GLU796  ALA797  LYS798  CYS799  TRP800  GLU811  SER814 

> <Gold.Protein.RotatedAtoms>
  151.3347  133.3986  159.2665 H   0  0  0  0  0  0  0  0  0  0  0  0  # atno 6907 bound_to 6896
  150.9927  134.9258  159.7919 H   0  0  0  0  0  0  0  0  0  0  0  0  # atno 6908 bound_to 6896
  152.5252  134.3312  159.9236 H   0  0  0  0  0  0  0  0  0  0  0  0  # atno 6909 bound_to 6896
  144.7975  140.5081  143.5730 H   0  0  0  0  0  0  0  0  0  0  0  0  # atno 7974 bound_to 7965
  154.6252  140.2510  155.7501 H   0  0  0  0  0  0  0  0  0  0  0  0  # atno 8008 bound_to 7997
  156.2449  140.2918  156.0498 H   0  0  0  0  0  0  0  0  0  0  0  0  # atno 8009 bound_to 7997
  155.1833  140.0389  157.2877 H   0  0  0  0  0  0  0  0  0  0  0  0  # atno 8010 bound_to 7997
  140.7082  143.3254  151.2693 H   0  0  0  0  0  0  0  0  0  0  0  0  # atno 10167 bound_to 10162
  157.2559  130.7137  149.6429 H   0  0  0  0  0  0  0  0  0  0  0  0  # atno 10718 bound_to 10713
  154.1578  135.6479  153.4978 H   0  0  0  0  0  0  0  0  0  0  0  0  # atno 10763 bound_to 10752
  153.0119  135.5353  154.6742 H   0  0  0  0  0  0  0  0  0  0  0  0  # atno 10764 bound_to 10752
  154.6047  135.2947  155.0469 H   0  0  0  0  0  0  0  0  0  0  0  0  # atno 10765 bound_to 10752
  140.3272  134.7388  157.4107 H   0  0  0  0  0  0  0  0  0  0  0  0  # atno 11005 bound_to 11000
  145.5636  139.1480  143.3327 LP  0  0  0  0  0  0  0  0  0  0  0  0  # atno 17320 bound_to 7965
  146.2247  140.5772  142.9001 LP  0  0  0  0  0  0  0  0  0  0  0  0  # atno 17321 bound_to 7965
  139.6720  144.0003  152.2759 LP  0  0  0  0  0  0  0  0  0  0  0  0  # atno 17342 bound_to 10162
  139.9605  144.6561  150.8084 LP  0  0  0  0  0  0  0  0  0  0  0  0  # atno 17343 bound_to 10162
  155.9665  130.4413  150.5334 LP  0  0  0  0  0  0  0  0  0  0  0  0  # atno 17370 bound_to 10713
  157.3228  131.0685  151.1919 LP  0  0  0  0  0  0  0  0  0  0  0  0  # atno 17371 bound_to 10713
  140.0891  134.5625  155.8462 LP  0  0  0  0  0  0  0  0  0  0  0  0  # atno 17394 bound_to 11000
  141.2072  133.6662  156.6292 LP  0  0  0  0  0  0  0  0  0  0  0  0  # atno 17395 bound_to 11000

$$$$
