#       Name:                AV-unprocessed.smi:678
#       Creating user name   scv26
#       Creation time:       Fri Mar 27 00:27:47 2020


#       File generated by GOLD software.
#

@<TRIPOS>MOLECULE
AV-unprocessed.smi:678
    57    58     1
SMALL
NO_CHARGES


@<TRIPOS>ATOM
      1 ****        -1.0287   5.0351   2.9220 C.3            1 S1                 0.0000
      2 ****        -2.3111   4.3977   2.4165 C.2            1 S1                 0.0000
      3 ****        -3.4811   4.5492   3.0743 C.2            1 S1                 0.0000
      4 ****        -4.6944   3.9382   2.5881 C.2            1 S1                 0.0000
      5 ****        -4.6324   3.2156   1.4606 C.2            1 S1                 0.0000
      6 ****        -3.4272   3.0448   0.7544 N.am           1 S1                 0.0000
      7 ****        -3.4774   2.2275  -0.4700 C.3            1 S1                 0.0000
      8 ****        -2.9133   0.8154  -0.2638 C.2            1 S1                 0.0000
      9 ****        -3.0838   0.2233   0.8026 O.2            1 S1                 0.0000
     10 ****        -2.2441   0.2881  -1.2999 N.am           1 S1                 0.0000
     11 ****        -1.5659  -1.0034  -1.2903 C.3            1 S1                 0.0000
     12 ****        -0.1161  -0.8717  -0.7888 C.3            1 S1                 0.0000
     13 ****         0.6667  -2.1912  -0.9345 C.3            1 S1                 0.0000
     14 ****         2.0420  -2.0446  -0.3952 N.4            1 S1                 1.0000
     15 ****         2.8766  -3.2644  -0.5462 C.3            1 S1                 0.0000
     16 ****         3.3773  -3.4854  -1.9902 C.3            1 S1                 0.0000
     17 ****         4.1120  -4.8292  -2.1064 C.3            1 S1                 0.0000
     18 ****         4.2820  -2.3368  -2.4671 C.3            1 S1                 0.0000
     19 ****         1.9988  -1.5604   1.0049 C.3            1 S1                 0.0000
     20 ****         1.1684  -0.2707   1.1033 C.3            1 S1                 0.0000
     21 ****        -0.1339  -0.5109   0.5890 O.3            1 S1                 0.0000
     22 ****        -2.2487   3.6007   1.1772 C.2            1 S1                 0.0000
     23 ****        -1.1990   3.4363   0.5512 O.2            1 S1                 0.0000
     24 ****        -1.1981   5.5938   3.8430 H              1 S1                 0.0000
     25 ****        -0.6269   5.7248   2.1790 H              1 S1                 0.0000
     26 ****        -0.2772   4.2716   3.1250 H              1 S1                 0.0000
     27 ****        -3.5169   5.1346   3.9814 H              1 S1                 0.0000
     28 ****        -5.6266   4.0567   3.1204 H              1 S1                 0.0000
     29 ****        -5.4929   2.7207   1.0346 H              1 S1                 0.0000
     30 ****        -4.5005   2.1323  -0.8356 H              1 S1                 0.0000
     31 ****        -2.9327   2.7321  -1.2705 H              1 S1                 0.0000
     32 ****        -2.1658   0.8391  -2.1427 H              1 S1                 0.0000
     33 ****        -2.1186  -1.7312  -0.6937 H              1 S1                 0.0000
     34 ****        -1.5677  -1.3795  -2.3137 H              1 S1                 0.0000
     35 ****         0.3842  -0.0891  -1.3629 H              1 S1                 0.0000
     36 ****         0.1504  -2.9941  -0.4056 H              1 S1                 0.0000
     37 ****         0.7006  -2.4726  -1.9862 H              1 S1                 0.0000
     38 ****         3.7464  -3.1897   0.1085 H              1 S1                 0.0000
     39 ****         2.3102  -4.1298  -0.1986 H              1 S1                 0.0000
     40 ****         2.5214  -3.5400  -2.6620 H              1 S1                 0.0000
     41 ****         5.0039  -4.8509  -1.4792 H              1 S1                 0.0000
     42 ****         4.4240  -5.0191  -3.1340 H              1 S1                 0.0000
     43 ****         3.4707  -5.6570  -1.8021 H              1 S1                 0.0000
     44 ****         5.1584  -2.2298  -1.8270 H              1 S1                 0.0000
     45 ****         3.7518  -1.3842  -2.4685 H              1 S1                 0.0000
     46 ****         4.6344  -2.5119  -3.4840 H              1 S1                 0.0000
     47 ****         1.5677  -2.3314   1.6458 H              1 S1                 0.0000
     48 ****         3.0109  -1.3717   1.3647 H              1 S1                 0.0000
     49 ****         1.0847   0.0449   2.1433 H              1 S1                 0.0000
     50 ****         1.6448   0.5466   0.5592 H              1 S1                 0.0000
     51 ****         2.4952  -1.3174  -0.9304 H              1 S1                 0.0000
     52 ****        -3.5933   0.6626   1.5425 LP             1 S1                 0.0000
     53 ****        -2.7128  -0.6968   0.9285 LP             1 S1                 0.0000
     54 ****        -0.5529  -1.2545   1.1102 LP             1 S1                 0.0000
     55 ****        -0.6798   0.3201   0.6962 LP             1 S1                 0.0000
     56 ****        -0.3505   3.8504   0.8804 LP             1 S1                 0.0000
     57 ****        -1.1964   2.8889  -0.2856 LP             1 S1                 0.0000
@<TRIPOS>BOND
    1    1    2 1     
    2    1   24 1     
    3    1   25 1     
    4    1   26 1     
    5    2   22 1     
    6    2    3 2     
    7    3    4 1     
    8    3   27 1     
    9    4    5 2     
   10    4   28 1     
   11    5    6 1     
   12    5   29 1     
   13    6    7 1     
   14    6   22 am    
   15    7    8 1     
   16    7   30 1     
   17    7   31 1     
   18    8    9 2     
   19    8   10 am    
   20   10   11 1     
   21   10   32 1     
   22   11   12 1     
   23   11   33 1     
   24   11   34 1     
   25   12   21 1     
   26   12   13 1     
   27   12   35 1     
   28   13   14 1     
   29   13   36 1     
   30   13   37 1     
   31   14   15 1     
   32   14   19 1     
   33   14   51 1     
   34   15   16 1     
   35   15   38 1     
   36   15   39 1     
   37   16   17 1     
   38   16   18 1     
   39   16   40 1     
   40   17   41 1     
   41   17   42 1     
   42   17   43 1     
   43   18   44 1     
   44   18   45 1     
   45   18   46 1     
   46   19   20 1     
   47   19   47 1     
   48   19   48 1     
   49   20   21 1     
   50   20   49 1     
   51   20   50 1     
   52   22   23 2     
   53    9   52 1     
   54    9   53 1     
   55   21   54 1     
   56   21   55 1     
   57   23   56 1     
   58   23   57 1     
@<TRIPOS>SUBSTRUCTURE
      1 S1             1
@<TRIPOS>SET
LONE_PAIRS      STATIC     ATOMS    <user>   **** ""
6 52 53 54 55 56 57
DONOR_HYDROGENS      STATIC     ATOMS    <user>   **** ""
2 32 51
ATOM$BLUE        STATIC     ATOMS    COLORGROUP SYSTEM
6 52 53 54 55 56 57
ATOM$RED        STATIC     ATOMS    COLORGROUP SYSTEM
2 32 51
