AV-unprocessed.smi:2037|AV-procd|sdf|8278|dock9
  -GOLD-   2272010543D 1   1.00000     0.00000
 Structure written by MMmdl.
 38 39  0  0  0  0  0  0  0  0  3 V2000
  152.2594  144.2837  159.9666 C   0  0  0  0  0  0  0  0  0  0  0  0
  152.4408  142.8988  159.3299 C   0  0  2  0  0  0  0  0  0  0  0  0
  151.2336  142.5071  158.4623 C   0  0  0  0  0  0  0  0  0  0  0  0
  151.4193  141.1093  157.8483 C   0  0  0  0  0  0  0  0  0  0  0  0
  151.6534  140.0826  158.8972 N   0  3  1  0  0  0  0  0  0  0  0  0
  151.7147  138.7130  158.3272 C   0  0  0  0  0  0  0  0  0  0  0  0
  150.3987  138.2918  157.6548 C   0  0  0  0  0  0  0  0  0  0  0  0
  149.3312  138.2179  158.6423 N   0  0  0  0  0  0  0  0  0  0  0  0
  148.8221  137.0865  159.1460 C   0  0  0  0  0  0  0  0  0  0  0  0
  149.2621  135.9965  158.7734 O   0  0  0  0  0  0  0  0  0  0  0  0
  147.8367  137.2912  160.0485 N   0  5  0  0  0  0  0  0  0  0  0  0
  147.2952  136.2501  160.7019 C   0  0  0  0  0  0  0  0  0  0  0  0
  147.1176  135.0503  160.1377 N   0  0  0  0  0  0  0  0  0  0  0  0
  146.5298  134.1161  160.9926 C   0  0  0  0  0  0  0  0  0  0  0  0
  146.2469  134.6186  162.2349 C   0  0  0  0  0  0  0  0  0  0  0  0
  146.7113  136.2909  162.3683 S   0  0  0  0  0  0  0  0  0  0  0  0
  152.8314  140.4232  159.7396 C   0  0  0  0  0  0  0  0  0  0  0  0
  152.6722  141.8086  160.3889 C   0  0  0  0  0  0  0  0  0  0  0  0
  151.3863  144.3109  160.6192 H   0  0  0  0  0  0  0  0  0  0  0  0
  152.1288  145.0518  159.2036 H   0  0  0  0  0  0  0  0  0  0  0  0
  153.1300  144.5586  160.5629 H   0  0  0  0  0  0  0  0  0  0  0  0
  153.3221  142.9424  158.6882 H   0  0  0  0  0  0  0  0  0  0  0  0
  150.3232  142.5228  159.0636 H   0  0  0  0  0  0  0  0  0  0  0  0
  151.0912  143.2400  157.6673 H   0  0  0  0  0  0  0  0  0  0  0  0
  150.5284  140.8528  157.2735 H   0  0  0  0  0  0  0  0  0  0  0  0
  152.2570  141.1138  157.1493 H   0  0  0  0  0  0  0  0  0  0  0  0
  152.5032  138.6746  157.5739 H   0  0  0  0  0  0  0  0  0  0  0  0
  151.9971  138.0015  159.1051 H   0  0  0  0  0  0  0  0  0  0  0  0
  150.1101  139.0027  156.8805 H   0  0  0  0  0  0  0  0  0  0  0  0
  150.5124  137.3177  157.1770 H   0  0  0  0  0  0  0  0  0  0  0  0
  148.9434  139.0891  158.9739 H   0  0  0  0  0  0  0  0  0  0  0  0
  146.3482  133.1146  160.6322 H   0  0  0  0  0  0  0  0  0  0  0  0
  145.7952  134.1116  163.0740 H   0  0  0  0  0  0  0  0  0  0  0  0
  152.9632  139.6835  160.5280 H   0  0  0  0  0  0  0  0  0  0  0  0
  153.7357  140.3977  159.1295 H   0  0  0  0  0  0  0  0  0  0  0  0
  153.5612  142.0413  160.9761 H   0  0  0  0  0  0  0  0  0  0  0  0
  151.8365  141.7885  161.0901 H   0  0  0  0  0  0  0  0  0  0  0  0
  150.8429  140.1041  159.4995 H   0  0  0  0  0  0  0  0  0  0  0  0
  1  2  1  0  0  0  0
  1 19  1  0  0  0  0
  1 20  1  0  0  0  0
  1 21  1  0  0  0  0
  2 18  1  0  0  0  0
  2  3  1  0  0  0  0
  2 22  1  0  0  0  0
  3  4  1  0  0  0  0
  3 23  1  0  0  0  0
  3 24  1  0  0  0  0
  4  5  1  0  0  0  0
  4 25  1  0  0  0  0
  4 26  1  0  0  0  0
  5  6  1  0  0  0  0
  5 17  1  0  0  0  0
  5 38  1  0  0  0  0
  6  7  1  0  0  0  0
  6 27  1  0  0  0  0
  6 28  1  0  0  0  0
  7  8  1  0  0  0  0
  7 29  1  0  0  0  0
  7 30  1  0  0  0  0
  8  9  1  0  0  0  0
  8 31  1  0  0  0  0
  9 10  2  0  0  0  0
  9 11  1  0  0  0  0
 11 12  1  0  0  0  0
 12 16  1  0  0  0  0
 12 13  2  0  0  0  0
 13 14  1  0  0  0  0
 14 15  2  0  0  0  0
 14 32  1  0  0  0  0
 15 16  1  0  0  0  0
 15 33  1  0  0  0  0
 17 18  1  0  0  0  0
 17 34  1  0  0  0  0
 17 35  1  0  0  0  0
 18 36  1  0  0  0  0
 18 37  1  0  0  0  0
M  CHG  1   5   1
M  CHG  1  11  -1
M  END
> <s_m_source_file>
AV-unprocessed.smi

> <i_m_source_file_index>
2037

> <i_lp_mmshare_version>
43012

> <i_f3d_flags>
0

> <s_epik_input>
W0NIM11bQ0hdMVtDSDJdW0NIMl1OKFtDSDJdW0NIMl0xKVtDSDJdW0NIMl1bTkhdQyg9TylbTkhdYzJuW2NIXVtjSF1zMg==

> <s_epik_cmdline>
J2VwaWtfcHl0aG9uJywgJy1waCcsICc3LjAnLCAnLXRuJywgJzgnLCAnLW1hJywgJzIwMCcsICctbWV0YWxfYmluZGluZycsICctaW1hZScsICc8aW5maWxlLm1hZT4nLCAnLW9tYWUnLCAnPG91dGZpbGUubWFlPic=

> <r_lp_tautomer_probability>
0.999

> <r_epik_Ionization_Penalty>
6.22113

> <r_epik_Ionization_Penalty_Charging>
5.39005

> <r_epik_Ionization_Penalty_Neutral>
0.831074

> <r_epik_State_Penalty>
5.38997

> <r_epik_Charging_Adjusted_Penalty>
10.78

> <i_epik_Tot_Q>
0

> <i_epik_Tot_abs_Q>
2

> <r_epik_Metal_State_Penalty>
1.41601

> <b_epik_Metal_Only>
1

> <s_lp_Force_Field>
OPLS_2005

> <r_lp_Energy>
7.40316

> <b_lp_Chiralities_Consistent>
1

> <s_lp_Variant>
AV-unprocessed.smi:2037-3

> <Gold.Version>
5.8.1

> <Gold.Id.Protein>
6NUR|6NUR_protein|mol2

> <Gold.PLP.Fitness>
49.1670

> <Gold.PLP.PLP>
-38.9391

> <Gold.PLP.part.hbond>
-3.0000

> <Gold.PLP.part.metal>
0.0000

> <Gold.PLP.part.buried>
-5.3999

> <Gold.PLP.part.nonpolar>
-32.8041

> <Gold.PLP.part.repulsive>
0.3772

> <Gold.PLP.ligand.clash>
0.0000

> <Gold.PLP.ligand.torsion>
0.3721

> <Gold.PLP.Chemscore.Hbond>
3.6347

> <Gold.PLP.Chemscore.CHOScore>
0.0000

> <Gold.PLP.Chemscore.Metal>
0.0000

> <Gold.Chemscore.Hbonds>
donor molecule, donor type, donor heavy atom, donor atom, acceptor molecule, acceptor atom, score
      P1  H  6896  6909       L1    10  0.76
      P1  H  6931  6943       L1    11  0.09
      P1  H  6934  6947       L1    11  1.53

> <Gold.PLP.Chemscore.Internal.Correction>
0.0680

> <Gold.Rescore>
     Score         DG    S(hbond)    S(metal)    S(lipo)     H(rot)  DE(clash)    DE(int)     intcor
     16.61     -18.64       2.04        0.00      88.47       1.57       0.13       1.89       ----

> <Gold.Chemscore.Fitness>
16.6145

> <Gold.Chemscore.DG>
-18.6407

> <Gold.Chemscore.ZeroCoef>
-5.4800

> <Gold.Chemscore.Hbond>
2.0427

> <Gold.Chemscore.Metal>
0.0000

> <Gold.Chemscore.Lipo>
88.4701

> <Gold.Chemscore.Internal_Hbond>
0.0000

> <Gold.Chemscore.DEClash>
0.1333

> <Gold.Chemscore.DEInternal>
1.8928

> <Gold.Chemscore.Rot>
1.5676

> <Gold.Chemscore.Internal.Correction>
   9.000000E+99

> <Gold.Chemscore.Hbonds>
donor molecule, donor type, donor heavy atom, donor atom, acceptor molecule, acceptor atom, score
      P1  H  6896  6909       L1    10  0.77
      P1  H  6931  6943       L1    11  0.01
      P1  H  6934  6947       L1    11  0.50

> <Gold.Chemscore.Hbond.Weighted>
-6.8227

> <Gold.Chemscore.Metal.Weighted>
-0.0000

> <Gold.Chemscore.Lipo.Weighted>
-10.3510

> <Gold.Chemscore.Internal_Hbond.Weighted>
0.0000

> <Gold.Chemscore.DEClash.Weighted>
0.1333

> <Gold.Chemscore.DEInternal.Weighted>
1.8928

> <Gold.Chemscore.Rot.Weighted>
4.0130

> <Gold.Chemscore.Internal.Correction.Weighted>
   9.000000E+99

> <Gold.Protein.RotatedTorsions>
[ 6907 6896 6895 6894 ] final   59.06 input  -60.11 | X-H torsion
[ 7974 7965 7964 7962 ] final -178.24 input  175.53 | X-H torsion
[ 8008 7997 7996 7995 ] final  -50.53 input   59.86 | X-H torsion
[ 10167 10162 10161 10158 ] final -122.67 input  -65.29 | X-H torsion
[ 10718 10713 10712 10709 ] final  -21.97 input   66.30 | X-H torsion
[ 10763 10752 10751 10750 ] final  -51.10 input  -60.55 | X-H torsion
[ 11005 11000 10999 10996 ] final  148.32 input  -57.11 | X-H torsion

> <Gold.Protein.ActiveResidues>
 VAL166  LYS551  ARG553  GLY616  TRP617  ASP618  TYR619  PRO620  LYS621  CYS622 
 ASP623  PHE694  ASN695  SER759  ASP760  ASP761  ALA762  ILE779  LEU786  VAL792 
 PHE793  MET794  SER795  GLU796  ALA797  LYS798  CYS799  TRP800  GLU811  SER814 

> <Gold.Protein.RotatedAtoms>
  152.3881  134.6486  160.0117 H   0  0  0  0  0  0  0  0  0  0  0  0  # atno 6907 bound_to 6896
  151.6728  133.3308  159.3208 H   0  0  0  0  0  0  0  0  0  0  0  0  # atno 6908 bound_to 6896
  150.7802  134.6784  159.6475 H   0  0  0  0  0  0  0  0  0  0  0  0  # atno 6909 bound_to 6896
  144.7130  140.0898  143.6422 H   0  0  0  0  0  0  0  0  0  0  0  0  # atno 7974 bound_to 7965
  154.4064  140.1270  156.4681 H   0  0  0  0  0  0  0  0  0  0  0  0  # atno 8008 bound_to 7997
  155.7206  140.3493  155.4994 H   0  0  0  0  0  0  0  0  0  0  0  0  # atno 8009 bound_to 7997
  155.9218  140.1054  157.1191 H   0  0  0  0  0  0  0  0  0  0  0  0  # atno 8010 bound_to 7997
  140.0117  143.5435  152.2260 H   0  0  0  0  0  0  0  0  0  0  0  0  # atno 10167 bound_to 10162
  156.5109  130.4610  149.6649 H   0  0  0  0  0  0  0  0  0  0  0  0  # atno 10718 bound_to 10713
  154.1211  135.6534  153.4903 H   0  0  0  0  0  0  0  0  0  0  0  0  # atno 10763 bound_to 10752
  153.0225  135.5270  154.7096 H   0  0  0  0  0  0  0  0  0  0  0  0  # atno 10764 bound_to 10752
  154.6304  135.2975  155.0193 H   0  0  0  0  0  0  0  0  0  0  0  0  # atno 10765 bound_to 10752
  140.0950  134.9018  157.1709 H   0  0  0  0  0  0  0  0  0  0  0  0  # atno 11005 bound_to 11000
  145.9630  139.2814  143.1144 LP  0  0  0  0  0  0  0  0  0  0  0  0  # atno 17320 bound_to 7965
  145.9200  140.9122  143.0410 LP  0  0  0  0  0  0  0  0  0  0  0  0  # atno 17321 bound_to 7965
  139.6200  144.7627  151.2761 LP  0  0  0  0  0  0  0  0  0  0  0  0  # atno 17342 bound_to 10162
  140.7379  143.6665  150.8118 LP  0  0  0  0  0  0  0  0  0  0  0  0  # atno 17343 bound_to 10162
  156.3241  130.7296  151.2214 LP  0  0  0  0  0  0  0  0  0  0  0  0  # atno 17370 bound_to 10713
  157.7450  131.0447  150.4809 LP  0  0  0  0  0  0  0  0  0  0  0  0  # atno 17371 bound_to 10713
  140.3299  134.2821  155.7230 LP  0  0  0  0  0  0  0  0  0  0  0  0  # atno 17394 bound_to 11000
  141.2089  133.7764  157.0029 LP  0  0  0  0  0  0  0  0  0  0  0  0  # atno 17395 bound_to 11000

$$$$
