AV-unprocessed.smi:67|AV-procd|sdf|636|dock4
  -GOLD-   2262016533D 1   1.00000     0.00000
 Structure written by MMmdl.
 48 50  0  0  0  0  0  0  0  0  2 V2000
  147.2829  136.2633  154.2161 O   0  0  0  0  0  0  0  0  0  0  0  0
  146.1638  137.0876  153.9537 C   0  0  2  0  0  0  0  0  0  0  0  0
  146.1940  138.2838  154.9362 C   0  0  0  0  0  0  0  0  0  0  0  0
  147.5818  138.7038  155.2666 N   0  3  2  0  0  0  0  0  0  0  0  0
  147.6860  139.3938  156.5786 C   0  0  0  0  0  0  0  0  0  0  0  0
  149.1554  139.6144  156.9745 C   0  0  0  0  0  0  0  0  0  0  0  0
  149.9167  140.3549  155.8555 C   0  0  1  0  0  0  0  0  0  0  0  0
  151.2664  140.7014  156.1756 O   0  0  0  0  0  0  0  0  0  0  0  0
  151.6067  141.6445  157.1269 C   0  0  0  0  0  0  0  0  0  0  0  0
  151.2287  143.0106  157.1191 C   0  0  0  0  0  0  0  0  0  0  0  0
  151.6394  143.8724  158.1536 C   0  0  0  0  0  0  0  0  0  0  0  0
  152.4340  143.3876  159.2077 C   0  0  0  0  0  0  0  0  0  0  0  0
  152.8268  142.0338  159.2307 C   0  0  0  0  0  0  0  0  0  0  0  0
  153.6798  141.4969  160.3708 C   0  0  0  0  0  0  0  0  0  0  0  0
  154.9555  141.4682  159.9874 F   0  0  0  0  0  0  0  0  0  0  0  0
  153.5724  142.2743  161.4489 F   0  0  0  0  0  0  0  0  0  0  0  0
  153.3054  140.2626  160.7090 F   0  0  0  0  0  0  0  0  0  0  0  0
  152.4033  141.1757  158.1929 C   0  0  0  0  0  0  0  0  0  0  0  0
  149.7247  139.7039  154.4701 C   0  0  0  0  0  0  0  0  0  0  0  0
  148.2312  139.4822  154.1793 C   0  0  0  0  0  0  0  0  0  0  0  0
  144.8555  136.2898  153.9910 C   0  0  0  0  0  0  0  0  0  0  0  0
  143.9557  137.0720  153.0388 C   0  0  0  0  0  0  0  0  0  0  0  0
  144.8389  137.5745  151.9926 N   0  0  0  0  0  0  0  0  0  0  0  0
  146.2141  137.5685  152.4924 C   0  0  0  0  0  0  0  0  0  0  0  0
  147.8133  136.2138  153.4352 H   0  0  0  0  0  0  0  0  0  0  0  0
  145.6308  139.1248  154.5279 H   0  0  0  0  0  0  0  0  0  0  0  0
  145.6637  138.0057  155.8484 H   0  0  0  0  0  0  0  0  0  0  0  0
  147.1575  140.3473  156.5319 H   0  0  0  0  0  0  0  0  0  0  0  0
  147.1965  138.7966  157.3494 H   0  0  0  0  0  0  0  0  0  0  0  0
  149.2021  140.1949  157.8962 H   0  0  0  0  0  0  0  0  0  0  0  0
  149.6000  138.6503  157.2070 H   0  0  0  0  0  0  0  0  0  0  0  0
  149.4344  141.3306  155.7800 H   0  0  0  0  0  0  0  0  0  0  0  0
  150.6227  143.4384  156.3402 H   0  0  0  0  0  0  0  0  0  0  0  0
  151.3424  144.9107  158.1389 H   0  0  0  0  0  0  0  0  0  0  0  0
  152.7380  144.0591  159.9971 H   0  0  0  0  0  0  0  0  0  0  0  0
  152.6930  140.1352  158.2118 H   0  0  0  0  0  0  0  0  0  0  0  0
  150.1544  140.3463  153.7009 H   0  0  0  0  0  0  0  0  0  0  0  0
  150.2409  138.7514  154.3841 H   0  0  0  0  0  0  0  0  0  0  0  0
  148.1250  138.9560  153.2302 H   0  0  0  0  0  0  0  0  0  0  0  0
  147.7240  140.4416  154.0661 H   0  0  0  0  0  0  0  0  0  0  0  0
  145.0133  135.2875  153.5889 H   0  0  0  0  0  0  0  0  0  0  0  0
  144.4257  136.1786  154.9867 H   0  0  0  0  0  0  0  0  0  0  0  0
  143.1496  136.4621  152.6305 H   0  0  0  0  0  0  0  0  0  0  0  0
  143.5004  137.9093  153.5686 H   0  0  0  0  0  0  0  0  0  0  0  0
  144.5588  138.5078  151.7076 H   0  0  0  0  0  0  0  0  0  0  0  0
  146.6775  138.5507  152.3969 H   0  0  0  0  0  0  0  0  0  0  0  0
  146.8030  136.8796  151.8854 H   0  0  0  0  0  0  0  0  0  0  0  0
  148.1082  137.8463  155.3586 H   0  0  0  0  0  0  0  0  0  0  0  0
  1  2  1  0  0  0  0
  1 25  1  0  0  0  0
  2 24  1  0  0  0  0
  2  3  1  0  0  0  0
  2 21  1  0  0  0  0
  3  4  1  0  0  0  0
  3 26  1  0  0  0  0
  3 27  1  0  0  0  0
  4 20  1  0  0  0  0
  4  5  1  0  0  0  0
  4 48  1  0  0  0  0
  5  6  1  0  0  0  0
  5 28  1  0  0  0  0
  5 29  1  0  0  0  0
  6  7  1  0  0  0  0
  6 30  1  0  0  0  0
  6 31  1  0  0  0  0
  7  8  1  0  0  0  0
  7 19  1  0  0  0  0
  7 32  1  0  0  0  0
  8  9  1  0  0  0  0
  9 18  1  0  0  0  0
  9 10  2  0  0  0  0
 10 11  1  0  0  0  0
 10 33  1  0  0  0  0
 11 12  2  0  0  0  0
 11 34  1  0  0  0  0
 12 13  1  0  0  0  0
 12 35  1  0  0  0  0
 13 14  1  0  0  0  0
 13 18  2  0  0  0  0
 14 15  1  0  0  0  0
 14 16  1  0  0  0  0
 14 17  1  0  0  0  0
 18 36  1  0  0  0  0
 19 20  1  0  0  0  0
 19 37  1  0  0  0  0
 19 38  1  0  0  0  0
 20 39  1  0  0  0  0
 20 40  1  0  0  0  0
 21 22  1  0  0  0  0
 21 41  1  0  0  0  0
 21 42  1  0  0  0  0
 22 23  1  0  0  0  0
 22 43  1  0  0  0  0
 22 44  1  0  0  0  0
 23 24  1  0  0  0  0
 23 45  1  0  0  0  0
 24 46  1  0  0  0  0
 24 47  1  0  0  0  0
M  CHG  1   4   1
M  END
> <s_m_source_file>
AV-unprocessed.smi

> <i_m_source_file_index>
67

> <i_lp_mmshare_version>
43012

> <i_f3d_flags>
0

> <s_epik_input>
W0NIMl0xW05IXVtDSDJdW0NIMl1bQ0BAXTEoW09IXSlbQ0gyXU4yW0NIMl1bQ0gyXVtDSF0oW0NIMl1bQ0gyXTIpT2MzW2NIXVtjSF1bY0hdYyhDKEYpKEYpRilbY0hdMw==

> <s_epik_cmdline>
J2VwaWtfcHl0aG9uJywgJy1waCcsICc3LjAnLCAnLXRuJywgJzgnLCAnLW1hJywgJzIwMCcsICctbWV0YWxfYmluZGluZycsICctaW1hZScsICc8aW5maWxlLm1hZT4nLCAnLW9tYWUnLCAnPG91dGZpbGUubWFlPic=

> <r_epik_Ionization_Penalty>
2.37709

> <r_epik_Ionization_Penalty_Charging>
0.0305656

> <r_epik_Ionization_Penalty_Neutral>
2.34653

> <r_epik_State_Penalty>
2.56959

> <r_epik_Charging_Adjusted_Penalty>
2.60016

> <i_epik_Tot_Q>
1

> <i_epik_Tot_abs_Q>
1

> <r_epik_Metal_State_Penalty>
2.56925

> <b_epik_Metal_Only>
0

> <s_lp_Force_Field>
OPLS_2005

> <r_lp_Energy>
55.6007

> <b_lp_Chiralities_Consistent>
1

> <s_lp_Variant>
AV-unprocessed.smi:67-8

> <Gold.Version>
5.8.1

> <Gold.Id.Protein>
6NUR|6NUR_protein|mol2

> <Gold.PLP.Fitness>
44.8076

> <Gold.PLP.PLP>
-40.5213

> <Gold.PLP.part.hbond>
-2.4020

> <Gold.PLP.part.metal>
0.0000

> <Gold.PLP.part.buried>
-4.8214

> <Gold.PLP.part.nonpolar>
-32.4385

> <Gold.PLP.part.repulsive>
0.0132

> <Gold.PLP.ligand.clash>
0.0273

> <Gold.PLP.ligand.torsion>
1.6977

> <Gold.PLP.Chemscore.Hbond>
2.0000

> <Gold.PLP.Chemscore.CHOScore>
0.0000

> <Gold.PLP.Chemscore.Metal>
0.0000

> <Gold.Chemscore.Hbonds>
donor molecule, donor type, donor heavy atom, donor atom, acceptor molecule, acceptor atom, score
      L1  H     1    25       P1  7948  1.00
      L1  H    23    45       P1 10175  0.40

> <Gold.PLP.Chemscore.Internal.Correction>
1.7090

> <Gold.Rescore>
     Score         DG    S(hbond)    S(metal)    S(lipo)     H(rot)  DE(clash)    DE(int)     intcor
     16.99     -18.85       1.97        0.00     105.58       2.17       0.19       1.67       ----

> <Gold.Chemscore.Fitness>
16.9907

> <Gold.Chemscore.DG>
-18.8450

> <Gold.Chemscore.ZeroCoef>
-5.4800

> <Gold.Chemscore.Hbond>
1.9690

> <Gold.Chemscore.Metal>
0.0000

> <Gold.Chemscore.Lipo>
105.5782

> <Gold.Chemscore.Internal_Hbond>
0.0000

> <Gold.Chemscore.DEClash>
0.1856

> <Gold.Chemscore.DEInternal>
1.6687

> <Gold.Chemscore.Rot>
2.1734

> <Gold.Chemscore.Internal.Correction>
   9.000000E+99

> <Gold.Chemscore.Hbonds>
donor molecule, donor type, donor heavy atom, donor atom, acceptor molecule, acceptor atom, score
      L1  H     1    25       P1  7948  0.99
      L1  H    23    45       P1 10175  0.39

> <Gold.Chemscore.Hbond.Weighted>
-6.5764

> <Gold.Chemscore.Metal.Weighted>
-0.0000

> <Gold.Chemscore.Lipo.Weighted>
-12.3526

> <Gold.Chemscore.Internal_Hbond.Weighted>
0.0000

> <Gold.Chemscore.DEClash.Weighted>
0.1856

> <Gold.Chemscore.DEInternal.Weighted>
1.6687

> <Gold.Chemscore.Rot.Weighted>
5.5640

> <Gold.Chemscore.Internal.Correction.Weighted>
   9.000000E+99

> <Gold.Protein.RotatedTorsions>
[ 6907 6896 6895 6894 ] final   64.01 input  -60.11 | X-H torsion
[ 7974 7965 7964 7962 ] final -144.37 input  175.53 | X-H torsion
[ 8008 7997 7996 7995 ] final   25.13 input   59.86 | X-H torsion
[ 10167 10162 10161 10158 ] final  -37.51 input  -65.29 | X-H torsion
[ 10718 10713 10712 10709 ] final -149.64 input   66.30 | X-H torsion
[ 10763 10752 10751 10750 ] final  -65.10 input  -60.55 | X-H torsion
[ 11005 11000 10999 10996 ] final  -43.01 input  -57.11 | X-H torsion

> <Gold.Protein.ActiveResidues>
 VAL166  LYS551  ARG553  GLY616  TRP617  ASP618  TYR619  PRO620  LYS621  CYS622 
 ASP623  PHE694  ASN695  SER759  ASP760  ASP761  ALA762  ILE779  LEU786  VAL792 
 PHE793  MET794  SER795  GLU796  ALA797  LYS798  CYS799  TRP800  GLU811  SER814 

> <Gold.Protein.RotatedAtoms>
  152.4298  134.5799  159.9944 H   0  0  0  0  0  0  0  0  0  0  0  0  # atno 6907 bound_to 6896
  151.5926  133.3359  159.3039 H   0  0  0  0  0  0  0  0  0  0  0  0  # atno 6908 bound_to 6896
  150.8190  134.7423  159.6820 H   0  0  0  0  0  0  0  0  0  0  0  0  # atno 6909 bound_to 6896
  144.8302  140.5718  143.5520 H   0  0  0  0  0  0  0  0  0  0  0  0  # atno 7974 bound_to 7965
  155.0070  140.3132  155.4845 H   0  0  0  0  0  0  0  0  0  0  0  0  # atno 8008 bound_to 7997
  156.2915  140.2221  156.5124 H   0  0  0  0  0  0  0  0  0  0  0  0  # atno 8009 bound_to 7997
  154.7568  140.0462  157.0928 H   0  0  0  0  0  0  0  0  0  0  0  0  # atno 8010 bound_to 7997
  140.7116  143.3337  151.2510 H   0  0  0  0  0  0  0  0  0  0  0  0  # atno 10167 bound_to 10162
  156.4358  130.8097  151.2326 H   0  0  0  0  0  0  0  0  0  0  0  0  # atno 10718 bound_to 10713
  154.3400  135.6158  153.5592 H   0  0  0  0  0  0  0  0  0  0  0  0  # atno 10763 bound_to 10752
  152.9805  135.5767  154.4864 H   0  0  0  0  0  0  0  0  0  0  0  0  # atno 10764 bound_to 10752
  154.4566  135.2854  155.1720 H   0  0  0  0  0  0  0  0  0  0  0  0  # atno 10765 bound_to 10752
  141.0354  133.6802  156.2673 H   0  0  0  0  0  0  0  0  0  0  0  0  # atno 11005 bound_to 11000
  145.4912  139.1488  143.3708 LP  0  0  0  0  0  0  0  0  0  0  0  0  # atno 17320 bound_to 7965
  146.2605  140.5050  142.8855 LP  0  0  0  0  0  0  0  0  0  0  0  0  # atno 17321 bound_to 7965
  139.6827  143.9827  152.2817 LP  0  0  0  0  0  0  0  0  0  0  0  0  # atno 17342 bound_to 10162
  139.9462  144.6650  150.8217 LP  0  0  0  0  0  0  0  0  0  0  0  0  # atno 17343 bound_to 10162
  157.7507  131.0184  150.3624 LP  0  0  0  0  0  0  0  0  0  0  0  0  # atno 17370 bound_to 10713
  156.3971  130.3909  149.6987 LP  0  0  0  0  0  0  0  0  0  0  0  0  # atno 17371 bound_to 10713
  140.6331  134.5243  157.5561 LP  0  0  0  0  0  0  0  0  0  0  0  0  # atno 17394 bound_to 11000
  139.9237  134.8098  156.1133 LP  0  0  0  0  0  0  0  0  0  0  0  0  # atno 17395 bound_to 11000

$$$$
