AV-unprocessed.smi:3261|AV-procd|sdf|12478|dock3
  -GOLD-   2272018383D 1   1.00000     0.00000
 Structure written by MMmdl.
 30 31  0  0  0  0  0  0  0  0  1 V2000
  144.7509  136.9288  152.2219 O   0  0  0  0  0  0  0  0  0  0  0  0
  145.9475  136.6567  152.1560 C   0  0  0  0  0  0  0  0  0  0  0  0
  146.4494  135.4913  151.7006 N   0  0  0  0  0  0  0  0  0  0  0  0
  145.7621  134.3257  151.2654 C   0  0  0  0  0  0  0  0  0  0  0  0
  146.5347  133.1774  150.9943 C   0  0  0  0  0  0  0  0  0  0  0  0
  145.8809  132.0005  150.5789 C   0  0  0  0  0  0  0  0  0  0  0  0
  144.5426  131.9084  150.4323 N   0  0  0  0  0  0  0  0  0  0  0  0
  143.8031  133.0042  150.7041 C   0  0  0  0  0  0  0  0  0  0  0  0
  144.3563  134.2301  151.1251 C   0  0  0  0  0  0  0  0  0  0  0  0
  146.8817  137.5539  152.5201 N   0  0  0  0  0  0  0  0  0  0  0  0
  146.6844  138.9036  153.0515 C   0  0  2  0  0  0  0  0  0  0  0  0
  146.6544  139.9442  151.9167 C   0  0  0  0  0  0  0  0  0  0  0  0
  146.8044  141.3428  152.5282 C   0  0  0  0  0  0  0  0  0  0  0  0
  147.8292  141.1333  154.0339 S   0  0  0  0  0  0  0  0  0  0  0  0
  149.1991  141.5981  153.7691 O   0  0  0  0  0  0  0  0  0  0  0  0
  147.0737  141.6245  155.1961 O   0  0  0  0  0  0  0  0  0  0  0  0
  147.8062  139.3016  154.0241 C   0  0  0  0  0  0  0  0  0  0  0  0
  147.4549  135.4477  151.6265 H   0  0  0  0  0  0  0  0  0  0  0  0
  147.6099  133.1940  151.0978 H   0  0  0  0  0  0  0  0  0  0  0  0
  146.4487  131.1082  150.3605 H   0  0  0  0  0  0  0  0  0  0  0  0
  142.7344  132.9004  150.5885 H   0  0  0  0  0  0  0  0  0  0  0  0
  143.6947  135.0544  151.3404 H   0  0  0  0  0  0  0  0  0  0  0  0
  147.8430  137.2743  152.3862 H   0  0  0  0  0  0  0  0  0  0  0  0
  145.7270  138.9663  153.5721 H   0  0  0  0  0  0  0  0  0  0  0  0
  147.4947  139.7669  151.2435 H   0  0  0  0  0  0  0  0  0  0  0  0
  145.7463  139.8664  151.3180 H   0  0  0  0  0  0  0  0  0  0  0  0
  147.2716  142.0564  151.8495 H   0  0  0  0  0  0  0  0  0  0  0  0
  145.8349  141.7371  152.8338 H   0  0  0  0  0  0  0  0  0  0  0  0
  147.6557  138.9237  155.0356 H   0  0  0  0  0  0  0  0  0  0  0  0
  148.7782  138.9602  153.6658 H   0  0  0  0  0  0  0  0  0  0  0  0
  1  2  2  0  0  0  0
  2  3  1  0  0  0  0
  2 10  1  0  0  0  0
  3  4  1  0  0  0  0
  3 18  1  0  0  0  0
  4  9  1  0  0  0  0
  4  5  2  0  0  0  0
  5  6  1  0  0  0  0
  5 19  1  0  0  0  0
  6  7  2  0  0  0  0
  6 20  1  0  0  0  0
  7  8  1  0  0  0  0
  8  9  2  0  0  0  0
  8 21  1  0  0  0  0
  9 22  1  0  0  0  0
 10 11  1  0  0  0  0
 10 23  1  0  0  0  0
 11 17  1  0  0  0  0
 11 12  1  0  0  0  0
 11 24  1  0  0  0  0
 12 13  1  0  0  0  0
 12 25  1  0  0  0  0
 12 26  1  0  0  0  0
 13 14  1  0  0  0  0
 13 27  1  0  0  0  0
 13 28  1  0  0  0  0
 14 15  2  0  0  0  0
 14 16  2  0  0  0  0
 14 17  1  0  0  0  0
 17 29  1  0  0  0  0
 17 30  1  0  0  0  0
M  END
> <s_m_source_file>
AV-unprocessed.smi

> <i_m_source_file_index>
3261

> <i_lp_mmshare_version>
43012

> <i_f3d_flags>
0

> <s_epik_input>
Tz1TMSg9TylbQ0gyXVtDSDJdW0NASF0oW0NIMl0xKVtOSF1DKD1PKVtOSF1jMltjSF1bY0hdbltjSF1bY0hdMg==

> <s_epik_cmdline>
J2VwaWtfcHl0aG9uJywgJy1waCcsICc3LjAnLCAnLXRuJywgJzgnLCAnLW1hJywgJzIwMCcsICctbWV0YWxfYmluZGluZycsICctaW1hZScsICc8aW5maWxlLm1hZT4nLCAnLW9tYWUnLCAnPG91dGZpbGUubWFlPic=

> <r_epik_Ionization_Penalty>
0.0999693

> <r_epik_Ionization_Penalty_Charging>
0

> <r_epik_Ionization_Penalty_Neutral>
0.0999693

> <r_epik_State_Penalty>
0.0899812

> <r_epik_Charging_Adjusted_Penalty>
0.0899812

> <i_epik_Tot_Q>
0

> <i_epik_Tot_abs_Q>
0

> <r_epik_Metal_State_Penalty>
0.0778619

> <b_epik_Metal_Only>
0

> <s_lp_Force_Field>
OPLS_2005

> <r_lp_Energy>
18.6703

> <b_lp_Chiralities_Consistent>
1

> <s_lp_Variant>
AV-unprocessed.smi:3261-1

> <Gold.Version>
5.8.1

> <Gold.Id.Protein>
6NUR|6NUR_protein|mol2

> <Gold.PLP.Fitness>
38.2447

> <Gold.PLP.PLP>
-25.0233

> <Gold.PLP.part.hbond>
-4.0000

> <Gold.PLP.part.metal>
0.0000

> <Gold.PLP.part.buried>
-1.2563

> <Gold.PLP.part.nonpolar>
-21.4685

> <Gold.PLP.part.repulsive>
1.4599

> <Gold.PLP.ligand.clash>
0.0000

> <Gold.PLP.ligand.torsion>
0.3837

> <Gold.PLP.Chemscore.Hbond>
2.6960

> <Gold.PLP.Chemscore.CHOScore>
1.9667

> <Gold.PLP.Chemscore.Metal>
0.0000

> <Gold.Chemscore.Hbonds>
donor molecule, donor type, donor heavy atom, donor atom, acceptor molecule, acceptor atom, score
      L1  H     3    18       P1  7948  0.99
      L1  H    10    23       P1  7948  1.00
      P1  H  8011  8017       L1    15  0.70
      L1  C     6    20       P1 10747  0.96
      L1  C     8    21       P1 10186  1.00

> <Gold.PLP.Chemscore.Internal.Correction>
0.0006

> <Gold.Rescore>
     Score         DG    S(hbond)    S(metal)    S(lipo)     H(rot)  DE(clash)    DE(int)     intcor
     16.45     -18.77       2.67        0.00      59.25       1.00       0.73       1.58       ----

> <Gold.Chemscore.Fitness>
16.4504

> <Gold.Chemscore.DG>
-18.7688

> <Gold.Chemscore.ZeroCoef>
-5.4800

> <Gold.Chemscore.Hbond>
2.6695

> <Gold.Chemscore.Metal>
0.0000

> <Gold.Chemscore.Lipo>
59.2524

> <Gold.Chemscore.Internal_Hbond>
0.0000

> <Gold.Chemscore.DEClash>
0.7337

> <Gold.Chemscore.DEInternal>
1.5847

> <Gold.Chemscore.Rot>
1.0000

> <Gold.Chemscore.Internal.Correction>
   9.000000E+99

> <Gold.Chemscore.Hbonds>
donor molecule, donor type, donor heavy atom, donor atom, acceptor molecule, acceptor atom, score
      L1  H     3    18       P1  7948  0.89
      L1  H    10    23       P1  7948  0.95
      P1  H  8011  8017       L1    15  0.70

> <Gold.Chemscore.Hbond.Weighted>
-8.9162

> <Gold.Chemscore.Metal.Weighted>
-0.0000

> <Gold.Chemscore.Lipo.Weighted>
-6.9325

> <Gold.Chemscore.Internal_Hbond.Weighted>
0.0000

> <Gold.Chemscore.DEClash.Weighted>
0.7337

> <Gold.Chemscore.DEInternal.Weighted>
1.5847

> <Gold.Chemscore.Rot.Weighted>
2.5600

> <Gold.Chemscore.Internal.Correction.Weighted>
   9.000000E+99

> <Gold.Protein.RotatedTorsions>
[ 6907 6896 6895 6894 ] final  112.73 input  -60.11 | X-H torsion
[ 7974 7965 7964 7962 ] final  -52.43 input  175.53 | X-H torsion
[ 8008 7997 7996 7995 ] final  -53.62 input   59.86 | X-H torsion
[ 10167 10162 10161 10158 ] final -140.04 input  -65.29 | X-H torsion
[ 10718 10713 10712 10709 ] final  -29.61 input   66.30 | X-H torsion
[ 10763 10752 10751 10750 ] final   44.24 input  -60.55 | X-H torsion
[ 11005 11000 10999 10996 ] final    2.86 input  -57.11 | X-H torsion

> <Gold.Protein.ActiveResidues>
 VAL166  LYS551  ARG553  GLY616  TRP617  ASP618  TYR619  PRO620  LYS621  CYS622 
 ASP623  PHE694  ASN695  SER759  ASP760  ASP761  ALA762  ILE779  LEU786  VAL792 
 PHE793  MET794  SER795  GLU796  ALA797  LYS798  CYS799  TRP800  GLU811  SER814 

> <Gold.Protein.RotatedAtoms>
  152.4900  133.8474  159.7183 H   0  0  0  0  0  0  0  0  0  0  0  0  # atno 6907 bound_to 6896
  150.9021  133.7096  159.2883 H   0  0  0  0  0  0  0  0  0  0  0  0  # atno 6908 bound_to 6896
  151.4534  135.1036  159.9756 H   0  0  0  0  0  0  0  0  0  0  0  0  # atno 6909 bound_to 6896
  145.9080  140.7939  142.9709 H   0  0  0  0  0  0  0  0  0  0  0  0  # atno 7974 bound_to 7965
  154.4138  140.1195  156.5184 H   0  0  0  0  0  0  0  0  0  0  0  0  # atno 8008 bound_to 7997
  155.6728  140.3496  155.4805 H   0  0  0  0  0  0  0  0  0  0  0  0  # atno 8009 bound_to 7997
  155.9618  140.1124  157.0879 H   0  0  0  0  0  0  0  0  0  0  0  0  # atno 8010 bound_to 7997
  139.8320  143.7434  152.2665 H   0  0  0  0  0  0  0  0  0  0  0  0  # atno 10167 bound_to 10162
  156.4103  130.4407  149.7257 H   0  0  0  0  0  0  0  0  0  0  0  0  # atno 10718 bound_to 10713
  152.9845  135.6076  154.3242 H   0  0  0  0  0  0  0  0  0  0  0  0  # atno 10763 bound_to 10752
  154.2950  135.2774  155.2639 H   0  0  0  0  0  0  0  0  0  0  0  0  # atno 10764 bound_to 10752
  154.4917  135.5890  153.6521 H   0  0  0  0  0  0  0  0  0  0  0  0  # atno 10765 bound_to 10752
  140.5996  133.9848  155.8126 H   0  0  0  0  0  0  0  0  0  0  0  0  # atno 11005 bound_to 11000
  144.6741  140.1781  143.7408 LP  0  0  0  0  0  0  0  0  0  0  0  0  # atno 17320 bound_to 7965
  145.8707  139.2270  143.1662 LP  0  0  0  0  0  0  0  0  0  0  0  0  # atno 17321 bound_to 7965
  139.7645  144.7496  151.0315 LP  0  0  0  0  0  0  0  0  0  0  0  0  # atno 17342 bound_to 10162
  140.7806  143.4714  151.0141 LP  0  0  0  0  0  0  0  0  0  0  0  0  # atno 17343 bound_to 10162
  156.4238  130.7782  151.2800 LP  0  0  0  0  0  0  0  0  0  0  0  0  # atno 17370 bound_to 10713
  157.7507  131.0175  150.3586 LP  0  0  0  0  0  0  0  0  0  0  0  0  # atno 17371 bound_to 10713
  141.0881  133.9959  157.3281 LP  0  0  0  0  0  0  0  0  0  0  0  0  # atno 17394 bound_to 11000
  139.9238  135.0201  156.8161 LP  0  0  0  0  0  0  0  0  0  0  0  0  # atno 17395 bound_to 11000

$$$$
