AV-unprocessed.smi:216|AV-procd|sdf|1658|dock6
  -GOLD-   2262020 53D 1   1.00000     0.00000
 Structure written by MMmdl.
 65 69  0  0  0  0  0  0  0  0  1 V2000
  150.8021  142.1617  156.8976 C   0  0  0  0  0  0  0  0  0  0  0  0
  150.1075  140.7884  156.7735 C   0  0  2  0  0  0  0  0  0  0  0  0
  151.1365  139.7320  156.3221 C   0  0  0  0  0  0  0  0  0  0  0  0
  150.5253  138.3288  156.2922 C   0  0  0  0  0  0  0  0  0  0  0  0
  149.3153  138.3123  155.4752 N   0  0  0  0  0  0  0  0  0  0  0  0
  148.8280  137.0952  155.1196 C   0  0  0  0  0  0  0  0  0  0  0  0
  149.6292  135.9973  155.1835 N   0  0  0  0  0  0  0  0  0  0  0  0
  149.1592  134.7953  154.8391 C   0  0  0  0  0  0  0  0  0  0  0  0
  147.9390  134.4686  154.4117 N   0  0  0  0  0  0  0  0  0  0  0  0
  147.1280  135.5627  154.3457 C   0  0  0  0  0  0  0  0  0  0  0  0
  147.4902  136.9004  154.6732 C   0  0  0  0  0  0  0  0  0  0  0  0
  146.4094  137.7460  154.4574 N   0  0  0  0  0  0  0  0  0  0  0  0
  145.4607  136.9544  154.0397 C   0  0  0  0  0  0  0  0  0  0  0  0
  145.8002  135.6228  153.9576 N   0  0  0  0  0  0  0  0  0  0  0  0
  144.9404  134.5318  153.5207 C   0  0  0  0  0  0  0  0  0  0  0  0
  144.9682  134.2473  151.9892 C   0  0  0  0  0  0  0  0  0  0  0  0
  144.9813  135.5745  151.1769 C   0  0  0  0  0  0  0  0  0  0  0  0
  143.8954  136.4166  151.5089 O   0  0  0  0  0  0  0  0  0  0  0  0
  146.2157  133.3826  151.6777 C   0  0  0  0  0  0  0  0  0  0  0  0
  146.1985  132.7905  150.2570 C   0  0  0  0  0  0  0  0  0  0  0  0
  145.0155  132.0261  150.0665 O   0  0  0  0  0  0  0  0  0  0  0  0
  143.8328  132.8062  150.1775 C   0  0  0  0  0  0  0  0  0  0  0  0
  143.7269  133.4099  151.5900 C   0  0  0  0  0  0  0  0  0  0  0  0
  148.2939  139.2780  155.8819 C   0  0  0  0  0  0  0  0  0  0  0  0
  148.8125  140.7478  155.8877 C   0  0  0  0  0  0  0  0  0  0  0  0
  147.7134  141.6526  156.5166 C   0  0  0  0  0  0  0  0  0  0  0  0
  146.4401  141.7733  155.6596 C   0  0  0  0  0  0  0  0  0  0  0  0
  146.7711  142.2808  154.2506 C   0  0  0  0  0  0  0  0  0  0  0  0
  147.8153  141.3837  153.5746 C   0  0  0  0  0  0  0  0  0  0  0  0
  149.0848  141.2426  154.4350 C   0  0  0  0  0  0  0  0  0  0  0  0
  151.2002  142.5091  155.9450 H   0  0  0  0  0  0  0  0  0  0  0  0
  151.6457  142.0980  157.5854 H   0  0  0  0  0  0  0  0  0  0  0  0
  150.1440  142.9337  157.2920 H   0  0  0  0  0  0  0  0  0  0  0  0
  149.8056  140.5123  157.7852 H   0  0  0  0  0  0  0  0  0  0  0  0
  151.5298  139.9833  155.3368 H   0  0  0  0  0  0  0  0  0  0  0  0
  151.9929  139.7310  156.9971 H   0  0  0  0  0  0  0  0  0  0  0  0
  151.2572  137.6233  155.8961 H   0  0  0  0  0  0  0  0  0  0  0  0
  150.2817  138.0090  157.3065 H   0  0  0  0  0  0  0  0  0  0  0  0
  149.8616  133.9788  154.9186 H   0  0  0  0  0  0  0  0  0  0  0  0
  144.4784  137.3224  153.7812 H   0  0  0  0  0  0  0  0  0  0  0  0
  145.2283  133.6376  154.0753 H   0  0  0  0  0  0  0  0  0  0  0  0
  143.9235  134.7591  153.8438 H   0  0  0  0  0  0  0  0  0  0  0  0
  145.8962  136.1400  151.3452 H   0  0  0  0  0  0  0  0  0  0  0  0
  144.9485  135.3760  150.1056 H   0  0  0  0  0  0  0  0  0  0  0  0
  143.8235  137.0887  150.8481 H   0  0  0  0  0  0  0  0  0  0  0  0
  147.1314  133.9549  151.8291 H   0  0  0  0  0  0  0  0  0  0  0  0
  146.2653  132.5532  152.3846 H   0  0  0  0  0  0  0  0  0  0  0  0
  146.2755  133.5670  149.4955 H   0  0  0  0  0  0  0  0  0  0  0  0
  147.0590  132.1357  150.1199 H   0  0  0  0  0  0  0  0  0  0  0  0
  143.8159  133.5780  149.4076 H   0  0  0  0  0  0  0  0  0  0  0  0
  142.9744  132.1615  149.9879 H   0  0  0  0  0  0  0  0  0  0  0  0
  143.6029  132.5880  152.2963 H   0  0  0  0  0  0  0  0  0  0  0  0
  142.8189  134.0096  151.6593 H   0  0  0  0  0  0  0  0  0  0  0  0
  147.4110  139.1831  155.2532 H   0  0  0  0  0  0  0  0  0  0  0  0
  147.9680  139.0047  156.8866 H   0  0  0  0  0  0  0  0  0  0  0  0
  147.4491  141.2882  157.5099 H   0  0  0  0  0  0  0  0  0  0  0  0
  148.0920  142.6628  156.6620 H   0  0  0  0  0  0  0  0  0  0  0  0
  145.9264  140.8140  155.5995 H   0  0  0  0  0  0  0  0  0  0  0  0
  145.7402  142.4586  156.1387 H   0  0  0  0  0  0  0  0  0  0  0  0
  145.8651  142.3196  153.6455 H   0  0  0  0  0  0  0  0  0  0  0  0
  147.1500  143.3019  154.3091 H   0  0  0  0  0  0  0  0  0  0  0  0
  147.3806  140.4063  153.3755 H   0  0  0  0  0  0  0  0  0  0  0  0
  148.0780  141.7975  152.6007 H   0  0  0  0  0  0  0  0  0  0  0  0
  149.5638  142.2203  154.4603 H   0  0  0  0  0  0  0  0  0  0  0  0
  149.7843  140.5802  153.9255 H   0  0  0  0  0  0  0  0  0  0  0  0
  1  2  1  0  0  0  0
  1 31  1  0  0  0  0
  1 32  1  0  0  0  0
  1 33  1  0  0  0  0
  2 25  1  0  0  0  0
  2  3  1  0  0  0  0
  2 34  1  0  0  0  0
  3  4  1  0  0  0  0
  3 35  1  0  0  0  0
  3 36  1  0  0  0  0
  4  5  1  0  0  0  0
  4 37  1  0  0  0  0
  4 38  1  0  0  0  0
  5  6  1  0  0  0  0
  5 24  1  0  0  0  0
  6 11  1  0  0  0  0
  6  7  2  0  0  0  0
  7  8  1  0  0  0  0
  8  9  2  0  0  0  0
  8 39  1  0  0  0  0
  9 10  1  0  0  0  0
 10 14  1  0  0  0  0
 10 11  2  0  0  0  0
 11 12  1  0  0  0  0
 12 13  2  0  0  0  0
 13 14  1  0  0  0  0
 13 40  1  0  0  0  0
 14 15  1  0  0  0  0
 15 16  1  0  0  0  0
 15 41  1  0  0  0  0
 15 42  1  0  0  0  0
 16 23  1  0  0  0  0
 16 17  1  0  0  0  0
 16 19  1  0  0  0  0
 17 18  1  0  0  0  0
 17 43  1  0  0  0  0
 17 44  1  0  0  0  0
 18 45  1  0  0  0  0
 19 20  1  0  0  0  0
 19 46  1  0  0  0  0
 19 47  1  0  0  0  0
 20 21  1  0  0  0  0
 20 48  1  0  0  0  0
 20 49  1  0  0  0  0
 21 22  1  0  0  0  0
 22 23  1  0  0  0  0
 22 50  1  0  0  0  0
 22 51  1  0  0  0  0
 23 52  1  0  0  0  0
 23 53  1  0  0  0  0
 24 25  1  0  0  0  0
 24 54  1  0  0  0  0
 24 55  1  0  0  0  0
 25 30  1  0  0  0  0
 25 26  1  0  0  0  0
 26 27  1  0  0  0  0
 26 56  1  0  0  0  0
 26 57  1  0  0  0  0
 27 28  1  0  0  0  0
 27 58  1  0  0  0  0
 27 59  1  0  0  0  0
 28 29  1  0  0  0  0
 28 60  1  0  0  0  0
 28 61  1  0  0  0  0
 29 30  1  0  0  0  0
 29 62  1  0  0  0  0
 29 63  1  0  0  0  0
 30 64  1  0  0  0  0
 30 65  1  0  0  0  0
M  END
> <s_m_source_file>
AV-unprocessed.smi

> <i_m_source_file_index>
216

> <i_lp_mmshare_version>
43012

> <i_f3d_flags>
0

> <s_epik_input>
W0NIMl0xW0NIMl1bQ0gyXVtDSDJdW0NIMl1DMTJbQ0BIXShbQ0gzXSlbQ0gyXVtDSDJdTihbQ0gyXTIpYyhuW2NIXW4zKWMoYzM0KW5bY0hdbjRbQ0gyXUM1KFtDSDJdW09IXSlbQ0gyXVtDSDJdT1tDSDJdW0NIMl01

> <s_epik_cmdline>
J2VwaWtfcHl0aG9uJywgJy1waCcsICc3LjAnLCAnLXRuJywgJzgnLCAnLW1hJywgJzIwMCcsICctbWV0YWxfYmluZGluZycsICctaW1hZScsICc8aW5maWxlLm1hZT4nLCAnLW9tYWUnLCAnPG91dGZpbGUubWFlPic=

> <r_lp_tautomer_probability>
1

> <r_epik_Ionization_Penalty>
0.00291566

> <r_epik_Ionization_Penalty_Charging>
0

> <r_epik_Ionization_Penalty_Neutral>
0.00291566

> <r_epik_State_Penalty>
0.00199166

> <r_epik_Charging_Adjusted_Penalty>
0.00199166

> <i_epik_Tot_Q>
0

> <i_epik_Tot_abs_Q>
0

> <r_epik_Metal_State_Penalty>
-0

> <b_epik_Metal_Only>
0

> <s_lp_Force_Field>
OPLS_2005

> <r_lp_Energy>
50.3698

> <b_lp_Chiralities_Consistent>
1

> <s_lp_Variant>
AV-unprocessed.smi:216-1

> <Gold.Version>
5.8.1

> <Gold.Id.Protein>
6NUR|6NUR_protein|mol2

> <Gold.PLP.Fitness>
40.1198

> <Gold.PLP.PLP>
-39.2656

> <Gold.PLP.part.hbond>
-1.0000

> <Gold.PLP.part.metal>
0.0000

> <Gold.PLP.part.buried>
-5.2337

> <Gold.PLP.part.nonpolar>
-33.1456

> <Gold.PLP.part.repulsive>
0.5078

> <Gold.PLP.ligand.clash>
0.0000

> <Gold.PLP.ligand.torsion>
1.2415

> <Gold.PLP.Chemscore.Hbond>
1.0000

> <Gold.PLP.Chemscore.CHOScore>
0.0000

> <Gold.PLP.Chemscore.Metal>
0.0000

> <Gold.Chemscore.Hbonds>
donor molecule, donor type, donor heavy atom, donor atom, acceptor molecule, acceptor atom, score
      L1  H    18    45       P1 10171  1.00

> <Gold.PLP.Chemscore.Internal.Correction>
0.3372

> <Gold.Rescore>
     Score         DG    S(hbond)    S(metal)    S(lipo)     H(rot)  DE(clash)    DE(int)     intcor
     12.23     -14.66       1.00        0.00      98.10       2.20       0.02       2.41       ----

> <Gold.Chemscore.Fitness>
12.2290

> <Gold.Chemscore.DG>
-14.6607

> <Gold.Chemscore.ZeroCoef>
-5.4800

> <Gold.Chemscore.Hbond>
0.9999

> <Gold.Chemscore.Metal>
0.0000

> <Gold.Chemscore.Lipo>
98.1023

> <Gold.Chemscore.Internal_Hbond>
0.0000

> <Gold.Chemscore.DEClash>
0.0234

> <Gold.Chemscore.DEInternal>
2.4082

> <Gold.Chemscore.Rot>
2.2019

> <Gold.Chemscore.Internal.Correction>
   9.000000E+99

> <Gold.Chemscore.Hbonds>
donor molecule, donor type, donor heavy atom, donor atom, acceptor molecule, acceptor atom, score
      L1  H    18    45       P1 10171  1.00

> <Gold.Chemscore.Hbond.Weighted>
-3.3397

> <Gold.Chemscore.Metal.Weighted>
-0.0000

> <Gold.Chemscore.Lipo.Weighted>
-11.4780

> <Gold.Chemscore.Internal_Hbond.Weighted>
0.0000

> <Gold.Chemscore.DEClash.Weighted>
0.0234

> <Gold.Chemscore.DEInternal.Weighted>
2.4082

> <Gold.Chemscore.Rot.Weighted>
5.6370

> <Gold.Chemscore.Internal.Correction.Weighted>
   9.000000E+99

> <Gold.Protein.RotatedTorsions>
[ 6907 6896 6895 6894 ] final   10.52 input  -60.11 | X-H torsion
[ 7974 7965 7964 7962 ] final  102.87 input  175.53 | X-H torsion
[ 8008 7997 7996 7995 ] final -162.58 input   59.86 | X-H torsion
[ 10167 10162 10161 10158 ] final -116.03 input  -65.29 | X-H torsion
[ 10718 10713 10712 10709 ] final -175.51 input   66.30 | X-H torsion
[ 10763 10752 10751 10750 ] final  159.70 input  -60.55 | X-H torsion
[ 11005 11000 10999 10996 ] final  171.82 input  -57.11 | X-H torsion

> <Gold.Protein.ActiveResidues>
 VAL166  LYS551  ARG553  GLY616  TRP617  ASP618  TYR619  PRO620  LYS621  CYS622 
 ASP623  PHE694  ASN695  SER759  ASP760  ASP761  ALA762  ILE779  LEU786  VAL792 
 PHE793  MET794  SER795  GLU796  ALA797  LYS798  CYS799  TRP800  GLU811  SER814 

> <Gold.Protein.RotatedAtoms>
  151.7395  135.0857  160.0313 H   0  0  0  0  0  0  0  0  0  0  0  0  # atno 6907 bound_to 6896
  152.3489  133.6151  159.5938 H   0  0  0  0  0  0  0  0  0  0  0  0  # atno 6908 bound_to 6896
  150.7526  133.9522  159.3531 H   0  0  0  0  0  0  0  0  0  0  0  0  # atno 6909 bound_to 6896
  145.3534  139.2434  143.3546 H   0  0  0  0  0  0  0  0  0  0  0  0  # atno 7974 bound_to 7965
  155.8089  140.0902  157.1915 H   0  0  0  0  0  0  0  0  0  0  0  0  # atno 8008 bound_to 7997
  154.3980  140.1458  156.3422 H   0  0  0  0  0  0  0  0  0  0  0  0  # atno 8009 bound_to 7997
  155.8386  140.3440  155.5620 H   0  0  0  0  0  0  0  0  0  0  0  0  # atno 8010 bound_to 7997
  140.0837  143.4764  152.1911 H   0  0  0  0  0  0  0  0  0  0  0  0  # atno 10167 bound_to 10162
  156.8009  130.9552  151.3118 H   0  0  0  0  0  0  0  0  0  0  0  0  # atno 10718 bound_to 10713
  154.2359  135.2776  155.2872 H   0  0  0  0  0  0  0  0  0  0  0  0  # atno 10763 bound_to 10752
  154.5585  135.5654  153.6989 H   0  0  0  0  0  0  0  0  0  0  0  0  # atno 10764 bound_to 10752
  153.0010  135.6292  154.2502 H   0  0  0  0  0  0  0  0  0  0  0  0  # atno 10765 bound_to 10752
  140.3231  134.7420  157.4079 H   0  0  0  0  0  0  0  0  0  0  0  0  # atno 11005 bound_to 11000
  146.2958  140.4154  142.8722 LP  0  0  0  0  0  0  0  0  0  0  0  0  # atno 17320 bound_to 7965
  144.8700  140.7260  143.6052 LP  0  0  0  0  0  0  0  0  0  0  0  0  # atno 17321 bound_to 7965
  139.5765  144.7490  151.3752 LP  0  0  0  0  0  0  0  0  0  0  0  0  # atno 17342 bound_to 10162
  140.7065  143.7501  150.7490 LP  0  0  0  0  0  0  0  0  0  0  0  0  # atno 17343 bound_to 10162
  157.6554  130.8920  149.9718 LP  0  0  0  0  0  0  0  0  0  0  0  0  # atno 17370 bound_to 10713
  156.1102  130.3650  150.0063 LP  0  0  0  0  0  0  0  0  0  0  0  0  # atno 17371 bound_to 10713
  140.0925  134.5582  155.8431 LP  0  0  0  0  0  0  0  0  0  0  0  0  # atno 17394 bound_to 11000
  141.2082  133.6671  156.6354 LP  0  0  0  0  0  0  0  0  0  0  0  0  # atno 17395 bound_to 11000

$$$$
