AV-unprocessed.smi:3236|AV-procd|sdf|12361|dock3
  -GOLD-   2272018223D 1   1.00000     0.00000
 Structure written by MMmdl.
 41 42  0  0  0  0  0  0  0  0  2 V2000
  151.1273  142.2274  157.1155 C   0  0  0  0  0  0  0  0  0  0  0  0
  150.9616  141.3754  155.8498 C   0  0  0  0  0  0  0  0  0  0  0  0
  149.4808  141.2692  155.4243 C   0  0  0  0  0  0  0  0  0  0  0  0
  149.3100  140.3228  154.2216 C   0  0  0  0  0  0  0  0  0  0  0  0
  149.8753  139.0131  154.5684 N   0  0  0  0  0  0  0  0  0  0  0  0
  149.1083  137.9145  154.7725 C   0  0  0  0  0  0  0  0  0  0  0  0
  149.5862  136.8342  155.1243 O   0  0  0  0  0  0  0  0  0  0  0  0
  147.5905  138.0152  154.5559 C   0  0  0  0  0  0  0  0  0  0  0  0
  147.1062  137.0857  153.5149 N   0  3  0  0  0  0  0  0  0  0  0  0
  146.0213  137.6306  152.6746 C   0  0  0  0  0  0  0  0  0  0  0  0
  145.8096  136.7835  151.4076 C   0  0  0  0  0  0  0  0  0  0  0  0
  145.0017  135.5989  151.6450 N   0  0  0  0  0  0  0  0  0  0  0  0
  144.6262  134.6248  150.7434 C   0  0  0  0  0  0  0  0  0  0  0  0
  143.8920  133.6985  151.4271 C   0  0  0  0  0  0  0  0  0  0  0  0
  143.8842  134.1907  152.7620 C   0  0  0  0  0  0  0  0  0  0  0  0
  144.5530  135.3254  152.8897 N   0  0  0  0  0  0  0  0  0  0  0  0
  151.3257  139.0946  154.7853 C   0  0  0  0  0  0  0  0  0  0  0  0
  151.5908  139.9754  156.0193 C   0  0  0  0  0  0  0  0  0  0  0  0
  150.6158  141.7764  157.9663 H   0  0  0  0  0  0  0  0  0  0  0  0
  150.7166  143.2272  156.9718 H   0  0  0  0  0  0  0  0  0  0  0  0
  152.1793  142.3380  157.3794 H   0  0  0  0  0  0  0  0  0  0  0  0
  151.4976  141.8786  155.0436 H   0  0  0  0  0  0  0  0  0  0  0  0
  148.8812  140.9025  156.2588 H   0  0  0  0  0  0  0  0  0  0  0  0
  149.0917  142.2571  155.1756 H   0  0  0  0  0  0  0  0  0  0  0  0
  148.2579  140.2701  153.9381 H   0  0  0  0  0  0  0  0  0  0  0  0
  149.8309  140.7236  153.3510 H   0  0  0  0  0  0  0  0  0  0  0  0
  147.0782  137.7955  155.4935 H   0  0  0  0  0  0  0  0  0  0  0  0
  147.3339  139.0332  154.2591 H   0  0  0  0  0  0  0  0  0  0  0  0
  147.8854  136.8483  152.9172 H   0  0  0  0  0  0  0  0  0  0  0  0
  145.0996  137.6519  153.2572 H   0  0  0  0  0  0  0  0  0  0  0  0
  146.2491  138.6637  152.4081 H   0  0  0  0  0  0  0  0  0  0  0  0
  145.3329  137.3822  150.6302 H   0  0  0  0  0  0  0  0  0  0  0  0
  146.7725  136.4621  151.0088 H   0  0  0  0  0  0  0  0  0  0  0  0
  144.9072  134.6706  149.7014 H   0  0  0  0  0  0  0  0  0  0  0  0
  143.4351  132.8018  151.0348 H   0  0  0  0  0  0  0  0  0  0  0  0
  143.4177  133.7593  153.6355 H   0  0  0  0  0  0  0  0  0  0  0  0
  151.8079  138.1265  154.9096 H   0  0  0  0  0  0  0  0  0  0  0  0
  151.7947  139.5381  153.9055 H   0  0  0  0  0  0  0  0  0  0  0  0
  152.6647  140.0671  156.1854 H   0  0  0  0  0  0  0  0  0  0  0  0
  151.1809  139.4895  156.9062 H   0  0  0  0  0  0  0  0  0  0  0  0
  146.7796  136.2424  153.9649 H   0  0  0  0  0  0  0  0  0  0  0  0
  1  2  1  0  0  0  0
  1 19  1  0  0  0  0
  1 20  1  0  0  0  0
  1 21  1  0  0  0  0
  2 18  1  0  0  0  0
  2  3  1  0  0  0  0
  2 22  1  0  0  0  0
  3  4  1  0  0  0  0
  3 23  1  0  0  0  0
  3 24  1  0  0  0  0
  4  5  1  0  0  0  0
  4 25  1  0  0  0  0
  4 26  1  0  0  0  0
  5  6  1  0  0  0  0
  5 17  1  0  0  0  0
  6  7  2  0  0  0  0
  6  8  1  0  0  0  0
  8  9  1  0  0  0  0
  8 27  1  0  0  0  0
  8 28  1  0  0  0  0
  9 10  1  0  0  0  0
  9 29  1  0  0  0  0
  9 41  1  0  0  0  0
 10 11  1  0  0  0  0
 10 30  1  0  0  0  0
 10 31  1  0  0  0  0
 11 12  1  0  0  0  0
 11 32  1  0  0  0  0
 11 33  1  0  0  0  0
 12 16  1  0  0  0  0
 12 13  1  0  0  0  0
 13 14  2  0  0  0  0
 13 34  1  0  0  0  0
 14 15  1  0  0  0  0
 14 35  1  0  0  0  0
 15 16  2  0  0  0  0
 15 36  1  0  0  0  0
 17 18  1  0  0  0  0
 17 37  1  0  0  0  0
 17 38  1  0  0  0  0
 18 39  1  0  0  0  0
 18 40  1  0  0  0  0
M  CHG  1   9   1
M  END
> <s_m_source_file>
AV-unprocessed.smi

> <i_m_source_file_index>
3236

> <i_lp_mmshare_version>
43012

> <i_f3d_flags>
0

> <s_epik_input>
W0NIM11bQ0hdMVtDSDJdW0NIMl1OKFtDSDJdW0NIMl0xKUMoPU8pW0NIMl1bTkhdW0NIMl1bQ0gyXW4yW2NIXVtjSF1bY0hdbjI=

> <s_epik_cmdline>
J2VwaWtfcHl0aG9uJywgJy1waCcsICc3LjAnLCAnLXRuJywgJzgnLCAnLW1hJywgJzIwMCcsICctbWV0YWxfYmluZGluZycsICctaW1hZScsICc8aW5maWxlLm1hZT4nLCAnLW9tYWUnLCAnPG91dGZpbGUubWFlPic=

> <r_lp_tautomer_probability>
1

> <r_epik_Ionization_Penalty>
0.186057

> <r_epik_Ionization_Penalty_Charging>
0.186055

> <r_epik_Ionization_Penalty_Neutral>
2.36809e-06

> <r_epik_State_Penalty>
0.175633

> <r_epik_Charging_Adjusted_Penalty>
0.361687

> <i_epik_Tot_Q>
1

> <i_epik_Tot_abs_Q>
1

> <r_epik_Metal_State_Penalty>
0.176075

> <b_epik_Metal_Only>
0

> <s_lp_Force_Field>
OPLS_2005

> <r_lp_Energy>
21.8815

> <b_lp_Chiralities_Consistent>
1

> <s_lp_Variant>
AV-unprocessed.smi:3236-1

> <Gold.Version>
5.8.1

> <Gold.Id.Protein>
6NUR|6NUR_protein|mol2

> <Gold.PLP.Fitness>
44.0698

> <Gold.PLP.PLP>
-32.8749

> <Gold.PLP.part.hbond>
-1.0000

> <Gold.PLP.part.metal>
0.0000

> <Gold.PLP.part.buried>
0.2530

> <Gold.PLP.part.nonpolar>
-32.2918

> <Gold.PLP.part.repulsive>
0.2363

> <Gold.PLP.ligand.clash>
0.0000

> <Gold.PLP.ligand.torsion>
0.4173

> <Gold.PLP.Chemscore.Hbond>
2.0000

> <Gold.PLP.Chemscore.CHOScore>
2.0000

> <Gold.PLP.Chemscore.Metal>
0.0000

> <Gold.Chemscore.Hbonds>
donor molecule, donor type, donor heavy atom, donor atom, acceptor molecule, acceptor atom, score
      L1  H     9    29       P1  7948  2.00
      L1  C    13    34       P1  7921  1.00
      L1  C    15    36       P1 10957  1.00

> <Gold.PLP.Chemscore.Internal.Correction>
0.0296

> <Gold.Rescore>
     Score         DG    S(hbond)    S(metal)    S(lipo)     H(rot)  DE(clash)    DE(int)     intcor
     12.39     -12.90       1.00        0.00      74.19       1.80       0.03       0.48       ----

> <Gold.Chemscore.Fitness>
12.3943

> <Gold.Chemscore.DG>
-12.9006

> <Gold.Chemscore.ZeroCoef>
-5.4800

> <Gold.Chemscore.Hbond>
0.9995

> <Gold.Chemscore.Metal>
0.0000

> <Gold.Chemscore.Lipo>
74.1941

> <Gold.Chemscore.Internal_Hbond>
0.0000

> <Gold.Chemscore.DEClash>
0.0255

> <Gold.Chemscore.DEInternal>
0.4808

> <Gold.Chemscore.Rot>
1.7963

> <Gold.Chemscore.Internal.Correction>
   9.000000E+99

> <Gold.Chemscore.Hbonds>
donor molecule, donor type, donor heavy atom, donor atom, acceptor molecule, acceptor atom, score
      L1  H     9    29       P1  7948  0.99

> <Gold.Chemscore.Hbond.Weighted>
-3.3384

> <Gold.Chemscore.Metal.Weighted>
-0.0000

> <Gold.Chemscore.Lipo.Weighted>
-8.6807

> <Gold.Chemscore.Internal_Hbond.Weighted>
0.0000

> <Gold.Chemscore.DEClash.Weighted>
0.0255

> <Gold.Chemscore.DEInternal.Weighted>
0.4808

> <Gold.Chemscore.Rot.Weighted>
4.5985

> <Gold.Chemscore.Internal.Correction.Weighted>
   9.000000E+99

> <Gold.Protein.RotatedTorsions>
[ 6907 6896 6895 6894 ] final -111.51 input  -60.11 | X-H torsion
[ 7974 7965 7964 7962 ] final  -62.34 input  175.53 | X-H torsion
[ 8008 7997 7996 7995 ] final   28.21 input   59.86 | X-H torsion
[ 10167 10162 10161 10158 ] final -114.82 input  -65.29 | X-H torsion
[ 10718 10713 10712 10709 ] final  -41.17 input   66.30 | X-H torsion
[ 10763 10752 10751 10750 ] final  -52.39 input  -60.55 | X-H torsion
[ 11005 11000 10999 10996 ] final  -60.97 input  -57.11 | X-H torsion

> <Gold.Protein.ActiveResidues>
 VAL166  LYS551  ARG553  GLY616  TRP617  ASP618  TYR619  PRO620  LYS621  CYS622 
 ASP623  PHE694  ASN695  SER759  ASP760  ASP761  ALA762  ILE779  LEU786  VAL792 
 PHE793  MET794  SER795  GLU796  ALA797  LYS798  CYS799  TRP800  GLU811  SER814 

> <Gold.Protein.RotatedAtoms>
  150.7695  133.9225  159.3402 H   0  0  0  0  0  0  0  0  0  0  0  0  # atno 6907 bound_to 6896
  151.7115  135.0910  160.0278 H   0  0  0  0  0  0  0  0  0  0  0  0  # atno 6908 bound_to 6896
  152.3706  133.6376  159.6120 H   0  0  0  0  0  0  0  0  0  0  0  0  # atno 6909 bound_to 6896
  145.7925  140.8701  143.0273 H   0  0  0  0  0  0  0  0  0  0  0  0  # atno 7974 bound_to 7965
  155.0551  140.3184  155.4679 H   0  0  0  0  0  0  0  0  0  0  0  0  # atno 8008 bound_to 7997
  156.2826  140.2139  156.5621 H   0  0  0  0  0  0  0  0  0  0  0  0  # atno 8009 bound_to 7997
  154.7178  140.0492  157.0599 H   0  0  0  0  0  0  0  0  0  0  0  0  # atno 8010 bound_to 7997
  140.0968  143.4650  152.1837 H   0  0  0  0  0  0  0  0  0  0  0  0  # atno 10167 bound_to 10162
  156.2733  130.4209  149.8414 H   0  0  0  0  0  0  0  0  0  0  0  0  # atno 10718 bound_to 10713
  154.1420  135.6503  153.4944 H   0  0  0  0  0  0  0  0  0  0  0  0  # atno 10763 bound_to 10752
  153.0163  135.5317  154.6895 H   0  0  0  0  0  0  0  0  0  0  0  0  # atno 10764 bound_to 10752
  154.6159  135.2959  155.0351 H   0  0  0  0  0  0  0  0  0  0  0  0  # atno 10765 bound_to 10752
  141.1307  133.6626  156.5305 H   0  0  0  0  0  0  0  0  0  0  0  0  # atno 11005 bound_to 11000
  144.6780  140.0144  143.7484 LP  0  0  0  0  0  0  0  0  0  0  0  0  # atno 17320 bound_to 7965
  145.9962  139.3054  143.0955 LP  0  0  0  0  0  0  0  0  0  0  0  0  # atno 17321 bound_to 7965
  139.5694  144.7454  151.3933 LP  0  0  0  0  0  0  0  0  0  0  0  0  # atno 17342 bound_to 10162
  140.6999  143.7656  150.7387 LP  0  0  0  0  0  0  0  0  0  0  0  0  # atno 17343 bound_to 10162
  156.5888  130.8497  151.3402 LP  0  0  0  0  0  0  0  0  0  0  0  0  # atno 17370 bound_to 10713
  157.7291  130.9666  150.1772 LP  0  0  0  0  0  0  0  0  0  0  0  0  # atno 17371 bound_to 10713
  140.4220  134.7179  157.4895 LP  0  0  0  0  0  0  0  0  0  0  0  0  # atno 17394 bound_to 11000
  140.0353  134.6346  155.9051 LP  0  0  0  0  0  0  0  0  0  0  0  0  # atno 17395 bound_to 11000

$$$$
