AV-unprocessed.smi:798|AV-procd|sdf|3769|dock3
  -GOLD-   22720 1203D 1   1.00000     0.00000
 Structure written by MMmdl.
 34 36  0  0  0  0  0  0  0  0  1 V2000
  150.8645  140.6688  156.5896 O   0  0  0  0  0  0  0  0  0  0  0  0
  150.4142  141.8006  156.4094 C   0  0  0  0  0  0  0  0  0  0  0  0
  150.6818  142.8766  157.1698 N   0  0  0  0  0  0  0  0  0  0  0  0
  151.5086  142.9591  158.3211 C   0  0  0  0  0  0  0  0  0  0  0  0
  151.9515  141.8885  158.9987 N   0  0  0  0  0  0  0  0  0  0  0  0
  152.7377  142.2503  160.0851 N   0  0  0  0  0  0  0  0  0  0  0  0
  152.8573  143.5774  160.1835 C   0  0  0  0  0  0  0  0  0  0  0  0
  152.0220  144.5154  158.9576 S   0  0  0  0  0  0  0  0  0  0  0  0
  149.5827  142.1135  155.4063 N   0  0  0  0  0  0  0  0  0  0  0  0
  149.1040  141.1766  154.3923 C   0  0  2  0  0  0  0  0  0  0  0  0
  147.8731  141.6961  153.6067 C   0  0  2  0  0  0  0  0  0  0  0  0
  146.7567  142.1772  154.5583 C   0  0  0  0  0  0  0  0  0  0  0  0
  146.2576  140.8612  155.1833 C   0  0  0  0  0  0  0  0  0  0  0  0
  147.1272  139.7988  154.4826 C   0  0  1  0  0  0  0  0  0  0  0  0
  147.2708  140.3970  153.0876 C   0  0  0  0  0  0  0  0  0  0  0  0
  148.5707  139.8709  155.0373 C   0  0  1  0  0  0  0  0  0  0  0  0
  149.4335  138.6429  154.6867 C   0  0  0  0  0  0  0  0  0  0  0  0
  149.6693  138.5854  153.2959 O   0  0  0  0  0  0  0  0  0  0  0  0
  150.2398  143.7406  156.8926 H   0  0  0  0  0  0  0  0  0  0  0  0
  153.4420  144.0071  160.9834 H   0  0  0  0  0  0  0  0  0  0  0  0
  149.2633  143.0681  155.3301 H   0  0  0  0  0  0  0  0  0  0  0  0
  149.9122  140.9487  153.6937 H   0  0  0  0  0  0  0  0  0  0  0  0
  148.1256  142.4212  152.8322 H   0  0  0  0  0  0  0  0  0  0  0  0
  147.0976  142.8954  155.3038 H   0  0  0  0  0  0  0  0  0  0  0  0
  145.9550  142.6542  153.9931 H   0  0  0  0  0  0  0  0  0  0  0  0
  146.3739  140.8442  156.2675 H   0  0  0  0  0  0  0  0  0  0  0  0
  145.2010  140.7088  154.9599 H   0  0  0  0  0  0  0  0  0  0  0  0
  146.6885  138.8009  154.5117 H   0  0  0  0  0  0  0  0  0  0  0  0
  146.3168  140.5352  152.5751 H   0  0  0  0  0  0  0  0  0  0  0  0
  147.9437  139.8380  152.4362 H   0  0  0  0  0  0  0  0  0  0  0  0
  148.5405  139.9605  156.1250 H   0  0  0  0  0  0  0  0  0  0  0  0
  150.3878  138.6599  155.2130 H   0  0  0  0  0  0  0  0  0  0  0  0
  148.9198  137.7278  154.9827 H   0  0  0  0  0  0  0  0  0  0  0  0
  149.6742  137.6786  153.0292 H   0  0  0  0  0  0  0  0  0  0  0  0
  1  2  2  0  0  0  0
  2  3  1  0  0  0  0
  2  9  1  0  0  0  0
  3  4  1  0  0  0  0
  3 19  1  0  0  0  0
  4  8  1  0  0  0  0
  4  5  2  0  0  0  0
  5  6  1  0  0  0  0
  6  7  2  0  0  0  0
  7  8  1  0  0  0  0
  7 20  1  0  0  0  0
  9 10  1  0  0  0  0
  9 21  1  0  0  0  0
 10 16  1  0  0  0  0
 10 11  1  0  0  0  0
 10 22  1  0  0  0  0
 11 15  1  0  0  0  0
 11 12  1  0  0  0  0
 11 23  1  0  0  0  0
 12 13  1  0  0  0  0
 12 24  1  0  0  0  0
 12 25  1  0  0  0  0
 13 14  1  0  0  0  0
 13 26  1  0  0  0  0
 13 27  1  0  0  0  0
 14 15  1  0  0  0  0
 14 16  1  0  0  0  0
 14 28  1  0  0  0  0
 15 29  1  0  0  0  0
 15 30  1  0  0  0  0
 16 17  1  0  0  0  0
 16 31  1  0  0  0  0
 17 18  1  0  0  0  0
 17 32  1  0  0  0  0
 17 33  1  0  0  0  0
 18 34  1  0  0  0  0
M  END
> <s_m_source_file>
AV-unprocessed.smi

> <i_m_source_file_index>
798

> <i_lp_mmshare_version>
43012

> <i_f3d_flags>
0

> <s_epik_input>
W0NIMl0xW0NIMl1bQ0BASF0oW0NIMl0yKVtDQEBIXShbQ0gyXVtPSF0pW0NAQEhdKFtDQEhdMTIpW05IXUMoPU8pW05IXWMzbm5bY0hdczM=

> <s_epik_cmdline>
J2VwaWtfcHl0aG9uJywgJy1waCcsICc3LjAnLCAnLXRuJywgJzgnLCAnLW1hJywgJzIwMCcsICctbWV0YWxfYmluZGluZycsICctaW1hZScsICc8aW5maWxlLm1hZT4nLCAnLW9tYWUnLCAnPG91dGZpbGUubWFlPic=

> <r_lp_tautomer_probability>
1

> <r_epik_Ionization_Penalty>
0.000329046

> <r_epik_Ionization_Penalty_Charging>
0

> <r_epik_Ionization_Penalty_Neutral>
0.000329046

> <r_epik_State_Penalty>
-0

> <r_epik_Charging_Adjusted_Penalty>
0

> <i_epik_Tot_Q>
0

> <i_epik_Tot_abs_Q>
0

> <r_epik_Metal_State_Penalty>
0.173433

> <b_epik_Metal_Only>
0

> <s_lp_Force_Field>
OPLS_2005

> <r_lp_Energy>
48.3873

> <b_lp_Chiralities_Consistent>
1

> <s_lp_Variant>
AV-unprocessed.smi:798-1

> <Gold.Version>
5.8.1

> <Gold.Id.Protein>
6NUR|6NUR_protein|mol2

> <Gold.PLP.Fitness>
43.9148

> <Gold.PLP.PLP>
-35.4139

> <Gold.PLP.part.hbond>
-3.7669

> <Gold.PLP.part.metal>
0.0000

> <Gold.PLP.part.buried>
-6.4961

> <Gold.PLP.part.nonpolar>
-25.3590

> <Gold.PLP.part.repulsive>
0.2247

> <Gold.PLP.ligand.clash>
0.0000

> <Gold.PLP.ligand.torsion>
0.2466

> <Gold.PLP.Chemscore.Hbond>
2.9920

> <Gold.PLP.Chemscore.CHOScore>
0.0000

> <Gold.PLP.Chemscore.Metal>
0.0000

> <Gold.Chemscore.Hbonds>
donor molecule, donor type, donor heavy atom, donor atom, acceptor molecule, acceptor atom, score
      L1  H     3    19       P1  8028  0.92
      L1  H     9    21       P1  8028  1.00
      L1  H    18    34       P1  7948  0.99

> <Gold.PLP.Chemscore.Internal.Correction>
0.0180

> <Gold.Rescore>
     Score         DG    S(hbond)    S(metal)    S(lipo)     H(rot)  DE(clash)    DE(int)     intcor
     14.58     -18.20       2.89        0.00      68.86       1.94       0.04       3.58       ----

> <Gold.Chemscore.Fitness>
14.5814

> <Gold.Chemscore.DG>
-18.2041

> <Gold.Chemscore.ZeroCoef>
-5.4800

> <Gold.Chemscore.Hbond>
2.8877

> <Gold.Chemscore.Metal>
0.0000

> <Gold.Chemscore.Lipo>
68.8567

> <Gold.Chemscore.Internal_Hbond>
0.0000

> <Gold.Chemscore.DEClash>
0.0431

> <Gold.Chemscore.DEInternal>
3.5795

> <Gold.Chemscore.Rot>
1.9442

> <Gold.Chemscore.Internal.Correction>
   9.000000E+99

> <Gold.Chemscore.Hbonds>
donor molecule, donor type, donor heavy atom, donor atom, acceptor molecule, acceptor atom, score
      L1  H     3    19       P1  8028  0.83
      L1  H     9    21       P1  8028  1.00
      L1  H    18    34       P1  7948  0.61

> <Gold.Chemscore.Hbond.Weighted>
-9.6449

> <Gold.Chemscore.Metal.Weighted>
-0.0000

> <Gold.Chemscore.Lipo.Weighted>
-8.0562

> <Gold.Chemscore.Internal_Hbond.Weighted>
0.0000

> <Gold.Chemscore.DEClash.Weighted>
0.0431

> <Gold.Chemscore.DEInternal.Weighted>
3.5795

> <Gold.Chemscore.Rot.Weighted>
4.9771

> <Gold.Chemscore.Internal.Correction.Weighted>
   9.000000E+99

> <Gold.Protein.RotatedTorsions>
[ 6907 6896 6895 6894 ] final  168.95 input  -60.11 | X-H torsion
[ 7974 7965 7964 7962 ] final -126.93 input  175.53 | X-H torsion
[ 8008 7997 7996 7995 ] final -121.90 input   59.86 | X-H torsion
[ 10167 10162 10161 10158 ] final   40.09 input  -65.29 | X-H torsion
[ 10718 10713 10712 10709 ] final  174.44 input   66.30 | X-H torsion
[ 10763 10752 10751 10750 ] final -158.46 input  -60.55 | X-H torsion
[ 11005 11000 10999 10996 ] final -151.11 input  -57.11 | X-H torsion

> <Gold.Protein.ActiveResidues>
 VAL166  LYS551  ARG553  GLY616  TRP617  ASP618  TYR619  PRO620  LYS621  CYS622 
 ASP623  PHE694  ASN695  SER759  ASP760  ASP761  ALA762  ILE779  LEU786  VAL792 
 PHE793  MET794  SER795  GLU796  ALA797  LYS798  CYS799  TRP800  GLU811  SER814 

> <Gold.Protein.RotatedAtoms>
  151.8396  133.3421  159.3638 H   0  0  0  0  0  0  0  0  0  0  0  0  # atno 6907 bound_to 6896
  150.7239  134.5404  159.5753 H   0  0  0  0  0  0  0  0  0  0  0  0  # atno 6908 bound_to 6896
  152.2874  134.7760  160.0435 H   0  0  0  0  0  0  0  0  0  0  0  0  # atno 6909 bound_to 6896
  144.9822  140.7651  143.4605 H   0  0  0  0  0  0  0  0  0  0  0  0  # atno 7974 bound_to 7965
  155.1555  140.0404  157.2831 H   0  0  0  0  0  0  0  0  0  0  0  0  # atno 8008 bound_to 7997
  154.6374  140.2538  155.7335 H   0  0  0  0  0  0  0  0  0  0  0  0  # atno 8009 bound_to 7997
  156.2515  140.2863  156.0752 H   0  0  0  0  0  0  0  0  0  0  0  0  # atno 8010 bound_to 7997
  140.3776  144.2022  150.6131 H   0  0  0  0  0  0  0  0  0  0  0  0  # atno 10167 bound_to 10162
  156.9496  131.0027  151.2951 H   0  0  0  0  0  0  0  0  0  0  0  0  # atno 10718 bound_to 10713
  154.7555  135.3103  154.8479 H   0  0  0  0  0  0  0  0  0  0  0  0  # atno 10763 bound_to 10752
  153.9254  135.6791  153.4751 H   0  0  0  0  0  0  0  0  0  0  0  0  # atno 10764 bound_to 10752
  153.1152  135.4848  154.9032 H   0  0  0  0  0  0  0  0  0  0  0  0  # atno 10765 bound_to 10752
  140.7331  134.3599  157.5163 H   0  0  0  0  0  0  0  0  0  0  0  0  # atno 11005 bound_to 11000
  145.2404  139.2075  143.4995 LP  0  0  0  0  0  0  0  0  0  0  0  0  # atno 17320 bound_to 7965
  146.3411  140.2299  142.8593 LP  0  0  0  0  0  0  0  0  0  0  0  0  # atno 17321 bound_to 7965
  140.4970  143.2329  151.8735 LP  0  0  0  0  0  0  0  0  0  0  0  0  # atno 17342 bound_to 10162
  139.4798  144.5102  151.8942 LP  0  0  0  0  0  0  0  0  0  0  0  0  # atno 17343 bound_to 10162
  157.5731  130.8324  149.8418 LP  0  0  0  0  0  0  0  0  0  0  0  0  # atno 17370 bound_to 10713
  156.0369  130.3749  150.1538 LP  0  0  0  0  0  0  0  0  0  0  0  0  # atno 17371 bound_to 10713
  139.8822  134.9031  156.2848 LP  0  0  0  0  0  0  0  0  0  0  0  0  # atno 17394 bound_to 11000
  140.9904  133.7212  156.0805 LP  0  0  0  0  0  0  0  0  0  0  0  0  # atno 17395 bound_to 11000

$$$$
