#       Name:                AV-unprocessed.smi:2710
#       Creating user name   scv26
#       Creation time:       Fri Mar 27 14:51:11 2020


#       File generated by GOLD software.
#

@<TRIPOS>MOLECULE
AV-unprocessed.smi:2710
    57    58     1
SMALL
NO_CHARGES


@<TRIPOS>ATOM
      1 ****        -6.5394  -3.8932  -0.7988 C.3            1 S1                 0.0000
      2 ****        -5.9638  -2.9003   0.2245 C.3            1 S1                 0.0000
      3 ****        -4.5316  -2.5588  -0.0176 N.4            1 S1                 1.0000
      4 ****        -4.3444  -1.8407  -1.3115 C.3            1 S1                 0.0000
      5 ****        -2.8627  -1.5948  -1.6295 C.3            1 S1                 0.0000
      6 ****        -2.1874  -0.8050  -0.5051 C.3            1 S1                 0.0000
      7 ****        -0.7690  -0.6290  -0.8043 N.am           1 S1                 0.0000
      8 ****         0.0269   0.2999  -0.2553 C.2            1 S1                 0.0000
      9 ****        -0.3572   1.1023   0.5944 O.2            1 S1                 0.0000
     10 ****         1.2756   0.2185  -0.7448 N.am           1 S1                 0.0000
     11 ****         2.4059   1.0238  -0.4384 C.ar           1 S1                 0.0000
     12 ****         2.3743   2.2546   0.2603 C.ar           1 S1                 0.0000
     13 ****         3.4981   2.9652   0.4940 N.ar           1 S1                 0.0000
     14 ****         4.6614   2.4555   0.0689 C.ar           1 S1                 0.0000
     15 ****         5.9105   3.3431   0.2096 C.3            1 S1                 0.0000
     16 ****         7.1942   2.4862   0.3149 C.3            1 S1                 0.0000
     17 ****         5.8512   4.1853   1.5059 C.3            1 S1                 0.0000
     18 ****         6.0145   4.2786  -1.0088 C.3            1 S1                 0.0000
     19 ****         4.7917   1.3275  -0.6417 N.ar           1 S1                 0.0000
     20 ****         3.6765   0.6071  -0.8830 C.ar           1 S1                 0.0000
     21 ****        -2.3887  -1.5613   0.8169 C.3            1 S1                 0.0000
     22 ****        -3.8815  -1.8222   1.1159 C.3            1 S1                 0.0000
     23 ****        -3.9911  -2.5583   2.4675 C.3            1 S1                 0.0000
     24 ****        -7.5255  -4.2346  -0.4828 H              1 S1                 0.0000
     25 ****        -5.9039  -4.7738  -0.8967 H              1 S1                 0.0000
     26 ****        -6.6637  -3.4493  -1.7859 H              1 S1                 0.0000
     27 ****        -6.5647  -1.9901   0.2522 H              1 S1                 0.0000
     28 ****        -6.0807  -3.3784   1.1941 H              1 S1                 0.0000
     29 ****        -4.7649  -2.4141  -2.1357 H              1 S1                 0.0000
     30 ****        -4.8825  -0.8918  -1.2814 H              1 S1                 0.0000
     31 ****        -2.3571  -2.5511  -1.7733 H              1 S1                 0.0000
     32 ****        -2.7749  -1.0528  -2.5721 H              1 S1                 0.0000
     33 ****        -2.6599   0.1770  -0.4356 H              1 S1                 0.0000
     34 ****        -0.3670  -1.2504  -1.4910 H              1 S1                 0.0000
     35 ****         1.4472  -0.5314  -1.3987 H              1 S1                 0.0000
     36 ****         1.4626   2.7029   0.6217 H              1 S1                 0.0000
     37 ****         8.0766   3.1097   0.4633 H              1 S1                 0.0000
     38 ****         7.3714   1.9020  -0.5888 H              1 S1                 0.0000
     39 ****         7.1398   1.7907   1.1533 H              1 S1                 0.0000
     40 ****         5.7530   3.5511   2.3878 H              1 S1                 0.0000
     41 ****         5.0114   4.8812   1.5036 H              1 S1                 0.0000
     42 ****         6.7539   4.7840   1.6322 H              1 S1                 0.0000
     43 ****         6.8910   4.9240  -0.9421 H              1 S1                 0.0000
     44 ****         5.1374   4.9219  -1.0897 H              1 S1                 0.0000
     45 ****         6.0928   3.7120  -1.9374 H              1 S1                 0.0000
     46 ****         3.8021  -0.3085  -1.4422 H              1 S1                 0.0000
     47 ****        -1.8514  -2.5106   0.7828 H              1 S1                 0.0000
     48 ****        -1.9473  -0.9898   1.6346 H              1 S1                 0.0000
     49 ****        -4.3809  -0.8572   1.2182 H              1 S1                 0.0000
     50 ****        -3.3733  -2.0743   3.2247 H              1 S1                 0.0000
     51 ****        -3.6590  -3.5939   2.3869 H              1 S1                 0.0000
     52 ****        -5.0061  -2.5523   2.8631 H              1 S1                 0.0000
     53 ****        -4.0413  -3.4381  -0.0998 H              1 S1                 0.0000
     54 ****        -1.3063   1.0818   0.9087 LP             1 S1                 0.0000
     55 ****         0.2797   1.7751   0.9709 LP             1 S1                 0.0000
     56 ****         3.4631   3.8443   0.9694 LP             1 S1                 0.0000
     57 ****         5.6839   1.0298  -0.9814 LP             1 S1                 0.0000
@<TRIPOS>BOND
    1    1    2 1     
    2    1   24 1     
    3    1   25 1     
    4    1   26 1     
    5    2    3 1     
    6    2   27 1     
    7    2   28 1     
    8    3   22 1     
    9    3    4 1     
   10    3   53 1     
   11    4    5 1     
   12    4   29 1     
   13    4   30 1     
   14    5    6 1     
   15    5   31 1     
   16    5   32 1     
   17    6    7 1     
   18    6   21 1     
   19    6   33 1     
   20    7    8 am    
   21    7   34 1     
   22    8    9 2     
   23    8   10 am    
   24   10   11 1     
   25   10   35 1     
   26   11   20 ar    
   27   11   12 ar    
   28   12   13 ar    
   29   12   36 1     
   30   13   14 ar    
   31   14   15 1     
   32   14   19 ar    
   33   15   16 1     
   34   15   17 1     
   35   15   18 1     
   36   16   37 1     
   37   16   38 1     
   38   16   39 1     
   39   17   40 1     
   40   17   41 1     
   41   17   42 1     
   42   18   43 1     
   43   18   44 1     
   44   18   45 1     
   45   19   20 ar    
   46   20   46 1     
   47   21   22 1     
   48   21   47 1     
   49   21   48 1     
   50   22   23 1     
   51   22   49 1     
   52   23   50 1     
   53   23   51 1     
   54   23   52 1     
   55    9   54 1     
   56    9   55 1     
   57   13   56 1     
   58   19   57 1     
@<TRIPOS>SUBSTRUCTURE
      1 S1             1
@<TRIPOS>SET
LONE_PAIRS      STATIC     ATOMS    <user>   **** ""
4 54 55 56 57
DONOR_HYDROGENS      STATIC     ATOMS    <user>   **** ""
3 53 34 35
ATOM$BLUE        STATIC     ATOMS    COLORGROUP SYSTEM
4 54 55 56 57
ATOM$RED        STATIC     ATOMS    COLORGROUP SYSTEM
3 53 34 35
