#       Name:                AV-unprocessed.smi:3038
#       Creating user name   scv26
#       Creation time:       Fri Mar 27 16:56:29 2020


#       File generated by GOLD software.
#

@<TRIPOS>MOLECULE
AV-unprocessed.smi:3038
    42    44     1
SMALL
NO_CHARGES


@<TRIPOS>ATOM
      1 ****         1.4601   3.1749  -0.3420 O.2            1 S1                 0.0000
      2 ****         2.1264   2.1427  -0.2732 C.2            1 S1                 0.0000
      3 ****         3.6545   2.2175  -0.2735 C.3            1 S1                 0.0000
      4 ****         4.2107   1.5998  -1.4631 N.pl3          1 S1                 0.0000
      5 ****         4.3794   2.0721  -2.6999 C.2            1 S1                 0.0000
      6 ****         4.9148   1.1634  -3.5006 N.2            1 S1                 0.0000
      7 ****         5.0771   0.0673  -2.6698 N.2            1 S1                 0.0000
      8 ****         4.6607   0.3199  -1.4596 N.2            1 S1                 0.0000
      9 ****         1.5843   0.9171  -0.1897 N.am           1 S1                 0.0000
     10 ****         0.1547   0.6247  -0.1957 C.3            1 S1                 0.0000
     11 ****        -0.4378   0.7591   1.2193 C.3            1 S1                 0.0000
     12 ****        -1.9195   0.3474   1.2422 C.3            1 S1                 0.0000
     13 ****        -2.0998  -1.0311   0.7228 N.4            1 S1                 1.0000
     14 ****        -3.5016  -1.4897   0.8352 C.3            1 S1                 0.0000
     15 ****        -3.8475  -2.0608   2.1906 C.3            1 S1                 0.0000
     16 ****        -3.6411  -2.9840   1.0105 C.3            1 S1                 0.0000
     17 ****        -1.5744  -1.1712  -0.6582 C.3            1 S1                 0.0000
     18 ****        -0.0834  -0.8002  -0.7217 C.3            1 S1                 0.0000
     19 ****         3.9797   3.2582  -0.2357 H              1 S1                 0.0000
     20 ****         4.0524   1.7226   0.6136 H              1 S1                 0.0000
     21 ****         4.1072   3.0698  -3.0114 H              1 S1                 0.0000
     22 ****         2.2125   0.1277  -0.1358 H              1 S1                 0.0000
     23 ****        -0.3533   1.3240  -0.8629 H              1 S1                 0.0000
     24 ****         0.1222   0.1341   1.9168 H              1 S1                 0.0000
     25 ****        -0.3374   1.7856   1.5742 H              1 S1                 0.0000
     26 ****        -2.2976   0.4060   2.2636 H              1 S1                 0.0000
     27 ****        -2.5121   1.0429   0.6455 H              1 S1                 0.0000
     28 ****        -4.2417  -0.9300   0.2655 H              1 S1                 0.0000
     29 ****        -3.0815  -2.0572   2.9642 H              1 S1                 0.0000
     30 ****        -4.8673  -1.9272   2.5458 H              1 S1                 0.0000
     31 ****        -4.5250  -3.4579   0.5883 H              1 S1                 0.0000
     32 ****        -2.7379  -3.5918   1.0001 H              1 S1                 0.0000
     33 ****        -1.7081  -2.1987  -0.9985 H              1 S1                 0.0000
     34 ****        -2.1492  -0.5366  -1.3346 H              1 S1                 0.0000
     35 ****         0.2748  -0.8856  -1.7483 H              1 S1                 0.0000
     36 ****         0.4926  -1.5158  -0.1327 H              1 S1                 0.0000
     37 ****        -1.5477  -1.6400   1.3099 H              1 S1                 0.0000
     38 ****         1.9174   4.0625  -0.3981 LP             1 S1                 0.0000
     39 ****         0.4613   3.1262  -0.3418 LP             1 S1                 0.0000
     40 ****         5.1458   1.2481  -4.4699 LP             1 S1                 0.0000
     41 ****         5.4646  -0.8074  -2.9609 LP             1 S1                 0.0000
     42 ****         4.6711  -0.3076  -0.6811 LP             1 S1                 0.0000
@<TRIPOS>BOND
    1    1    2 2     
    2    2    3 1     
    3    2    9 am    
    4    3    4 1     
    5    3   19 1     
    6    3   20 1     
    7    4    8 1     
    8    4    5 1     
    9    5    6 2     
   10    5   21 1     
   11    6    7 1     
   12    7    8 2     
   13    9   10 1     
   14    9   22 1     
   15   10   18 1     
   16   10   11 1     
   17   10   23 1     
   18   11   12 1     
   19   11   24 1     
   20   11   25 1     
   21   12   13 1     
   22   12   26 1     
   23   12   27 1     
   24   13   14 1     
   25   13   17 1     
   26   13   37 1     
   27   14   16 1     
   28   14   15 1     
   29   14   28 1     
   30   15   16 1     
   31   15   29 1     
   32   15   30 1     
   33   16   31 1     
   34   16   32 1     
   35   17   18 1     
   36   17   33 1     
   37   17   34 1     
   38   18   35 1     
   39   18   36 1     
   40    1   38 1     
   41    1   39 1     
   42    6   40 1     
   43    7   41 1     
   44    8   42 1     
@<TRIPOS>SUBSTRUCTURE
      1 S1             1
@<TRIPOS>SET
LONE_PAIRS      STATIC     ATOMS    <user>   **** ""
5 38 39 40 41 42
DONOR_HYDROGENS      STATIC     ATOMS    <user>   **** ""
2 22 37
ATOM$BLUE        STATIC     ATOMS    COLORGROUP SYSTEM
5 38 39 40 41 42
ATOM$RED        STATIC     ATOMS    COLORGROUP SYSTEM
2 22 37
