AV-unprocessed.smi:1884|AV-procd|sdf|7646|dock8
  -GOLD-   22720 9373D 1   1.00000     0.00000
 Structure written by MMmdl.
 40 42  0  0  0  0  0  0  0  0  1 V2000
  150.9167  139.1802  156.7248 C   0  0  0  0  0  0  0  0  0  0  0  0
  151.1675  140.4946  157.3929 C   0  0  0  0  0  0  0  0  0  0  0  0
  152.2979  140.7541  158.0503 N   0  0  0  0  0  0  0  0  0  0  0  0
  152.0969  142.0449  158.5002 C   0  0  0  0  0  0  0  0  0  0  0  0
  152.9317  142.8919  159.2639 C   0  0  0  0  0  0  0  0  0  0  0  0
  152.5063  144.1914  159.6090 C   0  0  0  0  0  0  0  0  0  0  0  0
  151.2430  144.6622  159.1960 C   0  0  0  0  0  0  0  0  0  0  0  0
  150.3960  143.8352  158.4335 C   0  0  0  0  0  0  0  0  0  0  0  0
  150.8251  142.5384  158.0921 C   0  0  0  0  0  0  0  0  0  0  0  0
  150.2538  141.4956  157.3687 N   0  0  0  0  0  0  0  0  0  0  0  0
  148.9444  141.4981  156.7301 C   0  0  0  0  0  0  0  0  0  0  0  0
  148.9949  141.0272  155.2622 C   0  0  2  0  0  0  0  0  0  0  0  0
  149.4056  142.0919  154.4276 O   0  0  0  0  0  0  0  0  0  0  0  0
  147.6349  140.5203  154.7610 C   0  0  0  0  0  0  0  0  0  0  0  0
  146.6038  141.0846  155.5605 O   0  0  0  0  0  0  0  0  0  0  0  0
  145.9712  142.2202  155.1017 C   0  0  0  0  0  0  0  0  0  0  0  0
  144.9761  142.7780  155.9305 C   0  0  0  0  0  0  0  0  0  0  0  0
  144.2774  143.9368  155.5406 C   0  0  0  0  0  0  0  0  0  0  0  0
  144.5684  144.5539  154.3081 C   0  0  0  0  0  0  0  0  0  0  0  0
  143.8473  145.7482  153.9007 C   0  0  0  0  0  0  0  0  0  0  0  0
  143.2735  146.6990  153.5760 N   0  0  0  0  0  0  0  0  0  0  0  0
  145.5614  144.0074  153.4715 C   0  0  0  0  0  0  0  0  0  0  0  0
  146.2592  142.8484  153.8635 C   0  0  0  0  0  0  0  0  0  0  0  0
  151.7811  138.5246  156.8356 H   0  0  0  0  0  0  0  0  0  0  0  0
  150.7301  139.3234  155.6608 H   0  0  0  0  0  0  0  0  0  0  0  0
  150.0540  138.6875  157.1732 H   0  0  0  0  0  0  0  0  0  0  0  0
  153.9015  142.5411  159.5848 H   0  0  0  0  0  0  0  0  0  0  0  0
  153.1522  144.8301  160.1937 H   0  0  0  0  0  0  0  0  0  0  0  0
  150.9249  145.6589  159.4647 H   0  0  0  0  0  0  0  0  0  0  0  0
  149.4293  144.1945  158.1134 H   0  0  0  0  0  0  0  0  0  0  0  0
  148.2710  140.8662  157.3094 H   0  0  0  0  0  0  0  0  0  0  0  0
  148.5330  142.5064  156.7888 H   0  0  0  0  0  0  0  0  0  0  0  0
  149.7300  140.2290  155.1552 H   0  0  0  0  0  0  0  0  0  0  0  0
  149.3959  142.8897  154.9345 H   0  0  0  0  0  0  0  0  0  0  0  0
  147.4991  140.7870  153.7113 H   0  0  0  0  0  0  0  0  0  0  0  0
  147.5992  139.4323  154.8414 H   0  0  0  0  0  0  0  0  0  0  0  0
  144.7458  142.3119  156.8773 H   0  0  0  0  0  0  0  0  0  0  0  0
  143.5190  144.3468  156.1924 H   0  0  0  0  0  0  0  0  0  0  0  0
  145.7939  144.4727  152.5242 H   0  0  0  0  0  0  0  0  0  0  0  0
  147.0112  142.4603  153.1934 H   0  0  0  0  0  0  0  0  0  0  0  0
  1  2  1  0  0  0  0
  1 24  1  0  0  0  0
  1 25  1  0  0  0  0
  1 26  1  0  0  0  0
  2 10  1  0  0  0  0
  2  3  2  0  0  0  0
  3  4  1  0  0  0  0
  4  9  2  0  0  0  0
  4  5  1  0  0  0  0
  5  6  2  0  0  0  0
  5 27  1  0  0  0  0
  6  7  1  0  0  0  0
  6 28  1  0  0  0  0
  7  8  2  0  0  0  0
  7 29  1  0  0  0  0
  8  9  1  0  0  0  0
  8 30  1  0  0  0  0
  9 10  1  0  0  0  0
 10 11  1  0  0  0  0
 11 12  1  0  0  0  0
 11 31  1  0  0  0  0
 11 32  1  0  0  0  0
 12 13  1  0  0  0  0
 12 14  1  0  0  0  0
 12 33  1  0  0  0  0
 13 34  1  0  0  0  0
 14 15  1  0  0  0  0
 14 35  1  0  0  0  0
 14 36  1  0  0  0  0
 15 16  1  0  0  0  0
 16 23  1  0  0  0  0
 16 17  2  0  0  0  0
 17 18  1  0  0  0  0
 17 37  1  0  0  0  0
 18 19  2  0  0  0  0
 18 38  1  0  0  0  0
 19 20  1  0  0  0  0
 19 22  1  0  0  0  0
 20 21  3  0  0  0  0
 22 23  2  0  0  0  0
 22 39  1  0  0  0  0
 23 40  1  0  0  0  0
M  END
> <s_m_source_file>
AV-unprocessed.smi

> <i_m_source_file_index>
1884

> <i_lp_mmshare_version>
43012

> <i_f3d_flags>
0

> <s_epik_input>
W2NIXTFbY0hdW2NIXVtjSF1jKGMxMiluKGMobjIpW0NIM10pW0NIMl1bQ0BIXShbT0hdKVtDSDJdT2MzW2NIXVtjSF1jKEMjTilbY0hdW2NIXTM=

> <s_epik_cmdline>
J2VwaWtfcHl0aG9uJywgJy1waCcsICc3LjAnLCAnLXRuJywgJzgnLCAnLW1hJywgJzIwMCcsICctbWV0YWxfYmluZGluZycsICctaW1hZScsICc8aW5maWxlLm1hZT4nLCAnLW9tYWUnLCAnPG91dGZpbGUubWFlPic=

> <r_epik_Ionization_Penalty>
0.110799

> <r_epik_Ionization_Penalty_Charging>
0

> <r_epik_Ionization_Penalty_Neutral>
0.110799

> <r_epik_State_Penalty>
0.100537

> <r_epik_Charging_Adjusted_Penalty>
0.100537

> <i_epik_Tot_Q>
0

> <i_epik_Tot_abs_Q>
0

> <r_epik_Metal_State_Penalty>
0.000109561

> <b_epik_Metal_Only>
0

> <s_lp_Force_Field>
OPLS_2005

> <r_lp_Energy>
14.1942

> <b_lp_Chiralities_Consistent>
1

> <s_lp_Variant>
AV-unprocessed.smi:1884-1

> <Gold.Version>
5.8.1

> <Gold.Id.Protein>
6NUR|6NUR_protein|mol2

> <Gold.PLP.Fitness>
48.3544

> <Gold.PLP.PLP>
-46.7600

> <Gold.PLP.part.hbond>
-4.8316

> <Gold.PLP.part.metal>
0.0000

> <Gold.PLP.part.buried>
-4.8251

> <Gold.PLP.part.nonpolar>
-37.4600

> <Gold.PLP.part.repulsive>
0.1471

> <Gold.PLP.ligand.clash>
0.0000

> <Gold.PLP.ligand.torsion>
1.0909

> <Gold.PLP.Chemscore.Hbond>
1.2421

> <Gold.PLP.Chemscore.CHOScore>
0.0000

> <Gold.PLP.Chemscore.Metal>
0.0000

> <Gold.Chemscore.Hbonds>
donor molecule, donor type, donor heavy atom, donor atom, acceptor molecule, acceptor atom, score
      L1  H    13    34       P1  8028  1.00
      P1  H  8011  8017       L1    13  0.22

> <Gold.PLP.Chemscore.Internal.Correction>
0.0500

> <Gold.Rescore>
     Score         DG    S(hbond)    S(metal)    S(lipo)     H(rot)  DE(clash)    DE(int)     intcor
     15.77     -17.06       1.23        0.00     114.55       2.31       0.13       1.16       ----

> <Gold.Chemscore.Fitness>
15.7680

> <Gold.Chemscore.DG>
-17.0599

> <Gold.Chemscore.ZeroCoef>
-5.4800

> <Gold.Chemscore.Hbond>
1.2251

> <Gold.Chemscore.Metal>
0.0000

> <Gold.Chemscore.Lipo>
114.5475

> <Gold.Chemscore.Internal_Hbond>
0.0000

> <Gold.Chemscore.DEClash>
0.1270

> <Gold.Chemscore.DEInternal>
1.1650

> <Gold.Chemscore.Rot>
2.3102

> <Gold.Chemscore.Internal.Correction>
   9.000000E+99

> <Gold.Chemscore.Hbonds>
donor molecule, donor type, donor heavy atom, donor atom, acceptor molecule, acceptor atom, score
      L1  H    13    34       P1  8028  0.94
      P1  H  8011  8017       L1    13  0.17

> <Gold.Chemscore.Hbond.Weighted>
-4.0920

> <Gold.Chemscore.Metal.Weighted>
-0.0000

> <Gold.Chemscore.Lipo.Weighted>
-13.4021

> <Gold.Chemscore.Internal_Hbond.Weighted>
0.0000

> <Gold.Chemscore.DEClash.Weighted>
0.1270

> <Gold.Chemscore.DEInternal.Weighted>
1.1650

> <Gold.Chemscore.Rot.Weighted>
5.9141

> <Gold.Chemscore.Internal.Correction.Weighted>
   9.000000E+99

> <Gold.Protein.RotatedTorsions>
[ 6907 6896 6895 6894 ] final  -14.62 input  -60.11 | X-H torsion
[ 7974 7965 7964 7962 ] final -165.31 input  175.53 | X-H torsion
[ 8008 7997 7996 7995 ] final  -89.48 input   59.86 | X-H torsion
[ 10167 10162 10161 10158 ] final  150.33 input  -65.29 | X-H torsion
[ 10718 10713 10712 10709 ] final  141.62 input   66.30 | X-H torsion
[ 10763 10752 10751 10750 ] final   -0.30 input  -60.55 | X-H torsion
[ 11005 11000 10999 10996 ] final  -42.47 input  -57.11 | X-H torsion

> <Gold.Protein.ActiveResidues>
 VAL166  LYS551  ARG553  GLY616  TRP617  ASP618  TYR619  PRO620  LYS621  CYS622 
 ASP623  PHE694  ASN695  SER759  ASP760  ASP761  ALA762  ILE779  LEU786  VAL792 
 PHE793  MET794  SER795  GLU796  ALA797  LYS798  CYS799  TRP800  GLU811  SER814 

> <Gold.Protein.RotatedAtoms>
  151.3366  135.0854  159.9356 H   0  0  0  0  0  0  0  0  0  0  0  0  # atno 6907 bound_to 6896
  152.5222  133.9490  159.7673 H   0  0  0  0  0  0  0  0  0  0  0  0  # atno 6908 bound_to 6896
  150.9838  133.6165  159.2748 H   0  0  0  0  0  0  0  0  0  0  0  0  # atno 6909 bound_to 6896
  144.7273  140.2832  143.6232 H   0  0  0  0  0  0  0  0  0  0  0  0  # atno 7974 bound_to 7965
  154.6871  140.0541  157.0326 H   0  0  0  0  0  0  0  0  0  0  0  0  # atno 8008 bound_to 7997
  155.0869  140.3215  155.4566 H   0  0  0  0  0  0  0  0  0  0  0  0  # atno 8009 bound_to 7997
  156.2715  140.2055  156.5996 H   0  0  0  0  0  0  0  0  0  0  0  0  # atno 8010 bound_to 7997
  139.4851  144.5531  151.7366 H   0  0  0  0  0  0  0  0  0  0  0  0  # atno 10167 bound_to 10162
  157.3899  131.1003  151.0657 H   0  0  0  0  0  0  0  0  0  0  0  0  # atno 10718 bound_to 10713
  153.3302  135.6974  153.6955 H   0  0  0  0  0  0  0  0  0  0  0  0  # atno 10763 bound_to 10752
  153.5760  135.3507  155.2857 H   0  0  0  0  0  0  0  0  0  0  0  0  # atno 10764 bound_to 10752
  154.8616  135.4283  154.2488 H   0  0  0  0  0  0  0  0  0  0  0  0  # atno 10765 bound_to 10752
  141.0318  133.6817  156.2600 H   0  0  0  0  0  0  0  0  0  0  0  0  # atno 11005 bound_to 11000
  145.7928  139.1933  143.2093 LP  0  0  0  0  0  0  0  0  0  0  0  0  # atno 17320 bound_to 7965
  146.0741  140.7836  142.9673 LP  0  0  0  0  0  0  0  0  0  0  0  0  # atno 17321 bound_to 7965
  140.5088  144.1057  150.5989 LP  0  0  0  0  0  0  0  0  0  0  0  0  # atno 17342 bound_to 10162
  140.3976  143.2720  151.9987 LP  0  0  0  0  0  0  0  0  0  0  0  0  # atno 17343 bound_to 10162
  157.1695  130.6261  149.5636 LP  0  0  0  0  0  0  0  0  0  0  0  0  # atno 17370 bound_to 10713
  155.9796  130.4790  150.6722 LP  0  0  0  0  0  0  0  0  0  0  0  0  # atno 17371 bound_to 10713
  140.6393  134.5182  157.5568 LP  0  0  0  0  0  0  0  0  0  0  0  0  # atno 17394 bound_to 11000
  139.9213  134.8143  156.1203 LP  0  0  0  0  0  0  0  0  0  0  0  0  # atno 17395 bound_to 11000

$$$$
