#       Name:                AV-unprocessed.smi:848
#       Creating user name   scv26
#       Creation time:       Fri Mar 27 01:40:30 2020


#       File generated by GOLD software.
#

@<TRIPOS>MOLECULE
AV-unprocessed.smi:848
    53    55     1
SMALL
NO_CHARGES


@<TRIPOS>ATOM
      1 ****        -5.9063  -0.6727  -0.3203 C.3            1 S1                 0.0000
      2 ****        -4.9552   0.4748  -0.0491 C.ar           1 S1                 0.0000
      3 ****        -5.4553   1.7587   0.2459 C.ar           1 S1                 0.0000
      4 ****        -4.5666   2.8219   0.4967 C.ar           1 S1                 0.0000
      5 ****        -5.1105   4.2004   0.8111 C.3            1 S1                 0.0000
      6 ****        -3.1758   2.5954   0.4556 C.ar           1 S1                 0.0000
      7 ****        -2.6587   1.3164   0.1649 C.ar           1 S1                 0.0000
      8 ****        -1.2864   1.1869   0.1506 O.3            1 S1                 0.0000
      9 ****        -0.7315  -0.0888  -0.1406 C.3            1 S1                 0.0000
     10 ****         0.8010   0.0070  -0.0704 C.3            1 S1                 0.0000
     11 ****         1.2735   0.5606  -1.2832 O.3            1 S1                 0.0000
     12 ****         1.4515  -1.3753   0.1461 C.3            1 S1                 0.0000
     13 ****         2.9056  -1.3143   0.2222 N.pl3          1 S1                 0.0000
     14 ****         3.6761  -1.0775   1.3140 C.2            1 S1                 0.0000
     15 ****         3.0650  -0.8449   2.6672 C.3            1 S1                 0.0000
     16 ****         4.0018  -0.5110   3.6718 O.3            1 S1                 0.0000
     17 ****         4.9942  -1.0769   1.1000 N.2            1 S1                 0.0000
     18 ****         5.0857  -1.3390  -0.2524 C.ar           1 S1                 0.0000
     19 ****         6.2180  -1.4657  -1.0885 C.ar           1 S1                 0.0000
     20 ****         6.0633  -1.7449  -2.4622 C.ar           1 S1                 0.0000
     21 ****         4.7772  -1.9013  -3.0181 C.ar           1 S1                 0.0000
     22 ****         3.6357  -1.7771  -2.2031 C.ar           1 S1                 0.0000
     23 ****         3.7956  -1.4975  -0.8324 C.ar           1 S1                 0.0000
     24 ****        -3.5632   0.2547  -0.0894 C.ar           1 S1                 0.0000
     25 ****        -6.9365  -0.3253  -0.4037 H              1 S1                 0.0000
     26 ****        -5.8560  -1.4024   0.4881 H              1 S1                 0.0000
     27 ****        -5.6413  -1.1731  -1.2522 H              1 S1                 0.0000
     28 ****        -6.5214   1.9312   0.2797 H              1 S1                 0.0000
     29 ****        -4.3158   4.9467   0.8312 H              1 S1                 0.0000
     30 ****        -5.6026   4.1982   1.7838 H              1 S1                 0.0000
     31 ****        -5.8390   4.5014   0.0577 H              1 S1                 0.0000
     32 ****        -2.4926   3.4096   0.6493 H              1 S1                 0.0000
     33 ****        -1.0813  -0.7950   0.6142 H              1 S1                 0.0000
     34 ****        -1.0538  -0.4565  -1.1166 H              1 S1                 0.0000
     35 ****         1.0855   0.6695   0.7475 H              1 S1                 0.0000
     36 ****         1.0174  -0.0069  -1.9940 H              1 S1                 0.0000
     37 ****         1.0722  -1.8335   1.0598 H              1 S1                 0.0000
     38 ****         1.1757  -2.0525  -0.6634 H              1 S1                 0.0000
     39 ****         2.3344  -0.0395   2.6009 H              1 S1                 0.0000
     40 ****         2.5334  -1.7451   2.9761 H              1 S1                 0.0000
     41 ****         3.5383  -0.3815   4.4847 H              1 S1                 0.0000
     42 ****         7.2073  -1.3482  -0.6716 H              1 S1                 0.0000
     43 ****         6.9358  -1.8395  -3.0918 H              1 S1                 0.0000
     44 ****         4.6676  -2.1159  -4.0711 H              1 S1                 0.0000
     45 ****         2.6499  -1.8936  -2.6275 H              1 S1                 0.0000
     46 ****        -3.2117  -0.7402  -0.3166 H              1 S1                 0.0000
     47 ****        -0.9546   1.4543   1.0553 LP             1 S1                 0.0000
     48 ****        -0.9362   1.8253  -0.5349 LP             1 S1                 0.0000
     49 ****         2.2703   0.6348  -1.2538 LP             1 S1                 0.0000
     50 ****         0.8755   1.4683  -1.4168 LP             1 S1                 0.0000
     51 ****         4.4811   0.3297   3.4196 LP             1 S1                 0.0000
     52 ****         4.6634  -1.2535   3.7758 LP             1 S1                 0.0000
     53 ****         5.7325  -0.9243   1.7569 LP             1 S1                 0.0000
@<TRIPOS>BOND
    1    1    2 1     
    2    1   25 1     
    3    1   26 1     
    4    1   27 1     
    5    2   24 ar    
    6    2    3 ar    
    7    3    4 ar    
    8    3   28 1     
    9    4    5 1     
   10    4    6 ar    
   11    5   29 1     
   12    5   30 1     
   13    5   31 1     
   14    6    7 ar    
   15    6   32 1     
   16    7    8 1     
   17    7   24 ar    
   18    8    9 1     
   19    9   10 1     
   20    9   33 1     
   21    9   34 1     
   22   10   11 1     
   23   10   12 1     
   24   10   35 1     
   25   11   36 1     
   26   12   13 1     
   27   12   37 1     
   28   12   38 1     
   29   13   23 1     
   30   13   14 1     
   31   14   15 1     
   32   14   17 2     
   33   15   16 1     
   34   15   39 1     
   35   15   40 1     
   36   16   41 1     
   37   17   18 1     
   38   18   23 ar    
   39   18   19 ar    
   40   19   20 ar    
   41   19   42 1     
   42   20   21 ar    
   43   20   43 1     
   44   21   22 ar    
   45   21   44 1     
   46   22   23 ar    
   47   22   45 1     
   48   24   46 1     
   49    8   47 1     
   50    8   48 1     
   51   11   49 1     
   52   11   50 1     
   53   16   51 1     
   54   16   52 1     
   55   17   53 1     
@<TRIPOS>SUBSTRUCTURE
      1 S1             1
@<TRIPOS>SET
LONE_PAIRS      STATIC     ATOMS    <user>   **** ""
7 47 48 49 50 51 52 53
DONOR_HYDROGENS      STATIC     ATOMS    <user>   **** ""
2 36 41
ATOM$BLUE        STATIC     ATOMS    COLORGROUP SYSTEM
7 47 48 49 50 51 52 53
ATOM$RED        STATIC     ATOMS    COLORGROUP SYSTEM
2 36 41
