AV-unprocessed.smi:2258|AV-procd|sdf|9129|dock7
  -GOLD-   2272012333D 1   1.00000     0.00000
 Structure written by MMmdl.
 40 42  0  0  0  0  0  0  0  0  1 V2000
  146.1421  130.3571  151.7044 C   0  0  0  0  0  0  0  0  0  0  0  0
  145.5632  131.6672  151.4052 N   0  0  0  0  0  0  0  0  0  0  0  0
  144.2707  131.7190  150.8651 C   0  0  0  0  0  0  0  0  0  0  0  0
  143.6941  132.8993  150.5764 C   0  0  0  0  0  0  0  0  0  0  0  0
  144.3676  134.0989  150.8060 N   0  0  0  0  0  0  0  0  0  0  0  0
  145.5761  134.1269  151.2958 C   0  0  0  0  0  0  0  0  0  0  0  0
  146.2833  135.3141  151.5531 N   0  0  0  0  0  0  0  0  0  0  0  0
  145.8552  136.5317  151.9624 C   0  0  0  0  0  0  0  0  0  0  0  0
  144.6687  136.7218  152.2229 O   0  0  0  0  0  0  0  0  0  0  0  0
  146.7910  137.4853  152.1227 N   0  0  0  0  0  0  0  0  0  0  0  0
  146.5529  138.8625  152.5467 C   0  0  0  0  0  0  0  0  0  0  0  0
  147.1207  139.1694  153.9443 C   0  0  0  0  0  0  0  0  0  0  0  0
  146.6742  140.5869  154.3320 C   0  0  0  0  0  0  0  0  0  0  0  0
  147.3944  141.8152  153.8337 C   0  0  0  0  0  0  0  0  0  0  0  0
  147.4047  141.4785  155.3114 C   0  0  0  0  0  0  0  0  0  0  0  0
  146.8760  138.0941  155.0273 C   0  0  0  0  0  0  0  0  0  0  0  0
  148.3207  138.2453  155.4955 C   0  0  0  0  0  0  0  0  0  0  0  0
  148.6206  138.8235  154.1139 C   0  0  0  0  0  0  0  0  0  0  0  0
  146.2662  132.8061  151.6512 C   0  0  0  0  0  0  0  0  0  0  0  0
  147.4011  132.8097  152.1322 O   0  0  0  0  0  0  0  0  0  0  0  0
  145.4903  129.5351  151.4064 H   0  0  0  0  0  0  0  0  0  0  0  0
  146.3280  130.2579  152.7746 H   0  0  0  0  0  0  0  0  0  0  0  0
  147.0903  130.2267  151.1805 H   0  0  0  0  0  0  0  0  0  0  0  0
  143.7900  130.7648  150.7052 H   0  0  0  0  0  0  0  0  0  0  0  0
  142.6998  132.9714  150.1603 H   0  0  0  0  0  0  0  0  0  0  0  0
  147.2869  135.2447  151.4652 H   0  0  0  0  0  0  0  0  0  0  0  0
  147.7464  137.2405  151.9049 H   0  0  0  0  0  0  0  0  0  0  0  0
  146.9541  139.5533  151.8033 H   0  0  0  0  0  0  0  0  0  0  0  0
  145.4747  139.0242  152.5382 H   0  0  0  0  0  0  0  0  0  0  0  0
  145.5910  140.6793  154.3874 H   0  0  0  0  0  0  0  0  0  0  0  0
  148.3195  141.6722  153.2794 H   0  0  0  0  0  0  0  0  0  0  0  0
  146.7836  142.6560  153.5111 H   0  0  0  0  0  0  0  0  0  0  0  0
  146.7992  142.0990  155.9689 H   0  0  0  0  0  0  0  0  0  0  0  0
  148.3502  141.1490  155.7346 H   0  0  0  0  0  0  0  0  0  0  0  0
  146.1282  138.3599  155.7750 H   0  0  0  0  0  0  0  0  0  0  0  0
  146.6826  137.1033  154.6129 H   0  0  0  0  0  0  0  0  0  0  0  0
  148.4334  138.9675  156.3045 H   0  0  0  0  0  0  0  0  0  0  0  0
  148.8287  137.3065  155.7168 H   0  0  0  0  0  0  0  0  0  0  0  0
  148.9587  138.0539  153.4176 H   0  0  0  0  0  0  0  0  0  0  0  0
  149.3095  139.6676  154.1107 H   0  0  0  0  0  0  0  0  0  0  0  0
  1  2  1  0  0  0  0
  1 21  1  0  0  0  0
  1 22  1  0  0  0  0
  1 23  1  0  0  0  0
  2 19  1  0  0  0  0
  2  3  1  0  0  0  0
  3  4  2  0  0  0  0
  3 24  1  0  0  0  0
  4  5  1  0  0  0  0
  4 25  1  0  0  0  0
  5  6  2  0  0  0  0
  6  7  1  0  0  0  0
  6 19  1  0  0  0  0
  7  8  1  0  0  0  0
  7 26  1  0  0  0  0
  8  9  2  0  0  0  0
  8 10  1  0  0  0  0
 10 11  1  0  0  0  0
 10 27  1  0  0  0  0
 11 12  1  0  0  0  0
 11 28  1  0  0  0  0
 11 29  1  0  0  0  0
 12 18  1  0  0  0  0
 12 13  1  0  0  0  0
 12 16  1  0  0  0  0
 13 15  1  0  0  0  0
 13 14  1  0  0  0  0
 13 30  1  0  0  0  0
 14 15  1  0  0  0  0
 14 31  1  0  0  0  0
 14 32  1  0  0  0  0
 15 33  1  0  0  0  0
 15 34  1  0  0  0  0
 16 17  1  0  0  0  0
 16 35  1  0  0  0  0
 16 36  1  0  0  0  0
 17 18  1  0  0  0  0
 17 37  1  0  0  0  0
 17 38  1  0  0  0  0
 18 39  1  0  0  0  0
 18 40  1  0  0  0  0
 19 20  2  0  0  0  0
M  END
> <s_m_source_file>
AV-unprocessed.smi

> <i_m_source_file_index>
2258

> <i_lp_mmshare_version>
43012

> <i_f3d_flags>
0

> <s_epik_input>
W0NIM11uMVtjSF1bY0hdbmMoYzE9TylbTkhdQyg9TylbTkhdW0NIMl1DMihbQ0hdM1tDSDJdW0NIMl0zKVtDSDJdW0NIMl1bQ0gyXTI=

> <s_epik_cmdline>
J2VwaWtfcHl0aG9uJywgJy1waCcsICc3LjAnLCAnLXRuJywgJzgnLCAnLW1hJywgJzIwMCcsICctbWV0YWxfYmluZGluZycsICctaW1hZScsICc8aW5maWxlLm1hZT4nLCAnLW9tYWUnLCAnPG91dGZpbGUubWFlPic=

> <r_lp_tautomer_probability>
1

> <r_epik_Ionization_Penalty>
0.000665538

> <r_epik_Ionization_Penalty_Charging>
1.64466e-07

> <r_epik_Ionization_Penalty_Neutral>
0.000665373

> <r_epik_State_Penalty>
-0

> <r_epik_Charging_Adjusted_Penalty>
1.64466e-07

> <i_epik_Tot_Q>
0

> <i_epik_Tot_abs_Q>
0

> <r_epik_Metal_State_Penalty>
-0

> <b_epik_Metal_Only>
0

> <s_lp_Force_Field>
OPLS_2005

> <r_lp_Energy>
52.1357

> <b_lp_Chiralities_Consistent>
1

> <s_lp_Variant>
AV-unprocessed.smi:2258-1

> <Gold.Version>
5.8.1

> <Gold.Id.Protein>
6NUR|6NUR_protein|mol2

> <Gold.PLP.Fitness>
39.4066

> <Gold.PLP.PLP>
-31.4029

> <Gold.PLP.part.hbond>
-1.8294

> <Gold.PLP.part.metal>
0.0000

> <Gold.PLP.part.buried>
-5.7802

> <Gold.PLP.part.nonpolar>
-25.4258

> <Gold.PLP.part.repulsive>
0.8113

> <Gold.PLP.ligand.clash>
0.0000

> <Gold.PLP.ligand.torsion>
1.1343

> <Gold.PLP.Chemscore.Hbond>
1.8640

> <Gold.PLP.Chemscore.CHOScore>
1.0000

> <Gold.PLP.Chemscore.Metal>
0.0000

> <Gold.Chemscore.Hbonds>
donor molecule, donor type, donor heavy atom, donor atom, acceptor molecule, acceptor atom, score
      L1  H     7    26       P1  7948  0.86
      L1  H    10    27       P1  7948  1.00
      L1  C     4    25       P1 10186  1.00

> <Gold.PLP.Chemscore.Internal.Correction>
1.6803

> <Gold.Rescore>
     Score         DG    S(hbond)    S(metal)    S(lipo)     H(rot)  DE(clash)    DE(int)     intcor
     12.90     -14.99       1.77        0.00      63.09       1.47       0.14       1.94       ----

> <Gold.Chemscore.Fitness>
12.9044

> <Gold.Chemscore.DG>
-14.9903

> <Gold.Chemscore.ZeroCoef>
-5.4800

> <Gold.Chemscore.Hbond>
1.7672

> <Gold.Chemscore.Metal>
0.0000

> <Gold.Chemscore.Lipo>
63.0944

> <Gold.Chemscore.Internal_Hbond>
0.0000

> <Gold.Chemscore.DEClash>
0.1418

> <Gold.Chemscore.DEInternal>
1.9441

> <Gold.Chemscore.Rot>
1.4742

> <Gold.Chemscore.Internal.Correction>
   9.000000E+99

> <Gold.Chemscore.Hbonds>
donor molecule, donor type, donor heavy atom, donor atom, acceptor molecule, acceptor atom, score
      L1  H     7    26       P1  7948  0.72
      L1  H    10    27       P1  7948  0.93

> <Gold.Chemscore.Hbond.Weighted>
-5.9023

> <Gold.Chemscore.Metal.Weighted>
-0.0000

> <Gold.Chemscore.Lipo.Weighted>
-7.3820

> <Gold.Chemscore.Internal_Hbond.Weighted>
0.0000

> <Gold.Chemscore.DEClash.Weighted>
0.1418

> <Gold.Chemscore.DEInternal.Weighted>
1.9441

> <Gold.Chemscore.Rot.Weighted>
3.7740

> <Gold.Chemscore.Internal.Correction.Weighted>
   9.000000E+99

> <Gold.Protein.RotatedTorsions>
[ 6907 6896 6895 6894 ] final  -99.14 input  -60.11 | X-H torsion
[ 7974 7965 7964 7962 ] final  142.77 input  175.53 | X-H torsion
[ 8008 7997 7996 7995 ] final   94.46 input   59.86 | X-H torsion
[ 10167 10162 10161 10158 ] final   13.30 input  -65.29 | X-H torsion
[ 10718 10713 10712 10709 ] final  160.59 input   66.30 | X-H torsion
[ 10763 10752 10751 10750 ] final  -83.63 input  -60.55 | X-H torsion
[ 11005 11000 10999 10996 ] final  -83.03 input  -57.11 | X-H torsion

> <Gold.Protein.ActiveResidues>
 VAL166  LYS551  ARG553  GLY616  TRP617  ASP618  TYR619  PRO620  LYS621  CYS622 
 ASP623  PHE694  ASN695  SER759  ASP760  ASP761  ALA762  ILE779  LEU786  VAL792 
 PHE793  MET794  SER795  GLU796  ALA797  LYS798  CYS799  TRP800  GLU811  SER814 

> <Gold.Protein.RotatedAtoms>
  150.7070  134.1087  159.3991 H   0  0  0  0  0  0  0  0  0  0  0  0  # atno 6907 bound_to 6896
  151.9073  135.0351  160.0521 H   0  0  0  0  0  0  0  0  0  0  0  0  # atno 6908 bound_to 6896
  152.2364  133.5064  159.5282 H   0  0  0  0  0  0  0  0  0  0  0  0  # atno 6909 bound_to 6896
  144.8979  139.5465  143.5768 H   0  0  0  0  0  0  0  0  0  0  0  0  # atno 7974 bound_to 7965
  156.0581  140.3299  155.7430 H   0  0  0  0  0  0  0  0  0  0  0  0  # atno 8008 bound_to 7997
  155.5497  140.0609  157.2870 H   0  0  0  0  0  0  0  0  0  0  0  0  # atno 8009 bound_to 7997
  154.4468  140.1896  156.0662 H   0  0  0  0  0  0  0  0  0  0  0  0  # atno 8010 bound_to 7997
  140.6012  143.8601  150.6967 H   0  0  0  0  0  0  0  0  0  0  0  0  # atno 10167 bound_to 10162
  157.1483  131.0557  151.2293 H   0  0  0  0  0  0  0  0  0  0  0  0  # atno 10718 bound_to 10713
  154.5899  135.5549  153.7268 H   0  0  0  0  0  0  0  0  0  0  0  0  # atno 10763 bound_to 10752
  153.0113  135.6341  154.1863 H   0  0  0  0  0  0  0  0  0  0  0  0  # atno 10764 bound_to 10752
  154.1804  135.2887  155.3034 H   0  0  0  0  0  0  0  0  0  0  0  0  # atno 10765 bound_to 10752
  141.1660  133.7274  156.8660 H   0  0  0  0  0  0  0  0  0  0  0  0  # atno 11005 bound_to 11000
  146.3091  139.7684  142.9033 LP  0  0  0  0  0  0  0  0  0  0  0  0  # atno 17320 bound_to 7965
  145.3668  141.0336  143.3253 LP  0  0  0  0  0  0  0  0  0  0  0  0  # atno 17321 bound_to 7965
  140.2147  143.3855  152.1690 LP  0  0  0  0  0  0  0  0  0  0  0  0  # atno 17342 bound_to 10162
  139.5292  144.7139  151.5117 LP  0  0  0  0  0  0  0  0  0  0  0  0  # atno 17343 bound_to 10162
  157.4244  130.7455  149.6939 LP  0  0  0  0  0  0  0  0  0  0  0  0  # atno 17370 bound_to 10713
  155.9775  130.4062  150.3706 LP  0  0  0  0  0  0  0  0  0  0  0  0  # atno 17371 bound_to 10713
  140.1815  134.9030  157.2954 LP  0  0  0  0  0  0  0  0  0  0  0  0  # atno 17394 bound_to 11000
  140.2390  134.3818  155.7489 LP  0  0  0  0  0  0  0  0  0  0  0  0  # atno 17395 bound_to 11000

$$$$
