AV-unprocessed.smi:2495|AV-procd|sdf|9824|dock5
  -GOLD-   2272013453D 1   1.00000     0.00000
 Structure written by MMmdl.
 33 34  0  0  0  0  0  0  0  0  1 V2000
  146.3206  142.6795  154.0846 C   0  0  0  0  0  0  0  0  0  0  0  0
  147.7058  142.4683  154.4756 N   0  0  0  0  0  0  0  0  0  0  0  0
  148.3342  141.2837  154.4311 C   0  0  0  0  0  0  0  0  0  0  0  0
  147.7799  140.2487  154.0588 O   0  0  0  0  0  0  0  0  0  0  0  0
  149.7984  141.2606  154.8954 C   0  0  1  0  0  0  0  0  0  0  0  0
  149.9675  141.7997  156.3345 C   0  0  0  0  0  0  0  0  0  0  0  0
  151.3490  141.6498  156.7869 N   0  0  0  0  0  0  0  0  0  0  0  0
  151.6844  142.3391  157.9727 C   0  0  0  0  0  0  0  0  0  0  0  0
  152.3472  141.6800  159.0364 C   0  0  0  0  0  0  0  0  0  0  0  0
  152.6426  142.4504  160.1804 C   0  0  0  0  0  0  0  0  0  0  0  0
  153.3501  141.8464  161.3750 C   0  0  0  0  0  0  0  0  0  0  0  0
  152.3129  143.7567  160.2647 N   0  0  0  0  0  0  0  0  0  0  0  0
  151.6856  144.2824  159.2112 C   0  0  0  0  0  0  0  0  0  0  0  0
  151.3544  143.6504  158.0830 N   0  0  0  0  0  0  0  0  0  0  0  0
  151.8778  140.2993  156.6110 C   0  0  0  0  0  0  0  0  0  0  0  0
  151.6621  139.8257  155.1656 C   0  0  0  0  0  0  0  0  0  0  0  0
  150.2810  139.9178  154.8366 O   0  0  0  0  0  0  0  0  0  0  0  0
  146.0314  143.7112  154.2842 H   0  0  0  0  0  0  0  0  0  0  0  0
  145.6518  142.0239  154.6440 H   0  0  0  0  0  0  0  0  0  0  0  0
  146.1867  142.4867  153.0194 H   0  0  0  0  0  0  0  0  0  0  0  0
  148.2269  143.2735  154.7921 H   0  0  0  0  0  0  0  0  0  0  0  0
  150.3711  141.8777  154.2008 H   0  0  0  0  0  0  0  0  0  0  0  0
  149.6556  142.8429  156.3611 H   0  0  0  0  0  0  0  0  0  0  0  0
  149.3159  141.2572  157.0214 H   0  0  0  0  0  0  0  0  0  0  0  0
  152.6081  140.6330  158.9945 H   0  0  0  0  0  0  0  0  0  0  0  0
  153.1949  140.7679  161.4135 H   0  0  0  0  0  0  0  0  0  0  0  0
  152.9771  142.2749  162.3059 H   0  0  0  0  0  0  0  0  0  0  0  0
  154.4215  142.0370  161.3129 H   0  0  0  0  0  0  0  0  0  0  0  0
  151.4174  145.3263  159.2781 H   0  0  0  0  0  0  0  0  0  0  0  0
  152.9439  140.2763  156.8408 H   0  0  0  0  0  0  0  0  0  0  0  0
  151.3784  139.6221  157.3053 H   0  0  0  0  0  0  0  0  0  0  0  0
  152.2552  140.4185  154.4673 H   0  0  0  0  0  0  0  0  0  0  0  0
  151.9844  138.7898  155.0583 H   0  0  0  0  0  0  0  0  0  0  0  0
  1  2  1  0  0  0  0
  1 18  1  0  0  0  0
  1 19  1  0  0  0  0
  1 20  1  0  0  0  0
  2  3  1  0  0  0  0
  2 21  1  0  0  0  0
  3  4  2  0  0  0  0
  3  5  1  0  0  0  0
  5 17  1  0  0  0  0
  5  6  1  0  0  0  0
  5 22  1  0  0  0  0
  6  7  1  0  0  0  0
  6 23  1  0  0  0  0
  6 24  1  0  0  0  0
  7  8  1  0  0  0  0
  7 15  1  0  0  0  0
  8 14  1  0  0  0  0
  8  9  2  0  0  0  0
  9 10  1  0  0  0  0
  9 25  1  0  0  0  0
 10 11  1  0  0  0  0
 10 12  2  0  0  0  0
 11 26  1  0  0  0  0
 11 27  1  0  0  0  0
 11 28  1  0  0  0  0
 12 13  1  0  0  0  0
 13 14  2  0  0  0  0
 13 29  1  0  0  0  0
 15 16  1  0  0  0  0
 15 30  1  0  0  0  0
 15 31  1  0  0  0  0
 16 17  1  0  0  0  0
 16 32  1  0  0  0  0
 16 33  1  0  0  0  0
M  END
> <s_m_source_file>
AV-unprocessed.smi

> <i_m_source_file_index>
2495

> <i_lp_mmshare_version>
43012

> <i_f3d_flags>
0

> <s_epik_input>
W0NIM11bTkhdQyg9TylbQ0BASF0xW0NIMl1OKFtDSDJdW0NIMl1PMSljMltjSF1jKFtDSDNdKW5bY0hdbjI=

> <s_epik_cmdline>
J2VwaWtfcHl0aG9uJywgJy1waCcsICc3LjAnLCAnLXRuJywgJzgnLCAnLW1hJywgJzIwMCcsICctbWV0YWxfYmluZGluZycsICctaW1hZScsICc8aW5maWxlLm1hZT4nLCAnLW9tYWUnLCAnPG91dGZpbGUubWFlPic=

> <r_lp_tautomer_probability>
1

> <r_epik_Ionization_Penalty>
0.000466083

> <r_epik_Ionization_Penalty_Charging>
0

> <r_epik_Ionization_Penalty_Neutral>
0.000466083

> <r_epik_State_Penalty>
0.000259726

> <r_epik_Charging_Adjusted_Penalty>
0.000259726

> <i_epik_Tot_Q>
0

> <i_epik_Tot_abs_Q>
0

> <r_epik_Metal_State_Penalty>
-0

> <b_epik_Metal_Only>
0

> <s_lp_Force_Field>
OPLS_2005

> <r_lp_Energy>
12.0364

> <b_lp_Chiralities_Consistent>
1

> <s_lp_Variant>
AV-unprocessed.smi:2495-2

> <Gold.Version>
5.8.1

> <Gold.Id.Protein>
6NUR|6NUR_protein|mol2

> <Gold.PLP.Fitness>
38.9532

> <Gold.PLP.PLP>
-35.9811

> <Gold.PLP.part.hbond>
-1.0000

> <Gold.PLP.part.metal>
0.0000

> <Gold.PLP.part.buried>
-3.7991

> <Gold.PLP.part.nonpolar>
-30.6502

> <Gold.PLP.part.repulsive>
0.5485

> <Gold.PLP.ligand.clash>
0.0000

> <Gold.PLP.ligand.torsion>
0.1879

> <Gold.PLP.Chemscore.Hbond>
1.0000

> <Gold.PLP.Chemscore.CHOScore>
0.0000

> <Gold.PLP.Chemscore.Metal>
0.0000

> <Gold.Chemscore.Hbonds>
donor molecule, donor type, donor heavy atom, donor atom, acceptor molecule, acceptor atom, score
      L1  H     2    21       P1  8028  1.00

> <Gold.PLP.Chemscore.Internal.Correction>
0.3480

> <Gold.Rescore>
     Score         DG    S(hbond)    S(metal)    S(lipo)     H(rot)  DE(clash)    DE(int)     intcor
     12.72     -13.09       1.00        0.00      66.57       1.37       0.07       0.30       ----

> <Gold.Chemscore.Fitness>
12.7194

> <Gold.Chemscore.DG>
-13.0896

> <Gold.Chemscore.ZeroCoef>
-5.4800

> <Gold.Chemscore.Hbond>
0.9971

> <Gold.Chemscore.Metal>
0.0000

> <Gold.Chemscore.Lipo>
66.5653

> <Gold.Chemscore.Internal_Hbond>
0.0000

> <Gold.Chemscore.DEClash>
0.0726

> <Gold.Chemscore.DEInternal>
0.2976

> <Gold.Chemscore.Rot>
1.3706

> <Gold.Chemscore.Internal.Correction>
   9.000000E+99

> <Gold.Chemscore.Hbonds>
donor molecule, donor type, donor heavy atom, donor atom, acceptor molecule, acceptor atom, score
      L1  H     2    21       P1  8028  0.98

> <Gold.Chemscore.Hbond.Weighted>
-3.3302

> <Gold.Chemscore.Metal.Weighted>
-0.0000

> <Gold.Chemscore.Lipo.Weighted>
-7.7881

> <Gold.Chemscore.Internal_Hbond.Weighted>
0.0000

> <Gold.Chemscore.DEClash.Weighted>
0.0726

> <Gold.Chemscore.DEInternal.Weighted>
0.2976

> <Gold.Chemscore.Rot.Weighted>
3.5087

> <Gold.Chemscore.Internal.Correction.Weighted>
   9.000000E+99

> <Gold.Protein.RotatedTorsions>
[ 6907 6896 6895 6894 ] final   68.10 input  -60.11 | X-H torsion
[ 7974 7965 7964 7962 ] final   84.18 input  175.53 | X-H torsion
[ 8008 7997 7996 7995 ] final -139.57 input   59.86 | X-H torsion
[ 10167 10162 10161 10158 ] final  -45.53 input  -65.29 | X-H torsion
[ 10718 10713 10712 10709 ] final   43.48 input   66.30 | X-H torsion
[ 10763 10752 10751 10750 ] final  -40.94 input  -60.55 | X-H torsion
[ 11005 11000 10999 10996 ] final   78.19 input  -57.11 | X-H torsion

> <Gold.Protein.ActiveResidues>
 VAL166  LYS551  ARG553  GLY616  TRP617  ASP618  TYR619  PRO620  LYS621  CYS622 
 ASP623  PHE694  ASN695  SER759  ASP760  ASP761  ALA762  ILE779  LEU786  VAL792 
 PHE793  MET794  SER795  GLU796  ALA797  LYS798  CYS799  TRP800  GLU811  SER814 

> <Gold.Protein.RotatedAtoms>
  152.4598  134.5211  159.9782 H   0  0  0  0  0  0  0  0  0  0  0  0  # atno 6907 bound_to 6896
  151.5263  133.3451  159.2918 H   0  0  0  0  0  0  0  0  0  0  0  0  # atno 6908 bound_to 6896
  150.8556  134.7923  159.7105 H   0  0  0  0  0  0  0  0  0  0  0  0  # atno 6909 bound_to 6896
  145.6022  139.2354  143.2239 H   0  0  0  0  0  0  0  0  0  0  0  0  # atno 7974 bound_to 7965
  155.4470  140.0536  157.3005 H   0  0  0  0  0  0  0  0  0  0  0  0  # atno 8008 bound_to 7997
  154.4793  140.2075  155.9757 H   0  0  0  0  0  0  0  0  0  0  0  0  # atno 8009 bound_to 7997
  156.1182  140.3193  155.8174 H   0  0  0  0  0  0  0  0  0  0  0  0  # atno 8010 bound_to 7997
  140.6854  143.2875  151.3652 H   0  0  0  0  0  0  0  0  0  0  0  0  # atno 10167 bound_to 10162
  157.4164  130.7943  149.7475 H   0  0  0  0  0  0  0  0  0  0  0  0  # atno 10718 bound_to 10713
  153.9543  135.6747  153.4744 H   0  0  0  0  0  0  0  0  0  0  0  0  # atno 10763 bound_to 10752
  153.0869  135.4894  154.8611 H   0  0  0  0  0  0  0  0  0  0  0  0  # atno 10764 bound_to 10752
  154.7308  135.3138  154.8854 H   0  0  0  0  0  0  0  0  0  0  0  0  # atno 10765 bound_to 10752
  139.9223  134.7743  156.1617 H   0  0  0  0  0  0  0  0  0  0  0  0  # atno 11005 bound_to 11000
  146.1568  140.6847  142.9296 LP  0  0  0  0  0  0  0  0  0  0  0  0  # atno 17320 bound_to 7965
  144.7305  140.4657  143.6941 LP  0  0  0  0  0  0  0  0  0  0  0  0  # atno 17321 bound_to 7965
  139.6209  144.0909  152.2390 LP  0  0  0  0  0  0  0  0  0  0  0  0  # atno 17342 bound_to 10162
  140.0353  144.6049  150.7455 LP  0  0  0  0  0  0  0  0  0  0  0  0  # atno 17343 bound_to 10162
  155.9866  130.3973  150.3203 LP  0  0  0  0  0  0  0  0  0  0  0  0  # atno 17370 bound_to 10713
  157.1347  131.0281  151.2954 LP  0  0  0  0  0  0  0  0  0  0  0  0  # atno 17371 bound_to 10713
  141.0754  133.6778  156.2225 LP  0  0  0  0  0  0  0  0  0  0  0  0  # atno 17394 bound_to 11000
  140.6438  134.5138  157.5572 LP  0  0  0  0  0  0  0  0  0  0  0  0  # atno 17395 bound_to 11000

$$$$
