AV-unprocessed.smi:290|AV-procd|sdf|2246|dock9
  -GOLD-   2262022133D 1   1.00000     0.00000
 Structure written by MMmdl.
 59 62  0  0  0  0  0  0  0  0  2 V2000
  152.7963  141.8093  159.7927 C   0  0  0  0  0  0  0  0  0  0  0  0
  151.7621  142.9100  159.5082 C   0  0  1  0  0  0  0  0  0  0  0  0
  152.3168  144.1407  159.9684 O   0  0  0  0  0  0  0  0  0  0  0  0
  151.8676  145.1934  159.1339 C   0  0  0  0  0  0  0  0  0  0  0  0
  151.9039  144.5560  157.7536 C   0  0  0  0  0  0  0  0  0  0  0  0
  151.3865  143.1452  158.0175 C   0  0  2  0  0  0  0  0  0  0  0  0
  149.9714  143.1808  157.9306 O   0  0  0  0  0  0  0  0  0  0  0  0
  151.8988  142.0901  157.0017 C   0  0  0  0  0  0  0  0  0  0  0  0
  151.1673  140.8332  157.0537 N   0  0  0  0  0  0  0  0  0  0  0  0
  151.1185  139.9530  158.1108 C   0  0  0  0  0  0  0  0  0  0  0  0
  150.3880  138.8896  157.9161 N   0  0  0  0  0  0  0  0  0  0  0  0
  149.9009  139.0421  156.6231 C   0  0  0  0  0  0  0  0  0  0  0  0
  149.0556  138.2608  155.7835 C   0  0  0  0  0  0  0  0  0  0  0  0
  148.5030  137.0861  156.1891 N   0  0  0  0  0  0  0  0  0  0  0  0
  147.0426  137.0449  156.2573 C   0  0  0  0  0  0  0  0  0  0  0  0
  146.6107  135.7411  155.5727 C   0  0  0  0  0  0  0  0  0  0  0  0
  147.8531  135.3276  154.7712 C   0  0  2  0  0  0  0  0  0  0  0  0
  147.9143  133.8906  154.3781 N   0  3  2  0  0  0  0  0  0  0  0  0
  149.2258  133.4978  153.8043 C   0  0  0  0  0  0  0  0  0  0  0  0
  146.7614  133.4071  153.5639 C   0  0  0  0  0  0  0  0  0  0  0  0
  146.9292  132.0012  152.9442 C   0  0  0  0  0  0  0  0  0  0  0  0
  147.1506  132.0658  151.5519 O   0  0  0  0  0  0  0  0  0  0  0  0
  148.9890  135.7964  155.7005 C   0  0  2  0  0  0  0  0  0  0  0  0
  149.2666  134.8615  156.8972 C   0  0  0  0  0  0  0  0  0  0  0  0
  148.8072  138.7401  154.5356 N   0  0  0  0  0  0  0  0  0  0  0  0
  149.3378  139.8992  154.1352 C   0  0  0  0  0  0  0  0  0  0  0  0
  150.1331  140.7293  154.8112 N   0  0  0  0  0  0  0  0  0  0  0  0
  150.3914  140.2562  156.0633 C   0  0  0  0  0  0  0  0  0  0  0  0
  147.8933  135.9335  153.8642 H   0  0  0  0  0  0  0  0  0  0  0  0
  149.9142  135.8823  155.1323 H   0  0  0  0  0  0  0  0  0  0  0  0
  152.4342  140.8303  159.4787 H   0  0  0  0  0  0  0  0  0  0  0  0
  153.0097  141.7497  160.8602 H   0  0  0  0  0  0  0  0  0  0  0  0
  153.7397  142.0061  159.2828 H   0  0  0  0  0  0  0  0  0  0  0  0
  150.8680  142.7045  160.0999 H   0  0  0  0  0  0  0  0  0  0  0  0
  150.8514  145.4784  159.4109 H   0  0  0  0  0  0  0  0  0  0  0  0
  152.5086  146.0716  159.2114 H   0  0  0  0  0  0  0  0  0  0  0  0
  151.3294  145.1074  157.0080 H   0  0  0  0  0  0  0  0  0  0  0  0
  152.9398  144.5183  157.4148 H   0  0  0  0  0  0  0  0  0  0  0  0
  149.7310  143.7270  157.1979 H   0  0  0  0  0  0  0  0  0  0  0  0
  151.8288  142.4722  155.9830 H   0  0  0  0  0  0  0  0  0  0  0  0
  152.9534  141.8742  157.1783 H   0  0  0  0  0  0  0  0  0  0  0  0
  151.6418  140.1287  159.0396 H   0  0  0  0  0  0  0  0  0  0  0  0
  146.7031  137.0836  157.2930 H   0  0  0  0  0  0  0  0  0  0  0  0
  146.6058  137.8948  155.7307 H   0  0  0  0  0  0  0  0  0  0  0  0
  146.3710  134.9899  156.3262 H   0  0  0  0  0  0  0  0  0  0  0  0
  145.7256  135.8821  154.9527 H   0  0  0  0  0  0  0  0  0  0  0  0
  149.4805  134.1050  152.9357 H   0  0  0  0  0  0  0  0  0  0  0  0
  149.2197  132.4503  153.5012 H   0  0  0  0  0  0  0  0  0  0  0  0
  150.0279  133.6145  154.5320 H   0  0  0  0  0  0  0  0  0  0  0  0
  145.8968  133.3816  154.2282 H   0  0  0  0  0  0  0  0  0  0  0  0
  146.4997  134.1340  152.7946 H   0  0  0  0  0  0  0  0  0  0  0  0
  147.7201  131.4237  153.4211 H   0  0  0  0  0  0  0  0  0  0  0  0
  146.0086  131.4362  153.0931 H   0  0  0  0  0  0  0  0  0  0  0  0
  147.9996  131.6940  151.3636 H   0  0  0  0  0  0  0  0  0  0  0  0
  149.6144  133.8803  156.5757 H   0  0  0  0  0  0  0  0  0  0  0  0
  148.3845  134.7109  157.5196 H   0  0  0  0  0  0  0  0  0  0  0  0
  150.0442  135.2817  157.5357 H   0  0  0  0  0  0  0  0  0  0  0  0
  149.0884  140.2060  153.1300 H   0  0  0  0  0  0  0  0  0  0  0  0
  147.8404  133.3813  155.2471 H   0  0  0  0  0  0  0  0  0  0  0  0
  1  2  1  0  0  0  0
  1 31  1  0  0  0  0
  1 32  1  0  0  0  0
  1 33  1  0  0  0  0
  2  6  1  0  0  0  0
  2  3  1  0  0  0  0
  2 34  1  0  0  0  0
  3  4  1  0  0  0  0
  4  5  1  0  0  0  0
  4 35  1  0  0  0  0
  4 36  1  0  0  0  0
  5  6  1  0  0  0  0
  5 37  1  0  0  0  0
  5 38  1  0  0  0  0
  6  7  1  0  0  0  0
  6  8  1  0  0  0  0
  7 39  1  0  0  0  0
  8  9  1  0  0  0  0
  8 40  1  0  0  0  0
  8 41  1  0  0  0  0
  9 28  1  0  0  0  0
  9 10  1  0  0  0  0
 10 11  2  0  0  0  0
 10 42  1  0  0  0  0
 11 12  1  0  0  0  0
 12 28  2  0  0  0  0
 12 13  1  0  0  0  0
 13 14  1  0  0  0  0
 13 25  2  0  0  0  0
 14 23  1  0  0  0  0
 14 15  1  0  0  0  0
 15 16  1  0  0  0  0
 15 43  1  0  0  0  0
 15 44  1  0  0  0  0
 16 17  1  0  0  0  0
 16 45  1  0  0  0  0
 16 46  1  0  0  0  0
 17 29  1  0  0  0  0
 17 18  1  0  0  0  0
 17 23  1  0  0  0  0
 18 19  1  0  0  0  0
 18 20  1  0  0  0  0
 18 59  1  0  0  0  0
 19 47  1  0  0  0  0
 19 48  1  0  0  0  0
 19 49  1  0  0  0  0
 20 21  1  0  0  0  0
 20 50  1  0  0  0  0
 20 51  1  0  0  0  0
 21 22  1  0  0  0  0
 21 52  1  0  0  0  0
 21 53  1  0  0  0  0
 22 54  1  0  0  0  0
 23 30  1  0  0  0  0
 23 24  1  0  0  0  0
 24 55  1  0  0  0  0
 24 56  1  0  0  0  0
 24 57  1  0  0  0  0
 25 26  1  0  0  0  0
 26 27  2  0  0  0  0
 26 58  1  0  0  0  0
 27 28  1  0  0  0  0
M  CHG  1  18   1
M  END
> <s_m_source_file>
AV-unprocessed.smi

> <i_m_source_file_index>
290

> <i_lp_mmshare_version>
43012

> <i_f3d_flags>
0

> <s_epik_input>
W0NIMl0xW0NIMl1PW0NAQEhdKFtDSDNdKVtDQEBdMShbT0hdKVtDSDJdbihbY0hdbjIpYyhjMjMpbltjSF1uYzNONFtDSDJdW0NIMl1bQ0BIXShbQ0BIXTRbQ0gzXSlOKFtDSDNdKVtDSDJdW0NIMl1bT0hd

> <s_epik_cmdline>
J2VwaWtfcHl0aG9uJywgJy1waCcsICc3LjAnLCAnLXRuJywgJzgnLCAnLW1hJywgJzIwMCcsICctbWV0YWxfYmluZGluZycsICctaW1hZScsICc8aW5maWxlLm1hZT4nLCAnLW9tYWUnLCAnPG91dGZpbGUubWFlPic=

> <r_lp_tautomer_probability>
1

> <r_epik_Ionization_Penalty>
0.0036983

> <r_epik_Ionization_Penalty_Charging>
0.0032725

> <r_epik_Ionization_Penalty_Neutral>
0.000425798

> <r_epik_State_Penalty>
-0

> <r_epik_Charging_Adjusted_Penalty>
0.0032725

> <i_epik_Tot_Q>
1

> <i_epik_Tot_abs_Q>
1

> <r_epik_Metal_State_Penalty>
-0

> <b_epik_Metal_Only>
0

> <s_lp_Force_Field>
OPLS_2005

> <r_lp_Energy>
63.8525

> <b_lp_Chiralities_Consistent>
1

> <s_lp_Variant>
AV-unprocessed.smi:290-32

> <Gold.Version>
5.8.1

> <Gold.Id.Protein>
6NUR|6NUR_protein|mol2

> <Gold.PLP.Fitness>
46.6676

> <Gold.PLP.PLP>
-36.4219

> <Gold.PLP.part.hbond>
-3.0000

> <Gold.PLP.part.metal>
0.0000

> <Gold.PLP.part.buried>
-5.7804

> <Gold.PLP.part.nonpolar>
-27.8873

> <Gold.PLP.part.repulsive>
0.3059

> <Gold.PLP.ligand.clash>
0.0000

> <Gold.PLP.ligand.torsion>
0.8489

> <Gold.PLP.Chemscore.Hbond>
2.8160

> <Gold.PLP.Chemscore.CHOScore>
1.0000

> <Gold.PLP.Chemscore.Metal>
0.0000

> <Gold.Chemscore.Hbonds>
donor molecule, donor type, donor heavy atom, donor atom, acceptor molecule, acceptor atom, score
      L1  H     7    39       P1  8028  1.00
      L1  H    22    54       P1 10747  0.96
      P1  H  7989  7998       L1    27  0.78
      L1  C    26    58       P1  7957  1.00

> <Gold.PLP.Chemscore.Internal.Correction>
0.4956

> <Gold.Rescore>
     Score         DG    S(hbond)    S(metal)    S(lipo)     H(rot)  DE(clash)    DE(int)     intcor
     11.07     -14.70       2.44        0.00      89.40       3.67       1.64       1.99       ----

> <Gold.Chemscore.Fitness>
11.0724

> <Gold.Chemscore.DG>
-14.7024

> <Gold.Chemscore.ZeroCoef>
-5.4800

> <Gold.Chemscore.Hbond>
2.4392

> <Gold.Chemscore.Metal>
0.0000

> <Gold.Chemscore.Lipo>
89.4009

> <Gold.Chemscore.Internal_Hbond>
0.0000

> <Gold.Chemscore.DEClash>
1.6380

> <Gold.Chemscore.DEInternal>
1.9920

> <Gold.Chemscore.Rot>
3.6658

> <Gold.Chemscore.Internal.Correction>
   9.000000E+99

> <Gold.Chemscore.Hbonds>
donor molecule, donor type, donor heavy atom, donor atom, acceptor molecule, acceptor atom, score
      L1  H     7    39       P1  8028  0.82
      L1  H    22    54       P1 10747  0.92
      P1  H  7989  7998       L1    27  0.17

> <Gold.Chemscore.Hbond.Weighted>
-8.1469

> <Gold.Chemscore.Metal.Weighted>
-0.0000

> <Gold.Chemscore.Lipo.Weighted>
-10.4599

> <Gold.Chemscore.Internal_Hbond.Weighted>
0.0000

> <Gold.Chemscore.DEClash.Weighted>
1.6380

> <Gold.Chemscore.DEInternal.Weighted>
1.9920

> <Gold.Chemscore.Rot.Weighted>
9.3844

> <Gold.Chemscore.Internal.Correction.Weighted>
   9.000000E+99

> <Gold.Protein.RotatedTorsions>
[ 6907 6896 6895 6894 ] final   22.49 input  -60.11 | X-H torsion
[ 7974 7965 7964 7962 ] final  154.53 input  175.53 | X-H torsion
[ 8008 7997 7996 7995 ] final  166.39 input   59.86 | X-H torsion
[ 10167 10162 10161 10158 ] final -155.62 input  -65.29 | X-H torsion
[ 10718 10713 10712 10709 ] final  -92.58 input   66.30 | X-H torsion
[ 10763 10752 10751 10750 ] final  168.54 input  -60.55 | X-H torsion
[ 11005 11000 10999 10996 ] final -179.25 input  -57.11 | X-H torsion

> <Gold.Protein.ActiveResidues>
 VAL166  LYS551  ARG553  GLY616  TRP617  ASP618  TYR619  PRO620  LYS621  CYS622 
 ASP623  PHE694  ASN695  SER759  ASP760  ASP761  ALA762  ILE779  LEU786  VAL792 
 PHE793  MET794  SER795  GLU796  ALA797  LYS798  CYS799  TRP800  GLU811  SER814 

> <Gold.Protein.RotatedAtoms>
  151.9278  135.0270  160.0526 H   0  0  0  0  0  0  0  0  0  0  0  0  # atno 6907 bound_to 6896
  152.2144  133.4931  159.5136 H   0  0  0  0  0  0  0  0  0  0  0  0  # atno 6908 bound_to 6896
  150.6984  134.1342  159.4123 H   0  0  0  0  0  0  0  0  0  0  0  0  # atno 6909 bound_to 6896
  144.8083  139.6946  143.6152 H   0  0  0  0  0  0  0  0  0  0  0  0  # atno 7974 bound_to 7965
  156.1722  140.1644  156.8427 H   0  0  0  0  0  0  0  0  0  0  0  0  # atno 8008 bound_to 7997
  154.5269  140.0765  156.8308 H   0  0  0  0  0  0  0  0  0  0  0  0  # atno 8009 bound_to 7997
  155.3488  140.3389  155.4241 H   0  0  0  0  0  0  0  0  0  0  0  0  # atno 8010 bound_to 7997
  139.6916  143.9410  152.2388 H   0  0  0  0  0  0  0  0  0  0  0  0  # atno 10167 bound_to 10162
  156.0004  130.4993  150.5647 H   0  0  0  0  0  0  0  0  0  0  0  0  # atno 10718 bound_to 10713
  154.3701  135.2753  155.2271 H   0  0  0  0  0  0  0  0  0  0  0  0  # atno 10763 bound_to 10752
  154.4422  135.5951  153.6140 H   0  0  0  0  0  0  0  0  0  0  0  0  # atno 10764 bound_to 10752
  152.9839  135.6021  154.3931 H   0  0  0  0  0  0  0  0  0  0  0  0  # atno 10765 bound_to 10752
  140.4208  134.6608  157.4663 H   0  0  0  0  0  0  0  0  0  0  0  0  # atno 11005 bound_to 11000
  146.2377  139.5939  142.9512 LP  0  0  0  0  0  0  0  0  0  0  0  0  # atno 17320 bound_to 7965
  145.5386  141.0422  143.2343 LP  0  0  0  0  0  0  0  0  0  0  0  0  # atno 17321 bound_to 7965
  139.9228  144.6789  150.8443 LP  0  0  0  0  0  0  0  0  0  0  0  0  # atno 17342 bound_to 10162
  140.7684  143.3363  151.2303 LP  0  0  0  0  0  0  0  0  0  0  0  0  # atno 17343 bound_to 10162
  157.3551  131.0740  151.1682 LP  0  0  0  0  0  0  0  0  0  0  0  0  # atno 17370 bound_to 10713
  157.2485  130.6603  149.5921 LP  0  0  0  0  0  0  0  0  0  0  0  0  # atno 17371 bound_to 10713
  140.0202  134.6559  155.9251 LP  0  0  0  0  0  0  0  0  0  0  0  0  # atno 17394 bound_to 11000
  141.1785  133.6543  156.4923 LP  0  0  0  0  0  0  0  0  0  0  0  0  # atno 17395 bound_to 11000

$$$$
