AV-unprocessed.smi:261|AV-procd|sdf|1987|dock5
  -GOLD-   2262021163D 1   1.00000     0.00000
 Structure written by MMmdl.
 51 54  0  0  0  0  0  0  0  0  1 V2000
  152.4657  131.5311  156.4912 C   0  0  0  0  0  0  0  0  0  0  0  0
  151.8889  132.6511  157.1428 O   0  0  0  0  0  0  0  0  0  0  0  0
  151.5938  133.7248  156.2619 C   0  0  1  0  0  0  0  0  0  0  0  0
  150.4221  133.3752  155.3531 C   0  0  0  0  0  0  0  0  0  0  0  0
  149.9150  134.7509  154.8992 C   0  0  1  0  0  0  0  0  0  0  0  0
  148.4364  134.7113  154.4871 C   0  0  0  0  0  0  0  0  0  0  0  0
  147.8801  135.8720  154.1329 N   0  0  0  0  0  0  0  0  0  0  0  0
  147.8076  133.6542  154.4723 O   0  0  0  0  0  0  0  0  0  0  0  0
  150.1454  135.6189  156.0577 N   0  0  0  0  0  0  0  0  0  0  0  0
  150.3975  136.9138  155.7646 C   0  0  0  0  0  0  0  0  0  0  0  0
  150.4110  137.2631  154.4553 N   0  0  0  0  0  0  0  0  0  0  0  0
  150.6598  138.5289  154.1051 C   0  0  0  0  0  0  0  0  0  0  0  0
  150.9157  139.5786  154.8899 N   0  0  0  0  0  0  0  0  0  0  0  0
  150.9052  139.2263  156.2078 C   0  0  0  0  0  0  0  0  0  0  0  0
  150.6579  137.9264  156.7302 C   0  0  0  0  0  0  0  0  0  0  0  0
  150.7349  137.9484  158.1179 N   0  0  0  0  0  0  0  0  0  0  0  0
  151.0122  139.1923  158.4000 C   0  0  0  0  0  0  0  0  0  0  0  0
  151.1322  140.0275  157.3126 N   0  0  0  0  0  0  0  0  0  0  0  0
  151.4371  141.4470  157.3387 C   0  0  0  0  0  0  0  0  0  0  0  0
  151.8691  141.9326  158.7365 C   0  0  1  0  0  0  0  0  0  0  0  0
  153.2094  141.5467  158.9755 O   0  0  0  0  0  0  0  0  0  0  0  0
  151.7583  143.4618  158.8779 C   0  0  2  0  0  0  0  0  0  0  0  0
  152.5075  144.0469  160.0744 C   0  0  0  0  0  0  0  0  0  0  0  0
  151.8026  145.3718  160.3061 C   0  0  0  0  0  0  0  0  0  0  0  0
  150.4334  145.1806  159.6464 C   0  0  0  0  0  0  0  0  0  0  0  0
  150.4215  143.8417  159.1664 O   0  0  0  0  0  0  0  0  0  0  0  0
  151.0841  134.9803  156.9761 C   0  0  0  0  0  0  0  0  0  0  0  0
  152.4589  133.9673  155.6415 H   0  0  0  0  0  0  0  0  0  0  0  0
  150.5162  135.0893  154.0525 H   0  0  0  0  0  0  0  0  0  0  0  0
  152.6435  130.7386  157.2179 H   0  0  0  0  0  0  0  0  0  0  0  0
  153.4223  131.7830  156.0324 H   0  0  0  0  0  0  0  0  0  0  0  0
  151.8007  131.1375  155.7214 H   0  0  0  0  0  0  0  0  0  0  0  0
  150.7182  132.7383  154.5190 H   0  0  0  0  0  0  0  0  0  0  0  0
  149.6565  132.8464  155.9244 H   0  0  0  0  0  0  0  0  0  0  0  0
  146.9108  135.9029  153.8523 H   0  0  0  0  0  0  0  0  0  0  0  0
  148.4337  136.7163  154.1466 H   0  0  0  0  0  0  0  0  0  0  0  0
  150.6529  138.7293  153.0439 H   0  0  0  0  0  0  0  0  0  0  0  0
  151.1406  139.5375  159.4156 H   0  0  0  0  0  0  0  0  0  0  0  0
  152.2170  141.6518  156.6042 H   0  0  0  0  0  0  0  0  0  0  0  0
  150.5506  141.9890  157.0075 H   0  0  0  0  0  0  0  0  0  0  0  0
  151.2445  141.4542  159.4921 H   0  0  0  0  0  0  0  0  0  0  0  0
  153.4330  140.8514  158.3759 H   0  0  0  0  0  0  0  0  0  0  0  0
  152.0770  143.9578  157.9589 H   0  0  0  0  0  0  0  0  0  0  0  0
  152.3810  143.4063  160.9480 H   0  0  0  0  0  0  0  0  0  0  0  0
  153.5762  144.1617  159.8922 H   0  0  0  0  0  0  0  0  0  0  0  0
  151.7220  145.6039  161.3683 H   0  0  0  0  0  0  0  0  0  0  0  0
  152.3420  146.1873  159.8233 H   0  0  0  0  0  0  0  0  0  0  0  0
  149.6105  145.3432  160.3426 H   0  0  0  0  0  0  0  0  0  0  0  0
  150.3110  145.8683  158.8087 H   0  0  0  0  0  0  0  0  0  0  0  0
  150.5268  134.7059  157.8725 H   0  0  0  0  0  0  0  0  0  0  0  0
  151.9048  135.6265  157.2920 H   0  0  0  0  0  0  0  0  0  0  0  0
  1  2  1  0  0  0  0
  1 30  1  0  0  0  0
  1 31  1  0  0  0  0
  1 32  1  0  0  0  0
  2  3  1  0  0  0  0
  3 28  1  0  0  0  0
  3 27  1  0  0  0  0
  3  4  1  0  0  0  0
  4  5  1  0  0  0  0
  4 33  1  0  0  0  0
  4 34  1  0  0  0  0
  5 29  1  0  0  0  0
  5  6  1  0  0  0  0
  5  9  1  0  0  0  0
  6  7  1  0  0  0  0
  6  8  2  0  0  0  0
  7 35  1  0  0  0  0
  7 36  1  0  0  0  0
  9 10  1  0  0  0  0
  9 27  1  0  0  0  0
 10 15  1  0  0  0  0
 10 11  2  0  0  0  0
 11 12  1  0  0  0  0
 12 13  2  0  0  0  0
 12 37  1  0  0  0  0
 13 14  1  0  0  0  0
 14 18  1  0  0  0  0
 14 15  2  0  0  0  0
 15 16  1  0  0  0  0
 16 17  2  0  0  0  0
 17 18  1  0  0  0  0
 17 38  1  0  0  0  0
 18 19  1  0  0  0  0
 19 20  1  0  0  0  0
 19 39  1  0  0  0  0
 19 40  1  0  0  0  0
 20 21  1  0  0  0  0
 20 22  1  0  0  0  0
 20 41  1  0  0  0  0
 21 42  1  0  0  0  0
 22 26  1  0  0  0  0
 22 23  1  0  0  0  0
 22 43  1  0  0  0  0
 23 24  1  0  0  0  0
 23 44  1  0  0  0  0
 23 45  1  0  0  0  0
 24 25  1  0  0  0  0
 24 46  1  0  0  0  0
 24 47  1  0  0  0  0
 25 26  1  0  0  0  0
 25 48  1  0  0  0  0
 25 49  1  0  0  0  0
 27 50  1  0  0  0  0
 27 51  1  0  0  0  0
M  END
> <s_m_source_file>
AV-unprocessed.smi

> <i_m_source_file_index>
261

> <i_lp_mmshare_version>
43012

> <i_f3d_flags>
0

> <s_epik_input>
W0NIM11PW0NASF0xW0NIMl1bQ0BASF0oQyg9TylbTkgyXSlOKFtDSDJdMSljKG5bY0hdbjIpYyhjMjMpbltjSF1uM1tDSDJdW0NASF0oW09IXSlbQ0BASF00W0NIMl1bQ0gyXVtDSDJdTzQ=

> <s_epik_cmdline>
J2VwaWtfcHl0aG9uJywgJy1waCcsICc3LjAnLCAnLXRuJywgJzgnLCAnLW1hJywgJzIwMCcsICctbWV0YWxfYmluZGluZycsICctaW1hZScsICc8aW5maWxlLm1hZT4nLCAnLW9tYWUnLCAnPG91dGZpbGUubWFlPic=

> <r_lp_tautomer_probability>
1

> <r_epik_Ionization_Penalty>
0.000713824

> <r_epik_Ionization_Penalty_Charging>
0

> <r_epik_Ionization_Penalty_Neutral>
0.000713824

> <r_epik_State_Penalty>
0.000402132

> <r_epik_Charging_Adjusted_Penalty>
0.000402132

> <i_epik_Tot_Q>
0

> <i_epik_Tot_abs_Q>
0

> <r_epik_Metal_State_Penalty>
-0

> <b_epik_Metal_Only>
0

> <s_lp_Force_Field>
OPLS_2005

> <r_lp_Energy>
45.3763

> <b_lp_Chiralities_Consistent>
1

> <s_lp_Variant>
AV-unprocessed.smi:261-5

> <Gold.Version>
5.8.1

> <Gold.Id.Protein>
6NUR|6NUR_protein|mol2

> <Gold.PLP.Fitness>
43.5369

> <Gold.PLP.PLP>
-35.8510

> <Gold.PLP.part.hbond>
-2.9153

> <Gold.PLP.part.metal>
0.0000

> <Gold.PLP.part.buried>
-4.5510

> <Gold.PLP.part.nonpolar>
-29.6960

> <Gold.PLP.part.repulsive>
0.8507

> <Gold.PLP.ligand.clash>
0.0000

> <Gold.PLP.ligand.torsion>
0.7372

> <Gold.PLP.Chemscore.Hbond>
2.0000

> <Gold.PLP.Chemscore.CHOScore>
1.0000

> <Gold.PLP.Chemscore.Metal>
0.0000

> <Gold.Chemscore.Hbonds>
donor molecule, donor type, donor heavy atom, donor atom, acceptor molecule, acceptor atom, score
      P1  H  6896  6908       L1     2  0.32
      P1  H  7989  7998       L1    13  0.95
      L1  C    12    37       P1  7957  1.00

> <Gold.PLP.Chemscore.Internal.Correction>
0.1602

> <Gold.Rescore>
     Score         DG    S(hbond)    S(metal)    S(lipo)     H(rot)  DE(clash)    DE(int)     intcor
      7.28     -12.55       1.72        0.00      89.55       3.57       2.91       2.36       ----

> <Gold.Chemscore.Fitness>
7.2819

> <Gold.Chemscore.DG>
-12.5514

> <Gold.Chemscore.ZeroCoef>
-5.4800

> <Gold.Chemscore.Hbond>
1.7197

> <Gold.Chemscore.Metal>
0.0000

> <Gold.Chemscore.Lipo>
89.5461

> <Gold.Chemscore.Internal_Hbond>
0.0000

> <Gold.Chemscore.DEClash>
2.9064

> <Gold.Chemscore.DEInternal>
2.3631

> <Gold.Chemscore.Rot>
3.5740

> <Gold.Chemscore.Internal.Correction>
   9.000000E+99

> <Gold.Chemscore.Hbonds>
donor molecule, donor type, donor heavy atom, donor atom, acceptor molecule, acceptor atom, score
      P1  H  6896  6908       L1     2  0.16
      P1  H  7989  7998       L1    13  0.20

> <Gold.Chemscore.Hbond.Weighted>
-5.7439

> <Gold.Chemscore.Metal.Weighted>
-0.0000

> <Gold.Chemscore.Lipo.Weighted>
-10.4769

> <Gold.Chemscore.Internal_Hbond.Weighted>
0.0000

> <Gold.Chemscore.DEClash.Weighted>
2.9064

> <Gold.Chemscore.DEInternal.Weighted>
2.3631

> <Gold.Chemscore.Rot.Weighted>
9.1495

> <Gold.Chemscore.Internal.Correction.Weighted>
   9.000000E+99

> <Gold.Protein.RotatedTorsions>
[ 6907 6896 6895 6894 ] final   84.84 input  -60.11 | X-H torsion
[ 7974 7965 7964 7962 ] final  -61.83 input  175.53 | X-H torsion
[ 8008 7997 7996 7995 ] final   39.00 input   59.86 | X-H torsion
[ 10167 10162 10161 10158 ] final   20.53 input  -65.29 | X-H torsion
[ 10718 10713 10712 10709 ] final   20.22 input   66.30 | X-H torsion
[ 10763 10752 10751 10750 ] final -144.35 input  -60.55 | X-H torsion
[ 11005 11000 10999 10996 ] final   93.40 input  -57.11 | X-H torsion

> <Gold.Protein.ActiveResidues>
 VAL166  LYS551  ARG553  GLY616  TRP617  ASP618  TYR619  PRO620  LYS621  CYS622 
 ASP623  PHE694  ASN695  SER759  ASP760  ASP761  ALA762  ILE779  LEU786  VAL792 
 PHE793  MET794  SER795  GLU796  ALA797  LYS798  CYS799  TRP800  GLU811  SER814 

> <Gold.Protein.RotatedAtoms>
  152.5361  134.2679  159.8959 H   0  0  0  0  0  0  0  0  0  0  0  0  # atno 6907 bound_to 6896
  151.2636  133.4283  159.2625 H   0  0  0  0  0  0  0  0  0  0  0  0  # atno 6908 bound_to 6896
  151.0430  134.9635  159.8228 H   0  0  0  0  0  0  0  0  0  0  0  0  # atno 6909 bound_to 6896
  145.7987  140.8668  143.0243 H   0  0  0  0  0  0  0  0  0  0  0  0  # atno 7974 bound_to 7965
  155.2295  140.3337  155.4305 H   0  0  0  0  0  0  0  0  0  0  0  0  # atno 8008 bound_to 7997
  156.2301  140.1846  156.7311 H   0  0  0  0  0  0  0  0  0  0  0  0  # atno 8009 bound_to 7997
  154.5963  140.0630  156.9293 H   0  0  0  0  0  0  0  0  0  0  0  0  # atno 8010 bound_to 7997
  140.5497  143.9532  150.6570 H   0  0  0  0  0  0  0  0  0  0  0  0  # atno 10167 bound_to 10162
  157.1215  130.6552  149.5925 H   0  0  0  0  0  0  0  0  0  0  0  0  # atno 10718 bound_to 10713
  154.8432  135.3443  154.6332 H   0  0  0  0  0  0  0  0  0  0  0  0  # atno 10763 bound_to 10752
  153.6942  135.6973  153.5086 H   0  0  0  0  0  0  0  0  0  0  0  0  # atno 10764 bound_to 10752
  153.2572  135.4334  155.0812 H   0  0  0  0  0  0  0  0  0  0  0  0  # atno 10765 bound_to 10752
  139.8810  134.8787  156.3712 H   0  0  0  0  0  0  0  0  0  0  0  0  # atno 11005 bound_to 11000
  144.6771  140.0227  143.7483 LP  0  0  0  0  0  0  0  0  0  0  0  0  # atno 17320 bound_to 7965
  145.9901  139.3008  143.0990 LP  0  0  0  0  0  0  0  0  0  0  0  0  # atno 17321 bound_to 7965
  140.2954  143.3296  152.1022 LP  0  0  0  0  0  0  0  0  0  0  0  0  # atno 17342 bound_to 10162
  139.5022  144.6730  151.6198 LP  0  0  0  0  0  0  0  0  0  0  0  0  # atno 17343 bound_to 10162
  155.9827  130.4843  150.6897 LP  0  0  0  0  0  0  0  0  0  0  0  0  # atno 17370 bound_to 10713
  157.4472  131.0868  151.0883 LP  0  0  0  0  0  0  0  0  0  0  0  0  # atno 17371 bound_to 10713
  140.9463  133.7481  156.0212 LP  0  0  0  0  0  0  0  0  0  0  0  0  # atno 17394 bound_to 11000
  140.8159  134.3345  157.5397 LP  0  0  0  0  0  0  0  0  0  0  0  0  # atno 17395 bound_to 11000

$$$$
