AV-unprocessed.smi:532|AV-procd|sdf|2848|dock2
  -GOLD-   2262023333D 1   1.00000     0.00000
 Structure written by MMmdl.
 49 51  0  0  0  0  0  0  0  0  1 V2000
  152.2901  138.1752  159.0926 C   0  0  0  0  0  0  0  0  0  0  0  0
  151.4627  137.8788  157.9814 O   0  0  0  0  0  0  0  0  0  0  0  0
  152.1853  137.8345  156.7631 C   0  0  0  0  0  0  0  0  0  0  0  0
  152.5490  139.2713  156.3548 C   0  0  0  0  0  0  0  0  0  0  0  0
  151.3700  140.0974  156.1121 N   0  0  0  0  0  0  0  0  0  0  0  0
  150.9868  141.2677  156.7040 C   0  0  0  0  0  0  0  0  0  0  0  0
  151.7333  141.9247  157.6936 N   0  0  0  0  0  0  0  0  0  0  0  0
  151.6802  143.3738  157.9020 C   0  0  0  0  0  0  0  0  0  0  0  0
  151.3907  143.7348  159.3724 C   0  0  2  0  0  0  0  0  0  0  0  0
  151.2832  145.2534  159.5660 C   0  0  0  0  0  0  0  0  0  0  0  0
  152.4679  143.1253  160.2847 C   0  0  0  0  0  0  0  0  0  0  0  0
  152.6107  141.6197  160.0105 C   0  0  2  0  0  0  0  0  0  0  0  0
  153.7394  140.9965  160.8423 C   0  0  0  0  0  0  0  0  0  0  0  0
  152.8299  141.3861  158.5020 C   0  0  0  0  0  0  0  0  0  0  0  0
  149.8056  141.7296  156.2792 N   0  0  0  0  0  0  0  0  0  0  0  0
  149.4095  140.7971  155.3359 C   0  0  0  0  0  0  0  0  0  0  0  0
  150.3289  139.8067  155.2262 C   0  0  0  0  0  0  0  0  0  0  0  0
  150.1476  138.6657  154.3168 C   0  0  0  0  0  0  0  0  0  0  0  0
  150.9540  137.7440  154.2133 O   0  0  0  0  0  0  0  0  0  0  0  0
  148.9972  138.7303  153.6036 N   0  0  0  0  0  0  0  0  0  0  0  0
  148.0371  139.7027  153.6604 C   0  0  0  0  0  0  0  0  0  0  0  0
  147.0410  139.6267  152.9414 O   0  0  0  0  0  0  0  0  0  0  0  0
  148.2331  140.7403  154.5353 N   0  0  0  0  0  0  0  0  0  0  0  0
  147.2362  141.8074  154.6416 C   0  0  0  0  0  0  0  0  0  0  0  0
  148.8278  137.9728  152.9580 H   0  0  0  0  0  0  0  0  0  0  0  0
  151.6890  138.1975  160.0016 H   0  0  0  0  0  0  0  0  0  0  0  0
  152.7665  139.1501  158.9805 H   0  0  0  0  0  0  0  0  0  0  0  0
  153.0658  137.4190  159.2199 H   0  0  0  0  0  0  0  0  0  0  0  0
  153.0800  137.2238  156.8840 H   0  0  0  0  0  0  0  0  0  0  0  0
  151.5809  137.3575  155.9912 H   0  0  0  0  0  0  0  0  0  0  0  0
  153.1491  139.7404  157.1343 H   0  0  0  0  0  0  0  0  0  0  0  0
  153.1872  139.2749  155.4754 H   0  0  0  0  0  0  0  0  0  0  0  0
  152.6222  143.8191  157.5783 H   0  0  0  0  0  0  0  0  0  0  0  0
  150.9043  143.8094  157.2716 H   0  0  0  0  0  0  0  0  0  0  0  0
  150.4277  143.2988  159.6431 H   0  0  0  0  0  0  0  0  0  0  0  0
  152.2175  145.7527  159.3074 H   0  0  0  0  0  0  0  0  0  0  0  0
  151.0484  145.5011  160.6015 H   0  0  0  0  0  0  0  0  0  0  0  0
  150.4964  145.6739  158.9394 H   0  0  0  0  0  0  0  0  0  0  0  0
  153.4229  143.6225  160.1083 H   0  0  0  0  0  0  0  0  0  0  0  0
  152.2156  143.2954  161.3319 H   0  0  0  0  0  0  0  0  0  0  0  0
  151.6796  141.1355  160.3063 H   0  0  0  0  0  0  0  0  0  0  0  0
  154.7055  141.4359  160.5921 H   0  0  0  0  0  0  0  0  0  0  0  0
  153.8062  139.9222  160.6674 H   0  0  0  0  0  0  0  0  0  0  0  0
  153.5705  141.1469  161.9089 H   0  0  0  0  0  0  0  0  0  0  0  0
  152.9739  140.3292  158.3019 H   0  0  0  0  0  0  0  0  0  0  0  0
  153.7590  141.8643  158.1880 H   0  0  0  0  0  0  0  0  0  0  0  0
  146.2460  141.3951  154.8402 H   0  0  0  0  0  0  0  0  0  0  0  0
  147.1884  142.3750  153.7114 H   0  0  0  0  0  0  0  0  0  0  0  0
  147.4589  142.5101  155.4442 H   0  0  0  0  0  0  0  0  0  0  0  0
  1  2  1  0  0  0  0
  1 26  1  0  0  0  0
  1 27  1  0  0  0  0
  1 28  1  0  0  0  0
  2  3  1  0  0  0  0
  3  4  1  0  0  0  0
  3 29  1  0  0  0  0
  3 30  1  0  0  0  0
  4  5  1  0  0  0  0
  4 31  1  0  0  0  0
  4 32  1  0  0  0  0
  5 17  1  0  0  0  0
  5  6  1  0  0  0  0
  6  7  1  0  0  0  0
  6 15  2  0  0  0  0
  7 14  1  0  0  0  0
  7  8  1  0  0  0  0
  8  9  1  0  0  0  0
  8 33  1  0  0  0  0
  8 34  1  0  0  0  0
  9 10  1  0  0  0  0
  9 11  1  0  0  0  0
  9 35  1  0  0  0  0
 10 36  1  0  0  0  0
 10 37  1  0  0  0  0
 10 38  1  0  0  0  0
 11 12  1  0  0  0  0
 11 39  1  0  0  0  0
 11 40  1  0  0  0  0
 12 13  1  0  0  0  0
 12 14  1  0  0  0  0
 12 41  1  0  0  0  0
 13 42  1  0  0  0  0
 13 43  1  0  0  0  0
 13 44  1  0  0  0  0
 14 45  1  0  0  0  0
 14 46  1  0  0  0  0
 15 16  1  0  0  0  0
 16 23  1  0  0  0  0
 16 17  2  0  0  0  0
 17 18  1  0  0  0  0
 18 19  2  0  0  0  0
 18 20  1  0  0  0  0
 20 25  1  0  0  0  0
 20 21  1  0  0  0  0
 21 22  2  0  0  0  0
 21 23  1  0  0  0  0
 23 24  1  0  0  0  0
 24 47  1  0  0  0  0
 24 48  1  0  0  0  0
 24 49  1  0  0  0  0
M  END
> <s_m_source_file>
AV-unprocessed.smi

> <i_m_source_file_index>
532

> <i_lp_mmshare_version>
43012

> <i_f3d_flags>
0

> <s_epik_input>
W0NIM11uMWMoPU8pW25IXWMoPU8pYyhjMTIpbihbQ0gyXVtDSDJdT1tDSDNdKWMobjIpTjNbQ0gyXVtDQEBIXShbQ0gzXSlbQ0gyXVtDQEBIXShbQ0gzXSlbQ0gyXTM=

> <s_epik_cmdline>
J2VwaWtfcHl0aG9uJywgJy1waCcsICc3LjAnLCAnLXRuJywgJzgnLCAnLW1hJywgJzIwMCcsICctbWV0YWxfYmluZGluZycsICctaW1hZScsICc8aW5maWxlLm1hZT4nLCAnLW9tYWUnLCAnPG91dGZpbGUubWFlPic=

> <r_lp_tautomer_probability>
1

> <r_epik_Ionization_Penalty>
0.000642525

> <r_epik_Ionization_Penalty_Charging>
0.000121571

> <r_epik_Ionization_Penalty_Neutral>
0.000520954

> <r_epik_State_Penalty>
-0

> <r_epik_Charging_Adjusted_Penalty>
0.000121571

> <i_epik_Tot_Q>
0

> <i_epik_Tot_abs_Q>
0

> <r_epik_Metal_State_Penalty>
0.0931709

> <b_epik_Metal_Only>
0

> <s_lp_Force_Field>
OPLS_2005

> <r_lp_Energy>
38.055

> <b_lp_Chiralities_Consistent>
1

> <s_lp_Variant>
AV-unprocessed.smi:532-1

> <Gold.Version>
5.8.1

> <Gold.Id.Protein>
6NUR|6NUR_protein|mol2

> <Gold.PLP.Fitness>
48.2506

> <Gold.PLP.PLP>
-45.8091

> <Gold.PLP.part.hbond>
-2.0000

> <Gold.PLP.part.metal>
0.0000

> <Gold.PLP.part.buried>
-5.1993

> <Gold.PLP.part.nonpolar>
-40.7077

> <Gold.PLP.part.repulsive>
1.6245

> <Gold.PLP.ligand.clash>
0.0000

> <Gold.PLP.ligand.torsion>
0.2974

> <Gold.PLP.Chemscore.Hbond>
0.9913

> <Gold.PLP.Chemscore.CHOScore>
0.0000

> <Gold.PLP.Chemscore.Metal>
0.0000

> <Gold.Chemscore.Hbonds>
donor molecule, donor type, donor heavy atom, donor atom, acceptor molecule, acceptor atom, score
      L1  H    20    25       P1  7948  0.99

> <Gold.PLP.Chemscore.Internal.Correction>
0.0625

> <Gold.Rescore>
     Score         DG    S(hbond)    S(metal)    S(lipo)     H(rot)  DE(clash)    DE(int)     intcor
     13.88     -17.28       1.08        0.00     101.40       1.43       0.99       2.41       ----

> <Gold.Chemscore.Fitness>
13.8759

> <Gold.Chemscore.DG>
-17.2778

> <Gold.Chemscore.ZeroCoef>
-5.4800

> <Gold.Chemscore.Hbond>
1.0783

> <Gold.Chemscore.Metal>
0.0000

> <Gold.Chemscore.Lipo>
101.3954

> <Gold.Chemscore.Internal_Hbond>
0.0000

> <Gold.Chemscore.DEClash>
0.9914

> <Gold.Chemscore.DEInternal>
2.4105

> <Gold.Chemscore.Rot>
1.4324

> <Gold.Chemscore.Internal.Correction>
   9.000000E+99

> <Gold.Chemscore.Hbonds>
donor molecule, donor type, donor heavy atom, donor atom, acceptor molecule, acceptor atom, score
      L1  H    20    25       P1  7948  0.92

> <Gold.Chemscore.Hbond.Weighted>
-3.6014

> <Gold.Chemscore.Metal.Weighted>
-0.0000

> <Gold.Chemscore.Lipo.Weighted>
-11.8633

> <Gold.Chemscore.Internal_Hbond.Weighted>
0.0000

> <Gold.Chemscore.DEClash.Weighted>
0.9914

> <Gold.Chemscore.DEInternal.Weighted>
2.4105

> <Gold.Chemscore.Rot.Weighted>
3.6669

> <Gold.Chemscore.Internal.Correction.Weighted>
   9.000000E+99

> <Gold.Protein.RotatedTorsions>
[ 6907 6896 6895 6894 ] final  -16.46 input  -60.11 | X-H torsion
[ 7974 7965 7964 7962 ] final  117.88 input  175.53 | X-H torsion
[ 8008 7997 7996 7995 ] final  108.11 input   59.86 | X-H torsion
[ 10167 10162 10161 10158 ] final  -33.85 input  -65.29 | X-H torsion
[ 10718 10713 10712 10709 ] final  135.12 input   66.30 | X-H torsion
[ 10763 10752 10751 10750 ] final  -79.93 input  -60.55 | X-H torsion
[ 11005 11000 10999 10996 ] final  -66.34 input  -57.11 | X-H torsion

> <Gold.Protein.ActiveResidues>
 VAL166  LYS551  ARG553  GLY616  TRP617  ASP618  TYR619  PRO620  LYS621  CYS622 
 ASP623  PHE694  ASN695  SER759  ASP760  ASP761  ALA762  ILE779  LEU786  VAL792 
 PHE793  MET794  SER795  GLU796  ALA797  LYS798  CYS799  TRP800  GLU811  SER814 

> <Gold.Protein.RotatedAtoms>
  151.3082  135.0787  159.9262 H   0  0  0  0  0  0  0  0  0  0  0  0  # atno 6907 bound_to 6896
  152.5283  133.9763  159.7796 H   0  0  0  0  0  0  0  0  0  0  0  0  # atno 6908 bound_to 6896
  151.0062  133.5957  159.2719 H   0  0  0  0  0  0  0  0  0  0  0  0  # atno 6909 bound_to 6896
  145.1619  139.3150  143.4512 H   0  0  0  0  0  0  0  0  0  0  0  0  # atno 7974 bound_to 7965
  156.1877  140.3082  155.9270 H   0  0  0  0  0  0  0  0  0  0  0  0  # atno 8008 bound_to 7997
  155.3244  140.0457  157.3057 H   0  0  0  0  0  0  0  0  0  0  0  0  # atno 8009 bound_to 7997
  154.5415  140.2263  155.8643 H   0  0  0  0  0  0  0  0  0  0  0  0  # atno 8010 bound_to 7997
  140.7197  143.3590  151.2001 H   0  0  0  0  0  0  0  0  0  0  0  0  # atno 10167 bound_to 10162
  157.4603  131.1073  150.9927 H   0  0  0  0  0  0  0  0  0  0  0  0  # atno 10718 bound_to 10713
  154.5449  135.5678  153.6871 H   0  0  0  0  0  0  0  0  0  0  0  0  # atno 10763 bound_to 10752
  152.9973  135.6236  154.2452 H   0  0  0  0  0  0  0  0  0  0  0  0  # atno 10764 bound_to 10752
  154.2385  135.2863  155.2842 H   0  0  0  0  0  0  0  0  0  0  0  0  # atno 10765 bound_to 10752
  141.1479  133.6697  156.6125 H   0  0  0  0  0  0  0  0  0  0  0  0  # atno 11005 bound_to 11000
  146.3481  140.1733  142.8589 LP  0  0  0  0  0  0  0  0  0  0  0  0  # atno 17320 bound_to 7965
  145.0322  140.8879  143.5103 LP  0  0  0  0  0  0  0  0  0  0  0  0  # atno 17321 bound_to 7965
  139.7138  143.9334  152.2958 LP  0  0  0  0  0  0  0  0  0  0  0  0  # atno 17342 bound_to 10162
  139.9068  144.6880  150.8606 LP  0  0  0  0  0  0  0  0  0  0  0  0  # atno 17343 bound_to 10162
  157.0727  130.5870  149.5405 LP  0  0  0  0  0  0  0  0  0  0  0  0  # atno 17370 bound_to 10713
  156.0026  130.5107  150.7717 LP  0  0  0  0  0  0  0  0  0  0  0  0  # atno 17371 bound_to 10713
  140.3603  134.7693  157.4529 LP  0  0  0  0  0  0  0  0  0  0  0  0  # atno 17394 bound_to 11000
  140.0790  134.5757  155.8561 LP  0  0  0  0  0  0  0  0  0  0  0  0  # atno 17395 bound_to 11000

$$$$
