AV-unprocessed.smi:103|AV-procd|sdf|985|dock10
  -GOLD-   2262017553D 1   1.00000     0.00000
 Structure written by MMmdl.
 53 55  0  0  0  0  0  0  0  0  1 V2000
  147.3042  135.5207  162.4872 C   0  0  0  0  0  0  0  0  0  0  0  0
  147.1487  136.3623  161.2274 C   0  0  0  0  0  0  0  0  0  0  0  0
  146.0692  136.8707  160.9240 O   0  0  0  0  0  0  0  0  0  0  0  0
  148.2971  136.4626  160.5337 O   0  0  0  0  0  0  0  0  0  0  0  0
  148.2777  136.7780  159.1476 C   0  0  0  0  0  0  0  0  0  0  0  0
  149.5436  137.5553  158.7424 C   0  0  2  0  0  0  0  0  0  0  0  0
  149.5111  138.8765  159.2656 O   0  0  0  0  0  0  0  0  0  0  0  0
  150.3303  139.6974  158.5018 C   0  0  1  0  0  0  0  0  0  0  0  0
  151.7216  139.6869  159.1052 N   0  0  0  0  0  0  0  0  0  0  0  0
  152.3436  140.7188  159.7856 C   0  0  0  0  0  0  0  0  0  0  0  0
  151.6892  142.3617  160.0696 S   0  0  0  0  0  0  0  0  0  0  0  0
  152.0590  142.6154  161.8533 C   0  0  0  0  0  0  0  0  0  0  0  0
  152.4898  143.2975  159.2654 O   0  0  0  0  0  0  0  0  0  0  0  0
  150.2315  142.2800  159.8851 O   0  0  0  0  0  0  0  0  0  0  0  0
  153.5692  140.5166  160.1815 N   0  0  0  0  0  0  0  0  0  0  0  0
  153.7964  139.1964  159.8343 C   0  0  0  0  0  0  0  0  0  0  0  0
  154.8998  138.3210  159.9966 C   0  0  0  0  0  0  0  0  0  0  0  0
  156.0457  138.6908  160.5857 N   0  0  0  0  0  0  0  0  0  0  0  0
  154.7934  137.0526  159.5401 N   0  0  0  0  0  0  0  0  0  0  0  0
  153.6598  136.6609  158.9534 C   0  0  0  0  0  0  0  0  0  0  0  0
  152.5507  137.3683  158.7288 N   0  0  0  0  0  0  0  0  0  0  0  0
  152.6492  138.6534  159.1835 C   0  0  0  0  0  0  0  0  0  0  0  0
  150.2084  139.1902  157.0545 C   0  0  1  0  0  0  0  0  0  0  0  0
  151.4090  139.3001  156.2993 O   0  0  0  0  0  0  0  0  0  0  0  0
  151.3636  139.3533  154.9581 C   0  0  0  0  0  0  0  0  0  0  0  0
  152.7084  139.0352  154.3198 C   0  0  0  0  0  0  0  0  0  0  0  0
  150.3782  139.6377  154.2773 O   0  0  0  0  0  0  0  0  0  0  0  0
  149.7522  137.7380  157.2226 C   0  0  2  0  0  0  0  0  0  0  0  0
  148.5502  137.5255  156.4881 O   0  0  0  0  0  0  0  0  0  0  0  0
  147.4910  138.3353  156.6704 C   0  0  0  0  0  0  0  0  0  0  0  0
  146.2939  137.9288  155.8214 C   0  0  0  0  0  0  0  0  0  0  0  0
  147.4405  139.3027  157.4301 O   0  0  0  0  0  0  0  0  0  0  0  0
  147.7086  134.5389  162.2407 H   0  0  0  0  0  0  0  0  0  0  0  0
  146.3404  135.3838  162.9780 H   0  0  0  0  0  0  0  0  0  0  0  0
  147.9816  136.0101  163.1873 H   0  0  0  0  0  0  0  0  0  0  0  0
  148.2536  135.8298  158.6103 H   0  0  0  0  0  0  0  0  0  0  0  0
  147.3720  137.3179  158.8665 H   0  0  0  0  0  0  0  0  0  0  0  0
  150.4098  137.0432  159.1589 H   0  0  0  0  0  0  0  0  0  0  0  0
  150.0128  140.7344  158.5707 H   0  0  0  0  0  0  0  0  0  0  0  0
  151.6849  143.5900  162.1658 H   0  0  0  0  0  0  0  0  0  0  0  0
  153.1345  142.5705  162.0181 H   0  0  0  0  0  0  0  0  0  0  0  0
  151.5714  141.8356  162.4381 H   0  0  0  0  0  0  0  0  0  0  0  0
  156.1490  139.6319  160.9373 H   0  0  0  0  0  0  0  0  0  0  0  0
  156.8009  138.0275  160.6814 H   0  0  0  0  0  0  0  0  0  0  0  0
  153.6384  135.6363  158.6124 H   0  0  0  0  0  0  0  0  0  0  0  0
  149.4071  139.7579  156.5776 H   0  0  0  0  0  0  0  0  0  0  0  0
  153.1915  138.2070  154.8390 H   0  0  0  0  0  0  0  0  0  0  0  0
  153.3635  139.9053  154.3695 H   0  0  0  0  0  0  0  0  0  0  0  0
  152.5788  138.7574  153.2734 H   0  0  0  0  0  0  0  0  0  0  0  0
  150.5173  137.0363  156.8871 H   0  0  0  0  0  0  0  0  0  0  0  0
  146.6208  137.5546  154.8510 H   0  0  0  0  0  0  0  0  0  0  0  0
  145.6358  138.7823  155.6572 H   0  0  0  0  0  0  0  0  0  0  0  0
  145.7255  137.1452  156.3224 H   0  0  0  0  0  0  0  0  0  0  0  0
  1  2  1  0  0  0  0
  1 33  1  0  0  0  0
  1 34  1  0  0  0  0
  1 35  1  0  0  0  0
  2  3  2  0  0  0  0
  2  4  1  0  0  0  0
  4  5  1  0  0  0  0
  5  6  1  0  0  0  0
  5 36  1  0  0  0  0
  5 37  1  0  0  0  0
  6 28  1  0  0  0  0
  6  7  1  0  0  0  0
  6 38  1  0  0  0  0
  7  8  1  0  0  0  0
  8  9  1  0  0  0  0
  8 23  1  0  0  0  0
  8 39  1  0  0  0  0
  9 22  1  0  0  0  0
  9 10  1  0  0  0  0
 10 11  1  0  0  0  0
 10 15  2  0  0  0  0
 11 12  1  0  0  0  0
 11 13  2  0  0  0  0
 11 14  2  0  0  0  0
 12 40  1  0  0  0  0
 12 41  1  0  0  0  0
 12 42  1  0  0  0  0
 15 16  1  0  0  0  0
 16 22  2  0  0  0  0
 16 17  1  0  0  0  0
 17 18  1  0  0  0  0
 17 19  2  0  0  0  0
 18 43  1  0  0  0  0
 18 44  1  0  0  0  0
 19 20  1  0  0  0  0
 20 21  2  0  0  0  0
 20 45  1  0  0  0  0
 21 22  1  0  0  0  0
 23 24  1  0  0  0  0
 23 28  1  0  0  0  0
 23 46  1  0  0  0  0
 24 25  1  0  0  0  0
 25 26  1  0  0  0  0
 25 27  2  0  0  0  0
 26 47  1  0  0  0  0
 26 48  1  0  0  0  0
 26 49  1  0  0  0  0
 28 29  1  0  0  0  0
 28 50  1  0  0  0  0
 29 30  1  0  0  0  0
 30 31  1  0  0  0  0
 30 32  2  0  0  0  0
 31 51  1  0  0  0  0
 31 52  1  0  0  0  0
 31 53  1  0  0  0  0
M  END
> <s_m_source_file>
AV-unprocessed.smi

> <i_m_source_file_index>
103

> <i_lp_mmshare_version>
43012

> <i_f3d_flags>
0

> <s_epik_input>
W0NIM11DKD1PKU9bQ0gyXVtDQEBIXTFPW0NASF0oW0NAQEhdKE9DKD1PKVtDSDNdKVtDQEhdMU9DKD1PKVtDSDNdKW4oYyhuMilTKD1PKSg9TylbQ0gzXSljKGMyMyluW2NIXW5jM1tOSDJd

> <s_epik_cmdline>
J2VwaWtfcHl0aG9uJywgJy1waCcsICc3LjAnLCAnLXRuJywgJzgnLCAnLW1hJywgJzIwMCcsICctbWV0YWxfYmluZGluZycsICctaW1hZScsICc8aW5maWxlLm1hZT4nLCAnLW9tYWUnLCAnPG91dGZpbGUubWFlPic=

> <r_lp_tautomer_probability>
1

> <r_epik_Ionization_Penalty>
1.51338e-05

> <r_epik_Ionization_Penalty_Charging>
0

> <r_epik_Ionization_Penalty_Neutral>
1.51338e-05

> <r_epik_State_Penalty>
-0

> <r_epik_Charging_Adjusted_Penalty>
0

> <i_epik_Tot_Q>
0

> <i_epik_Tot_abs_Q>
0

> <r_epik_Metal_State_Penalty>
-0

> <b_epik_Metal_Only>
0

> <s_epik_Chemistry_Notes>
This compound has an ester and may undergo hydrolysis at high or low pH. This compound contains an acetal/aminal-like group ( X-CH(R)-Y where X, Y are N, S, or O) that may be acid/base labile, releasing an aldehyde.

> <s_lp_Force_Field>
OPLS_2005

> <r_lp_Energy>
17.8584

> <b_lp_Chiralities_Consistent>
1

> <s_lp_Variant>
AV-unprocessed.smi:103-9

> <Gold.Version>
5.8.1

> <Gold.Id.Protein>
6NUR|6NUR_protein|mol2

> <Gold.PLP.Fitness>
43.3828

> <Gold.PLP.PLP>
-39.9708

> <Gold.PLP.part.hbond>
-5.2768

> <Gold.PLP.part.metal>
0.0000

> <Gold.PLP.part.buried>
-3.5031

> <Gold.PLP.part.nonpolar>
-30.5828

> <Gold.PLP.part.repulsive>
0.1538

> <Gold.PLP.ligand.clash>
0.0000

> <Gold.PLP.ligand.torsion>
2.3945

> <Gold.PLP.Chemscore.Hbond>
2.0000

> <Gold.PLP.Chemscore.CHOScore>
0.0000

> <Gold.PLP.Chemscore.Metal>
0.0000

> <Gold.Chemscore.Hbonds>
donor molecule, donor type, donor heavy atom, donor atom, acceptor molecule, acceptor atom, score
      P1  H  6934  6947       L1     3  0.02
      P1  H  7989  7998       L1    27  0.10

> <Gold.PLP.Chemscore.Internal.Correction>
2.2011

> <Gold.Rescore>
     Score         DG    S(hbond)    S(metal)    S(lipo)     H(rot)  DE(clash)    DE(int)     intcor
     -3.49      -3.95       0.94        0.00      52.97       4.25       0.43       7.02       ----

> <Gold.Chemscore.Fitness>
-3.4944

> <Gold.Chemscore.DG>
-3.9529

> <Gold.Chemscore.ZeroCoef>
-5.4800

> <Gold.Chemscore.Hbond>
0.9414

> <Gold.Chemscore.Metal>
0.0000

> <Gold.Chemscore.Lipo>
52.9667

> <Gold.Chemscore.Internal_Hbond>
0.0000

> <Gold.Chemscore.DEClash>
0.4270

> <Gold.Chemscore.DEInternal>
7.0203

> <Gold.Chemscore.Rot>
4.2456

> <Gold.Chemscore.Internal.Correction>
   9.000000E+99

> <Gold.Chemscore.Hbond.Weighted>
-3.1444

> <Gold.Chemscore.Metal.Weighted>
-0.0000

> <Gold.Chemscore.Lipo.Weighted>
-6.1971

> <Gold.Chemscore.Internal_Hbond.Weighted>
0.0000

> <Gold.Chemscore.DEClash.Weighted>
0.4270

> <Gold.Chemscore.DEInternal.Weighted>
7.0203

> <Gold.Chemscore.Rot.Weighted>
10.8687

> <Gold.Chemscore.Internal.Correction.Weighted>
   9.000000E+99

> <Gold.Protein.RotatedTorsions>
[ 6907 6896 6895 6894 ] final  107.75 input  -60.11 | X-H torsion
[ 7974 7965 7964 7962 ] final  120.66 input  175.53 | X-H torsion
[ 8008 7997 7996 7995 ] final  -17.42 input   59.86 | X-H torsion
[ 10167 10162 10161 10158 ] final  129.83 input  -65.29 | X-H torsion
[ 10718 10713 10712 10709 ] final -179.90 input   66.30 | X-H torsion
[ 10763 10752 10751 10750 ] final -103.40 input  -60.55 | X-H torsion
[ 11005 11000 10999 10996 ] final  -53.75 input  -57.11 | X-H torsion

> <Gold.Protein.ActiveResidues>
 VAL166  LYS551  ARG553  GLY616  TRP617  ASP618  TYR619  PRO620  LYS621  CYS622 
 ASP623  PHE694  ASN695  SER759  ASP760  ASP761  ALA762  ILE779  LEU786  VAL792 
 PHE793  MET794  SER795  GLU796  ALA797  LYS798  CYS799  TRP800  GLU811  SER814 

> <Gold.Protein.RotatedAtoms>
  152.5141  133.9189  159.7524 H   0  0  0  0  0  0  0  0  0  0  0  0  # atno 6907 bound_to 6896
  150.9566  133.6483  159.2769 H   0  0  0  0  0  0  0  0  0  0  0  0  # atno 6908 bound_to 6896
  151.3742  135.0933  159.9528 H   0  0  0  0  0  0  0  0  0  0  0  0  # atno 6909 bound_to 6896
  145.1285  139.3342  143.4677 H   0  0  0  0  0  0  0  0  0  0  0  0  # atno 7974 bound_to 7965
  154.4980  140.2143  155.9407 H   0  0  0  0  0  0  0  0  0  0  0  0  # atno 8008 bound_to 7997
  156.1396  140.3182  155.8442 H   0  0  0  0  0  0  0  0  0  0  0  0  # atno 8009 bound_to 7997
  155.4145  140.0493  157.3020 H   0  0  0  0  0  0  0  0  0  0  0  0  # atno 8010 bound_to 7997
  139.5459  144.6772  151.4475 H   0  0  0  0  0  0  0  0  0  0  0  0  # atno 10167 bound_to 10162
  156.8660  130.9768  151.3078 H   0  0  0  0  0  0  0  0  0  0  0  0  # atno 10718 bound_to 10713
  154.7804  135.4825  153.9833 H   0  0  0  0  0  0  0  0  0  0  0  0  # atno 10763 bound_to 10752
  153.1486  135.6787  153.8923 H   0  0  0  0  0  0  0  0  0  0  0  0  # atno 10764 bound_to 10752
  153.8575  135.3159  155.3414 H   0  0  0  0  0  0  0  0  0  0  0  0  # atno 10765 bound_to 10752
  141.0992  133.6620  156.4219 H   0  0  0  0  0  0  0  0  0  0  0  0  # atno 11005 bound_to 11000
  146.3516  140.1274  142.8598 LP  0  0  0  0  0  0  0  0  0  0  0  0  # atno 17320 bound_to 7965
  145.0661  140.9122  143.4909 LP  0  0  0  0  0  0  0  0  0  0  0  0  # atno 17321 bound_to 7965
  140.6707  143.8301  150.6995 LP  0  0  0  0  0  0  0  0  0  0  0  0  # atno 17342 bound_to 10162
  140.1724  143.4183  152.1991 LP  0  0  0  0  0  0  0  0  0  0  0  0  # atno 17343 bound_to 10162
  157.6223  130.8664  149.9129 LP  0  0  0  0  0  0  0  0  0  0  0  0  # atno 17370 bound_to 10713
  156.0751  130.3680  150.0694 LP  0  0  0  0  0  0  0  0  0  0  0  0  # atno 17371 bound_to 10713
  140.5065  134.6436  157.5268 LP  0  0  0  0  0  0  0  0  0  0  0  0  # atno 17394 bound_to 11000
  139.9837  134.7095  155.9812 LP  0  0  0  0  0  0  0  0  0  0  0  0  # atno 17395 bound_to 11000

$$$$
