AV-unprocessed.smi:1006|AV-procd|sdf|4395|dock8
  -GOLD-   22720 2323D 1   1.00000     0.00000
 Structure written by MMmdl.
 46 48  0  0  0  0  0  0  0  0  2 V2000
  146.6541  137.7573  163.1044 C   0  0  0  0  0  0  0  0  0  0  0  0
  147.0246  136.6474  162.1442 C   0  0  0  0  0  0  0  0  0  0  0  0
  147.0638  135.2979  162.5559 C   0  0  0  0  0  0  0  0  0  0  0  0
  147.4254  134.3562  161.5701 C   0  0  0  0  0  0  0  0  0  0  0  0
  147.4920  132.9985  161.8723 N   0  0  0  0  0  0  0  0  0  0  0  0
  147.7176  134.7263  160.3051 N   0  0  0  0  0  0  0  0  0  0  0  0
  147.6433  136.0309  160.0319 C   0  0  0  0  0  0  0  0  0  0  0  0
  148.0367  136.4767  158.3494 S   0  0  0  0  0  0  0  0  0  0  0  0
  149.5683  137.4401  158.5425 C   0  0  0  0  0  0  0  0  0  0  0  0
  149.5706  138.7029  157.6666 C   0  0  1  0  0  0  0  0  0  0  0  0
  148.6139  139.6177  158.1669 O   0  0  0  0  0  0  0  0  0  0  0  0
  150.9600  139.3680  157.6223 C   0  0  0  0  0  0  0  0  0  0  0  0
  150.8994  140.7848  157.2349 N   0  0  0  0  0  0  0  0  0  0  0  0
  150.5818  141.3414  156.0348 C   0  0  0  0  0  0  0  0  0  0  0  0
  150.6607  142.6936  156.1748 N   0  3  0  0  0  0  0  0  0  0  0  0
  151.0328  143.0057  157.4840 C   0  0  0  0  0  0  0  0  0  0  0  0
  151.2386  144.2330  158.1028 C   0  0  0  0  0  0  0  0  0  0  0  0
  151.6110  144.2139  159.4658 C   0  0  0  0  0  0  0  0  0  0  0  0
  151.8415  145.5386  160.1733 C   0  0  0  0  0  0  0  0  0  0  0  0
  151.7651  142.9878  160.1632 C   0  0  0  0  0  0  0  0  0  0  0  0
  152.1621  142.9790  161.6297 C   0  0  0  0  0  0  0  0  0  0  0  0
  151.5536  141.7500  159.5149 C   0  0  0  0  0  0  0  0  0  0  0  0
  151.1875  141.7856  158.1711 C   0  0  0  0  0  0  0  0  0  0  0  0
  147.3170  137.0142  160.8767 N   0  0  0  0  0  0  0  0  0  0  0  0
  146.2636  137.3537  164.0392 H   0  0  0  0  0  0  0  0  0  0  0  0
  145.8901  138.4011  162.6676 H   0  0  0  0  0  0  0  0  0  0  0  0
  147.5288  138.3664  163.3332 H   0  0  0  0  0  0  0  0  0  0  0  0
  146.8302  135.0033  163.5688 H   0  0  0  0  0  0  0  0  0  0  0  0
  147.2852  132.6514  162.7975 H   0  0  0  0  0  0  0  0  0  0  0  0
  147.7418  132.3170  161.1703 H   0  0  0  0  0  0  0  0  0  0  0  0
  149.6954  137.7107  159.5916 H   0  0  0  0  0  0  0  0  0  0  0  0
  150.4100  136.8027  158.2699 H   0  0  0  0  0  0  0  0  0  0  0  0
  149.2768  138.4338  156.6511 H   0  0  0  0  0  0  0  0  0  0  0  0
  148.9548  140.4935  158.0692 H   0  0  0  0  0  0  0  0  0  0  0  0
  151.4766  139.2744  158.5775 H   0  0  0  0  0  0  0  0  0  0  0  0
  151.5879  138.8633  156.8869 H   0  0  0  0  0  0  0  0  0  0  0  0
  150.3131  140.8072  155.1349 H   0  0  0  0  0  0  0  0  0  0  0  0
  151.1172  145.1627  157.5661 H   0  0  0  0  0  0  0  0  0  0  0  0
  152.8540  145.5891  160.5746 H   0  0  0  0  0  0  0  0  0  0  0  0
  151.1358  145.6603  160.9955 H   0  0  0  0  0  0  0  0  0  0  0  0
  151.7107  146.3816  159.4942 H   0  0  0  0  0  0  0  0  0  0  0  0
  152.2075  141.9638  162.0252 H   0  0  0  0  0  0  0  0  0  0  0  0
  151.4393  143.5353  162.2266 H   0  0  0  0  0  0  0  0  0  0  0  0
  153.1444  143.4324  161.7623 H   0  0  0  0  0  0  0  0  0  0  0  0
  151.6677  140.8187  160.0490 H   0  0  0  0  0  0  0  0  0  0  0  0
  150.4709  143.3527  155.4307 H   0  0  0  0  0  0  0  0  0  0  0  0
  1  2  1  0  0  0  0
  1 25  1  0  0  0  0
  1 26  1  0  0  0  0
  1 27  1  0  0  0  0
  2 24  1  0  0  0  0
  2  3  2  0  0  0  0
  3  4  1  0  0  0  0
  3 28  1  0  0  0  0
  4  5  1  0  0  0  0
  4  6  2  0  0  0  0
  5 29  1  0  0  0  0
  5 30  1  0  0  0  0
  6  7  1  0  0  0  0
  7  8  1  0  0  0  0
  7 24  2  0  0  0  0
  8  9  1  0  0  0  0
  9 10  1  0  0  0  0
  9 31  1  0  0  0  0
  9 32  1  0  0  0  0
 10 11  1  0  0  0  0
 10 12  1  0  0  0  0
 10 33  1  0  0  0  0
 11 34  1  0  0  0  0
 12 13  1  0  0  0  0
 12 35  1  0  0  0  0
 12 36  1  0  0  0  0
 13 23  1  0  0  0  0
 13 14  1  0  0  0  0
 14 15  2  0  0  0  0
 14 37  1  0  0  0  0
 15 16  1  0  0  0  0
 15 46  1  0  0  0  0
 16 23  2  0  0  0  0
 16 17  1  0  0  0  0
 17 18  2  0  0  0  0
 17 38  1  0  0  0  0
 18 19  1  0  0  0  0
 18 20  1  0  0  0  0
 19 39  1  0  0  0  0
 19 40  1  0  0  0  0
 19 41  1  0  0  0  0
 20 21  1  0  0  0  0
 20 22  2  0  0  0  0
 21 42  1  0  0  0  0
 21 43  1  0  0  0  0
 21 44  1  0  0  0  0
 22 23  1  0  0  0  0
 22 45  1  0  0  0  0
M  CHG  1  15   1
M  END
> <s_m_source_file>
AV-unprocessed.smi

> <i_m_source_file_index>
1006

> <i_lp_mmshare_version>
43012

> <i_f3d_flags>
0

> <s_epik_input>
W0NIM11jMVtjSF1jKFtOSDJdKW5jKG4xKVNbQ0gyXVtDQEhdKFtPSF0pW0NIMl1uKFtjSF1uMiljKGMyMylbY0hdYyhbQ0gzXSljKFtjSF0zKVtDSDNd

> <s_epik_cmdline>
J2VwaWtfcHl0aG9uJywgJy1waCcsICc3LjAnLCAnLXRuJywgJzgnLCAnLW1hJywgJzIwMCcsICctbWV0YWxfYmluZGluZycsICctaW1hZScsICc8aW5maWxlLm1hZT4nLCAnLW9tYWUnLCAnPG91dGZpbGUubWFlPic=

> <r_epik_Ionization_Penalty>
1.4378

> <r_epik_Ionization_Penalty_Charging>
1.06724

> <r_epik_Ionization_Penalty_Neutral>
0.370564

> <r_epik_State_Penalty>
1.48666

> <r_epik_Charging_Adjusted_Penalty>
2.5539

> <i_epik_Tot_Q>
1

> <i_epik_Tot_abs_Q>
1

> <r_epik_Metal_State_Penalty>
1.38026

> <b_epik_Metal_Only>
0

> <s_lp_Force_Field>
OPLS_2005

> <r_lp_Energy>
7.15152

> <b_lp_Chiralities_Consistent>
1

> <s_lp_Variant>
AV-unprocessed.smi:1006-6

> <Gold.Version>
5.8.1

> <Gold.Id.Protein>
6NUR|6NUR_protein|mol2

> <Gold.PLP.Fitness>
58.4995

> <Gold.PLP.PLP>
-53.3554

> <Gold.PLP.part.hbond>
-4.0000

> <Gold.PLP.part.metal>
0.0000

> <Gold.PLP.part.buried>
-5.6770

> <Gold.PLP.part.nonpolar>
-44.2401

> <Gold.PLP.part.repulsive>
0.2161

> <Gold.PLP.ligand.clash>
0.0000

> <Gold.PLP.ligand.torsion>
0.6971

> <Gold.PLP.Chemscore.Hbond>
2.1743

> <Gold.PLP.Chemscore.CHOScore>
0.0000

> <Gold.PLP.Chemscore.Metal>
0.0000

> <Gold.Chemscore.Hbonds>
donor molecule, donor type, donor heavy atom, donor atom, acceptor molecule, acceptor atom, score
      L1  H    15    46       P1  8028  0.68
      P1  H  6931  6943       L1    24  0.04
      P1  H  6934  6947       L1    24  1.00

> <Gold.PLP.Chemscore.Internal.Correction>
0.0155

> <Gold.Rescore>
     Score         DG    S(hbond)    S(metal)    S(lipo)     H(rot)  DE(clash)    DE(int)     intcor
     15.02     -17.69       1.59        0.00     122.17       2.89       1.78       0.90       ----

> <Gold.Chemscore.Fitness>
15.0150

> <Gold.Chemscore.DG>
-17.6944

> <Gold.Chemscore.ZeroCoef>
-5.4800

> <Gold.Chemscore.Hbond>
1.5933

> <Gold.Chemscore.Metal>
0.0000

> <Gold.Chemscore.Lipo>
122.1686

> <Gold.Chemscore.Internal_Hbond>
0.0000

> <Gold.Chemscore.DEClash>
1.7757

> <Gold.Chemscore.DEInternal>
0.9036

> <Gold.Chemscore.Rot>
2.8910

> <Gold.Chemscore.Internal.Correction>
   9.000000E+99

> <Gold.Chemscore.Hbonds>
donor molecule, donor type, donor heavy atom, donor atom, acceptor molecule, acceptor atom, score
      L1  H    15    46       P1  8028  0.33
      P1  H  6934  6947       L1    24  0.37

> <Gold.Chemscore.Hbond.Weighted>
-5.3216

> <Gold.Chemscore.Metal.Weighted>
-0.0000

> <Gold.Chemscore.Lipo.Weighted>
-14.2937

> <Gold.Chemscore.Internal_Hbond.Weighted>
0.0000

> <Gold.Chemscore.DEClash.Weighted>
1.7757

> <Gold.Chemscore.DEInternal.Weighted>
0.9036

> <Gold.Chemscore.Rot.Weighted>
7.4009

> <Gold.Chemscore.Internal.Correction.Weighted>
   9.000000E+99

> <Gold.Protein.RotatedTorsions>
[ 6907 6896 6895 6894 ] final -162.14 input  -60.11 | X-H torsion
[ 7974 7965 7964 7962 ] final  -87.34 input  175.53 | X-H torsion
[ 8008 7997 7996 7995 ] final -142.13 input   59.86 | X-H torsion
[ 10167 10162 10161 10158 ] final   44.19 input  -65.29 | X-H torsion
[ 10718 10713 10712 10709 ] final  141.23 input   66.30 | X-H torsion
[ 10763 10752 10751 10750 ] final   21.28 input  -60.55 | X-H torsion
[ 11005 11000 10999 10996 ] final  160.58 input  -57.11 | X-H torsion

> <Gold.Protein.ActiveResidues>
 VAL166  LYS551  ARG553  GLY616  TRP617  ASP618  TYR619  PRO620  LYS621  CYS622 
 ASP623  PHE694  ASN695  SER759  ASP760  ASP761  ALA762  ILE779  LEU786  VAL792 
 PHE793  MET794  SER795  GLU796  ALA797  LYS798  CYS799  TRP800  GLU811  SER814 

> <Gold.Protein.RotatedAtoms>
  151.3757  133.3839  159.2704 H   0  0  0  0  0  0  0  0  0  0  0  0  # atno 6907 bound_to 6896
  150.9616  134.9004  159.7744 H   0  0  0  0  0  0  0  0  0  0  0  0  # atno 6908 bound_to 6896
  152.5151  134.3716  159.9372 H   0  0  0  0  0  0  0  0  0  0  0  0  # atno 6909 bound_to 6896
  145.4678  140.9560  143.1934 H   0  0  0  0  0  0  0  0  0  0  0  0  # atno 7974 bound_to 7965
  155.4892  140.0566  157.2956 H   0  0  0  0  0  0  0  0  0  0  0  0  # atno 8008 bound_to 7997
  154.4630  140.2005  156.0145 H   0  0  0  0  0  0  0  0  0  0  0  0  # atno 8009 bound_to 7997
  156.0924  140.3231  155.7837 H   0  0  0  0  0  0  0  0  0  0  0  0  # atno 8010 bound_to 7997
  140.3368  144.2520  150.6160 H   0  0  0  0  0  0  0  0  0  0  0  0  # atno 10167 bound_to 10162
  157.3944  131.1009  151.0615 H   0  0  0  0  0  0  0  0  0  0  0  0  # atno 10718 bound_to 10713
  153.1008  135.6672  153.9677 H   0  0  0  0  0  0  0  0  0  0  0  0  # atno 10763 bound_to 10752
  153.9248  135.3010  155.3448 H   0  0  0  0  0  0  0  0  0  0  0  0  # atno 10764 bound_to 10752
  154.7428  135.5071  153.9227 H   0  0  0  0  0  0  0  0  0  0  0  0  # atno 10765 bound_to 10752
  140.2074  134.8293  157.3083 H   0  0  0  0  0  0  0  0  0  0  0  0  # atno 11005 bound_to 11000
  144.7964  139.6227  143.7091 LP  0  0  0  0  0  0  0  0  0  0  0  0  # atno 17320 bound_to 7965
  146.2414  139.6009  142.9489 LP  0  0  0  0  0  0  0  0  0  0  0  0  # atno 17321 bound_to 7965
  140.5346  143.2236  151.8183 LP  0  0  0  0  0  0  0  0  0  0  0  0  # atno 17342 bound_to 10162
  139.4847  144.4677  151.9464 LP  0  0  0  0  0  0  0  0  0  0  0  0  # atno 17343 bound_to 10162
  157.1637  130.6237  149.5618 LP  0  0  0  0  0  0  0  0  0  0  0  0  # atno 17370 bound_to 10713
  155.9806  130.4808  150.6784 LP  0  0  0  0  0  0  0  0  0  0  0  0  # atno 17371 bound_to 10713
  140.1988  134.4280  155.7674 LP  0  0  0  0  0  0  0  0  0  0  0  0  # atno 17394 bound_to 11000
  141.2227  133.7062  156.8150 LP  0  0  0  0  0  0  0  0  0  0  0  0  # atno 17395 bound_to 11000

$$$$
