AV-unprocessed.smi:2093|AV-procd|sdf|8551|dock3
  -GOLD-   2272011273D 1   1.00000     0.00000
 Structure written by MMmdl.
 30 31  0  0  0  0  0  0  0  0  2 V2000
  152.5725  139.4934  159.0765 C   0  0  0  0  0  0  0  0  0  0  0  0
  152.1220  140.5076  158.0098 C   0  0  1  0  0  0  0  0  0  0  0  0
  151.1612  139.8767  157.1073 N   0  0  0  0  0  0  0  0  0  0  0  0
  151.3491  139.6135  155.8059 C   0  0  0  0  0  0  0  0  0  0  0  0
  152.4181  139.9070  155.2657 O   0  0  0  0  0  0  0  0  0  0  0  0
  150.2862  139.0246  155.2116 N   0  5  0  0  0  0  0  0  0  0  0  0
  149.3112  139.7789  154.6791 C   0  0  0  0  0  0  0  0  0  0  0  0
  149.3081  141.1159  154.7360 N   0  0  0  0  0  0  0  0  0  0  0  0
  148.2018  141.6955  154.1122 C   0  0  0  0  0  0  0  0  0  0  0  0
  147.3479  140.7790  153.5582 C   0  0  0  0  0  0  0  0  0  0  0  0
  147.9098  139.1505  153.8073 S   0  0  0  0  0  0  0  0  0  0  0  0
  151.4779  141.7608  158.6337 C   0  0  1  0  0  0  0  0  0  0  0  0
  152.3903  142.5531  159.5724 C   0  0  0  0  0  0  0  0  0  0  0  0
  151.8448  143.9717  159.5006 C   0  0  0  0  0  0  0  0  0  0  0  0
  150.9003  143.9491  158.2964 C   0  0  0  0  0  0  0  0  0  0  0  0
  151.1816  142.7252  157.6345 O   0  0  0  0  0  0  0  0  0  0  0  0
  153.3208  139.9224  159.7427 H   0  0  0  0  0  0  0  0  0  0  0  0
  153.0180  138.6100  158.6184 H   0  0  0  0  0  0  0  0  0  0  0  0
  151.7320  139.1623  159.6872 H   0  0  0  0  0  0  0  0  0  0  0  0
  152.9953  140.8235  157.4362 H   0  0  0  0  0  0  0  0  0  0  0  0
  150.2673  139.6247  157.5024 H   0  0  0  0  0  0  0  0  0  0  0  0
  148.1039  142.7709  154.1085 H   0  0  0  0  0  0  0  0  0  0  0  0
  146.4288  140.9596  153.0217 H   0  0  0  0  0  0  0  0  0  0  0  0
  150.5537  141.4966  159.1522 H   0  0  0  0  0  0  0  0  0  0  0  0
  152.3949  142.1544  160.5872 H   0  0  0  0  0  0  0  0  0  0  0  0
  153.4163  142.5397  159.2017 H   0  0  0  0  0  0  0  0  0  0  0  0
  151.3063  144.2438  160.4091 H   0  0  0  0  0  0  0  0  0  0  0  0
  152.6543  144.6892  159.3618 H   0  0  0  0  0  0  0  0  0  0  0  0
  149.8599  143.9475  158.6245 H   0  0  0  0  0  0  0  0  0  0  0  0
  151.0464  144.8002  157.6311 H   0  0  0  0  0  0  0  0  0  0  0  0
  1  2  1  0  0  0  0
  1 17  1  0  0  0  0
  1 18  1  0  0  0  0
  1 19  1  0  0  0  0
  2  3  1  0  0  0  0
  2 12  1  0  0  0  0
  2 20  1  0  0  0  0
  3  4  1  0  0  0  0
  3 21  1  0  0  0  0
  4  5  2  0  0  0  0
  4  6  1  0  0  0  0
  6  7  1  0  0  0  0
  7 11  1  0  0  0  0
  7  8  2  0  0  0  0
  8  9  1  0  0  0  0
  9 10  2  0  0  0  0
  9 22  1  0  0  0  0
 10 11  1  0  0  0  0
 10 23  1  0  0  0  0
 12 16  1  0  0  0  0
 12 13  1  0  0  0  0
 12 24  1  0  0  0  0
 13 14  1  0  0  0  0
 13 25  1  0  0  0  0
 13 26  1  0  0  0  0
 14 15  1  0  0  0  0
 14 27  1  0  0  0  0
 14 28  1  0  0  0  0
 15 16  1  0  0  0  0
 15 29  1  0  0  0  0
 15 30  1  0  0  0  0
M  CHG  1   6  -1
M  END
> <s_m_source_file>
AV-unprocessed.smi

> <i_m_source_file_index>
2093

> <i_lp_mmshare_version>
43012

> <i_f3d_flags>
0

> <s_epik_input>
TzFbQ0gyXVtDSDJdW0NIMl1bQ0BIXTFbQ0BIXShbQ0gzXSlbTkhdQyg9TylbTkhdYzJuW2NIXVtjSF1zMg==

> <s_epik_cmdline>
J2VwaWtfcHl0aG9uJywgJy1waCcsICc3LjAnLCAnLXRuJywgJzgnLCAnLW1hJywgJzIwMCcsICctbWV0YWxfYmluZGluZycsICctaW1hZScsICc8aW5maWxlLm1hZT4nLCAnLW9tYWUnLCAnPG91dGZpbGUubWFlPic=

> <r_lp_tautomer_probability>
0.999

> <r_epik_Ionization_Penalty>
8.26346

> <r_epik_Ionization_Penalty_Charging>
6.6559

> <r_epik_Ionization_Penalty_Neutral>
1.60756

> <r_epik_State_Penalty>
6.65607

> <r_epik_Charging_Adjusted_Penalty>
13.312

> <i_epik_Tot_Q>
-1

> <i_epik_Tot_abs_Q>
1

> <r_epik_Metal_State_Penalty>
2.5789

> <b_epik_Metal_Only>
1

> <s_lp_Force_Field>
OPLS_2005

> <r_lp_Energy>
13.9073

> <b_lp_Chiralities_Consistent>
1

> <s_lp_Variant>
AV-unprocessed.smi:2093-8

> <Gold.Version>
5.8.1

> <Gold.Id.Protein>
6NUR|6NUR_protein|mol2

> <Gold.PLP.Fitness>
37.2075

> <Gold.PLP.PLP>
-30.9508

> <Gold.PLP.part.hbond>
-1.9370

> <Gold.PLP.part.metal>
0.0000

> <Gold.PLP.part.buried>
-4.0133

> <Gold.PLP.part.nonpolar>
-26.3040

> <Gold.PLP.part.repulsive>
0.3773

> <Gold.PLP.ligand.clash>
0.0000

> <Gold.PLP.ligand.torsion>
0.7874

> <Gold.PLP.Chemscore.Hbond>
1.3850

> <Gold.PLP.Chemscore.CHOScore>
1.2126

> <Gold.PLP.Chemscore.Metal>
0.0000

> <Gold.Chemscore.Hbonds>
donor molecule, donor type, donor heavy atom, donor atom, acceptor molecule, acceptor atom, score
      P1  H  7989  7998       L1     5  0.48
      P1  H  7997  8008       L1     5  0.75
      L1  C     9    22       P1  8028  0.89
      L1  C    10    23       P1 10175  0.25

> <Gold.PLP.Chemscore.Internal.Correction>
0.0386

> <Gold.Rescore>
     Score         DG    S(hbond)    S(metal)    S(lipo)     H(rot)  DE(clash)    DE(int)     intcor
     14.10     -14.95       1.03        0.00      79.35       1.28       0.04       0.82       ----

> <Gold.Chemscore.Fitness>
14.0957

> <Gold.Chemscore.DG>
-14.9498

> <Gold.Chemscore.ZeroCoef>
-5.4800

> <Gold.Chemscore.Hbond>
1.0349

> <Gold.Chemscore.Metal>
0.0000

> <Gold.Chemscore.Lipo>
79.3522

> <Gold.Chemscore.Internal_Hbond>
0.0000

> <Gold.Chemscore.DEClash>
0.0389

> <Gold.Chemscore.DEInternal>
0.8152

> <Gold.Chemscore.Rot>
1.2778

> <Gold.Chemscore.Internal.Correction>
   9.000000E+99

> <Gold.Chemscore.Hbonds>
donor molecule, donor type, donor heavy atom, donor atom, acceptor molecule, acceptor atom, score
      P1  H  7989  7998       L1     5  0.12
      P1  H  7997  8008       L1     5  0.75

> <Gold.Chemscore.Hbond.Weighted>
-3.4567

> <Gold.Chemscore.Metal.Weighted>
-0.0000

> <Gold.Chemscore.Lipo.Weighted>
-9.2842

> <Gold.Chemscore.Internal_Hbond.Weighted>
0.0000

> <Gold.Chemscore.DEClash.Weighted>
0.0389

> <Gold.Chemscore.DEInternal.Weighted>
0.8152

> <Gold.Chemscore.Rot.Weighted>
3.2711

> <Gold.Chemscore.Internal.Correction.Weighted>
   9.000000E+99

> <Gold.Protein.RotatedTorsions>
[ 6907 6896 6895 6894 ] final  -29.38 input  -60.11 | X-H torsion
[ 7974 7965 7964 7962 ] final -174.22 input  175.53 | X-H torsion
[ 8008 7997 7996 7995 ] final  -20.48 input   59.86 | X-H torsion
[ 10167 10162 10161 10158 ] final  141.30 input  -65.29 | X-H torsion
[ 10718 10713 10712 10709 ] final   76.25 input   66.30 | X-H torsion
[ 10763 10752 10751 10750 ] final  -74.66 input  -60.55 | X-H torsion
[ 11005 11000 10999 10996 ] final  170.20 input  -57.11 | X-H torsion

> <Gold.Protein.ActiveResidues>
 VAL166  LYS551  ARG553  GLY616  TRP617  ASP618  TYR619  PRO620  LYS621  CYS622 
 ASP623  PHE694  ASN695  SER759  ASP760  ASP761  ALA762  ILE779  LEU786  VAL792 
 PHE793  MET794  SER795  GLU796  ALA797  LYS798  CYS799  TRP800  GLU811  SER814 

> <Gold.Protein.RotatedAtoms>
  151.1199  135.0074  159.8533 H   0  0  0  0  0  0  0  0  0  0  0  0  # atno 6907 bound_to 6896
  152.5447  134.1735  159.8616 H   0  0  0  0  0  0  0  0  0  0  0  0  # atno 6908 bound_to 6896
  151.1792  133.4691  159.2627 H   0  0  0  0  0  0  0  0  0  0  0  0  # atno 6909 bound_to 6896
  144.7133  140.1504  143.6384 H   0  0  0  0  0  0  0  0  0  0  0  0  # atno 7974 bound_to 7965
  154.4767  140.2060  155.9862 H   0  0  0  0  0  0  0  0  0  0  0  0  # atno 8008 bound_to 7997
  156.1100  140.3230  155.8029 H   0  0  0  0  0  0  0  0  0  0  0  0  # atno 8009 bound_to 7997
  155.4651  140.0527  157.2977 H   0  0  0  0  0  0  0  0  0  0  0  0  # atno 8010 bound_to 7997
  139.5024  144.6180  151.6118 H   0  0  0  0  0  0  0  0  0  0  0  0  # atno 10167 bound_to 10162
  157.6666  130.9765  150.1470 H   0  0  0  0  0  0  0  0  0  0  0  0  # atno 10718 bound_to 10713
  154.4761  135.5857  153.6356 H   0  0  0  0  0  0  0  0  0  0  0  0  # atno 10763 bound_to 10752
  152.9841  135.6078  154.3305 H   0  0  0  0  0  0  0  0  0  0  0  0  # atno 10764 bound_to 10752
  154.3192  135.2844  155.2507 H   0  0  0  0  0  0  0  0  0  0  0  0  # atno 10765 bound_to 10752
  140.3059  134.7557  157.3953 H   0  0  0  0  0  0  0  0  0  0  0  0  # atno 11005 bound_to 11000
  145.9121  139.2493  143.1431 LP  0  0  0  0  0  0  0  0  0  0  0  0  # atno 17320 bound_to 7965
  145.9705  140.8763  143.0165 LP  0  0  0  0  0  0  0  0  0  0  0  0  # atno 17321 bound_to 7965
  140.5874  143.9840  150.6304 LP  0  0  0  0  0  0  0  0  0  0  0  0  # atno 17342 bound_to 10162
  140.3009  143.3261  152.0972 LP  0  0  0  0  0  0  0  0  0  0  0  0  # atno 17343 bound_to 10162
  156.2279  130.3679  149.8479 LP  0  0  0  0  0  0  0  0  0  0  0  0  # atno 17370 bound_to 10713
  156.6314  130.8667  151.3496 LP  0  0  0  0  0  0  0  0  0  0  0  0  # atno 17371 bound_to 10713
  140.1068  134.5399  155.8302 LP  0  0  0  0  0  0  0  0  0  0  0  0  # atno 17394 bound_to 11000
  141.2118  133.6712  156.6613 LP  0  0  0  0  0  0  0  0  0  0  0  0  # atno 17395 bound_to 11000

$$$$
