AV-unprocessed.smi:40|AV-procd|sdf|370|dock8
  -GOLD-   2262016213D 1   1.00000     0.00000
 Structure written by MMmdl.
 47 48  0  0  0  0  0  0  0  0  1 V2000
  151.3265  144.3810  159.8909 C   0  0  0  0  0  0  0  0  0  0  0  0
  152.4277  143.4376  159.3900 C   0  0  0  0  0  0  0  0  0  0  0  0
  152.1166  142.7882  158.0316 C   0  0  0  0  0  0  0  0  0  0  0  0
  151.1526  141.5908  158.1198 C   0  0  0  0  0  0  0  0  0  0  0  0
  150.8568  140.9589  156.7526 C   0  0  0  0  0  0  0  0  0  0  0  0
  149.6654  141.5231  156.2340 O   0  0  0  0  0  0  0  0  0  0  0  0
  148.4672  140.9715  156.5038 C   0  0  0  0  0  0  0  0  0  0  0  0
  148.3105  139.8864  157.0626 O   0  0  0  0  0  0  0  0  0  0  0  0
  147.3977  141.8149  156.0089 N   0  0  0  0  0  0  0  0  0  0  0  0
  146.0772  141.5530  156.1157 C   0  0  0  0  0  0  0  0  0  0  0  0
  145.7027  140.6162  156.9672 N   0  0  0  0  0  0  0  0  0  0  0  0
  144.4007  140.2290  157.1424 C   0  0  0  0  0  0  0  0  0  0  0  0
  144.1138  139.3246  157.9254 O   0  0  0  0  0  0  0  0  0  0  0  0
  143.4143  140.8941  156.3758 N   0  0  0  0  0  0  0  0  0  0  0  0
  141.9664  140.4766  156.5065 C   0  0  1  0  0  0  0  0  0  0  0  0
  141.1901  141.6183  156.7183 O   0  0  0  0  0  0  0  0  0  0  0  0
  140.0255  141.5609  155.9032 C   0  0  1  0  0  0  0  0  0  0  0  0
  139.4373  142.9605  155.6696 C   0  0  0  0  0  0  0  0  0  0  0  0
  140.4645  140.7851  154.6547 C   0  0  1  0  0  0  0  0  0  0  0  0
  141.0799  141.6466  153.7115 O   0  0  0  0  0  0  0  0  0  0  0  0
  141.4334  139.7632  155.2435 C   0  0  1  0  0  0  0  0  0  0  0  0
  142.4150  139.3201  154.3199 O   0  0  0  0  0  0  0  0  0  0  0  0
  143.7882  141.8962  155.4932 C   0  0  0  0  0  0  0  0  0  0  0  0
  145.0785  142.2554  155.3303 C   0  0  0  0  0  0  0  0  0  0  0  0
  145.4109  143.2336  154.4699 F   0  0  0  0  0  0  0  0  0  0  0  0
  141.9009  139.8536  157.3995 H   0  0  0  0  0  0  0  0  0  0  0  0
  139.2908  140.9574  156.4394 H   0  0  0  0  0  0  0  0  0  0  0  0
  139.6197  140.2999  154.1649 H   0  0  0  0  0  0  0  0  0  0  0  0
  140.8675  138.8955  155.5850 H   0  0  0  0  0  0  0  0  0  0  0  0
  151.5673  144.7615  160.8839 H   0  0  0  0  0  0  0  0  0  0  0  0
  150.3672  143.8669  159.9568 H   0  0  0  0  0  0  0  0  0  0  0  0
  151.2036  145.2406  159.2325 H   0  0  0  0  0  0  0  0  0  0  0  0
  153.3769  143.9718  159.3370 H   0  0  0  0  0  0  0  0  0  0  0  0
  152.5682  142.6481  160.1289 H   0  0  0  0  0  0  0  0  0  0  0  0
  151.6784  143.5508  157.3865 H   0  0  0  0  0  0  0  0  0  0  0  0
  153.0450  142.4821  157.5483 H   0  0  0  0  0  0  0  0  0  0  0  0
  151.5772  140.8253  158.7689 H   0  0  0  0  0  0  0  0  0  0  0  0
  150.2163  141.9026  158.5842 H   0  0  0  0  0  0  0  0  0  0  0  0
  151.6850  141.1319  156.0641 H   0  0  0  0  0  0  0  0  0  0  0  0
  150.7351  139.8802  156.8589 H   0  0  0  0  0  0  0  0  0  0  0  0
  147.6889  142.7062  155.6356 H   0  0  0  0  0  0  0  0  0  0  0  0
  138.5690  142.9157  155.0122 H   0  0  0  0  0  0  0  0  0  0  0  0
  140.1668  143.6348  155.2206 H   0  0  0  0  0  0  0  0  0  0  0  0
  139.1184  143.4064  156.6118 H   0  0  0  0  0  0  0  0  0  0  0  0
  141.4220  141.1219  153.0041 H   0  0  0  0  0  0  0  0  0  0  0  0
  142.6933  140.0605  153.8022 H   0  0  0  0  0  0  0  0  0  0  0  0
  143.0405  142.4113  154.9089 H   0  0  0  0  0  0  0  0  0  0  0  0
  1  2  1  0  0  0  0
  1 30  1  0  0  0  0
  1 31  1  0  0  0  0
  1 32  1  0  0  0  0
  2  3  1  0  0  0  0
  2 33  1  0  0  0  0
  2 34  1  0  0  0  0
  3  4  1  0  0  0  0
  3 35  1  0  0  0  0
  3 36  1  0  0  0  0
  4  5  1  0  0  0  0
  4 37  1  0  0  0  0
  4 38  1  0  0  0  0
  5  6  1  0  0  0  0
  5 39  1  0  0  0  0
  5 40  1  0  0  0  0
  6  7  1  0  0  0  0
  7  8  2  0  0  0  0
  7  9  1  0  0  0  0
  9 10  1  0  0  0  0
  9 41  1  0  0  0  0
 10 24  1  0  0  0  0
 10 11  2  0  0  0  0
 11 12  1  0  0  0  0
 12 13  2  0  0  0  0
 12 14  1  0  0  0  0
 14 15  1  0  0  0  0
 14 23  1  0  0  0  0
 15 26  1  0  0  0  0
 15 21  1  0  0  0  0
 15 16  1  0  0  0  0
 16 17  1  0  0  0  0
 17 27  1  0  0  0  0
 17 18  1  0  0  0  0
 17 19  1  0  0  0  0
 18 42  1  0  0  0  0
 18 43  1  0  0  0  0
 18 44  1  0  0  0  0
 19 28  1  0  0  0  0
 19 20  1  0  0  0  0
 19 21  1  0  0  0  0
 20 45  1  0  0  0  0
 21 29  1  0  0  0  0
 21 22  1  0  0  0  0
 22 46  1  0  0  0  0
 23 24  2  0  0  0  0
 23 47  1  0  0  0  0
 24 25  1  0  0  0  0
M  END
> <s_m_source_file>
AV-unprocessed.smi

> <i_m_source_file_index>
40

> <i_lp_mmshare_version>
43012

> <i_f3d_flags>
0

> <s_epik_input>
W0NIM11bQ0gyXVtDSDJdW0NIMl1bQ0gyXU9DKD1PKVtOSF1jMW5jKD1PKW4oW2NIXWMxRilbQ0BASF0yT1tDQEhdKFtDSDNdKVtDQEBIXShbT0hdKVtDQEhdMltPSF0=

> <s_epik_cmdline>
J2VwaWtfcHl0aG9uJywgJy1waCcsICc3LjAnLCAnLXRuJywgJzgnLCAnLW1hJywgJzIwMCcsICctbWV0YWxfYmluZGluZycsICctaW1hZScsICc8aW5maWxlLm1hZT4nLCAnLW9tYWUnLCAnPG91dGZpbGUubWFlPic=

> <r_lp_tautomer_probability>
1

> <r_epik_Ionization_Penalty>
2.29506e-06

> <r_epik_Ionization_Penalty_Charging>
8.26867e-09

> <r_epik_Ionization_Penalty_Neutral>
2.2868e-06

> <r_epik_State_Penalty>
-0

> <r_epik_Charging_Adjusted_Penalty>
8.26867e-09

> <i_epik_Tot_Q>
0

> <i_epik_Tot_abs_Q>
0

> <r_epik_Metal_State_Penalty>
-0

> <b_epik_Metal_Only>
0

> <s_epik_Chemistry_Notes>
This compound has an ester and may undergo hydrolysis at high or low pH. This compound contains an acetal/aminal-like group ( X-CH(R)-Y where X, Y are N, S, or O) that may be acid/base labile, releasing an aldehyde.

> <s_lp_Force_Field>
OPLS_2005

> <r_lp_Energy>
45.3247

> <b_lp_Chiralities_Consistent>
1

> <s_lp_Variant>
AV-unprocessed.smi:40-4

> <Gold.Version>
5.8.1

> <Gold.Id.Protein>
6NUR|6NUR_protein|mol2

> <Gold.PLP.Fitness>
39.8892

> <Gold.PLP.PLP>
-29.7375

> <Gold.PLP.part.hbond>
-3.4849

> <Gold.PLP.part.metal>
0.0000

> <Gold.PLP.part.buried>
-3.7184

> <Gold.PLP.part.nonpolar>
-23.6690

> <Gold.PLP.part.repulsive>
1.5623

> <Gold.PLP.ligand.clash>
0.0000

> <Gold.PLP.ligand.torsion>
0.7794

> <Gold.PLP.Chemscore.Hbond>
2.8811

> <Gold.PLP.Chemscore.CHOScore>
1.0000

> <Gold.PLP.Chemscore.Metal>
0.0000

> <Gold.Chemscore.Hbonds>
donor molecule, donor type, donor heavy atom, donor atom, acceptor molecule, acceptor atom, score
      L1  H     9    41       P1  8028  0.28
      L1  H    20    45       P1 10160  0.05
      L1  H    22    46       P1 10175  0.86
      L1  C    23    47       P1 10174  0.34

> <Gold.PLP.Chemscore.Internal.Correction>
0.0673

> <Gold.Rescore>
     Score         DG    S(hbond)    S(metal)    S(lipo)     H(rot)  DE(clash)    DE(int)     intcor
      7.73     -11.96       2.49        0.00      65.06       3.70       1.81       2.43       ----

> <Gold.Chemscore.Fitness>
7.7256

> <Gold.Chemscore.DG>
-11.9611

> <Gold.Chemscore.ZeroCoef>
-5.4800

> <Gold.Chemscore.Hbond>
2.4939

> <Gold.Chemscore.Metal>
0.0000

> <Gold.Chemscore.Lipo>
65.0641

> <Gold.Chemscore.Internal_Hbond>
0.0000

> <Gold.Chemscore.DEClash>
1.8057

> <Gold.Chemscore.DEInternal>
2.4299

> <Gold.Chemscore.Rot>
3.6957

> <Gold.Chemscore.Internal.Correction>
   9.000000E+99

> <Gold.Chemscore.Hbonds>
donor molecule, donor type, donor heavy atom, donor atom, acceptor molecule, acceptor atom, score
      L1  H     9    41       P1  8028  0.17
      L1  H    20    45       P1 10160  0.07
      L1  H    22    46       P1 10175  0.84

> <Gold.Chemscore.Hbond.Weighted>
-8.3296

> <Gold.Chemscore.Metal.Weighted>
-0.0000

> <Gold.Chemscore.Lipo.Weighted>
-7.6125

> <Gold.Chemscore.Internal_Hbond.Weighted>
0.0000

> <Gold.Chemscore.DEClash.Weighted>
1.8057

> <Gold.Chemscore.DEInternal.Weighted>
2.4299

> <Gold.Chemscore.Rot.Weighted>
9.4610

> <Gold.Chemscore.Internal.Correction.Weighted>
   9.000000E+99

> <Gold.Protein.RotatedTorsions>
[ 6907 6896 6895 6894 ] final   12.74 input  -60.11 | X-H torsion
[ 7974 7965 7964 7962 ] final  111.64 input  175.53 | X-H torsion
[ 8008 7997 7996 7995 ] final   96.73 input   59.86 | X-H torsion
[ 10167 10162 10161 10158 ] final  -99.48 input  -65.29 | X-H torsion
[ 10718 10713 10712 10709 ] final  -33.81 input   66.30 | X-H torsion
[ 10763 10752 10751 10750 ] final   76.03 input  -60.55 | X-H torsion
[ 11005 11000 10999 10996 ] final  -91.39 input  -57.11 | X-H torsion

> <Gold.Protein.ActiveResidues>
 VAL166  LYS551  ARG553  GLY616  TRP617  ASP618  TYR619  PRO620  LYS621  CYS622 
 ASP623  PHE694  ASN695  SER759  ASP760  ASP761  ALA762  ILE779  LEU786  VAL792 
 PHE793  MET794  SER795  GLU796  ALA797  LYS798  CYS799  TRP800  GLU811  SER814 

> <Gold.Protein.RotatedAtoms>
  151.7751  135.0776  160.0365 H   0  0  0  0  0  0  0  0  0  0  0  0  # atno 6907 bound_to 6896
  152.3262  133.5903  159.5786 H   0  0  0  0  0  0  0  0  0  0  0  0  # atno 6908 bound_to 6896
  150.7396  133.9853  159.3631 H   0  0  0  0  0  0  0  0  0  0  0  0  # atno 6909 bound_to 6896
  145.2396  139.2784  143.4124 H   0  0  0  0  0  0  0  0  0  0  0  0  # atno 7974 bound_to 7965
  156.0827  140.3268  155.7714 H   0  0  0  0  0  0  0  0  0  0  0  0  # atno 8008 bound_to 7997
  155.5126  140.0578  157.2938 H   0  0  0  0  0  0  0  0  0  0  0  0  # atno 8009 bound_to 7997
  154.4591  140.1958  156.0311 H   0  0  0  0  0  0  0  0  0  0  0  0  # atno 8010 bound_to 7997
  140.2620  143.3401  152.0616 H   0  0  0  0  0  0  0  0  0  0  0  0  # atno 10167 bound_to 10162
  156.3581  130.4319  149.7647 H   0  0  0  0  0  0  0  0  0  0  0  0  # atno 10718 bound_to 10713
  153.0696  135.4966  154.8276 H   0  0  0  0  0  0  0  0  0  0  0  0  # atno 10763 bound_to 10752
  154.7004  135.3000  154.9352 H   0  0  0  0  0  0  0  0  0  0  0  0  # atno 10764 bound_to 10752
  154.0078  135.6758  153.4816 H   0  0  0  0  0  0  0  0  0  0  0  0  # atno 10765 bound_to 10752
  141.1546  133.7753  156.9873 H   0  0  0  0  0  0  0  0  0  0  0  0  # atno 11005 bound_to 11000
  146.3332  140.2756  142.8608 LP  0  0  0  0  0  0  0  0  0  0  0  0  # atno 17320 bound_to 7965
  144.9601  140.8266  143.5519 LP  0  0  0  0  0  0  0  0  0  0  0  0  # atno 17321 bound_to 7965
  139.5014  144.6712  151.6238 LP  0  0  0  0  0  0  0  0  0  0  0  0  # atno 17342 bound_to 10162
  140.5958  143.9699  150.6353 LP  0  0  0  0  0  0  0  0  0  0  0  0  # atno 17343 bound_to 10162
  156.4822  130.8046  151.3060 LP  0  0  0  0  0  0  0  0  0  0  0  0  # atno 17370 bound_to 10713
  157.7470  131.0002  150.2918 LP  0  0  0  0  0  0  0  0  0  0  0  0  # atno 17371 bound_to 10713
  140.1026  134.9526  157.1946 LP  0  0  0  0  0  0  0  0  0  0  0  0  # atno 17394 bound_to 11000
  140.3298  134.2822  155.7230 LP  0  0  0  0  0  0  0  0  0  0  0  0  # atno 17395 bound_to 11000

$$$$
