AV-unprocessed.smi:1106|AV-procd|sdf|4779|dock3
  -GOLD-   22720 3323D 1   1.00000     0.00000
 Structure written by MMmdl.
 48 49  0  0  0  0  0  0  0  0  2 V2000
  151.9213  145.6713  159.5056 C   0  0  0  0  0  0  0  0  0  0  0  0
  151.4917  144.4734  160.3659 C   0  0  0  0  0  0  0  0  0  0  0  0
  151.9256  143.2102  159.8278 N   0  0  0  0  0  0  0  0  0  0  0  0
  153.1161  142.6264  160.2154 C   0  0  0  0  0  0  0  0  0  0  0  0
  153.5472  141.4451  159.7230 C   0  0  0  0  0  0  0  0  0  0  0  0
  154.7783  140.8612  160.1427 C   0  0  0  0  0  0  0  0  0  0  0  0
  155.7787  140.3762  160.4637 N   0  0  0  0  0  0  0  0  0  0  0  0
  152.7652  140.7088  158.7326 C   0  0  0  0  0  0  0  0  0  0  0  0
  153.1042  139.6194  158.2663 O   0  0  0  0  0  0  0  0  0  0  0  0
  151.5590  141.3438  158.3432 N   0  0  0  0  0  0  0  0  0  0  0  0
  150.7371  140.6635  157.3525 C   0  0  0  0  0  0  0  0  0  0  0  0
  151.4304  140.4629  155.9862 C   0  0  2  0  0  0  0  0  0  0  0  0
  150.4591  140.6809  154.9834 O   0  0  0  0  0  0  0  0  0  0  0  0
  152.0240  139.0510  155.7941 C   0  0  0  0  0  0  0  0  0  0  0  0
  151.0121  137.9794  155.9757 N   0  3  2  0  0  0  0  0  0  0  0  0
  151.1969  137.2405  157.2508 C   0  0  0  0  0  0  0  0  0  0  0  0
  150.0560  136.2335  157.4825 C   0  0  0  0  0  0  0  0  0  0  0  0
  149.8960  135.2521  156.3072 C   0  0  2  0  0  0  0  0  0  0  0  0
  151.0079  134.1893  156.2622 C   0  0  0  0  0  0  0  0  0  0  0  0
  149.7763  136.0443  154.9928 C   0  0  0  0  0  0  0  0  0  0  0  0
  150.9239  137.0544  154.8144 C   0  0  0  0  0  0  0  0  0  0  0  0
  151.1025  142.5790  158.8658 C   0  0  0  0  0  0  0  0  0  0  0  0
  150.0324  143.0808  158.5109 O   0  0  0  0  0  0  0  0  0  0  0  0
  151.6078  146.6081  159.9664 H   0  0  0  0  0  0  0  0  0  0  0  0
  151.4804  145.6308  158.5093 H   0  0  0  0  0  0  0  0  0  0  0  0
  153.0052  145.7048  159.3912 H   0  0  0  0  0  0  0  0  0  0  0  0
  151.9288  144.5404  161.3632 H   0  0  0  0  0  0  0  0  0  0  0  0
  150.4100  144.4203  160.5019 H   0  0  0  0  0  0  0  0  0  0  0  0
  153.7298  143.1354  160.9451 H   0  0  0  0  0  0  0  0  0  0  0  0
  150.3925  139.7166  157.7706 H   0  0  0  0  0  0  0  0  0  0  0  0
  149.8276  141.2591  157.2492 H   0  0  0  0  0  0  0  0  0  0  0  0
  152.2011  141.2227  155.8643 H   0  0  0  0  0  0  0  0  0  0  0  0
  149.6878  141.0510  155.3867 H   0  0  0  0  0  0  0  0  0  0  0  0
  152.4682  138.9431  154.8044 H   0  0  0  0  0  0  0  0  0  0  0  0
  152.8393  138.9213  156.5078 H   0  0  0  0  0  0  0  0  0  0  0  0
  152.1626  136.7331  157.2446 H   0  0  0  0  0  0  0  0  0  0  0  0
  151.2187  137.9458  158.0825 H   0  0  0  0  0  0  0  0  0  0  0  0
  150.2214  135.6871  158.4116 H   0  0  0  0  0  0  0  0  0  0  0  0
  149.1234  136.7830  157.6179 H   0  0  0  0  0  0  0  0  0  0  0  0
  148.9594  134.7118  156.4531 H   0  0  0  0  0  0  0  0  0  0  0  0
  151.9941  134.6300  156.1197 H   0  0  0  0  0  0  0  0  0  0  0  0
  150.8413  133.4853  155.4467 H   0  0  0  0  0  0  0  0  0  0  0  0
  151.0357  133.6140  157.1880 H   0  0  0  0  0  0  0  0  0  0  0  0
  149.7422  135.3622  154.1425 H   0  0  0  0  0  0  0  0  0  0  0  0
  148.8277  136.5830  154.9851 H   0  0  0  0  0  0  0  0  0  0  0  0
  150.7558  137.6147  153.8956 H   0  0  0  0  0  0  0  0  0  0  0  0
  151.8734  136.5324  154.6884 H   0  0  0  0  0  0  0  0  0  0  0  0
  150.1202  138.4481  156.0511 H   0  0  0  0  0  0  0  0  0  0  0  0
  1  2  1  0  0  0  0
  1 24  1  0  0  0  0
  1 25  1  0  0  0  0
  1 26  1  0  0  0  0
  2  3  1  0  0  0  0
  2 27  1  0  0  0  0
  2 28  1  0  0  0  0
  3 22  1  0  0  0  0
  3  4  1  0  0  0  0
  4  5  2  0  0  0  0
  4 29  1  0  0  0  0
  5  6  1  0  0  0  0
  5  8  1  0  0  0  0
  6  7  3  0  0  0  0
  8  9  2  0  0  0  0
  8 10  1  0  0  0  0
 10 11  1  0  0  0  0
 10 22  1  0  0  0  0
 11 12  1  0  0  0  0
 11 30  1  0  0  0  0
 11 31  1  0  0  0  0
 12 13  1  0  0  0  0
 12 14  1  0  0  0  0
 12 32  1  0  0  0  0
 13 33  1  0  0  0  0
 14 15  1  0  0  0  0
 14 34  1  0  0  0  0
 14 35  1  0  0  0  0
 15 21  1  0  0  0  0
 15 16  1  0  0  0  0
 15 48  1  0  0  0  0
 16 17  1  0  0  0  0
 16 36  1  0  0  0  0
 16 37  1  0  0  0  0
 17 18  1  0  0  0  0
 17 38  1  0  0  0  0
 17 39  1  0  0  0  0
 18 19  1  0  0  0  0
 18 20  1  0  0  0  0
 18 40  1  0  0  0  0
 19 41  1  0  0  0  0
 19 42  1  0  0  0  0
 19 43  1  0  0  0  0
 20 21  1  0  0  0  0
 20 44  1  0  0  0  0
 20 45  1  0  0  0  0
 21 46  1  0  0  0  0
 21 47  1  0  0  0  0
 22 23  2  0  0  0  0
M  CHG  1  15   1
M  END
> <s_m_source_file>
AV-unprocessed.smi

> <i_m_source_file_index>
1106

> <i_lp_mmshare_version>
43012

> <i_f3d_flags>
0

> <s_epik_input>
W0NIM11bQ0gyXW4xW2NIXWMoQyNOKWMoPU8pbihjMT1PKVtDSDJdW0NASF0oW09IXSlbQ0gyXU4yW0NIMl1bQ0gyXVtDSF0oW0NIM10pW0NIMl1bQ0gyXTI=

> <s_epik_cmdline>
J2VwaWtfcHl0aG9uJywgJy1waCcsICc3LjAnLCAnLXRuJywgJzgnLCAnLW1hJywgJzIwMCcsICctbWV0YWxfYmluZGluZycsICctaW1hZScsICc8aW5maWxlLm1hZT4nLCAnLW9tYWUnLCAnPG91dGZpbGUubWFlPic=

> <r_epik_Ionization_Penalty>
0.00136816

> <r_epik_Ionization_Penalty_Charging>
0.00136813

> <r_epik_Ionization_Penalty_Neutral>
3.19882e-08

> <r_epik_State_Penalty>
0.000910892

> <r_epik_Charging_Adjusted_Penalty>
0.00227902

> <i_epik_Tot_Q>
1

> <i_epik_Tot_abs_Q>
1

> <r_epik_Metal_State_Penalty>
-0

> <b_epik_Metal_Only>
0

> <s_lp_Force_Field>
OPLS_2005

> <r_lp_Energy>
29.5745

> <b_lp_Chiralities_Consistent>
1

> <s_lp_Variant>
AV-unprocessed.smi:1106-3

> <Gold.Version>
5.8.1

> <Gold.Id.Protein>
6NUR|6NUR_protein|mol2

> <Gold.PLP.Fitness>
46.2913

> <Gold.PLP.PLP>
-43.6941

> <Gold.PLP.part.hbond>
-2.3226

> <Gold.PLP.part.metal>
0.0000

> <Gold.PLP.part.buried>
-5.1364

> <Gold.PLP.part.nonpolar>
-36.7281

> <Gold.PLP.part.repulsive>
0.1873

> <Gold.PLP.ligand.clash>
0.0000

> <Gold.PLP.ligand.torsion>
1.6187

> <Gold.PLP.Chemscore.Hbond>
1.9280

> <Gold.PLP.Chemscore.CHOScore>
0.0000

> <Gold.PLP.Chemscore.Metal>
0.0000

> <Gold.Chemscore.Hbonds>
donor molecule, donor type, donor heavy atom, donor atom, acceptor molecule, acceptor atom, score
      P1  H  7989  7998       L1    13  0.85
      P1  H  7997  8010       L1     9  0.99

> <Gold.PLP.Chemscore.Internal.Correction>
0.0506

> <Gold.Rescore>
     Score         DG    S(hbond)    S(metal)    S(lipo)     H(rot)  DE(clash)    DE(int)     intcor
      9.66     -14.36       1.35        0.00      91.62       2.48       0.44       4.27       ----

> <Gold.Chemscore.Fitness>
9.6560

> <Gold.Chemscore.DG>
-14.3608

> <Gold.Chemscore.ZeroCoef>
-5.4800

> <Gold.Chemscore.Hbond>
1.3531

> <Gold.Chemscore.Metal>
0.0000

> <Gold.Chemscore.Lipo>
91.6229

> <Gold.Chemscore.Internal_Hbond>
0.0000

> <Gold.Chemscore.DEClash>
0.4390

> <Gold.Chemscore.DEInternal>
4.2658

> <Gold.Chemscore.Rot>
2.4838

> <Gold.Chemscore.Internal.Correction>
   9.000000E+99

> <Gold.Chemscore.Hbonds>
donor molecule, donor type, donor heavy atom, donor atom, acceptor molecule, acceptor atom, score
      P1  H  7989  7998       L1    13  0.19
      P1  H  7997  8010       L1     9  0.40

> <Gold.Chemscore.Hbond.Weighted>
-4.5194

> <Gold.Chemscore.Metal.Weighted>
-0.0000

> <Gold.Chemscore.Lipo.Weighted>
-10.7199

> <Gold.Chemscore.Internal_Hbond.Weighted>
0.0000

> <Gold.Chemscore.DEClash.Weighted>
0.4390

> <Gold.Chemscore.DEInternal.Weighted>
4.2658

> <Gold.Chemscore.Rot.Weighted>
6.3585

> <Gold.Chemscore.Internal.Correction.Weighted>
   9.000000E+99

> <Gold.Protein.RotatedTorsions>
[ 6907 6896 6895 6894 ] final   55.19 input  -60.11 | X-H torsion
[ 7974 7965 7964 7962 ] final  -13.02 input  175.53 | X-H torsion
[ 8008 7997 7996 7995 ] final   19.34 input   59.86 | X-H torsion
[ 10167 10162 10161 10158 ] final -150.73 input  -65.29 | X-H torsion
[ 10718 10713 10712 10709 ] final  -40.25 input   66.30 | X-H torsion
[ 10763 10752 10751 10750 ] final   49.91 input  -60.55 | X-H torsion
[ 11005 11000 10999 10996 ] final -106.10 input  -57.11 | X-H torsion

> <Gold.Protein.ActiveResidues>
 VAL166  LYS551  ARG553  GLY616  TRP617  ASP618  TYR619  PRO620  LYS621  CYS622 
 ASP623  PHE694  ASN695  SER759  ASP760  ASP761  ALA762  ILE779  LEU786  VAL792 
 PHE793  MET794  SER795  GLU796  ALA797  LYS798  CYS799  TRP800  GLU811  SER814 

> <Gold.Protein.RotatedAtoms>
  152.3514  134.7000  160.0234 H   0  0  0  0  0  0  0  0  0  0  0  0  # atno 6907 bound_to 6896
  151.7353  133.3314  159.3359 H   0  0  0  0  0  0  0  0  0  0  0  0  # atno 6908 bound_to 6896
  150.7542  134.6260  159.6206 H   0  0  0  0  0  0  0  0  0  0  0  0  # atno 6909 bound_to 6896
  146.2130  140.3142  142.8385 H   0  0  0  0  0  0  0  0  0  0  0  0  # atno 7974 bound_to 7965
  154.9194  140.3025  155.5224 H   0  0  0  0  0  0  0  0  0  0  0  0  # atno 8008 bound_to 7997
  156.3010  140.2374  156.4178 H   0  0  0  0  0  0  0  0  0  0  0  0  # atno 8009 bound_to 7997
  154.8346  140.0416  157.1489 H   0  0  0  0  0  0  0  0  0  0  0  0  # atno 8010 bound_to 7997
  139.7329  143.8781  152.2540 H   0  0  0  0  0  0  0  0  0  0  0  0  # atno 10167 bound_to 10162
  156.2834  130.4220  149.8313 H   0  0  0  0  0  0  0  0  0  0  0  0  # atno 10718 bound_to 10713
  152.9785  135.5896  154.4166 H   0  0  0  0  0  0  0  0  0  0  0  0  # atno 10763 bound_to 10752
  154.3795  135.2767  155.2221 H   0  0  0  0  0  0  0  0  0  0  0  0  # atno 10764 bound_to 10752
  154.4141  135.6074  153.6025 H   0  0  0  0  0  0  0  0  0  0  0  0  # atno 10765 bound_to 10752
  141.1021  133.8865  157.1815 H   0  0  0  0  0  0  0  0  0  0  0  0  # atno 11005 bound_to 11000
  144.8966  140.7591  143.5893 LP  0  0  0  0  0  0  0  0  0  0  0  0  # atno 17320 bound_to 7965
  145.3067  139.1832  143.4661 LP  0  0  0  0  0  0  0  0  0  0  0  0  # atno 17321 bound_to 7965
  139.8709  144.7068  150.8988 LP  0  0  0  0  0  0  0  0  0  0  0  0  # atno 17342 bound_to 10162
  140.7774  143.3739  151.1599 LP  0  0  0  0  0  0  0  0  0  0  0  0  # atno 17343 bound_to 10162
  156.5751  130.8442  151.3367 LP  0  0  0  0  0  0  0  0  0  0  0  0  # atno 17370 bound_to 10713
  157.7321  130.9710  150.1913 LP  0  0  0  0  0  0  0  0  0  0  0  0  # atno 17371 bound_to 10713
  139.9876  135.0076  156.9900 LP  0  0  0  0  0  0  0  0  0  0  0  0  # atno 17394 bound_to 11000
  140.4996  134.1111  155.7248 LP  0  0  0  0  0  0  0  0  0  0  0  0  # atno 17395 bound_to 11000

$$$$
