AV-unprocessed.smi:1827|AV-procd|sdf|7423|dock5
  -GOLD-   22720 9103D 1   1.00000     0.00000
 Structure written by MMmdl.
 43 44  0  0  0  0  0  0  0  0  3 V2000
  151.1074  138.0001  154.4143 C   0  0  0  0  0  0  0  0  0  0  0  0
  150.0863  139.1014  154.3412 C   0  0  0  0  0  0  0  0  0  0  0  0
  150.4088  140.3009  154.8072 N   0  0  0  0  0  0  0  0  0  0  0  0
  149.2859  141.0373  154.6659 N   0  0  0  0  0  0  0  0  0  0  0  0
  148.2354  140.3378  154.1159 C   0  0  0  0  0  0  0  0  0  0  0  0
  146.8953  140.9534  153.8872 C   0  0  0  0  0  0  0  0  0  0  0  0
  148.7366  139.0925  153.8685 C   0  0  0  0  0  0  0  0  0  0  0  0
  147.9872  138.0215  153.3200 N   0  0  0  0  0  0  0  0  0  0  0  0
  146.7933  137.5781  153.7421 C   0  0  0  0  0  0  0  0  0  0  0  0
  146.1723  138.0325  154.7022 O   0  0  0  0  0  0  0  0  0  0  0  0
  146.3592  136.5520  152.9961 N   0  0  0  0  0  0  0  0  0  0  0  0
  145.0989  135.8375  153.1981 C   0  0  2  0  0  0  0  0  0  0  0  0
  145.3516  134.3280  153.3536 C   0  0  0  0  0  0  0  0  0  0  0  0
  145.7664  133.6693  152.0249 C   0  0  0  0  0  0  0  0  0  0  0  0
  144.7673  133.9305  150.9578 N   0  3  2  0  0  0  0  0  0  0  0  0
  145.0747  133.1937  149.7065 C   0  0  0  0  0  0  0  0  0  0  0  0
  143.8215  133.0891  148.8300 C   0  0  0  0  0  0  0  0  0  0  0  0
  143.5773  134.2215  148.1433 N   0  5  0  0  0  0  0  0  0  0  0  0
  143.1663  132.0486  148.8287 O   0  0  0  0  0  0  0  0  0  0  0  0
  144.5617  135.3883  150.7428 C   0  0  0  0  0  0  0  0  0  0  0  0
  144.1116  136.0822  152.0401 C   0  0  0  0  0  0  0  0  0  0  0  0
  149.2505  142.0049  154.9538 H   0  0  0  0  0  0  0  0  0  0  0  0
  150.6338  137.0325  154.5803 H   0  0  0  0  0  0  0  0  0  0  0  0
  151.8100  138.1611  155.2327 H   0  0  0  0  0  0  0  0  0  0  0  0
  151.6848  137.9395  153.4917 H   0  0  0  0  0  0  0  0  0  0  0  0
  146.1672  140.2072  153.5692 H   0  0  0  0  0  0  0  0  0  0  0  0
  146.9500  141.7202  153.1144 H   0  0  0  0  0  0  0  0  0  0  0  0
  146.5216  141.4188  154.7995 H   0  0  0  0  0  0  0  0  0  0  0  0
  148.4470  137.4823  152.6012 H   0  0  0  0  0  0  0  0  0  0  0  0
  146.9437  136.2410  152.2340 H   0  0  0  0  0  0  0  0  0  0  0  0
  144.6507  136.2007  154.1249 H   0  0  0  0  0  0  0  0  0  0  0  0
  146.1111  134.1472  154.1154 H   0  0  0  0  0  0  0  0  0  0  0  0
  144.4406  133.8497  153.7160 H   0  0  0  0  0  0  0  0  0  0  0  0
  146.7438  134.0347  151.7065 H   0  0  0  0  0  0  0  0  0  0  0  0
  145.8664  132.5942  152.1784 H   0  0  0  0  0  0  0  0  0  0  0  0
  145.9166  133.6598  149.1894 H   0  0  0  0  0  0  0  0  0  0  0  0
  145.3801  132.1729  149.9398 H   0  0  0  0  0  0  0  0  0  0  0  0
  144.3697  134.7595  147.7728 H   0  0  0  0  0  0  0  0  0  0  0  0
  145.4845  135.8381  150.3734 H   0  0  0  0  0  0  0  0  0  0  0  0
  143.8057  135.5524  149.9743 H   0  0  0  0  0  0  0  0  0  0  0  0
  143.1296  135.7002  152.3227 H   0  0  0  0  0  0  0  0  0  0  0  0
  143.9780  137.1505  151.8660 H   0  0  0  0  0  0  0  0  0  0  0  0
  143.8896  133.5549  151.2880 H   0  0  0  0  0  0  0  0  0  0  0  0
  1  2  1  0  0  0  0
  1 23  1  0  0  0  0
  1 24  1  0  0  0  0
  1 25  1  0  0  0  0
  2  7  1  0  0  0  0
  2  3  2  0  0  0  0
  3  4  1  0  0  0  0
  4 22  1  0  0  0  0
  4  5  1  0  0  0  0
  5  6  1  0  0  0  0
  5  7  2  0  0  0  0
  6 26  1  0  0  0  0
  6 27  1  0  0  0  0
  6 28  1  0  0  0  0
  7  8  1  0  0  0  0
  8  9  1  0  0  0  0
  8 29  1  0  0  0  0
  9 10  2  0  0  0  0
  9 11  1  0  0  0  0
 11 12  1  0  0  0  0
 11 30  1  0  0  0  0
 12 21  1  0  0  0  0
 12 13  1  0  0  0  0
 12 31  1  0  0  0  0
 13 14  1  0  0  0  0
 13 32  1  0  0  0  0
 13 33  1  0  0  0  0
 14 15  1  0  0  0  0
 14 34  1  0  0  0  0
 14 35  1  0  0  0  0
 15 16  1  0  0  0  0
 15 20  1  0  0  0  0
 15 43  1  0  0  0  0
 16 17  1  0  0  0  0
 16 36  1  0  0  0  0
 16 37  1  0  0  0  0
 17 18  1  0  0  0  0
 17 19  2  0  0  0  0
 18 38  1  0  0  0  0
 20 21  1  0  0  0  0
 20 39  1  0  0  0  0
 20 40  1  0  0  0  0
 21 41  1  0  0  0  0
 21 42  1  0  0  0  0
M  CHG  1  15   1
M  CHG  1  18  -1
M  END
> <s_m_source_file>
AV-unprocessed.smi

> <i_m_source_file_index>
1827

> <i_lp_mmshare_version>
43012

> <i_f3d_flags>
0

> <s_epik_input>
W0NIM11jMW5bbkhdYyhbQ0gzXSljMVtOSF1DKD1PKVtOSF1bQ0hdMltDSDJdW0NIMl1OKFtDSDJdW0NIMl0yKVtDSDJdQyg9TylbTkgyXQ==

> <s_epik_cmdline>
J2VwaWtfcHl0aG9uJywgJy1waCcsICc3LjAnLCAnLXRuJywgJzgnLCAnLW1hJywgJzIwMCcsICctbWV0YWxfYmluZGluZycsICctaW1hZScsICc8aW5maWxlLm1hZT4nLCAnLW9tYWUnLCAnPG91dGZpbGUubWFlPic=

> <r_lp_tautomer_probability>
0.5

> <r_epik_Ionization_Penalty>
5.72915

> <r_epik_Ionization_Penalty_Charging>
5.7288

> <r_epik_Ionization_Penalty_Neutral>
0.000348152

> <r_epik_State_Penalty>
6.54882

> <r_epik_Charging_Adjusted_Penalty>
12.2776

> <i_epik_Tot_Q>
0

> <i_epik_Tot_abs_Q>
2

> <r_epik_Metal_State_Penalty>
2.51333

> <b_epik_Metal_Only>
1

> <s_lp_Force_Field>
OPLS_2005

> <r_lp_Energy>
10.7358

> <b_lp_Chiralities_Consistent>
1

> <s_lp_Variant>
AV-unprocessed.smi:1827-5

> <Gold.Version>
5.8.1

> <Gold.Id.Protein>
6NUR|6NUR_protein|mol2

> <Gold.PLP.Fitness>
46.7559

> <Gold.PLP.PLP>
-31.7461

> <Gold.PLP.part.hbond>
-6.7755

> <Gold.PLP.part.metal>
0.0000

> <Gold.PLP.part.buried>
-2.1682

> <Gold.PLP.part.nonpolar>
-24.6657

> <Gold.PLP.part.repulsive>
1.5695

> <Gold.PLP.ligand.clash>
0.0000

> <Gold.PLP.ligand.torsion>
0.9167

> <Gold.PLP.Chemscore.Hbond>
5.5088

> <Gold.PLP.Chemscore.CHOScore>
0.0000

> <Gold.PLP.Chemscore.Metal>
0.0000

> <Gold.Chemscore.Hbonds>
donor molecule, donor type, donor heavy atom, donor atom, acceptor molecule, acceptor atom, score
      L1  H     8    29       P1  7948  0.98
      L1  H    11    30       P1  7948  0.72
      L1  H    18    38       P1  7921  0.91
      P1  H  7989  7998       L1     3  1.00
      P1  H 10192 10197       L1    18  0.89
      P1  H 10785 10796       L1    19  0.98

> <Gold.PLP.Chemscore.Internal.Correction>
0.3169

> <Gold.Rescore>
     Score         DG    S(hbond)    S(metal)    S(lipo)     H(rot)  DE(clash)    DE(int)     intcor
     19.11     -20.42       3.88        0.00      59.61       1.96       0.30       1.01       ----

> <Gold.Chemscore.Fitness>
19.1063

> <Gold.Chemscore.DG>
-20.4162

> <Gold.Chemscore.ZeroCoef>
-5.4800

> <Gold.Chemscore.Hbond>
3.8835

> <Gold.Chemscore.Metal>
0.0000

> <Gold.Chemscore.Lipo>
59.6095

> <Gold.Chemscore.Internal_Hbond>
0.0000

> <Gold.Chemscore.DEClash>
0.2994

> <Gold.Chemscore.DEInternal>
1.0105

> <Gold.Chemscore.Rot>
1.9566

> <Gold.Chemscore.Internal.Correction>
   9.000000E+99

> <Gold.Chemscore.Hbonds>
donor molecule, donor type, donor heavy atom, donor atom, acceptor molecule, acceptor atom, score
      L1  H     8    29       P1  7948  0.92
      L1  H    11    30       P1  7948  0.67
      L1  H    18    38       P1  7921  0.90
      P1  H  7989  7998       L1     3  0.18
      P1  H 10192 10197       L1    18  0.22
      P1  H 10785 10796       L1    19  0.93

> <Gold.Chemscore.Hbond.Weighted>
-12.9709

> <Gold.Chemscore.Metal.Weighted>
-0.0000

> <Gold.Chemscore.Lipo.Weighted>
-6.9743

> <Gold.Chemscore.Internal_Hbond.Weighted>
0.0000

> <Gold.Chemscore.DEClash.Weighted>
0.2994

> <Gold.Chemscore.DEInternal.Weighted>
1.0105

> <Gold.Chemscore.Rot.Weighted>
5.0090

> <Gold.Chemscore.Internal.Correction.Weighted>
   9.000000E+99

> <Gold.Protein.RotatedTorsions>
[ 6907 6896 6895 6894 ] final  176.48 input  -60.11 | X-H torsion
[ 7974 7965 7964 7962 ] final    7.14 input  175.53 | X-H torsion
[ 8008 7997 7996 7995 ] final  166.73 input   59.86 | X-H torsion
[ 10167 10162 10161 10158 ] final  -35.80 input  -65.29 | X-H torsion
[ 10718 10713 10712 10709 ] final  -84.96 input   66.30 | X-H torsion
[ 10763 10752 10751 10750 ] final  121.07 input  -60.55 | X-H torsion
[ 11005 11000 10999 10996 ] final  -58.28 input  -57.11 | X-H torsion

> <Gold.Protein.ActiveResidues>
 VAL166  LYS551  ARG553  GLY616  TRP617  ASP618  TYR619  PRO620  LYS621  CYS622 
 ASP623  PHE694  ASN695  SER759  ASP760  ASP761  ALA762  ILE779  LEU786  VAL792 
 PHE793  MET794  SER795  GLU796  ALA797  LYS798  CYS799  TRP800  GLU811  SER814 

> <Gold.Protein.RotatedAtoms>
  151.7194  133.3314  159.3310 H   0  0  0  0  0  0  0  0  0  0  0  0  # atno 6907 bound_to 6896
  150.7659  134.6462  159.6273 H   0  0  0  0  0  0  0  0  0  0  0  0  # atno 6908 bound_to 6896
  152.3662  134.6804  160.0243 H   0  0  0  0  0  0  0  0  0  0  0  0  # atno 6909 bound_to 6896
  146.2429  140.0128  142.8405 H   0  0  0  0  0  0  0  0  0  0  0  0  # atno 7974 bound_to 7965
  156.1694  140.1635  156.8474 H   0  0  0  0  0  0  0  0  0  0  0  0  # atno 8008 bound_to 7997
  154.5241  140.0771  156.8260 H   0  0  0  0  0  0  0  0  0  0  0  0  # atno 8009 bound_to 7997
  155.3544  140.3392  155.4242 H   0  0  0  0  0  0  0  0  0  0  0  0  # atno 8010 bound_to 7997
  140.7157  143.3452  151.2271 H   0  0  0  0  0  0  0  0  0  0  0  0  # atno 10167 bound_to 10162
  156.0001  130.4715  150.4490 H   0  0  0  0  0  0  0  0  0  0  0  0  # atno 10718 bound_to 10713
  153.6084  135.3435  155.2970 H   0  0  0  0  0  0  0  0  0  0  0  0  # atno 10763 bound_to 10752
  154.8623  135.4244  154.2337 H   0  0  0  0  0  0  0  0  0  0  0  0  # atno 10764 bound_to 10752
  153.3181  135.7036  153.7127 H   0  0  0  0  0  0  0  0  0  0  0  0  # atno 10765 bound_to 10752
  141.1201  133.6612  156.4897 H   0  0  0  0  0  0  0  0  0  0  0  0  # atno 11005 bound_to 11000
  145.1312  140.9519  143.4543 LP  0  0  0  0  0  0  0  0  0  0  0  0  # atno 17320 bound_to 7965
  145.0386  139.3279  143.5988 LP  0  0  0  0  0  0  0  0  0  0  0  0  # atno 17321 bound_to 7965
  139.6970  143.9596  152.2887 LP  0  0  0  0  0  0  0  0  0  0  0  0  # atno 17342 bound_to 10162
  139.9277  144.6761  150.8395 LP  0  0  0  0  0  0  0  0  0  0  0  0  # atno 17343 bound_to 10162
  157.2525  131.0549  151.2371 LP  0  0  0  0  0  0  0  0  0  0  0  0  # atno 17370 bound_to 10713
  157.3515  130.7084  149.6443 LP  0  0  0  0  0  0  0  0  0  0  0  0  # atno 17371 bound_to 10713
  140.4533  134.6908  157.5050 LP  0  0  0  0  0  0  0  0  0  0  0  0  # atno 17394 bound_to 11000
  140.0151  134.6631  155.9322 LP  0  0  0  0  0  0  0  0  0  0  0  0  # atno 17395 bound_to 11000

$$$$
