AV-unprocessed.smi:650|AV-procd|sdf|3182|dock8
  -GOLD-   22720 0103D 1   1.00000     0.00000
 Structure written by MMmdl.
 43 44  0  0  0  0  0  0  0  0  2 V2000
  150.3864  141.6141  154.7297 C   0  0  0  0  0  0  0  0  0  0  0  0
  149.0541  140.9498  154.6557 C   0  0  0  0  0  0  0  0  0  0  0  0
  148.1409  140.8087  153.6490 C   0  0  0  0  0  0  0  0  0  0  0  0
  147.0959  140.0706  154.2659 C   0  0  0  0  0  0  0  0  0  0  0  0
  145.9312  139.7123  153.5405 N   0  0  0  0  0  0  0  0  0  0  0  0
  145.1646  138.6216  153.7097 C   0  0  0  0  0  0  0  0  0  0  0  0
  145.3636  137.7370  154.5429 O   0  0  0  0  0  0  0  0  0  0  0  0
  144.1397  138.6067  152.8446 N   0  0  0  0  0  0  0  0  0  0  0  0
  143.0990  137.5840  152.7833 C   0  0  0  0  0  0  0  0  0  0  0  0
  143.6194  136.2374  152.2373 C   0  0  2  0  0  0  0  0  0  0  0  0
  144.1267  136.3944  150.7927 C   0  0  0  0  0  0  0  0  0  0  0  0
  144.6318  135.0604  150.2197 C   0  0  0  0  0  0  0  0  0  0  0  0
  143.5735  134.0205  150.2736 N   0  3  1  0  0  0  0  0  0  0  0  0
  143.9818  132.7648  149.5930 C   0  0  0  0  0  0  0  0  0  0  0  0
  143.3745  132.6299  148.1861 C   0  0  0  0  0  0  0  0  0  0  0  0
  143.8756  133.6467  147.3442 O   0  0  0  0  0  0  0  0  0  0  0  0
  143.0946  133.8097  151.6647 C   0  0  0  0  0  0  0  0  0  0  0  0
  142.5601  135.1170  152.2727 C   0  0  0  0  0  0  0  0  0  0  0  0
  147.3502  139.7828  155.5334 N   0  0  0  0  0  0  0  0  0  0  0  0
  148.6064  140.3449  155.7896 O   0  0  0  0  0  0  0  0  0  0  0  0
  150.4424  142.4493  154.0314 H   0  0  0  0  0  0  0  0  0  0  0  0
  151.1819  140.9114  154.4820 H   0  0  0  0  0  0  0  0  0  0  0  0
  150.5750  142.0006  155.7315 H   0  0  0  0  0  0  0  0  0  0  0  0
  148.2110  141.1775  152.6366 H   0  0  0  0  0  0  0  0  0  0  0  0
  145.6480  140.3604  152.8207 H   0  0  0  0  0  0  0  0  0  0  0  0
  144.0596  139.3732  152.1925 H   0  0  0  0  0  0  0  0  0  0  0  0
  142.6314  137.4443  153.7596 H   0  0  0  0  0  0  0  0  0  0  0  0
  142.3149  137.9643  152.1279 H   0  0  0  0  0  0  0  0  0  0  0  0
  144.4622  135.9274  152.8572 H   0  0  0  0  0  0  0  0  0  0  0  0
  143.3261  136.7801  150.1596 H   0  0  0  0  0  0  0  0  0  0  0  0
  144.9288  137.1323  150.7572 H   0  0  0  0  0  0  0  0  0  0  0  0
  144.9457  135.2142  149.1865 H   0  0  0  0  0  0  0  0  0  0  0  0
  145.5096  134.7195  150.7714 H   0  0  0  0  0  0  0  0  0  0  0  0
  145.0684  132.7302  149.4990 H   0  0  0  0  0  0  0  0  0  0  0  0
  143.7034  131.9098  150.2107 H   0  0  0  0  0  0  0  0  0  0  0  0
  143.6513  131.6665  147.7573 H   0  0  0  0  0  0  0  0  0  0  0  0
  142.2859  132.6654  148.1995 H   0  0  0  0  0  0  0  0  0  0  0  0
  144.5123  134.1527  147.8267 H   0  0  0  0  0  0  0  0  0  0  0  0
  142.3008  133.0641  151.6856 H   0  0  0  0  0  0  0  0  0  0  0  0
  143.9090  133.4188  152.2765 H   0  0  0  0  0  0  0  0  0  0  0  0
  142.2446  134.9230  153.2978 H   0  0  0  0  0  0  0  0  0  0  0  0
  141.6683  135.4345  151.7303 H   0  0  0  0  0  0  0  0  0  0  0  0
  142.7946  134.3849  149.7428 H   0  0  0  0  0  0  0  0  0  0  0  0
  1  2  1  0  0  0  0
  1 21  1  0  0  0  0
  1 22  1  0  0  0  0
  1 23  1  0  0  0  0
  2 20  1  0  0  0  0
  2  3  2  0  0  0  0
  3  4  1  0  0  0  0
  3 24  1  0  0  0  0
  4  5  1  0  0  0  0
  4 19  2  0  0  0  0
  5  6  1  0  0  0  0
  5 25  1  0  0  0  0
  6  7  2  0  0  0  0
  6  8  1  0  0  0  0
  8  9  1  0  0  0  0
  8 26  1  0  0  0  0
  9 10  1  0  0  0  0
  9 27  1  0  0  0  0
  9 28  1  0  0  0  0
 10 18  1  0  0  0  0
 10 11  1  0  0  0  0
 10 29  1  0  0  0  0
 11 12  1  0  0  0  0
 11 30  1  0  0  0  0
 11 31  1  0  0  0  0
 12 13  1  0  0  0  0
 12 32  1  0  0  0  0
 12 33  1  0  0  0  0
 13 14  1  0  0  0  0
 13 17  1  0  0  0  0
 13 43  1  0  0  0  0
 14 15  1  0  0  0  0
 14 34  1  0  0  0  0
 14 35  1  0  0  0  0
 15 16  1  0  0  0  0
 15 36  1  0  0  0  0
 15 37  1  0  0  0  0
 16 38  1  0  0  0  0
 17 18  1  0  0  0  0
 17 39  1  0  0  0  0
 17 40  1  0  0  0  0
 18 41  1  0  0  0  0
 18 42  1  0  0  0  0
 19 20  1  0  0  0  0
M  CHG  1  13   1
M  END
> <s_m_source_file>
AV-unprocessed.smi

> <i_m_source_file_index>
650

> <i_lp_mmshare_version>
43012

> <i_f3d_flags>
0

> <s_epik_input>
W0NIM11jMVtjSF1jKG5vMSlbTkhdQyg9TylbTkhdW0NIMl1bQ0hdMltDSDJdW0NIMl1OKFtDSDJdW0NIMl0yKVtDSDJdW0NIMl1bT0hd

> <s_epik_cmdline>
J2VwaWtfcHl0aG9uJywgJy1waCcsICc3LjAnLCAnLXRuJywgJzgnLCAnLW1hJywgJzIwMCcsICctbWV0YWxfYmluZGluZycsICctaW1hZScsICc8aW5maWxlLm1hZT4nLCAnLW9tYWUnLCAnPG91dGZpbGUubWFlPic=

> <r_epik_Ionization_Penalty>
0.00179437

> <r_epik_Ionization_Penalty_Charging>
0.00177223

> <r_epik_Ionization_Penalty_Neutral>
2.21418e-05

> <r_epik_State_Penalty>
0.00120075

> <r_epik_Charging_Adjusted_Penalty>
0.00297297

> <i_epik_Tot_Q>
1

> <i_epik_Tot_abs_Q>
1

> <r_epik_Metal_State_Penalty>
-0

> <b_epik_Metal_Only>
0

> <s_lp_Force_Field>
OPLS_2005

> <r_lp_Energy>
15.9462

> <b_lp_Chiralities_Consistent>
1

> <s_lp_Variant>
AV-unprocessed.smi:650-1

> <Gold.Version>
5.8.1

> <Gold.Id.Protein>
6NUR|6NUR_protein|mol2

> <Gold.PLP.Fitness>
48.7306

> <Gold.PLP.PLP>
-32.2843

> <Gold.PLP.part.hbond>
-6.5973

> <Gold.PLP.part.metal>
0.0000

> <Gold.PLP.part.buried>
-0.1324

> <Gold.PLP.part.nonpolar>
-24.8570

> <Gold.PLP.part.repulsive>
0.0535

> <Gold.PLP.ligand.clash>
0.0000

> <Gold.PLP.ligand.torsion>
0.8973

> <Gold.PLP.Chemscore.Hbond>
6.0655

> <Gold.PLP.Chemscore.CHOScore>
0.0000

> <Gold.PLP.Chemscore.Metal>
0.0000

> <Gold.Chemscore.Hbonds>
donor molecule, donor type, donor heavy atom, donor atom, acceptor molecule, acceptor atom, score
      L1  H     5    25       P1 10175  0.34
      L1  H     8    26       P1 10175  0.04
      L1  H    13    43       P1 10186  1.86
      L1  H    16    38       P1  7921  0.77
      P1  H  7918  7932       L1    16  0.47
      P1  H 10192 10197       L1    16  0.08

> <Gold.PLP.Chemscore.Internal.Correction>
0.0444

> <Gold.Rescore>
     Score         DG    S(hbond)    S(metal)    S(lipo)     H(rot)  DE(clash)    DE(int)     intcor
     19.09     -23.14       4.48        0.00      78.77       2.55       1.91       2.14       ----

> <Gold.Chemscore.Fitness>
19.0878

> <Gold.Chemscore.DG>
-23.1418

> <Gold.Chemscore.ZeroCoef>
-5.4800

> <Gold.Chemscore.Hbond>
4.4826

> <Gold.Chemscore.Metal>
0.0000

> <Gold.Chemscore.Lipo>
78.7674

> <Gold.Chemscore.Internal_Hbond>
0.0000

> <Gold.Chemscore.DEClash>
1.9141

> <Gold.Chemscore.DEInternal>
2.1398

> <Gold.Chemscore.Rot>
2.5492

> <Gold.Chemscore.Internal.Correction>
   9.000000E+99

> <Gold.Chemscore.Hbonds>
donor molecule, donor type, donor heavy atom, donor atom, acceptor molecule, acceptor atom, score
      L1  H     5    25       P1 10175  0.28
      L1  H     8    26       P1 10175  0.07
      L1  H    13    43       P1 10186  0.89
      L1  H    16    38       P1  7921  0.76
      P1  H  7918  7932       L1    16  0.02
      P1  H 10192 10197       L1    16  0.02

> <Gold.Chemscore.Hbond.Weighted>
-14.9720

> <Gold.Chemscore.Metal.Weighted>
-0.0000

> <Gold.Chemscore.Lipo.Weighted>
-9.2158

> <Gold.Chemscore.Internal_Hbond.Weighted>
0.0000

> <Gold.Chemscore.DEClash.Weighted>
1.9141

> <Gold.Chemscore.DEInternal.Weighted>
2.1398

> <Gold.Chemscore.Rot.Weighted>
6.5260

> <Gold.Chemscore.Internal.Correction.Weighted>
   9.000000E+99

> <Gold.Protein.RotatedTorsions>
[ 6907 6896 6895 6894 ] final -133.36 input  -60.11 | X-H torsion
[ 7974 7965 7964 7962 ] final   12.30 input  175.53 | X-H torsion
[ 8008 7997 7996 7995 ] final   74.17 input   59.86 | X-H torsion
[ 10167 10162 10161 10158 ] final  152.98 input  -65.29 | X-H torsion
[ 10718 10713 10712 10709 ] final  176.69 input   66.30 | X-H torsion
[ 10763 10752 10751 10750 ] final -154.57 input  -60.55 | X-H torsion
[ 11005 11000 10999 10996 ] final  -16.71 input  -57.11 | X-H torsion

> <Gold.Protein.ActiveResidues>
 VAL166  LYS551  ARG553  GLY616  TRP617  ASP618  TYR619  PRO620  LYS621  CYS622 
 ASP623  PHE694  ASN695  SER759  ASP760  ASP761  ALA762  ILE779  LEU786  VAL792 
 PHE793  MET794  SER795  GLU796  ALA797  LYS798  CYS799  TRP800  GLU811  SER814 

> <Gold.Protein.RotatedAtoms>
  150.9731  133.6323  159.2734 H   0  0  0  0  0  0  0  0  0  0  0  0  # atno 6907 bound_to 6896
  151.3605  135.0902  159.9442 H   0  0  0  0  0  0  0  0  0  0  0  0  # atno 6908 bound_to 6896
  152.5190  133.9306  159.7633 H   0  0  0  0  0  0  0  0  0  0  0  0  # atno 6909 bound_to 6896
  146.2354  139.9356  142.8490 H   0  0  0  0  0  0  0  0  0  0  0  0  # atno 7974 bound_to 7965
  155.7944  140.3478  155.5367 H   0  0  0  0  0  0  0  0  0  0  0  0  # atno 8008 bound_to 7997
  155.8601  140.0970  157.1639 H   0  0  0  0  0  0  0  0  0  0  0  0  # atno 8009 bound_to 7997
  154.4011  140.1360  156.3938 H   0  0  0  0  0  0  0  0  0  0  0  0  # atno 8010 bound_to 7997
  139.4829  144.5312  151.7719 H   0  0  0  0  0  0  0  0  0  0  0  0  # atno 10167 bound_to 10162
  156.9165  130.9926  151.3012 H   0  0  0  0  0  0  0  0  0  0  0  0  # atno 10718 bound_to 10713
  154.7849  135.3187  154.7907 H   0  0  0  0  0  0  0  0  0  0  0  0  # atno 10763 bound_to 10752
  153.8610  135.6853  153.4787 H   0  0  0  0  0  0  0  0  0  0  0  0  # atno 10764 bound_to 10752
  153.1498  135.4704  154.9558 H   0  0  0  0  0  0  0  0  0  0  0  0  # atno 10765 bound_to 10752
  140.8096  133.8151  155.9550 H   0  0  0  0  0  0  0  0  0  0  0  0  # atno 11005 bound_to 11000
  145.2001  140.9851  143.4160 LP  0  0  0  0  0  0  0  0  0  0  0  0  # atno 17320 bound_to 7965
  144.9781  139.3811  143.6276 LP  0  0  0  0  0  0  0  0  0  0  0  0  # atno 17321 bound_to 7965
  140.4839  144.1410  150.5937 LP  0  0  0  0  0  0  0  0  0  0  0  0  # atno 17342 bound_to 10162
  140.4247  143.2595  151.9671 LP  0  0  0  0  0  0  0  0  0  0  0  0  # atno 17343 bound_to 10162
  157.5935  130.8461  149.8694 LP  0  0  0  0  0  0  0  0  0  0  0  0  # atno 17370 bound_to 10713
  156.0511  130.3717  150.1199 LP  0  0  0  0  0  0  0  0  0  0  0  0  # atno 17371 bound_to 10713
  140.9212  134.2140  157.4925 LP  0  0  0  0  0  0  0  0  0  0  0  0  # atno 17394 bound_to 11000
  139.8715  134.9793  156.5030 LP  0  0  0  0  0  0  0  0  0  0  0  0  # atno 17395 bound_to 11000

$$$$
