AV-unprocessed.smi:1451|AV-procd|sdf|5901|dock3
  -GOLD-   22720 5583D 1   1.00000     0.00000
 Structure written by MMmdl.
 47 48  0  0  0  0  0  0  0  0  2 V2000
  141.7991  134.2669  153.0535 C   0  0  0  0  0  0  0  0  0  0  0  0
  143.0759  135.0554  152.7123 C   0  0  2  0  0  0  0  0  0  0  0  0
  143.8840  134.4181  151.5671 C   0  0  0  0  0  0  0  0  0  0  0  0
  144.6156  133.1534  152.0383 C   0  0  0  0  0  0  0  0  0  0  0  0
  145.4668  133.4404  153.2852 C   0  0  0  0  0  0  0  0  0  0  0  0
  144.6412  134.0174  154.3775 N   0  3  1  0  0  0  0  0  0  0  0  0
  145.4056  134.1599  155.6425 C   0  0  0  0  0  0  0  0  0  0  0  0
  146.3309  135.3879  155.6349 C   0  0  0  0  0  0  0  0  0  0  0  0
  147.3251  135.2822  156.6944 N   0  0  0  0  0  0  0  0  0  0  0  0
  147.4260  136.1273  157.7303 C   0  0  0  0  0  0  0  0  0  0  0  0
  146.6613  137.0773  157.9010 O   0  0  0  0  0  0  0  0  0  0  0  0
  148.5505  135.8381  158.7342 C   0  0  0  0  0  0  0  0  0  0  0  0
  148.0689  135.1773  159.9587 N   0  0  0  0  0  0  0  0  0  0  0  0
  148.0317  133.7688  159.9599 C   0  0  0  0  0  0  0  0  0  0  0  0
  147.5963  133.0483  161.0114 C   0  0  0  0  0  0  0  0  0  0  0  0
  147.6157  131.5276  161.0021 C   0  0  0  0  0  0  0  0  0  0  0  0
  147.9042  131.0583  159.7879 F   0  0  0  0  0  0  0  0  0  0  0  0
  148.5407  131.0813  161.8505 F   0  0  0  0  0  0  0  0  0  0  0  0
  146.4359  131.0291  161.3739 F   0  0  0  0  0  0  0  0  0  0  0  0
  147.1884  133.7983  162.1833 C   0  0  0  0  0  0  0  0  0  0  0  0
  147.2243  135.1449  162.2013 C   0  0  0  0  0  0  0  0  0  0  0  0
  147.6777  135.9150  161.0409 C   0  0  0  0  0  0  0  0  0  0  0  0
  147.7044  137.1461  161.0405 O   0  0  0  0  0  0  0  0  0  0  0  0
  143.9721  135.2763  153.9485 C   0  0  0  0  0  0  0  0  0  0  0  0
  142.0236  133.2699  153.4324 H   0  0  0  0  0  0  0  0  0  0  0  0
  141.1633  134.1520  152.1753 H   0  0  0  0  0  0  0  0  0  0  0  0
  141.2133  134.7829  153.8148 H   0  0  0  0  0  0  0  0  0  0  0  0
  142.7462  136.0368  152.3686 H   0  0  0  0  0  0  0  0  0  0  0  0
  143.2358  134.1888  150.7205 H   0  0  0  0  0  0  0  0  0  0  0  0
  144.6183  135.1379  151.2028 H   0  0  0  0  0  0  0  0  0  0  0  0
  143.8953  132.3646  152.2573 H   0  0  0  0  0  0  0  0  0  0  0  0
  145.2495  132.7728  151.2368 H   0  0  0  0  0  0  0  0  0  0  0  0
  145.9282  132.5105  153.6200 H   0  0  0  0  0  0  0  0  0  0  0  0
  146.2785  134.1271  153.0392 H   0  0  0  0  0  0  0  0  0  0  0  0
  144.7073  134.2713  156.4734 H   0  0  0  0  0  0  0  0  0  0  0  0
  145.9723  133.2475  155.8362 H   0  0  0  0  0  0  0  0  0  0  0  0
  146.8385  135.4821  154.6745 H   0  0  0  0  0  0  0  0  0  0  0  0
  145.7513  136.3000  155.7836 H   0  0  0  0  0  0  0  0  0  0  0  0
  147.9871  134.5219  156.6343 H   0  0  0  0  0  0  0  0  0  0  0  0
  149.3008  135.2254  158.2330 H   0  0  0  0  0  0  0  0  0  0  0  0
  149.0658  136.7662  158.9902 H   0  0  0  0  0  0  0  0  0  0  0  0
  148.3767  133.3086  159.0454 H   0  0  0  0  0  0  0  0  0  0  0  0
  146.8425  133.2721  163.0607 H   0  0  0  0  0  0  0  0  0  0  0  0
  146.9101  135.6710  163.0909 H   0  0  0  0  0  0  0  0  0  0  0  0
  144.7346  136.0230  153.7208 H   0  0  0  0  0  0  0  0  0  0  0  0
  143.3695  135.6901  154.7560 H   0  0  0  0  0  0  0  0  0  0  0  0
  143.9105  133.3444  154.5607 H   0  0  0  0  0  0  0  0  0  0  0  0
  1  2  1  0  0  0  0
  1 25  1  0  0  0  0
  1 26  1  0  0  0  0
  1 27  1  0  0  0  0
  2 24  1  0  0  0  0
  2  3  1  0  0  0  0
  2 28  1  0  0  0  0
  3  4  1  0  0  0  0
  3 29  1  0  0  0  0
  3 30  1  0  0  0  0
  4  5  1  0  0  0  0
  4 31  1  0  0  0  0
  4 32  1  0  0  0  0
  5  6  1  0  0  0  0
  5 33  1  0  0  0  0
  5 34  1  0  0  0  0
  6  7  1  0  0  0  0
  6 24  1  0  0  0  0
  6 47  1  0  0  0  0
  7  8  1  0  0  0  0
  7 35  1  0  0  0  0
  7 36  1  0  0  0  0
  8  9  1  0  0  0  0
  8 37  1  0  0  0  0
  8 38  1  0  0  0  0
  9 10  1  0  0  0  0
  9 39  1  0  0  0  0
 10 11  2  0  0  0  0
 10 12  1  0  0  0  0
 12 13  1  0  0  0  0
 12 40  1  0  0  0  0
 12 41  1  0  0  0  0
 13 22  1  0  0  0  0
 13 14  1  0  0  0  0
 14 15  2  0  0  0  0
 14 42  1  0  0  0  0
 15 16  1  0  0  0  0
 15 20  1  0  0  0  0
 16 17  1  0  0  0  0
 16 18  1  0  0  0  0
 16 19  1  0  0  0  0
 20 21  2  0  0  0  0
 20 43  1  0  0  0  0
 21 22  1  0  0  0  0
 21 44  1  0  0  0  0
 22 23  2  0  0  0  0
 24 45  1  0  0  0  0
 24 46  1  0  0  0  0
M  CHG  1   6   1
M  END
> <s_m_source_file>
AV-unprocessed.smi

> <i_m_source_file_index>
1451

> <i_lp_mmshare_version>
43012

> <i_f3d_flags>
0

> <s_epik_input>
W0NIM11bQ0BASF0xW0NIMl1bQ0gyXVtDSDJdTihbQ0gyXTEpW0NIMl1bQ0gyXVtOSF1DKD1PKVtDSDJdbjJbY0hdYyhDKEYpKEYpRilbY0hdW2NIXWMyPU8=

> <s_epik_cmdline>
J2VwaWtfcHl0aG9uJywgJy1waCcsICc3LjAnLCAnLXRuJywgJzgnLCAnLW1hJywgJzIwMCcsICctbWV0YWxfYmluZGluZycsICctaW1hZScsICc8aW5maWxlLm1hZT4nLCAnLW9tYWUnLCAnPG91dGZpbGUubWFlPic=

> <r_lp_tautomer_probability>
1

> <r_epik_Ionization_Penalty>
0.00192452

> <r_epik_Ionization_Penalty_Charging>
0.00192444

> <r_epik_Ionization_Penalty_Neutral>
8.16761e-08

> <r_epik_State_Penalty>
0.00131115

> <r_epik_Charging_Adjusted_Penalty>
0.00323559

> <i_epik_Tot_Q>
1

> <i_epik_Tot_abs_Q>
1

> <r_epik_Metal_State_Penalty>
-0

> <b_epik_Metal_Only>
0

> <s_lp_Force_Field>
OPLS_2005

> <r_lp_Energy>
31.5843

> <b_lp_Chiralities_Consistent>
1

> <s_lp_Variant>
AV-unprocessed.smi:1451-3

> <Gold.Version>
5.8.1

> <Gold.Id.Protein>
6NUR|6NUR_protein|mol2

> <Gold.PLP.Fitness>
43.4514

> <Gold.PLP.PLP>
-34.9607

> <Gold.PLP.part.hbond>
-3.0000

> <Gold.PLP.part.metal>
0.0000

> <Gold.PLP.part.buried>
-3.7356

> <Gold.PLP.part.nonpolar>
-28.0986

> <Gold.PLP.part.repulsive>
0.0000

> <Gold.PLP.ligand.clash>
1.1225

> <Gold.PLP.ligand.torsion>
1.0043

> <Gold.PLP.Chemscore.Hbond>
3.8400

> <Gold.PLP.Chemscore.CHOScore>
0.0000

> <Gold.PLP.Chemscore.Metal>
0.0000

> <Gold.Chemscore.Hbonds>
donor molecule, donor type, donor heavy atom, donor atom, acceptor molecule, acceptor atom, score
      L1  H     6    47       P1 10957  2.00
      P1  H  6931  6943       L1    23  0.93
      P1  H  6934  6947       L1    23  0.88

> <Gold.PLP.Chemscore.Internal.Correction>
0.1017

> <Gold.Rescore>
     Score         DG    S(hbond)    S(metal)    S(lipo)     H(rot)  DE(clash)    DE(int)     intcor
     16.18     -17.08       2.77        0.00      65.47       2.08       0.12       0.78       ----

> <Gold.Chemscore.Fitness>
16.1782

> <Gold.Chemscore.DG>
-17.0758

> <Gold.Chemscore.ZeroCoef>
-5.4800

> <Gold.Chemscore.Hbond>
2.7697

> <Gold.Chemscore.Metal>
0.0000

> <Gold.Chemscore.Lipo>
65.4692

> <Gold.Chemscore.Internal_Hbond>
0.0000

> <Gold.Chemscore.DEClash>
0.1168

> <Gold.Chemscore.DEInternal>
0.7808

> <Gold.Chemscore.Rot>
2.0762

> <Gold.Chemscore.Internal.Correction>
   9.000000E+99

> <Gold.Chemscore.Hbonds>
donor molecule, donor type, donor heavy atom, donor atom, acceptor molecule, acceptor atom, score
      L1  H     6    47       P1 10957  0.94
      P1  H  6931  6943       L1    23  0.89
      P1  H  6934  6947       L1    23  0.86

> <Gold.Chemscore.Hbond.Weighted>
-9.2509

> <Gold.Chemscore.Metal.Weighted>
-0.0000

> <Gold.Chemscore.Lipo.Weighted>
-7.6599

> <Gold.Chemscore.Internal_Hbond.Weighted>
0.0000

> <Gold.Chemscore.DEClash.Weighted>
0.1168

> <Gold.Chemscore.DEInternal.Weighted>
0.7808

> <Gold.Chemscore.Rot.Weighted>
5.3150

> <Gold.Chemscore.Internal.Correction.Weighted>
   9.000000E+99

> <Gold.Protein.RotatedTorsions>
[ 6907 6896 6895 6894 ] final   48.97 input  -60.11 | X-H torsion
[ 7974 7965 7964 7962 ] final   65.42 input  175.53 | X-H torsion
[ 8008 7997 7996 7995 ] final  124.15 input   59.86 | X-H torsion
[ 10167 10162 10161 10158 ] final  -34.22 input  -65.29 | X-H torsion
[ 10718 10713 10712 10709 ] final  -94.47 input   66.30 | X-H torsion
[ 10763 10752 10751 10750 ] final  154.93 input  -60.55 | X-H torsion
[ 11005 11000 10999 10996 ] final  156.13 input  -57.11 | X-H torsion

> <Gold.Protein.ActiveResidues>
 VAL166  LYS551  ARG553  GLY616  TRP617  ASP618  TYR619  PRO620  LYS621  CYS622 
 ASP623  PHE694  ASN695  SER759  ASP760  ASP761  ALA762  ILE779  LEU786  VAL792 
 PHE793  MET794  SER795  GLU796  ALA797  LYS798  CYS799  TRP800  GLU811  SER814 

> <Gold.Protein.RotatedAtoms>
  152.2855  134.7781  160.0388 H   0  0  0  0  0  0  0  0  0  0  0  0  # atno 6907 bound_to 6896
  151.8345  133.3408  159.3632 H   0  0  0  0  0  0  0  0  0  0  0  0  # atno 6908 bound_to 6896
  150.7207  134.5379  159.5777 H   0  0  0  0  0  0  0  0  0  0  0  0  # atno 6909 bound_to 6896
  145.8386  139.3182  143.0945 H   0  0  0  0  0  0  0  0  0  0  0  0  # atno 7974 bound_to 7965
  156.2791  140.2746  156.1742 H   0  0  0  0  0  0  0  0  0  0  0  0  # atno 8008 bound_to 7997
  155.0623  140.0386  157.2599 H   0  0  0  0  0  0  0  0  0  0  0  0  # atno 8009 bound_to 7997
  154.7107  140.2668  155.6638 H   0  0  0  0  0  0  0  0  0  0  0  0  # atno 8010 bound_to 7997
  140.7190  143.3563  151.2052 H   0  0  0  0  0  0  0  0  0  0  0  0  # atno 10167 bound_to 10162
  156.0028  130.5069  150.5932 H   0  0  0  0  0  0  0  0  0  0  0  0  # atno 10718 bound_to 10713
  154.1603  135.2810  155.3110 H   0  0  0  0  0  0  0  0  0  0  0  0  # atno 10763 bound_to 10752
  154.6152  135.5485  153.7519 H   0  0  0  0  0  0  0  0  0  0  0  0  # atno 10764 bound_to 10752
  153.0194  135.6425  154.1745 H   0  0  0  0  0  0  0  0  0  0  0  0  # atno 10765 bound_to 10752
  140.1646  134.8585  157.2616 H   0  0  0  0  0  0  0  0  0  0  0  0  # atno 11005 bound_to 11000
  145.9490  140.8923  143.0269 LP  0  0  0  0  0  0  0  0  0  0  0  0  # atno 17320 bound_to 7965
  144.6735  140.1654  143.7419 LP  0  0  0  0  0  0  0  0  0  0  0  0  # atno 17321 bound_to 7965
  139.7105  143.9384  152.2945 LP  0  0  0  0  0  0  0  0  0  0  0  0  # atno 17342 bound_to 10162
  139.9107  144.6858  150.8565 LP  0  0  0  0  0  0  0  0  0  0  0  0  # atno 17343 bound_to 10162
  157.3793  131.0778  151.1490 LP  0  0  0  0  0  0  0  0  0  0  0  0  # atno 17370 bound_to 10713
  157.2218  130.6485  149.5814 LP  0  0  0  0  0  0  0  0  0  0  0  0  # atno 17371 bound_to 10713
  140.2449  134.3752  155.7465 LP  0  0  0  0  0  0  0  0  0  0  0  0  # atno 17394 bound_to 11000
  141.2212  133.7285  156.8846 LP  0  0  0  0  0  0  0  0  0  0  0  0  # atno 17395 bound_to 11000

$$$$
