AV-unprocessed.smi:2209|AV-procd|sdf|8947|dock9
  -GOLD-   2272012163D 1   1.00000     0.00000
 Structure written by MMmdl.
 26 27  0  0  0  0  0  0  0  0  2 V2000
  151.8083  141.3350  158.7110 C   0  0  0  0  0  0  0  0  0  0  0  0
  151.4990  140.8677  157.3295 C   0  0  0  0  0  0  0  0  0  0  0  0
  152.4029  140.2295  156.5964 N   0  0  0  0  0  0  0  0  0  0  0  0
  151.7248  139.9742  155.3958 O   0  0  0  0  0  0  0  0  0  0  0  0
  150.4841  140.4949  155.5533 C   0  0  0  0  0  0  0  0  0  0  0  0
  149.5022  140.3794  154.4296 C   0  0  2  0  0  0  0  0  0  0  0  0
  148.1943  141.1387  154.7229 C   0  0  0  0  0  0  0  0  0  0  0  0
  147.2085  140.9849  153.5544 C   0  0  0  0  0  0  0  0  0  0  0  0
  146.9732  139.5016  153.2243 C   0  0  0  0  0  0  0  0  0  0  0  0
  148.2547  138.8202  152.9388 N   0  3  0  0  0  0  0  0  0  0  0  0
  149.2203  138.9095  154.0570 C   0  0  0  0  0  0  0  0  0  0  0  0
  150.2863  141.0618  156.7418 N   0  0  0  0  0  0  0  0  0  0  0  0
  152.8325  141.0838  158.9892 H   0  0  0  0  0  0  0  0  0  0  0  0
  151.1325  140.8668  159.4270 H   0  0  0  0  0  0  0  0  0  0  0  0
  151.6893  142.4166  158.7778 H   0  0  0  0  0  0  0  0  0  0  0  0
  149.9623  140.8517  153.5598 H   0  0  0  0  0  0  0  0  0  0  0  0
  147.7373  140.7538  155.6356 H   0  0  0  0  0  0  0  0  0  0  0  0
  148.4012  142.1949  154.8995 H   0  0  0  0  0  0  0  0  0  0  0  0
  146.2619  141.4680  153.7992 H   0  0  0  0  0  0  0  0  0  0  0  0
  147.5993  141.4981  152.6747 H   0  0  0  0  0  0  0  0  0  0  0  0
  146.4759  139.0010  154.0564 H   0  0  0  0  0  0  0  0  0  0  0  0
  146.3188  139.4063  152.3575 H   0  0  0  0  0  0  0  0  0  0  0  0
  148.0712  137.8467  152.7412 H   0  0  0  0  0  0  0  0  0  0  0  0
  150.1431  138.4072  153.7652 H   0  0  0  0  0  0  0  0  0  0  0  0
  148.8200  138.3668  154.9147 H   0  0  0  0  0  0  0  0  0  0  0  0
  148.6681  139.2456  152.1211 H   0  0  0  0  0  0  0  0  0  0  0  0
  1  2  1  0  0  0  0
  1 13  1  0  0  0  0
  1 14  1  0  0  0  0
  1 15  1  0  0  0  0
  2 12  1  0  0  0  0
  2  3  2  0  0  0  0
  3  4  1  0  0  0  0
  4  5  1  0  0  0  0
  5  6  1  0  0  0  0
  5 12  2  0  0  0  0
  6 11  1  0  0  0  0
  6  7  1  0  0  0  0
  6 16  1  0  0  0  0
  7  8  1  0  0  0  0
  7 17  1  0  0  0  0
  7 18  1  0  0  0  0
  8  9  1  0  0  0  0
  8 19  1  0  0  0  0
  8 20  1  0  0  0  0
  9 10  1  0  0  0  0
  9 21  1  0  0  0  0
  9 22  1  0  0  0  0
 10 11  1  0  0  0  0
 10 23  1  0  0  0  0
 10 26  1  0  0  0  0
 11 24  1  0  0  0  0
 11 25  1  0  0  0  0
M  CHG  1  10   1
M  END
> <s_m_source_file>
AV-unprocessed.smi

> <i_m_source_file_index>
2209

> <i_lp_mmshare_version>
43012

> <i_f3d_flags>
0

> <s_epik_input>
W0NIM11jMW5vYyhuMSlbQ0BASF0yW0NIMl1bQ0gyXVtDSDJdW05IXVtDSDJdMg==

> <s_epik_cmdline>
J2VwaWtfcHl0aG9uJywgJy1waCcsICc3LjAnLCAnLXRuJywgJzgnLCAnLW1hJywgJzIwMCcsICctbWV0YWxfYmluZGluZycsICctaW1hZScsICc8aW5maWxlLm1hZT4nLCAnLW9tYWUnLCAnPG91dGZpbGUubWFlPic=

> <r_lp_tautomer_probability>
1

> <r_epik_Ionization_Penalty>
0.000532935

> <r_epik_Ionization_Penalty_Charging>
0.000532935

> <r_epik_Ionization_Penalty_Neutral>
4.97553e-13

> <r_epik_State_Penalty>
0.000332992

> <r_epik_Charging_Adjusted_Penalty>
0.000865928

> <i_epik_Tot_Q>
1

> <i_epik_Tot_abs_Q>
1

> <r_epik_Metal_State_Penalty>
-0

> <b_epik_Metal_Only>
0

> <s_lp_Force_Field>
OPLS_2005

> <r_lp_Energy>
10.4199

> <b_lp_Chiralities_Consistent>
1

> <s_lp_Variant>
AV-unprocessed.smi:2209-1

> <Gold.Version>
5.8.1

> <Gold.Id.Protein>
6NUR|6NUR_protein|mol2

> <Gold.PLP.Fitness>
34.3215

> <Gold.PLP.PLP>
-22.7375

> <Gold.PLP.part.hbond>
-3.9522

> <Gold.PLP.part.metal>
0.0000

> <Gold.PLP.part.buried>
-0.7932

> <Gold.PLP.part.nonpolar>
-17.6950

> <Gold.PLP.part.repulsive>
0.1306

> <Gold.PLP.ligand.clash>
0.0000

> <Gold.PLP.ligand.torsion>
0.0324

> <Gold.PLP.Chemscore.Hbond>
3.8718

> <Gold.PLP.Chemscore.CHOScore>
0.0000

> <Gold.PLP.Chemscore.Metal>
0.0000

> <Gold.Chemscore.Hbonds>
donor molecule, donor type, donor heavy atom, donor atom, acceptor molecule, acceptor atom, score
      L1  H    10    23       P1  7948  1.57
      L1  H    10    26       P1  7957  1.00
      P1  H  7989  7998       L1     4  0.20
      P1  H  7997  8008       L1     3  1.00

> <Gold.PLP.Chemscore.Internal.Correction>
0.0335

> <Gold.Rescore>
     Score         DG    S(hbond)    S(metal)    S(lipo)     H(rot)  DE(clash)    DE(int)     intcor
     16.75     -16.85       2.69        0.00      42.43       1.00       0.09       0.02       ----

> <Gold.Chemscore.Fitness>
16.7454

> <Gold.Chemscore.DG>
-16.8545

> <Gold.Chemscore.ZeroCoef>
-5.4800

> <Gold.Chemscore.Hbond>
2.6858

> <Gold.Chemscore.Metal>
0.0000

> <Gold.Chemscore.Lipo>
42.4268

> <Gold.Chemscore.Internal_Hbond>
0.0000

> <Gold.Chemscore.DEClash>
0.0876

> <Gold.Chemscore.DEInternal>
0.0216

> <Gold.Chemscore.Rot>
1.0000

> <Gold.Chemscore.Internal.Correction>
   9.000000E+99

> <Gold.Chemscore.Hbonds>
donor molecule, donor type, donor heavy atom, donor atom, acceptor molecule, acceptor atom, score
      L1  H    10    23       P1  7948  0.73
      L1  H    10    26       P1  7957  0.94
      P1  H  7997  8008       L1     3  0.79

> <Gold.Chemscore.Hbond.Weighted>
-8.9706

> <Gold.Chemscore.Metal.Weighted>
-0.0000

> <Gold.Chemscore.Lipo.Weighted>
-4.9639

> <Gold.Chemscore.Internal_Hbond.Weighted>
0.0000

> <Gold.Chemscore.DEClash.Weighted>
0.0876

> <Gold.Chemscore.DEInternal.Weighted>
0.0216

> <Gold.Chemscore.Rot.Weighted>
2.5600

> <Gold.Chemscore.Internal.Correction.Weighted>
   9.000000E+99

> <Gold.Protein.RotatedTorsions>
[ 6907 6896 6895 6894 ] final   62.95 input  -60.11 | X-H torsion
[ 7974 7965 7964 7962 ] final   16.03 input  175.53 | X-H torsion
[ 8008 7997 7996 7995 ] final  -44.02 input   59.86 | X-H torsion
[ 10167 10162 10161 10158 ] final   93.68 input  -65.29 | X-H torsion
[ 10718 10713 10712 10709 ] final -166.94 input   66.30 | X-H torsion
[ 10763 10752 10751 10750 ] final   29.89 input  -60.55 | X-H torsion
[ 11005 11000 10999 10996 ] final -141.77 input  -57.11 | X-H torsion

> <Gold.Protein.ActiveResidues>
 VAL166  LYS551  ARG553  GLY616  TRP617  ASP618  TYR619  PRO620  LYS621  CYS622 
 ASP623  PHE694  ASN695  SER759  ASP760  ASP761  ALA762  ILE779  LEU786  VAL792 
 PHE793  MET794  SER795  GLU796  ALA797  LYS798  CYS799  TRP800  GLU811  SER814 

> <Gold.Protein.RotatedAtoms>
  152.4214  134.5949  159.9983 H   0  0  0  0  0  0  0  0  0  0  0  0  # atno 6907 bound_to 6896
  151.6098  133.3342  159.3073 H   0  0  0  0  0  0  0  0  0  0  0  0  # atno 6908 bound_to 6896
  150.8102  134.7290  159.6746 H   0  0  0  0  0  0  0  0  0  0  0  0  # atno 6909 bound_to 6896
  146.2261  139.8808  142.8571 H   0  0  0  0  0  0  0  0  0  0  0  0  # atno 7974 bound_to 7965
  154.3997  140.1433  156.3614 H   0  0  0  0  0  0  0  0  0  0  0  0  # atno 8008 bound_to 7997
  155.8177  140.3470  155.5474 H   0  0  0  0  0  0  0  0  0  0  0  0  # atno 8009 bound_to 7997
  155.8320  140.0913  157.1777 H   0  0  0  0  0  0  0  0  0  0  0  0  # atno 8010 bound_to 7997
  139.8156  144.6754  150.9584 H   0  0  0  0  0  0  0  0  0  0  0  0  # atno 10167 bound_to 10162
  156.6752  130.9100  151.3049 H   0  0  0  0  0  0  0  0  0  0  0  0  # atno 10718 bound_to 10713
  153.0403  135.6477  154.0961 H   0  0  0  0  0  0  0  0  0  0  0  0  # atno 10763 bound_to 10752
  154.0668  135.2883  155.3317 H   0  0  0  0  0  0  0  0  0  0  0  0  # atno 10764 bound_to 10752
  154.6621  135.5388  153.8095 H   0  0  0  0  0  0  0  0  0  0  0  0  # atno 10765 bound_to 10752
  140.8292  134.2538  157.4865 H   0  0  0  0  0  0  0  0  0  0  0  0  # atno 11005 bound_to 11000
  145.2515  141.0045  143.3878 LP  0  0  0  0  0  0  0  0  0  0  0  0  # atno 17320 bound_to 7965
  144.9371  139.4231  143.6467 LP  0  0  0  0  0  0  0  0  0  0  0  0  # atno 17321 bound_to 7965
  140.7816  143.4141  151.0945 LP  0  0  0  0  0  0  0  0  0  0  0  0  # atno 17342 bound_to 10162
  139.7805  143.8362  152.3137 LP  0  0  0  0  0  0  0  0  0  0  0  0  # atno 17343 bound_to 10162
  157.7063  130.9389  150.0942 LP  0  0  0  0  0  0  0  0  0  0  0  0  # atno 17370 bound_to 10713
  156.1909  130.3654  149.8911 LP  0  0  0  0  0  0  0  0  0  0  0  0  # atno 17371 bound_to 10713
  139.8705  134.9577  156.4276 LP  0  0  0  0  0  0  0  0  0  0  0  0  # atno 17394 bound_to 11000
  140.9017  133.7775  155.9687 LP  0  0  0  0  0  0  0  0  0  0  0  0  # atno 17395 bound_to 11000

$$$$
