AV-unprocessed.smi:2525|AV-procd|sdf|9928|dock8
  -GOLD-   2272013573D 1   1.00000     0.00000
 Structure written by MMmdl.
 44 45  0  0  0  0  0  0  0  0  1 V2000
  147.8565  141.0586  153.8723 C   0  0  0  0  0  0  0  0  0  0  0  0
  149.2305  140.3970  154.0873 C   0  0  0  0  0  0  0  0  0  0  0  0
  149.3517  139.4006  155.2775 C   0  0  0  0  0  0  0  0  0  0  0  0
  148.8000  140.0514  156.5608 C   0  0  0  0  0  0  0  0  0  0  0  0
  149.4817  141.3713  156.9539 C   0  0  0  0  0  0  0  0  0  0  0  0
  148.8946  137.9330  155.0405 C   0  0  1  0  0  0  0  0  0  0  0  0
  147.8940  137.7447  153.9961 N   0  0  0  0  0  0  0  0  0  0  0  0
  146.6272  138.1772  154.0710 C   0  0  0  0  0  0  0  0  0  0  0  0
  146.1818  138.7910  155.0418 O   0  0  0  0  0  0  0  0  0  0  0  0
  145.7483  137.8799  152.8504 C   0  0  0  0  0  0  0  0  0  0  0  0
  144.5777  137.0861  153.1846 N   0  0  0  0  0  0  0  0  0  0  0  0
  143.5805  136.6288  152.3475 C   0  0  0  0  0  0  0  0  0  0  0  0
  142.7530  135.9393  153.1870 C   0  0  0  0  0  0  0  0  0  0  0  0
  143.2705  136.0064  154.4795 N   0  0  0  0  0  0  0  0  0  0  0  0
  144.3668  136.6976  154.4655 N   0  0  0  0  0  0  0  0  0  0  0  0
  150.3076  137.5771  154.5657 C   0  0  2  0  0  0  0  0  0  0  0  0
  150.8395  136.1763  154.8392 C   0  0  0  0  0  0  0  0  0  0  0  0
  150.7541  138.7548  155.4452 C   0  0  1  0  0  0  0  0  0  0  0  0
  151.7978  139.5502  154.9026 O   0  0  0  0  0  0  0  0  0  0  0  0
  153.0024  138.8329  154.7023 C   0  0  0  0  0  0  0  0  0  0  0  0
  147.8632  141.6518  152.9576 H   0  0  0  0  0  0  0  0  0  0  0  0
  147.6006  141.7365  154.6859 H   0  0  0  0  0  0  0  0  0  0  0  0
  147.0529  140.3319  153.7780 H   0  0  0  0  0  0  0  0  0  0  0  0
  149.5030  139.8997  153.1566 H   0  0  0  0  0  0  0  0  0  0  0  0
  149.9670  141.1937  154.1933 H   0  0  0  0  0  0  0  0  0  0  0  0
  147.7226  140.1990  156.4920 H   0  0  0  0  0  0  0  0  0  0  0  0
  148.9245  139.3616  157.3963 H   0  0  0  0  0  0  0  0  0  0  0  0
  149.1040  141.7262  157.9129 H   0  0  0  0  0  0  0  0  0  0  0  0
  149.2974  142.1573  156.2221 H   0  0  0  0  0  0  0  0  0  0  0  0
  150.5606  141.2478  157.0504 H   0  0  0  0  0  0  0  0  0  0  0  0
  148.6588  137.4160  155.9744 H   0  0  0  0  0  0  0  0  0  0  0  0
  148.1856  137.2556  153.1621 H   0  0  0  0  0  0  0  0  0  0  0  0
  145.4301  138.8203  152.3979 H   0  0  0  0  0  0  0  0  0  0  0  0
  146.3268  137.3404  152.0990 H   0  0  0  0  0  0  0  0  0  0  0  0
  143.5520  136.8206  151.2852 H   0  0  0  0  0  0  0  0  0  0  0  0
  141.8388  135.4058  152.9718 H   0  0  0  0  0  0  0  0  0  0  0  0
  150.4311  137.8365  153.5127 H   0  0  0  0  0  0  0  0  0  0  0  0
  150.8075  135.9382  155.9027 H   0  0  0  0  0  0  0  0  0  0  0  0
  151.8717  136.0685  154.5076 H   0  0  0  0  0  0  0  0  0  0  0  0
  150.2478  135.4249  154.3162 H   0  0  0  0  0  0  0  0  0  0  0  0
  150.9454  138.4575  156.4794 H   0  0  0  0  0  0  0  0  0  0  0  0
  153.7695  139.5097  154.3265 H   0  0  0  0  0  0  0  0  0  0  0  0
  152.8739  138.0363  153.9703 H   0  0  0  0  0  0  0  0  0  0  0  0
  153.3649  138.3992  155.6353 H   0  0  0  0  0  0  0  0  0  0  0  0
  1  2  1  0  0  0  0
  1 21  1  0  0  0  0
  1 22  1  0  0  0  0
  1 23  1  0  0  0  0
  2  3  1  0  0  0  0
  2 24  1  0  0  0  0
  2 25  1  0  0  0  0
  3 18  1  0  0  0  0
  3  4  1  0  0  0  0
  3  6  1  0  0  0  0
  4  5  1  0  0  0  0
  4 26  1  0  0  0  0
  4 27  1  0  0  0  0
  5 28  1  0  0  0  0
  5 29  1  0  0  0  0
  5 30  1  0  0  0  0
  6  7  1  0  0  0  0
  6 16  1  0  0  0  0
  6 31  1  0  0  0  0
  7  8  1  0  0  0  0
  7 32  1  0  0  0  0
  8  9  2  0  0  0  0
  8 10  1  0  0  0  0
 10 11  1  0  0  0  0
 10 33  1  0  0  0  0
 10 34  1  0  0  0  0
 11 15  1  0  0  0  0
 11 12  1  0  0  0  0
 12 13  2  0  0  0  0
 12 35  1  0  0  0  0
 13 14  1  0  0  0  0
 13 36  1  0  0  0  0
 14 15  2  0  0  0  0
 16 17  1  0  0  0  0
 16 18  1  0  0  0  0
 16 37  1  0  0  0  0
 17 38  1  0  0  0  0
 17 39  1  0  0  0  0
 17 40  1  0  0  0  0
 18 19  1  0  0  0  0
 18 41  1  0  0  0  0
 19 20  1  0  0  0  0
 20 42  1  0  0  0  0
 20 43  1  0  0  0  0
 20 44  1  0  0  0  0
M  END
> <s_m_source_file>
AV-unprocessed.smi

> <i_m_source_file_index>
2525

> <i_lp_mmshare_version>
43012

> <i_f3d_flags>
0

> <s_epik_input>
W0NIM11PW0NAQEhdMVtDQEhdKFtDSDNdKVtDQEBIXShDMShbQ0gyXVtDSDNdKVtDSDJdW0NIM10pW05IXUMoPU8pW0NIMl1uMltjSF1bY0hdbm4y

> <s_epik_cmdline>
J2VwaWtfcHl0aG9uJywgJy1waCcsICc3LjAnLCAnLXRuJywgJzgnLCAnLW1hJywgJzIwMCcsICctbWV0YWxfYmluZGluZycsICctaW1hZScsICc8aW5maWxlLm1hZT4nLCAnLW9tYWUnLCAnPG91dGZpbGUubWFlPic=

> <r_lp_tautomer_probability>
1

> <r_epik_Ionization_Penalty>
1.18045e-06

> <r_epik_Ionization_Penalty_Charging>
0

> <r_epik_Ionization_Penalty_Neutral>
1.18045e-06

> <r_epik_State_Penalty>
-0

> <r_epik_Charging_Adjusted_Penalty>
0

> <i_epik_Tot_Q>
0

> <i_epik_Tot_abs_Q>
0

> <r_epik_Metal_State_Penalty>
-0

> <b_epik_Metal_Only>
0

> <s_lp_Force_Field>
OPLS_2005

> <r_lp_Energy>
27.7257

> <b_lp_Chiralities_Consistent>
1

> <s_lp_Variant>
AV-unprocessed.smi:2525-3

> <Gold.Version>
5.8.1

> <Gold.Id.Protein>
6NUR|6NUR_protein|mol2

> <Gold.PLP.Fitness>
34.0160

> <Gold.PLP.PLP>
-25.1966

> <Gold.PLP.part.hbond>
-2.0000

> <Gold.PLP.part.metal>
0.0000

> <Gold.PLP.part.buried>
-1.4314

> <Gold.PLP.part.nonpolar>
-22.7237

> <Gold.PLP.part.repulsive>
0.1776

> <Gold.PLP.ligand.clash>
0.0000

> <Gold.PLP.ligand.torsion>
0.3916

> <Gold.PLP.Chemscore.Hbond>
2.0000

> <Gold.PLP.Chemscore.CHOScore>
1.0000

> <Gold.PLP.Chemscore.Metal>
0.0000

> <Gold.Chemscore.Hbonds>
donor molecule, donor type, donor heavy atom, donor atom, acceptor molecule, acceptor atom, score
      L1  H     7    32       P1  7948  1.00
      P1  H  7989  7998       L1    19  1.00
      L1  C    12    35       P1 10171  1.00

> <Gold.PLP.Chemscore.Internal.Correction>
0.6025

> <Gold.Rescore>
     Score         DG    S(hbond)    S(metal)    S(lipo)     H(rot)  DE(clash)    DE(int)     intcor
     13.68     -14.62       1.80        0.00      70.23       1.98       0.21       0.74       ----

> <Gold.Chemscore.Fitness>
13.6754

> <Gold.Chemscore.DG>
-14.6221

> <Gold.Chemscore.ZeroCoef>
-5.4800

> <Gold.Chemscore.Hbond>
1.7959

> <Gold.Chemscore.Metal>
0.0000

> <Gold.Chemscore.Lipo>
70.2309

> <Gold.Chemscore.Internal_Hbond>
0.0000

> <Gold.Chemscore.DEClash>
0.2056

> <Gold.Chemscore.DEInternal>
0.7411

> <Gold.Chemscore.Rot>
1.9817

> <Gold.Chemscore.Internal.Correction>
   9.000000E+99

> <Gold.Chemscore.Hbonds>
donor molecule, donor type, donor heavy atom, donor atom, acceptor molecule, acceptor atom, score
      L1  H     7    32       P1  7948  1.00
      P1  H  7989  7998       L1    19  0.58

> <Gold.Chemscore.Hbond.Weighted>
-5.9982

> <Gold.Chemscore.Metal.Weighted>
-0.0000

> <Gold.Chemscore.Lipo.Weighted>
-8.2170

> <Gold.Chemscore.Internal_Hbond.Weighted>
0.0000

> <Gold.Chemscore.DEClash.Weighted>
0.2056

> <Gold.Chemscore.DEInternal.Weighted>
0.7411

> <Gold.Chemscore.Rot.Weighted>
5.0731

> <Gold.Chemscore.Internal.Correction.Weighted>
   9.000000E+99

> <Gold.Protein.RotatedTorsions>
[ 6907 6896 6895 6894 ] final   71.03 input  -60.11 | X-H torsion
[ 7974 7965 7964 7962 ] final -112.79 input  175.53 | X-H torsion
[ 8008 7997 7996 7995 ] final  176.67 input   59.86 | X-H torsion
[ 10167 10162 10161 10158 ] final  -70.28 input  -65.29 | X-H torsion
[ 10718 10713 10712 10709 ] final  135.48 input   66.30 | X-H torsion
[ 10763 10752 10751 10750 ] final   -0.36 input  -60.55 | X-H torsion
[ 11005 11000 10999 10996 ] final   29.06 input  -57.11 | X-H torsion

> <Gold.Protein.ActiveResidues>
 VAL166  LYS551  ARG553  GLY616  TRP617  ASP618  TYR619  PRO620  LYS621  CYS622 
 ASP623  PHE694  ASN695  SER759  ASP760  ASP761  ALA762  ILE779  LEU786  VAL792 
 PHE793  MET794  SER795  GLU796  ALA797  LYS798  CYS799  TRP800  GLU811  SER814 

> <Gold.Protein.RotatedAtoms>
  152.4785  134.4781  159.9656 H   0  0  0  0  0  0  0  0  0  0  0  0  # atno 6907 bound_to 6896
  151.4792  133.3544  159.2843 H   0  0  0  0  0  0  0  0  0  0  0  0  # atno 6908 bound_to 6896
  150.8841  134.8262  159.7307 H   0  0  0  0  0  0  0  0  0  0  0  0  # atno 6909 bound_to 6896
  145.1397  140.8771  143.3709 H   0  0  0  0  0  0  0  0  0  0  0  0  # atno 7974 bound_to 7965
  156.0740  140.1378  156.9794 H   0  0  0  0  0  0  0  0  0  0  0  0  # atno 8008 bound_to 7997
  154.4547  140.0966  156.6774 H   0  0  0  0  0  0  0  0  0  0  0  0  # atno 8009 bound_to 7997
  155.5183  140.3455  155.4404 H   0  0  0  0  0  0  0  0  0  0  0  0  # atno 8010 bound_to 7997
  140.5365  143.2317  151.7168 H   0  0  0  0  0  0  0  0  0  0  0  0  # atno 10167 bound_to 10162
  157.4566  131.1070  150.9971 H   0  0  0  0  0  0  0  0  0  0  0  0  # atno 10718 bound_to 10713
  153.3308  135.6975  153.6949 H   0  0  0  0  0  0  0  0  0  0  0  0  # atno 10763 bound_to 10752
  153.5752  135.3508  155.2854 H   0  0  0  0  0  0  0  0  0  0  0  0  # atno 10764 bound_to 10752
  154.8618  135.4282  154.2497 H   0  0  0  0  0  0  0  0  0  0  0  0  # atno 10765 bound_to 10752
  140.3089  134.2672  155.7738 H   0  0  0  0  0  0  0  0  0  0  0  0  # atno 11005 bound_to 11000
  145.0545  139.3155  143.5911 LP  0  0  0  0  0  0  0  0  0  0  0  0  # atno 17320 bound_to 7965
  146.3506  139.9965  142.8680 LP  0  0  0  0  0  0  0  0  0  0  0  0  # atno 17321 bound_to 7965
  139.4973  144.4035  152.0156 LP  0  0  0  0  0  0  0  0  0  0  0  0  # atno 17342 bound_to 10162
  140.3141  144.3504  150.6026 LP  0  0  0  0  0  0  0  0  0  0  0  0  # atno 17343 bound_to 10162
  157.0782  130.5892  149.5415 LP  0  0  0  0  0  0  0  0  0  0  0  0  # atno 17370 bound_to 10713
  156.0010  130.5089  150.7661 LP  0  0  0  0  0  0  0  0  0  0  0  0  # atno 17371 bound_to 10713
  141.2112  133.7695  156.9878 LP  0  0  0  0  0  0  0  0  0  0  0  0  # atno 17394 bound_to 11000
  140.1042  134.9517  157.1969 LP  0  0  0  0  0  0  0  0  0  0  0  0  # atno 17395 bound_to 11000

$$$$
