AV-unprocessed.smi:937|AV-procd|sdf|4211|dock10
  -GOLD-   22720 2123D 1   1.00000     0.00000
 Structure written by MMmdl.
 45 46  0  0  0  0  0  0  0  0  1 V2000
  146.0828  129.8918  151.7833 C   0  0  0  0  0  0  0  0  0  0  0  0
  145.7537  131.3337  151.4583 C   0  0  0  0  0  0  0  0  0  0  0  0
  144.5285  131.6763  150.8488 C   0  0  0  0  0  0  0  0  0  0  0  0
  144.2766  133.0325  150.5663 C   0  0  0  0  0  0  0  0  0  0  0  0
  145.2550  133.9907  150.9019 C   0  0  0  0  0  0  0  0  0  0  0  0
  145.0271  135.4625  150.6187 C   0  0  0  0  0  0  0  0  0  0  0  0
  144.8702  136.2818  151.9064 C   0  0  0  0  0  0  0  0  0  0  0  0
  146.1644  136.7616  152.3692 N   0  0  0  0  0  0  0  0  0  0  0  0
  146.3322  137.7083  153.3062 C   0  0  0  0  0  0  0  0  0  0  0  0
  145.3974  138.2747  153.8693 O   0  0  0  0  0  0  0  0  0  0  0  0
  147.6141  138.0008  153.5924 N   0  0  0  0  0  0  0  0  0  0  0  0
  148.1344  138.9741  154.5549 C   0  0  2  0  0  0  0  0  0  0  0  0
  148.0341  140.4058  153.9901 C   0  0  0  0  0  0  0  0  0  0  0  0
  148.6554  141.4292  154.9510 C   0  0  0  0  0  0  0  0  0  0  0  0
  150.1134  141.0723  155.2783 C   0  0  0  0  0  0  0  0  0  0  0  0
  150.2334  139.6473  155.8586 C   0  0  2  0  0  0  0  0  0  0  0  0
  151.6930  139.2857  156.2040 C   0  0  0  0  0  0  0  0  0  0  0  0
  152.2137  140.1726  157.0526 F   0  0  0  0  0  0  0  0  0  0  0  0
  151.7445  138.0756  156.7608 F   0  0  0  0  0  0  0  0  0  0  0  0
  152.4328  139.2648  155.0952 F   0  0  0  0  0  0  0  0  0  0  0  0
  149.5977  138.6253  154.8907 C   0  0  0  0  0  0  0  0  0  0  0  0
  146.4472  133.5429  151.5094 C   0  0  0  0  0  0  0  0  0  0  0  0
  146.6977  132.2444  151.7834 N   0  0  0  0  0  0  0  0  0  0  0  0
  145.2237  129.2427  151.6117 H   0  0  0  0  0  0  0  0  0  0  0  0
  146.3786  129.7938  152.8281 H   0  0  0  0  0  0  0  0  0  0  0  0
  146.9047  129.5424  151.1582 H   0  0  0  0  0  0  0  0  0  0  0  0
  143.7972  130.9205  150.6026 H   0  0  0  0  0  0  0  0  0  0  0  0
  143.3482  133.3308  150.1017 H   0  0  0  0  0  0  0  0  0  0  0  0
  145.8592  135.8484  150.0277 H   0  0  0  0  0  0  0  0  0  0  0  0
  144.1350  135.5638  149.9991 H   0  0  0  0  0  0  0  0  0  0  0  0
  144.2079  137.1314  151.7301 H   0  0  0  0  0  0  0  0  0  0  0  0
  144.4140  135.6723  152.6882 H   0  0  0  0  0  0  0  0  0  0  0  0
  146.9859  136.3461  151.9548 H   0  0  0  0  0  0  0  0  0  0  0  0
  148.3121  137.4899  153.0709 H   0  0  0  0  0  0  0  0  0  0  0  0
  147.5587  138.9127  155.4801 H   0  0  0  0  0  0  0  0  0  0  0  0
  148.5438  140.4594  153.0270 H   0  0  0  0  0  0  0  0  0  0  0  0
  146.9933  140.6710  153.8023 H   0  0  0  0  0  0  0  0  0  0  0  0
  148.6068  142.4263  154.5126 H   0  0  0  0  0  0  0  0  0  0  0  0
  148.0718  141.4675  155.8716 H   0  0  0  0  0  0  0  0  0  0  0  0
  150.7182  141.1558  154.3745 H   0  0  0  0  0  0  0  0  0  0  0  0
  150.5135  141.8006  155.9840 H   0  0  0  0  0  0  0  0  0  0  0  0
  149.6638  139.6204  156.7889 H   0  0  0  0  0  0  0  0  0  0  0  0
  149.6408  137.6272  155.3282 H   0  0  0  0  0  0  0  0  0  0  0  0
  150.1846  138.5821  153.9718 H   0  0  0  0  0  0  0  0  0  0  0  0
  147.2219  134.2434  151.7843 H   0  0  0  0  0  0  0  0  0  0  0  0
  1  2  1  0  0  0  0
  1 24  1  0  0  0  0
  1 25  1  0  0  0  0
  1 26  1  0  0  0  0
  2 23  1  0  0  0  0
  2  3  2  0  0  0  0
  3  4  1  0  0  0  0
  3 27  1  0  0  0  0
  4  5  2  0  0  0  0
  4 28  1  0  0  0  0
  5  6  1  0  0  0  0
  5 22  1  0  0  0  0
  6  7  1  0  0  0  0
  6 29  1  0  0  0  0
  6 30  1  0  0  0  0
  7  8  1  0  0  0  0
  7 31  1  0  0  0  0
  7 32  1  0  0  0  0
  8  9  1  0  0  0  0
  8 33  1  0  0  0  0
  9 10  2  0  0  0  0
  9 11  1  0  0  0  0
 11 12  1  0  0  0  0
 11 34  1  0  0  0  0
 12 21  1  0  0  0  0
 12 13  1  0  0  0  0
 12 35  1  0  0  0  0
 13 14  1  0  0  0  0
 13 36  1  0  0  0  0
 13 37  1  0  0  0  0
 14 15  1  0  0  0  0
 14 38  1  0  0  0  0
 14 39  1  0  0  0  0
 15 16  1  0  0  0  0
 15 40  1  0  0  0  0
 15 41  1  0  0  0  0
 16 17  1  0  0  0  0
 16 21  1  0  0  0  0
 16 42  1  0  0  0  0
 17 18  1  0  0  0  0
 17 19  1  0  0  0  0
 17 20  1  0  0  0  0
 21 43  1  0  0  0  0
 21 44  1  0  0  0  0
 22 23  2  0  0  0  0
 22 45  1  0  0  0  0
M  END
> <s_m_source_file>
AV-unprocessed.smi

> <i_m_source_file_index>
937

> <i_lp_mmshare_version>
43012

> <i_f3d_flags>
0

> <s_epik_input>
W0NIM11jMVtjSF1bY0hdYyhbY0hdbjEpW0NIMl1bQ0gyXVtOSF1DKD1PKVtOSF1bQ0BASF0yW0NIMl1bQ0gyXVtDSDJdW0NAQEhdKEMoRikoRilGKVtDSDJdMg==

> <s_epik_cmdline>
J2VwaWtfcHl0aG9uJywgJy1waCcsICc3LjAnLCAnLXRuJywgJzgnLCAnLW1hJywgJzIwMCcsICctbWV0YWxfYmluZGluZycsICctaW1hZScsICc8aW5maWxlLm1hZT4nLCAnLW9tYWUnLCAnPG91dGZpbGUubWFlPic=

> <r_epik_Ionization_Penalty>
0.0563445

> <r_epik_Ionization_Penalty_Charging>
0

> <r_epik_Ionization_Penalty_Neutral>
0.0563445

> <r_epik_State_Penalty>
0.0485409

> <r_epik_Charging_Adjusted_Penalty>
0.0485409

> <i_epik_Tot_Q>
0

> <i_epik_Tot_abs_Q>
0

> <r_epik_Metal_State_Penalty>
0.0443056

> <b_epik_Metal_Only>
0

> <s_lp_Force_Field>
OPLS_2005

> <r_lp_Energy>
18.9934

> <b_lp_Chiralities_Consistent>
1

> <s_lp_Variant>
AV-unprocessed.smi:937-3

> <Gold.Version>
5.8.1

> <Gold.Id.Protein>
6NUR|6NUR_protein|mol2

> <Gold.PLP.Fitness>
48.4080

> <Gold.PLP.PLP>
-40.5532

> <Gold.PLP.part.hbond>
-2.0000

> <Gold.PLP.part.metal>
0.0000

> <Gold.PLP.part.buried>
-3.3679

> <Gold.PLP.part.nonpolar>
-35.7206

> <Gold.PLP.part.repulsive>
1.2653

> <Gold.PLP.ligand.clash>
0.0000

> <Gold.PLP.ligand.torsion>
0.5884

> <Gold.PLP.Chemscore.Hbond>
2.0000

> <Gold.PLP.Chemscore.CHOScore>
0.9991

> <Gold.PLP.Chemscore.Metal>
0.0000

> <Gold.Chemscore.Hbonds>
donor molecule, donor type, donor heavy atom, donor atom, acceptor molecule, acceptor atom, score
      L1  H     8    33       P1  7948  1.00
      L1  H    11    34       P1  7948  1.00
      L1  C    22    45       P1  7948  0.87

> <Gold.PLP.Chemscore.Internal.Correction>
0.0343

> <Gold.Rescore>
     Score         DG    S(hbond)    S(metal)    S(lipo)     H(rot)  DE(clash)    DE(int)     intcor
     19.24     -20.00       1.93        0.00     103.67       1.58       0.15       0.61       ----

> <Gold.Chemscore.Fitness>
19.2369

> <Gold.Chemscore.DG>
-19.9952

> <Gold.Chemscore.ZeroCoef>
-5.4800

> <Gold.Chemscore.Hbond>
1.9292

> <Gold.Chemscore.Metal>
0.0000

> <Gold.Chemscore.Lipo>
103.6681

> <Gold.Chemscore.Internal_Hbond>
0.0000

> <Gold.Chemscore.DEClash>
0.1450

> <Gold.Chemscore.DEInternal>
0.6133

> <Gold.Chemscore.Rot>
1.5849

> <Gold.Chemscore.Internal.Correction>
   9.000000E+99

> <Gold.Chemscore.Hbonds>
donor molecule, donor type, donor heavy atom, donor atom, acceptor molecule, acceptor atom, score
      L1  H     8    33       P1  7948  0.93
      L1  H    11    34       P1  7948  0.99

> <Gold.Chemscore.Hbond.Weighted>
-6.4435

> <Gold.Chemscore.Metal.Weighted>
-0.0000

> <Gold.Chemscore.Lipo.Weighted>
-12.1292

> <Gold.Chemscore.Internal_Hbond.Weighted>
0.0000

> <Gold.Chemscore.DEClash.Weighted>
0.1450

> <Gold.Chemscore.DEInternal.Weighted>
0.6133

> <Gold.Chemscore.Rot.Weighted>
4.0574

> <Gold.Chemscore.Internal.Correction.Weighted>
   9.000000E+99

> <Gold.Protein.RotatedTorsions>
[ 6907 6896 6895 6894 ] final  -91.13 input  -60.11 | X-H torsion
[ 7974 7965 7964 7962 ] final  136.95 input  175.53 | X-H torsion
[ 8008 7997 7996 7995 ] final  -55.10 input   59.86 | X-H torsion
[ 10167 10162 10161 10158 ] final -123.47 input  -65.29 | X-H torsion
[ 10718 10713 10712 10709 ] final    3.60 input   66.30 | X-H torsion
[ 10763 10752 10751 10750 ] final   65.97 input  -60.55 | X-H torsion
[ 11005 11000 10999 10996 ] final  142.61 input  -57.11 | X-H torsion

> <Gold.Protein.ActiveResidues>
 VAL166  LYS551  ARG553  GLY616  TRP617  ASP618  TYR619  PRO620  LYS621  CYS622 
 ASP623  PHE694  ASN695  SER759  ASP760  ASP761  ALA762  ILE779  LEU786  VAL792 
 PHE793  MET794  SER795  GLU796  ALA797  LYS798  CYS799  TRP800  GLU811  SER814 

> <Gold.Protein.RotatedAtoms>
  150.6889  134.2325  159.4439 H   0  0  0  0  0  0  0  0  0  0  0  0  # atno 6907 bound_to 6896
  152.0275  134.9785  160.0581 H   0  0  0  0  0  0  0  0  0  0  0  0  # atno 6908 bound_to 6896
  152.1337  133.4388  159.4770 H   0  0  0  0  0  0  0  0  0  0  0  0  # atno 6909 bound_to 6896
  144.9515  139.4813  143.5523 H   0  0  0  0  0  0  0  0  0  0  0  0  # atno 7974 bound_to 7965
  154.4184  140.1161  156.5423 H   0  0  0  0  0  0  0  0  0  0  0  0  # atno 8008 bound_to 7997
  155.6496  140.3496  155.4724 H   0  0  0  0  0  0  0  0  0  0  0  0  # atno 8009 bound_to 7997
  155.9804  140.1159  157.0722 H   0  0  0  0  0  0  0  0  0  0  0  0  # atno 8010 bound_to 7997
  140.0032  143.5519  152.2295 H   0  0  0  0  0  0  0  0  0  0  0  0  # atno 10167 bound_to 10162
  156.8801  130.5651  149.5653 H   0  0  0  0  0  0  0  0  0  0  0  0  # atno 10718 bound_to 10713
  153.0119  135.5337  154.6750 H   0  0  0  0  0  0  0  0  0  0  0  0  # atno 10763 bound_to 10752
  154.5925  135.2860  155.0623 H   0  0  0  0  0  0  0  0  0  0  0  0  # atno 10764 bound_to 10752
  154.1711  135.6532  153.5062 H   0  0  0  0  0  0  0  0  0  0  0  0  # atno 10765 bound_to 10752
  140.0490  134.9266  157.0982 H   0  0  0  0  0  0  0  0  0  0  0  0  # atno 11005 bound_to 11000
  146.3323  139.8604  142.8857 LP  0  0  0  0  0  0  0  0  0  0  0  0  # atno 17320 bound_to 7965
  145.2836  141.0146  143.3703 LP  0  0  0  0  0  0  0  0  0  0  0  0  # atno 17321 bound_to 7965
  139.6257  144.7637  151.2644 LP  0  0  0  0  0  0  0  0  0  0  0  0  # atno 17342 bound_to 10162
  140.7411  143.6568  150.8199 LP  0  0  0  0  0  0  0  0  0  0  0  0  # atno 17343 bound_to 10162
  156.0681  130.5720  150.9329 LP  0  0  0  0  0  0  0  0  0  0  0  0  # atno 17370 bound_to 10713
  157.6145  131.0934  150.8735 LP  0  0  0  0  0  0  0  0  0  0  0  0  # atno 17371 bound_to 10713
  140.3948  134.2146  155.7165 LP  0  0  0  0  0  0  0  0  0  0  0  0  # atno 17394 bound_to 11000
  141.1921  133.8181  157.0853 LP  0  0  0  0  0  0  0  0  0  0  0  0  # atno 17395 bound_to 11000

$$$$
