AV-unprocessed.smi:103|AV-procd|sdf|990|dock8
  -GOLD-   2262017563D 1   1.00000     0.00000
 Structure written by MMmdl.
 53 55  0  0  0  0  0  0  0  0  1 V2000
  149.0250  132.7445  152.7535 C   0  0  0  0  0  0  0  0  0  0  0  0
  148.6599  133.5313  154.0059 C   0  0  0  0  0  0  0  0  0  0  0  0
  148.3260  132.9596  155.0440 O   0  0  0  0  0  0  0  0  0  0  0  0
  148.7485  134.8598  153.8234 O   0  0  0  0  0  0  0  0  0  0  0  0
  148.3526  135.7519  154.8547 C   0  0  0  0  0  0  0  0  0  0  0  0
  149.0720  135.3750  156.1562 C   0  0  1  0  0  0  0  0  0  0  0  0
  150.0139  136.4060  156.4637 O   0  0  0  0  0  0  0  0  0  0  0  0
  149.8143  136.8961  157.7512 C   0  0  1  0  0  0  0  0  0  0  0  0
  150.0754  138.3676  157.7586 N   0  0  0  0  0  0  0  0  0  0  0  0
  151.0575  139.0845  158.4125 C   0  0  0  0  0  0  0  0  0  0  0  0
  152.3609  138.4121  159.4378 S   0  0  0  0  0  0  0  0  0  0  0  0
  153.6340  137.9666  158.1882 C   0  0  0  0  0  0  0  0  0  0  0  0
  152.8636  139.5143  160.2729 O   0  0  0  0  0  0  0  0  0  0  0  0
  151.8389  137.1846  160.0574 O   0  0  0  0  0  0  0  0  0  0  0  0
  151.0956  140.3692  158.1826 N   0  0  0  0  0  0  0  0  0  0  0  0
  150.0080  140.5708  157.3445 C   0  0  0  0  0  0  0  0  0  0  0  0
  149.4408  141.7114  156.7222 C   0  0  0  0  0  0  0  0  0  0  0  0
  149.9371  142.9473  156.8698 N   0  0  0  0  0  0  0  0  0  0  0  0
  148.3472  141.5465  155.9418 N   0  0  0  0  0  0  0  0  0  0  0  0
  147.8333  140.3232  155.7780 C   0  0  0  0  0  0  0  0  0  0  0  0
  148.2541  139.1656  156.2938 N   0  0  0  0  0  0  0  0  0  0  0  0
  149.3574  139.3318  157.0800 C   0  0  0  0  0  0  0  0  0  0  0  0
  148.3682  136.5975  158.1246 C   0  0  2  0  0  0  0  0  0  0  0  0
  148.2232  136.4792  159.5332 O   0  0  0  0  0  0  0  0  0  0  0  0
  147.0807  136.8537  160.1275 C   0  0  0  0  0  0  0  0  0  0  0  0
  146.9497  136.2896  161.5355 C   0  0  0  0  0  0  0  0  0  0  0  0
  146.2061  137.5657  159.6339 O   0  0  0  0  0  0  0  0  0  0  0  0
  148.0986  135.3083  157.3509 C   0  0  2  0  0  0  0  0  0  0  0  0
  148.1313  134.0942  158.1170 O   0  0  0  0  0  0  0  0  0  0  0  0
  147.1739  133.7039  158.9907 C   0  0  0  0  0  0  0  0  0  0  0  0
  147.4442  132.3133  159.5483 C   0  0  0  0  0  0  0  0  0  0  0  0
  146.1845  134.3454  159.3388 O   0  0  0  0  0  0  0  0  0  0  0  0
  148.1409  132.2537  152.3472 H   0  0  0  0  0  0  0  0  0  0  0  0
  149.7661  131.9812  152.9904 H   0  0  0  0  0  0  0  0  0  0  0  0
  149.4389  133.4001  151.9869 H   0  0  0  0  0  0  0  0  0  0  0  0
  148.5648  136.7915  154.6038 H   0  0  0  0  0  0  0  0  0  0  0  0
  147.2733  135.6697  154.9851 H   0  0  0  0  0  0  0  0  0  0  0  0
  149.5956  134.4294  156.0140 H   0  0  0  0  0  0  0  0  0  0  0  0
  150.5492  136.4581  158.4210 H   0  0  0  0  0  0  0  0  0  0  0  0
  154.5022  137.5421  158.6913 H   0  0  0  0  0  0  0  0  0  0  0  0
  153.9326  138.8604  157.6407 H   0  0  0  0  0  0  0  0  0  0  0  0
  153.2250  137.2356  157.4914 H   0  0  0  0  0  0  0  0  0  0  0  0
  150.7525  143.0959  157.4468 H   0  0  0  0  0  0  0  0  0  0  0  0
  149.4944  143.7273  156.4057 H   0  0  0  0  0  0  0  0  0  0  0  0
  146.9625  140.2618  155.1416 H   0  0  0  0  0  0  0  0  0  0  0  0
  147.7467  137.3989  157.7217 H   0  0  0  0  0  0  0  0  0  0  0  0
  147.6591  136.7771  162.2045 H   0  0  0  0  0  0  0  0  0  0  0  0
  147.1521  135.2184  161.5360 H   0  0  0  0  0  0  0  0  0  0  0  0
  145.9427  136.4510  161.9204 H   0  0  0  0  0  0  0  0  0  0  0  0
  147.0749  135.3585  156.9791 H   0  0  0  0  0  0  0  0  0  0  0  0
  148.4215  132.2805  160.0297 H   0  0  0  0  0  0  0  0  0  0  0  0
  147.4268  131.5751  158.7464 H   0  0  0  0  0  0  0  0  0  0  0  0
  146.6872  132.0415  160.2842 H   0  0  0  0  0  0  0  0  0  0  0  0
  1  2  1  0  0  0  0
  1 33  1  0  0  0  0
  1 34  1  0  0  0  0
  1 35  1  0  0  0  0
  2  3  2  0  0  0  0
  2  4  1  0  0  0  0
  4  5  1  0  0  0  0
  5  6  1  0  0  0  0
  5 36  1  0  0  0  0
  5 37  1  0  0  0  0
  6 28  1  0  0  0  0
  6  7  1  0  0  0  0
  6 38  1  0  0  0  0
  7  8  1  0  0  0  0
  8  9  1  0  0  0  0
  8 23  1  0  0  0  0
  8 39  1  0  0  0  0
  9 22  1  0  0  0  0
  9 10  1  0  0  0  0
 10 11  1  0  0  0  0
 10 15  2  0  0  0  0
 11 12  1  0  0  0  0
 11 13  2  0  0  0  0
 11 14  2  0  0  0  0
 12 40  1  0  0  0  0
 12 41  1  0  0  0  0
 12 42  1  0  0  0  0
 15 16  1  0  0  0  0
 16 22  2  0  0  0  0
 16 17  1  0  0  0  0
 17 18  1  0  0  0  0
 17 19  2  0  0  0  0
 18 43  1  0  0  0  0
 18 44  1  0  0  0  0
 19 20  1  0  0  0  0
 20 21  2  0  0  0  0
 20 45  1  0  0  0  0
 21 22  1  0  0  0  0
 23 24  1  0  0  0  0
 23 28  1  0  0  0  0
 23 46  1  0  0  0  0
 24 25  1  0  0  0  0
 25 26  1  0  0  0  0
 25 27  2  0  0  0  0
 26 47  1  0  0  0  0
 26 48  1  0  0  0  0
 26 49  1  0  0  0  0
 28 29  1  0  0  0  0
 28 50  1  0  0  0  0
 29 30  1  0  0  0  0
 30 31  1  0  0  0  0
 30 32  2  0  0  0  0
 31 51  1  0  0  0  0
 31 52  1  0  0  0  0
 31 53  1  0  0  0  0
M  END
> <s_m_source_file>
AV-unprocessed.smi

> <i_m_source_file_index>
103

> <i_lp_mmshare_version>
43012

> <i_f3d_flags>
0

> <s_epik_input>
W0NIM11DKD1PKU9bQ0gyXVtDQEBIXTFPW0NASF0oW0NAQEhdKE9DKD1PKVtDSDNdKVtDQEhdMU9DKD1PKVtDSDNdKW4oYyhuMilTKD1PKSg9TylbQ0gzXSljKGMyMyluW2NIXW5jM1tOSDJd

> <s_epik_cmdline>
J2VwaWtfcHl0aG9uJywgJy1waCcsICc3LjAnLCAnLXRuJywgJzgnLCAnLW1hJywgJzIwMCcsICctbWV0YWxfYmluZGluZycsICctaW1hZScsICc8aW5maWxlLm1hZT4nLCAnLW9tYWUnLCAnPG91dGZpbGUubWFlPic=

> <r_lp_tautomer_probability>
1

> <r_epik_Ionization_Penalty>
1.51338e-05

> <r_epik_Ionization_Penalty_Charging>
0

> <r_epik_Ionization_Penalty_Neutral>
1.51338e-05

> <r_epik_State_Penalty>
-0

> <r_epik_Charging_Adjusted_Penalty>
0

> <i_epik_Tot_Q>
0

> <i_epik_Tot_abs_Q>
0

> <r_epik_Metal_State_Penalty>
-0

> <b_epik_Metal_Only>
0

> <s_epik_Chemistry_Notes>
This compound has an ester and may undergo hydrolysis at high or low pH. This compound contains an acetal/aminal-like group ( X-CH(R)-Y where X, Y are N, S, or O) that may be acid/base labile, releasing an aldehyde.

> <s_lp_Force_Field>
OPLS_2005

> <r_lp_Energy>
20.3067

> <b_lp_Chiralities_Consistent>
1

> <s_lp_Variant>
AV-unprocessed.smi:103-14

> <Gold.Version>
5.8.1

> <Gold.Id.Protein>
6NUR|6NUR_protein|mol2

> <Gold.PLP.Fitness>
36.7305

> <Gold.PLP.PLP>
-30.7354

> <Gold.PLP.part.hbond>
-4.0418

> <Gold.PLP.part.metal>
0.0000

> <Gold.PLP.part.buried>
-7.3065

> <Gold.PLP.part.nonpolar>
-20.8176

> <Gold.PLP.part.repulsive>
0.9061

> <Gold.PLP.ligand.clash>
0.0000

> <Gold.PLP.ligand.torsion>
2.6323

> <Gold.PLP.Chemscore.Hbond>
3.0000

> <Gold.PLP.Chemscore.CHOScore>
0.0000

> <Gold.PLP.Chemscore.Metal>
0.0000

> <Gold.Chemscore.Hbonds>
donor molecule, donor type, donor heavy atom, donor atom, acceptor molecule, acceptor atom, score
      L1  H    18    44       P1  8028  0.62
      P1  H  6896  6908       L1    14  0.93
      P1  H  6934  6947       L1    27  0.03

> <Gold.PLP.Chemscore.Internal.Correction>
2.2596

> <Gold.Rescore>
     Score         DG    S(hbond)    S(metal)    S(lipo)     H(rot)  DE(clash)    DE(int)     intcor
      6.20      -9.04       2.97        0.00      38.61       4.25       0.12       2.73       ----

> <Gold.Chemscore.Fitness>
6.1951

> <Gold.Chemscore.DG>
-9.0449

> <Gold.Chemscore.ZeroCoef>
-5.4800

> <Gold.Chemscore.Hbond>
2.9690

> <Gold.Chemscore.Metal>
0.0000

> <Gold.Chemscore.Lipo>
38.6075

> <Gold.Chemscore.Internal_Hbond>
0.0000

> <Gold.Chemscore.DEClash>
0.1235

> <Gold.Chemscore.DEInternal>
2.7262

> <Gold.Chemscore.Rot>
4.2456

> <Gold.Chemscore.Internal.Correction>
   9.000000E+99

> <Gold.Chemscore.Hbonds>
donor molecule, donor type, donor heavy atom, donor atom, acceptor molecule, acceptor atom, score
      L1  H    18    44       P1  8028  0.63
      P1  H  6896  6908       L1    14  0.88

> <Gold.Chemscore.Hbond.Weighted>
-9.9165

> <Gold.Chemscore.Metal.Weighted>
-0.0000

> <Gold.Chemscore.Lipo.Weighted>
-4.5171

> <Gold.Chemscore.Internal_Hbond.Weighted>
0.0000

> <Gold.Chemscore.DEClash.Weighted>
0.1235

> <Gold.Chemscore.DEInternal.Weighted>
2.7262

> <Gold.Chemscore.Rot.Weighted>
10.8687

> <Gold.Chemscore.Internal.Correction.Weighted>
   9.000000E+99

> <Gold.Protein.RotatedTorsions>
[ 6907 6896 6895 6894 ] final -102.32 input  -60.11 | X-H torsion
[ 7974 7965 7964 7962 ] final   22.81 input  175.53 | X-H torsion
[ 8008 7997 7996 7995 ] final   10.89 input   59.86 | X-H torsion
[ 10167 10162 10161 10158 ] final  -48.73 input  -65.29 | X-H torsion
[ 10718 10713 10712 10709 ] final -149.13 input   66.30 | X-H torsion
[ 10763 10752 10751 10750 ] final  -51.48 input  -60.55 | X-H torsion
[ 11005 11000 10999 10996 ] final -123.37 input  -57.11 | X-H torsion

> <Gold.Protein.ActiveResidues>
 VAL166  LYS551  ARG553  GLY616  TRP617  ASP618  TYR619  PRO620  LYS621  CYS622 
 ASP623  PHE694  ASN695  SER759  ASP760  ASP761  ALA762  ILE779  LEU786  VAL792 
 PHE793  MET794  SER795  GLU796  ALA797  LYS798  CYS799  TRP800  GLU811  SER814 

> <Gold.Protein.RotatedAtoms>
  150.7191  134.0600  159.3827 H   0  0  0  0  0  0  0  0  0  0  0  0  # atno 6907 bound_to 6896
  151.8579  135.0532  160.0475 H   0  0  0  0  0  0  0  0  0  0  0  0  # atno 6908 bound_to 6896
  152.2740  133.5372  159.5493 H   0  0  0  0  0  0  0  0  0  0  0  0  # atno 6909 bound_to 6896
  146.2012  139.7832  142.8760 H   0  0  0  0  0  0  0  0  0  0  0  0  # atno 7974 bound_to 7965
  154.7995  140.2849  155.5932 H   0  0  0  0  0  0  0  0  0  0  0  0  # atno 8008 bound_to 7997
  156.2975  140.2589  156.2789 H   0  0  0  0  0  0  0  0  0  0  0  0  # atno 8009 bound_to 7997
  154.9575  140.0378  157.2163 H   0  0  0  0  0  0  0  0  0  0  0  0  # atno 8010 bound_to 7997
  140.6718  143.2728  151.4112 H   0  0  0  0  0  0  0  0  0  0  0  0  # atno 10167 bound_to 10162
  156.4292  130.8067  151.2293 H   0  0  0  0  0  0  0  0  0  0  0  0  # atno 10718 bound_to 10713
  154.1272  135.6525  153.4914 H   0  0  0  0  0  0  0  0  0  0  0  0  # atno 10763 bound_to 10752
  153.0206  135.5284  154.7037 H   0  0  0  0  0  0  0  0  0  0  0  0  # atno 10764 bound_to 10752
  154.6262  135.2970  155.0240 H   0  0  0  0  0  0  0  0  0  0  0  0  # atno 10765 bound_to 10752
  140.9924  134.0520  157.3639 H   0  0  0  0  0  0  0  0  0  0  0  0  # atno 11005 bound_to 11000
  145.3476  141.0301  143.3357 LP  0  0  0  0  0  0  0  0  0  0  0  0  # atno 17320 bound_to 7965
  144.8688  139.5068  143.6777 LP  0  0  0  0  0  0  0  0  0  0  0  0  # atno 17321 bound_to 7965
  139.5990  144.1336  152.2176 LP  0  0  0  0  0  0  0  0  0  0  0  0  # atno 17342 bound_to 10162
  140.0714  144.5776  150.7189 LP  0  0  0  0  0  0  0  0  0  0  0  0  # atno 17343 bound_to 10162
  157.7508  131.0204  150.3705 LP  0  0  0  0  0  0  0  0  0  0  0  0  # atno 17370 bound_to 10713
  156.4039  130.3921  149.6940 LP  0  0  0  0  0  0  0  0  0  0  0  0  # atno 17371 bound_to 10713
  139.8998  135.0160  156.7214 LP  0  0  0  0  0  0  0  0  0  0  0  0  # atno 17394 bound_to 11000
  140.7020  133.9298  155.8030 LP  0  0  0  0  0  0  0  0  0  0  0  0  # atno 17395 bound_to 11000

$$$$
