AV-unprocessed.smi:104|AV-procd|sdf|1008|dock3
  -GOLD-   2262018 03D 1   1.00000     0.00000
 Structure written by MMmdl.
 47 49  0  0  0  0  0  0  0  0  1 V2000
  151.2801  141.1308  157.1094 C   0  0  0  0  0  0  0  0  0  0  0  0
  151.8668  139.9284  156.3821 C   0  0  0  0  0  0  0  0  0  0  0  0
  152.7755  139.2584  156.8733 O   0  0  0  0  0  0  0  0  0  0  0  0
  151.2858  139.7176  155.1923 O   0  0  0  0  0  0  0  0  0  0  0  0
  151.6389  138.5719  154.4325 C   0  0  0  0  0  0  0  0  0  0  0  0
  150.8332  137.3529  154.8997 C   0  0  1  0  0  0  0  0  0  0  0  0
  151.6738  136.4540  155.6081 O   0  0  0  0  0  0  0  0  0  0  0  0
  150.9624  135.7984  156.6078 C   0  0  2  0  0  0  0  0  0  0  0  0
  150.6687  134.3902  156.1475 N   0  0  0  0  0  0  0  0  0  0  0  0
  149.6403  133.9661  155.3317 C   0  0  0  0  0  0  0  0  0  0  0  0
  148.3608  135.1595  154.5772 Br  0  0  0  0  0  0  0  0  0  0  0  0
  149.5648  132.6922  155.0711 N   0  0  0  0  0  0  0  0  0  0  0  0
  150.6383  132.1717  155.7774 C   0  0  0  0  0  0  0  0  0  0  0  0
  151.1578  130.8634  155.9456 C   0  0  0  0  0  0  0  0  0  0  0  0
  150.6135  129.7816  155.3718 N   0  0  0  0  0  0  0  0  0  0  0  0
  152.2540  130.6954  156.7199 N   0  0  0  0  0  0  0  0  0  0  0  0
  152.8139  131.7583  157.3037 C   0  0  0  0  0  0  0  0  0  0  0  0
  152.4390  133.0376  157.2403 N   0  0  0  0  0  0  0  0  0  0  0  0
  151.3332  133.2140  156.4597 C   0  0  0  0  0  0  0  0  0  0  0  0
  149.7132  136.6436  156.9451 C   0  0  2  0  0  0  0  0  0  0  0  0
  148.5241  135.8661  157.0773 O   0  0  0  0  0  0  0  0  0  0  0  0
  148.3522  135.0584  158.1369 C   0  0  0  0  0  0  0  0  0  0  0  0
  147.4495  133.8746  157.8191 C   0  0  0  0  0  0  0  0  0  0  0  0
  148.8573  135.2052  159.2498 O   0  0  0  0  0  0  0  0  0  0  0  0
  149.6470  137.6831  155.8190 C   0  0  2  0  0  0  0  0  0  0  0  0
  148.4360  137.6289  155.0702 O   0  0  0  0  0  0  0  0  0  0  0  0
  148.1069  138.6247  154.2297 C   0  0  0  0  0  0  0  0  0  0  0  0
  146.8008  138.3532  153.4957 C   0  0  0  0  0  0  0  0  0  0  0  0
  148.7458  139.6607  154.0463 O   0  0  0  0  0  0  0  0  0  0  0  0
  150.1918  141.0685  157.1316 H   0  0  0  0  0  0  0  0  0  0  0  0
  151.5641  142.0531  156.6026 H   0  0  0  0  0  0  0  0  0  0  0  0
  151.6454  141.1736  158.1357 H   0  0  0  0  0  0  0  0  0  0  0  0
  151.4390  138.7614  153.3769 H   0  0  0  0  0  0  0  0  0  0  0  0
  152.7072  138.3743  154.5323 H   0  0  0  0  0  0  0  0  0  0  0  0
  150.4845  136.8284  154.0118 H   0  0  0  0  0  0  0  0  0  0  0  0
  151.6022  135.6731  157.4787 H   0  0  0  0  0  0  0  0  0  0  0  0
  149.7951  129.8793  154.7883 H   0  0  0  0  0  0  0  0  0  0  0  0
  151.0200  128.8706  155.5273 H   0  0  0  0  0  0  0  0  0  0  0  0
  153.6863  131.5563  157.9074 H   0  0  0  0  0  0  0  0  0  0  0  0
  149.9161  137.1784  157.8742 H   0  0  0  0  0  0  0  0  0  0  0  0
  146.4551  134.2226  157.5398 H   0  0  0  0  0  0  0  0  0  0  0  0
  147.3564  133.2190  158.6851 H   0  0  0  0  0  0  0  0  0  0  0  0
  147.8612  133.2980  156.9906 H   0  0  0  0  0  0  0  0  0  0  0  0
  149.7829  138.6759  156.2500 H   0  0  0  0  0  0  0  0  0  0  0  0
  146.8990  137.4713  152.8627 H   0  0  0  0  0  0  0  0  0  0  0  0
  146.5305  139.2020  152.8675 H   0  0  0  0  0  0  0  0  0  0  0  0
  145.9951  138.1804  154.2095 H   0  0  0  0  0  0  0  0  0  0  0  0
  1  2  1  0  0  0  0
  1 30  1  0  0  0  0
  1 31  1  0  0  0  0
  1 32  1  0  0  0  0
  2  3  2  0  0  0  0
  2  4  1  0  0  0  0
  4  5  1  0  0  0  0
  5  6  1  0  0  0  0
  5 33  1  0  0  0  0
  5 34  1  0  0  0  0
  6 25  1  0  0  0  0
  6  7  1  0  0  0  0
  6 35  1  0  0  0  0
  7  8  1  0  0  0  0
  8  9  1  0  0  0  0
  8 20  1  0  0  0  0
  8 36  1  0  0  0  0
  9 19  1  0  0  0  0
  9 10  1  0  0  0  0
 10 11  1  0  0  0  0
 10 12  2  0  0  0  0
 12 13  1  0  0  0  0
 13 19  2  0  0  0  0
 13 14  1  0  0  0  0
 14 15  1  0  0  0  0
 14 16  2  0  0  0  0
 15 37  1  0  0  0  0
 15 38  1  0  0  0  0
 16 17  1  0  0  0  0
 17 18  2  0  0  0  0
 17 39  1  0  0  0  0
 18 19  1  0  0  0  0
 20 21  1  0  0  0  0
 20 25  1  0  0  0  0
 20 40  1  0  0  0  0
 21 22  1  0  0  0  0
 22 23  1  0  0  0  0
 22 24  2  0  0  0  0
 23 41  1  0  0  0  0
 23 42  1  0  0  0  0
 23 43  1  0  0  0  0
 25 26  1  0  0  0  0
 25 44  1  0  0  0  0
 26 27  1  0  0  0  0
 27 28  1  0  0  0  0
 27 29  2  0  0  0  0
 28 45  1  0  0  0  0
 28 46  1  0  0  0  0
 28 47  1  0  0  0  0
M  END
> <s_m_source_file>
AV-unprocessed.smi

> <i_m_source_file_index>
104

> <i_lp_mmshare_version>
43012

> <i_f3d_flags>
0

> <s_epik_input>
W0NIM11DKD1PKU9bQ0gyXVtDQEBIXTFPW0NASF0oW0NAQEhdKE9DKD1PKVtDSDNdKVtDQEhdMU9DKD1PKVtDSDNdKW4oYyhCciluMiljKGMyMyluW2NIXW5jM1tOSDJd

> <s_epik_cmdline>
J2VwaWtfcHl0aG9uJywgJy1waCcsICc3LjAnLCAnLXRuJywgJzgnLCAnLW1hJywgJzIwMCcsICctbWV0YWxfYmluZGluZycsICctaW1hZScsICc8aW5maWxlLm1hZT4nLCAnLW9tYWUnLCAnPG91dGZpbGUubWFlPic=

> <r_lp_tautomer_probability>
1

> <r_epik_Ionization_Penalty>
7.36622e-05

> <r_epik_Ionization_Penalty_Charging>
0

> <r_epik_Ionization_Penalty_Neutral>
7.36622e-05

> <r_epik_State_Penalty>
-0

> <r_epik_Charging_Adjusted_Penalty>
0

> <i_epik_Tot_Q>
0

> <i_epik_Tot_abs_Q>
0

> <r_epik_Metal_State_Penalty>
-0

> <b_epik_Metal_Only>
0

> <s_epik_Chemistry_Notes>
This compound has an ester and may undergo hydrolysis at high or low pH. This compound contains an acetal/aminal-like group ( X-CH(R)-Y where X, Y are N, S, or O) that may be acid/base labile, releasing an aldehyde.

> <s_lp_Force_Field>
OPLS_2005

> <r_lp_Energy>
19.0996

> <b_lp_Chiralities_Consistent>
1

> <s_lp_Variant>
AV-unprocessed.smi:104-16

> <Gold.Version>
5.8.1

> <Gold.Id.Protein>
6NUR|6NUR_protein|mol2

> <Gold.PLP.Fitness>
38.1952

> <Gold.PLP.PLP>
-31.2447

> <Gold.PLP.part.hbond>
-5.0000

> <Gold.PLP.part.metal>
0.0000

> <Gold.PLP.part.buried>
-6.2406

> <Gold.PLP.part.nonpolar>
-21.6003

> <Gold.PLP.part.repulsive>
1.0896

> <Gold.PLP.ligand.clash>
0.0000

> <Gold.PLP.ligand.torsion>
1.9639

> <Gold.PLP.Chemscore.Hbond>
3.5456

> <Gold.PLP.Chemscore.CHOScore>
0.0000

> <Gold.PLP.Chemscore.Metal>
0.0000

> <Gold.Chemscore.Hbonds>
donor molecule, donor type, donor heavy atom, donor atom, acceptor molecule, acceptor atom, score
      P1  H  6896  6907       L1    24  1.00
      P1  H  6896  6909       L1    18  0.51
      P1  H  7997  8008       L1     3  1.00
      P1  H 10752 10764       L1     7  1.00

> <Gold.PLP.Chemscore.Internal.Correction>
0.2413

> <Gold.Rescore>
     Score         DG    S(hbond)    S(metal)    S(lipo)     H(rot)  DE(clash)    DE(int)     intcor
      0.28      -8.50       2.87        0.00      38.21       4.31       0.22       8.01       ----

> <Gold.Chemscore.Fitness>
0.2790

> <Gold.Chemscore.DG>
-8.5049

> <Gold.Chemscore.ZeroCoef>
-5.4800

> <Gold.Chemscore.Hbond>
2.8683

> <Gold.Chemscore.Metal>
0.0000

> <Gold.Chemscore.Lipo>
38.2098

> <Gold.Chemscore.Internal_Hbond>
0.0000

> <Gold.Chemscore.DEClash>
0.2165

> <Gold.Chemscore.DEInternal>
8.0094

> <Gold.Chemscore.Rot>
4.3070

> <Gold.Chemscore.Internal.Correction>
   9.000000E+99

> <Gold.Chemscore.Hbonds>
donor molecule, donor type, donor heavy atom, donor atom, acceptor molecule, acceptor atom, score
      P1  H  6896  6907       L1    24  0.97
      P1  H  6896  6909       L1    18  0.07
      P1  H  7997  8008       L1     3  0.82
      P1  H 10752 10764       L1     7  0.88

> <Gold.Chemscore.Hbond.Weighted>
-9.5803

> <Gold.Chemscore.Metal.Weighted>
-0.0000

> <Gold.Chemscore.Lipo.Weighted>
-4.4706

> <Gold.Chemscore.Internal_Hbond.Weighted>
0.0000

> <Gold.Chemscore.DEClash.Weighted>
0.2165

> <Gold.Chemscore.DEInternal.Weighted>
8.0094

> <Gold.Chemscore.Rot.Weighted>
11.0259

> <Gold.Chemscore.Internal.Correction.Weighted>
   9.000000E+99

> <Gold.Protein.RotatedTorsions>
[ 6907 6896 6895 6894 ] final  -66.58 input  -60.11 | X-H torsion
[ 7974 7965 7964 7962 ] final -143.72 input  175.53 | X-H torsion
[ 8008 7997 7996 7995 ] final  -64.85 input   59.86 | X-H torsion
[ 10167 10162 10161 10158 ] final -130.56 input  -65.29 | X-H torsion
[ 10718 10713 10712 10709 ] final  109.31 input   66.30 | X-H torsion
[ 10763 10752 10751 10750 ] final  -36.43 input  -60.55 | X-H torsion
[ 11005 11000 10999 10996 ] final -142.13 input  -57.11 | X-H torsion

> <Gold.Protein.ActiveResidues>
 VAL166  LYS551  ARG553  GLY616  TRP617  ASP618  TYR619  PRO620  LYS621  CYS622 
 ASP623  PHE694  ASN695  SER759  ASP760  ASP761  ALA762  ILE779  LEU786  VAL792 
 PHE793  MET794  SER795  GLU796  ALA797  LYS798  CYS799  TRP800  GLU811  SER814 

> <Gold.Protein.RotatedAtoms>
  150.7457  134.6001  159.6031 H   0  0  0  0  0  0  0  0  0  0  0  0  # atno 6907 bound_to 6896
  152.3365  134.7189  160.0284 H   0  0  0  0  0  0  0  0  0  0  0  0  # atno 6908 bound_to 6896
  151.7655  133.3301  159.3466 H   0  0  0  0  0  0  0  0  0  0  0  0  # atno 6909 bound_to 6896
  144.8349  140.5800  143.5490 H   0  0  0  0  0  0  0  0  0  0  0  0  # atno 7974 bound_to 7965
  154.4636  140.0945  156.6961 H   0  0  0  0  0  0  0  0  0  0  0  0  # atno 8008 bound_to 7997
  155.4922  140.3471  155.4338 H   0  0  0  0  0  0  0  0  0  0  0  0  # atno 8009 bound_to 7997
  156.0916  140.1399  156.9573 H   0  0  0  0  0  0  0  0  0  0  0  0  # atno 8010 bound_to 7997
  139.9281  143.6304  152.2537 H   0  0  0  0  0  0  0  0  0  0  0  0  # atno 10167 bound_to 10162
  157.6547  131.0911  150.6435 H   0  0  0  0  0  0  0  0  0  0  0  0  # atno 10718 bound_to 10713
  153.8796  135.6823  153.4768 H   0  0  0  0  0  0  0  0  0  0  0  0  # atno 10763 bound_to 10752
  153.1241  135.4726  154.9241 H   0  0  0  0  0  0  0  0  0  0  0  0  # atno 10764 bound_to 10752
  154.7675  135.3228  154.8208 H   0  0  0  0  0  0  0  0  0  0  0  0  # atno 10765 bound_to 10752
  140.8256  134.2579  157.4880 H   0  0  0  0  0  0  0  0  0  0  0  0  # atno 11005 bound_to 11000
  145.4816  139.1495  143.3759 LP  0  0  0  0  0  0  0  0  0  0  0  0  # atno 17320 bound_to 7965
  146.2649  140.4952  142.8838 LP  0  0  0  0  0  0  0  0  0  0  0  0  # atno 17321 bound_to 7965
  139.6805  144.7656  151.1616 LP  0  0  0  0  0  0  0  0  0  0  0  0  # atno 17342 bound_to 10162
  140.7645  143.5731  150.8974 LP  0  0  0  0  0  0  0  0  0  0  0  0  # atno 17343 bound_to 10162
  156.6742  130.4548  149.5647 LP  0  0  0  0  0  0  0  0  0  0  0  0  # atno 17370 bound_to 10713
  156.1975  130.6599  151.1131 LP  0  0  0  0  0  0  0  0  0  0  0  0  # atno 17371 bound_to 10713
  139.8706  134.9559  156.4219 LP  0  0  0  0  0  0  0  0  0  0  0  0  # atno 17394 bound_to 11000
  140.9053  133.7750  155.9727 LP  0  0  0  0  0  0  0  0  0  0  0  0  # atno 17395 bound_to 11000

$$$$
