AV-unprocessed.smi:2459|AV-procd|sdf|9712|dock10
  -GOLD-   2272013353D 1   1.00000     0.00000
 Structure written by MMmdl.
 47 48  0  0  0  0  0  0  0  0  2 V2000
  143.9256  132.4759  149.5656 C   0  0  0  0  0  0  0  0  0  0  0  0
  144.3459  132.2939  150.9161 O   0  0  0  0  0  0  0  0  0  0  0  0
  145.2375  133.2572  151.4922 C   0  0  0  0  0  0  0  0  0  0  0  0
  145.4961  132.7398  152.9207 C   0  0  0  0  0  0  0  0  0  0  0  0
  146.5768  133.2685  150.7136 C   0  0  0  0  0  0  0  0  0  0  0  0
  144.5438  134.6421  151.5647 C   0  0  0  0  0  0  0  0  0  0  0  0
  145.0039  135.5742  150.9055 O   0  0  0  0  0  0  0  0  0  0  0  0
  143.4629  134.7516  152.3624 N   0  0  0  0  0  0  0  0  0  0  0  0
  142.6571  135.8902  152.6367 C   0  0  0  0  0  0  0  0  0  0  0  0
  143.1008  137.2282  152.5143 C   0  0  0  0  0  0  0  0  0  0  0  0
  142.2671  138.2446  152.8205 N   0  3  0  0  0  0  0  0  0  0  0  0
  140.9950  138.0731  153.2554 C   0  0  0  0  0  0  0  0  0  0  0  0
  140.2277  139.2110  153.5680 N   0  0  0  0  0  0  0  0  0  0  0  0
  138.9769  139.2885  152.8158 C   0  0  0  0  0  0  0  0  0  0  0  0
  138.3443  140.6848  152.9453 C   0  0  0  0  0  0  0  0  0  0  0  0
  138.1692  141.0754  154.4215 C   0  0  0  0  0  0  0  0  0  0  0  0
  139.5080  140.9520  155.1662 C   0  0  0  0  0  0  0  0  0  0  0  0
  140.1091  139.5475  154.9867 C   0  0  0  0  0  0  0  0  0  0  0  0
  140.4963  136.7523  153.3994 C   0  0  0  0  0  0  0  0  0  0  0  0
  139.0749  136.4759  153.8610 C   0  0  0  0  0  0  0  0  0  0  0  0
  141.3413  135.6633  153.0915 C   0  0  0  0  0  0  0  0  0  0  0  0
  143.2576  131.6591  149.2924 H   0  0  0  0  0  0  0  0  0  0  0  0
  144.7635  132.4520  148.8698 H   0  0  0  0  0  0  0  0  0  0  0  0
  143.3731  133.4041  149.4189 H   0  0  0  0  0  0  0  0  0  0  0  0
  146.1547  133.4096  153.4751 H   0  0  0  0  0  0  0  0  0  0  0  0
  145.9696  131.7575  152.9018 H   0  0  0  0  0  0  0  0  0  0  0  0
  144.5715  132.6374  153.4904 H   0  0  0  0  0  0  0  0  0  0  0  0
  147.3193  133.8922  151.2134 H   0  0  0  0  0  0  0  0  0  0  0  0
  146.4715  133.6424  149.6951 H   0  0  0  0  0  0  0  0  0  0  0  0
  146.9941  132.2634  150.6454 H   0  0  0  0  0  0  0  0  0  0  0  0
  143.1598  133.8934  152.7997 H   0  0  0  0  0  0  0  0  0  0  0  0
  144.0873  137.5350  152.2020 H   0  0  0  0  0  0  0  0  0  0  0  0
  139.1418  139.0577  151.7637 H   0  0  0  0  0  0  0  0  0  0  0  0
  138.2891  138.5329  153.1980 H   0  0  0  0  0  0  0  0  0  0  0  0
  138.9771  141.4196  152.4455 H   0  0  0  0  0  0  0  0  0  0  0  0
  137.3809  140.7074  152.4350 H   0  0  0  0  0  0  0  0  0  0  0  0
  137.7850  142.0928  154.4997 H   0  0  0  0  0  0  0  0  0  0  0  0
  137.4285  140.4246  154.8880 H   0  0  0  0  0  0  0  0  0  0  0  0
  140.2067  141.6994  154.7876 H   0  0  0  0  0  0  0  0  0  0  0  0
  139.3689  141.1668  156.2260 H   0  0  0  0  0  0  0  0  0  0  0  0
  139.4760  138.8113  155.4843 H   0  0  0  0  0  0  0  0  0  0  0  0
  141.0904  139.5030  155.4609 H   0  0  0  0  0  0  0  0  0  0  0  0
  138.7341  135.5027  153.5063 H   0  0  0  0  0  0  0  0  0  0  0  0
  138.3799  137.2248  153.4806 H   0  0  0  0  0  0  0  0  0  0  0  0
  139.0220  136.4745  154.9495 H   0  0  0  0  0  0  0  0  0  0  0  0
  140.9769  134.6517  153.1999 H   0  0  0  0  0  0  0  0  0  0  0  0
  142.6203  139.1972  152.7279 H   0  0  0  0  0  0  0  0  0  0  0  0
  1  2  1  0  0  0  0
  1 22  1  0  0  0  0
  1 23  1  0  0  0  0
  1 24  1  0  0  0  0
  2  3  1  0  0  0  0
  3  4  1  0  0  0  0
  3  5  1  0  0  0  0
  3  6  1  0  0  0  0
  4 25  1  0  0  0  0
  4 26  1  0  0  0  0
  4 27  1  0  0  0  0
  5 28  1  0  0  0  0
  5 29  1  0  0  0  0
  5 30  1  0  0  0  0
  6  7  2  0  0  0  0
  6  8  1  0  0  0  0
  8  9  1  0  0  0  0
  8 31  1  0  0  0  0
  9 21  1  0  0  0  0
  9 10  2  0  0  0  0
 10 11  1  0  0  0  0
 10 32  1  0  0  0  0
 11 12  2  0  0  0  0
 11 47  1  0  0  0  0
 12 13  1  0  0  0  0
 12 19  1  0  0  0  0
 13 18  1  0  0  0  0
 13 14  1  0  0  0  0
 14 15  1  0  0  0  0
 14 33  1  0  0  0  0
 14 34  1  0  0  0  0
 15 16  1  0  0  0  0
 15 35  1  0  0  0  0
 15 36  1  0  0  0  0
 16 17  1  0  0  0  0
 16 37  1  0  0  0  0
 16 38  1  0  0  0  0
 17 18  1  0  0  0  0
 17 39  1  0  0  0  0
 17 40  1  0  0  0  0
 18 41  1  0  0  0  0
 18 42  1  0  0  0  0
 19 20  1  0  0  0  0
 19 21  2  0  0  0  0
 20 43  1  0  0  0  0
 20 44  1  0  0  0  0
 20 45  1  0  0  0  0
 21 46  1  0  0  0  0
M  CHG  1  11   1
M  END
> <s_m_source_file>
AV-unprocessed.smi

> <i_m_source_file_index>
2459

> <i_lp_mmshare_version>
43012

> <i_f3d_flags>
0

> <s_epik_input>
W0NIM11PQyhbQ0gzXSkoW0NIM10pQyg9TylbTkhdYzFbY0hdbmMoYyhbQ0gzXSlbY0hdMSlOMltDSDJdW0NIMl1bQ0gyXVtDSDJdW0NIMl0y

> <s_epik_cmdline>
J2VwaWtfcHl0aG9uJywgJy1waCcsICc3LjAnLCAnLXRuJywgJzgnLCAnLW1hJywgJzIwMCcsICctbWV0YWxfYmluZGluZycsICctaW1hZScsICc8aW5maWxlLm1hZT4nLCAnLW9tYWUnLCAnPG91dGZpbGUubWFlPic=

> <r_lp_tautomer_probability>
0.999994

> <r_epik_Ionization_Penalty>
1.22605

> <r_epik_Ionization_Penalty_Charging>
1.22604

> <r_epik_Ionization_Penalty_Neutral>
3.07462e-06

> <r_epik_State_Penalty>
0.10642

> <r_epik_Charging_Adjusted_Penalty>
1.33246

> <i_epik_Tot_Q>
1

> <i_epik_Tot_abs_Q>
1

> <r_epik_Metal_State_Penalty>
0.12082

> <b_epik_Metal_Only>
0

> <s_lp_Force_Field>
OPLS_2005

> <r_lp_Energy>
38.0416

> <b_lp_Chiralities_Consistent>
1

> <s_lp_Variant>
AV-unprocessed.smi:2459-1

> <Gold.Version>
5.8.1

> <Gold.Id.Protein>
6NUR|6NUR_protein|mol2

> <Gold.PLP.Fitness>
39.7853

> <Gold.PLP.PLP>
-34.6048

> <Gold.PLP.part.hbond>
-1.0000

> <Gold.PLP.part.metal>
0.0000

> <Gold.PLP.part.buried>
-5.9979

> <Gold.PLP.part.nonpolar>
-28.2252

> <Gold.PLP.part.repulsive>
0.6278

> <Gold.PLP.ligand.clash>
0.0000

> <Gold.PLP.ligand.torsion>
0.5617

> <Gold.PLP.Chemscore.Hbond>
2.0000

> <Gold.PLP.Chemscore.CHOScore>
0.0000

> <Gold.PLP.Chemscore.Metal>
0.0000

> <Gold.Chemscore.Hbonds>
donor molecule, donor type, donor heavy atom, donor atom, acceptor molecule, acceptor atom, score
      L1  H    11    47       P1 10175  2.00

> <Gold.PLP.Chemscore.Internal.Correction>
0.3039

> <Gold.Rescore>
     Score         DG    S(hbond)    S(metal)    S(lipo)     H(rot)  DE(clash)    DE(int)     intcor
     13.13     -14.69       1.00        0.00      79.56       1.34       0.09       1.46       ----

> <Gold.Chemscore.Fitness>
13.1309

> <Gold.Chemscore.DG>
-14.6859

> <Gold.Chemscore.ZeroCoef>
-5.4800

> <Gold.Chemscore.Hbond>
0.9975

> <Gold.Chemscore.Metal>
0.0000

> <Gold.Chemscore.Lipo>
79.5620

> <Gold.Chemscore.Internal_Hbond>
0.0000

> <Gold.Chemscore.DEClash>
0.0901

> <Gold.Chemscore.DEInternal>
1.4649

> <Gold.Chemscore.Rot>
1.3416

> <Gold.Chemscore.Internal.Correction>
   9.000000E+99

> <Gold.Chemscore.Hbonds>
donor molecule, donor type, donor heavy atom, donor atom, acceptor molecule, acceptor atom, score
      L1  H    11    47       P1 10175  0.98

> <Gold.Chemscore.Hbond.Weighted>
-3.3317

> <Gold.Chemscore.Metal.Weighted>
-0.0000

> <Gold.Chemscore.Lipo.Weighted>
-9.3088

> <Gold.Chemscore.Internal_Hbond.Weighted>
0.0000

> <Gold.Chemscore.DEClash.Weighted>
0.0901

> <Gold.Chemscore.DEInternal.Weighted>
1.4649

> <Gold.Chemscore.Rot.Weighted>
3.4346

> <Gold.Chemscore.Internal.Correction.Weighted>
   9.000000E+99

> <Gold.Protein.RotatedTorsions>
[ 6907 6896 6895 6894 ] final -155.03 input  -60.11 | X-H torsion
[ 7974 7965 7964 7962 ] final  -76.34 input  175.53 | X-H torsion
[ 8008 7997 7996 7995 ] final   -5.26 input   59.86 | X-H torsion
[ 10167 10162 10161 10158 ] final  -96.40 input  -65.29 | X-H torsion
[ 10718 10713 10712 10709 ] final  -41.46 input   66.30 | X-H torsion
[ 10763 10752 10751 10750 ] final  140.03 input  -60.55 | X-H torsion
[ 11005 11000 10999 10996 ] final  -21.16 input  -57.11 | X-H torsion

> <Gold.Protein.ActiveResidues>
 VAL166  LYS551  ARG553  GLY616  TRP617  ASP618  TYR619  PRO620  LYS621  CYS622 
 ASP623  PHE694  ASN695  SER759  ASP760  ASP761  ALA762  ILE779  LEU786  VAL792 
 PHE793  MET794  SER795  GLU796  ALA797  LYS798  CYS799  TRP800  GLU811  SER814 

> <Gold.Protein.RotatedAtoms>
  151.2664  133.4277  159.2618 H   0  0  0  0  0  0  0  0  0  0  0  0  # atno 6907 bound_to 6896
  151.0484  134.9656  159.8209 H   0  0  0  0  0  0  0  0  0  0  0  0  # atno 6908 bound_to 6896
  152.5378  134.2619  159.8991 H   0  0  0  0  0  0  0  0  0  0  0  0  # atno 6909 bound_to 6896
  145.6142  140.9379  143.1173 H   0  0  0  0  0  0  0  0  0  0  0  0  # atno 7974 bound_to 7965
  154.6057  140.2463  155.7733 H   0  0  0  0  0  0  0  0  0  0  0  0  # atno 8008 bound_to 7997
  156.2339  140.2957  156.0213 H   0  0  0  0  0  0  0  0  0  0  0  0  # atno 8009 bound_to 7997
  155.2135  140.0398  157.2927 H   0  0  0  0  0  0  0  0  0  0  0  0  # atno 8010 bound_to 7997
  140.2942  143.3202  152.0314 H   0  0  0  0  0  0  0  0  0  0  0  0  # atno 10167 bound_to 10162
  156.2701  130.4206  149.8447 H   0  0  0  0  0  0  0  0  0  0  0  0  # atno 10718 bound_to 10713
  153.9160  135.3006  155.3448 H   0  0  0  0  0  0  0  0  0  0  0  0  # atno 10763 bound_to 10752
  154.7600  135.4939  153.9449 H   0  0  0  0  0  0  0  0  0  0  0  0  # atno 10764 bound_to 10752
  153.1167  135.6772  153.9508 H   0  0  0  0  0  0  0  0  0  0  0  0  # atno 10765 bound_to 10752
  140.8534  133.7840  155.9992 H   0  0  0  0  0  0  0  0  0  0  0  0  # atno 11005 bound_to 11000
  144.7257  139.7882  143.7365 LP  0  0  0  0  0  0  0  0  0  0  0  0  # atno 17320 bound_to 7965
  146.1481  139.4556  143.0066 LP  0  0  0  0  0  0  0  0  0  0  0  0  # atno 17321 bound_to 7965
  139.4930  144.6503  151.6691 LP  0  0  0  0  0  0  0  0  0  0  0  0  # atno 17342 bound_to 10162
  140.5706  144.0115  150.6215 LP  0  0  0  0  0  0  0  0  0  0  0  0  # atno 17343 bound_to 10162
  156.5932  130.8515  151.3413 LP  0  0  0  0  0  0  0  0  0  0  0  0  # atno 17370 bound_to 10713
  157.7281  130.9652  150.1727 LP  0  0  0  0  0  0  0  0  0  0  0  0  # atno 17371 bound_to 10713
  140.8764  134.2664  157.5166 LP  0  0  0  0  0  0  0  0  0  0  0  0  # atno 17394 bound_to 11000
  139.8704  134.9593  156.4328 LP  0  0  0  0  0  0  0  0  0  0  0  0  # atno 17395 bound_to 11000

$$$$
