#       Name:                AV-unprocessed.smi:3237
#       Creating user name   scv26
#       Creation time:       Fri Mar 27 18:23:28 2020


#       File generated by GOLD software.
#

@<TRIPOS>MOLECULE
AV-unprocessed.smi:3237
    42    44     1
SMALL
NO_CHARGES


@<TRIPOS>ATOM
      1 ****        -6.5337  -3.1777   1.6323 C.3            1 S1                 0.0000
      2 ****        -5.3665  -2.3448   1.2255 C.2            1 S1                 0.0000
      3 ****        -4.1999  -2.6353   0.5763 C.2            1 S1                 0.0000
      4 ****        -3.5445  -1.3765   0.5143 C.2            1 S1                 0.0000
      5 ****        -2.2708  -1.2535  -0.1010 N.am           1 S1                 0.0000
      6 ****        -1.5094  -0.1542  -0.2501 C.2            1 S1                 0.0000
      7 ****        -1.8977   0.9388   0.1791 O.2            1 S1                 0.0000
      8 ****        -0.3375  -0.4217  -0.8906 N.pl3          1 S1                -1.0000
      9 ****         0.6826   0.5779  -1.2128 C.3            1 S1                 0.0000
     10 ****         1.7334   0.0147  -2.1705 C.3            1 S1                 0.0000
     11 ****         2.9670   0.8640  -1.8688 C.3            1 S1                 0.0000
     12 ****         2.9143   1.1085  -0.4123 N.4            1 S1                 1.0000
     13 ****         3.5890   2.3526   0.0170 C.3            1 S1                 0.0000
     14 ****         5.0754   2.1924   0.2276 C.3            1 S1                 0.0000
     15 ****         4.1458   2.2827   1.4186 C.3            1 S1                 0.0000
     16 ****         1.5015   0.9960   0.0222 C.3            1 S1                 0.0000
     17 ****        -4.2491  -0.4054   1.0765 N.2            1 S1                 0.0000
     18 ****        -5.4203  -1.0207   1.5340 O.3            1 S1                 0.0000
     19 ****        -6.2200  -4.1935   1.8727 H              1 S1                 0.0000
     20 ****        -7.2671  -3.2309   0.8279 H              1 S1                 0.0000
     21 ****        -7.0244  -2.7596   2.5114 H              1 S1                 0.0000
     22 ****        -3.8702  -3.5946   0.2057 H              1 S1                 0.0000
     23 ****        -1.8849  -2.1066  -0.4775 H              1 S1                 0.0000
     24 ****         0.2604   1.4746  -1.6694 H              1 S1                 0.0000
     25 ****         1.9480  -1.0305  -1.9396 H              1 S1                 0.0000
     26 ****         1.4274   0.0717  -3.2155 H              1 S1                 0.0000
     27 ****         3.8932   0.3617  -2.1494 H              1 S1                 0.0000
     28 ****         2.9291   1.8100  -2.4159 H              1 S1                 0.0000
     29 ****         3.1801   3.2847  -0.3692 H              1 S1                 0.0000
     30 ****         5.5245   1.2245   0.0121 H              1 S1                 0.0000
     31 ****         5.7071   3.0542   0.0220 H              1 S1                 0.0000
     32 ****         4.1649   3.2038   1.9976 H              1 S1                 0.0000
     33 ****         3.9763   1.3748   1.9948 H              1 S1                 0.0000
     34 ****         1.1228   1.9321   0.4357 H              1 S1                 0.0000
     35 ****         1.4565   0.2491   0.8162 H              1 S1                 0.0000
     36 ****         3.3961   0.3350   0.0227 H              1 S1                 0.0000
     37 ****        -2.7823   1.0093   0.6401 LP             1 S1                 0.0000
     38 ****        -1.3271   1.7521   0.0651 LP             1 S1                 0.0000
     39 ****        -0.1612  -1.3684  -1.1600 LP             1 S1                 0.0000
     40 ****        -3.9982   0.5593   1.1567 LP             1 S1                 0.0000
     41 ****        -5.4942  -0.9087   2.5250 LP             1 S1                 0.0000
     42 ****        -6.2143  -0.6040   1.0914 LP             1 S1                 0.0000
@<TRIPOS>BOND
    1    1    2 1     
    2    1   19 1     
    3    1   20 1     
    4    1   21 1     
    5    2   18 1     
    6    2    3 2     
    7    3    4 1     
    8    3   22 1     
    9    4    5 1     
   10    4   17 2     
   11    5    6 am    
   12    5   23 1     
   13    6    7 2     
   14    6    8 1     
   15    8    9 1     
   16    9   16 1     
   17    9   10 1     
   18    9   24 1     
   19   10   11 1     
   20   10   25 1     
   21   10   26 1     
   22   11   12 1     
   23   11   27 1     
   24   11   28 1     
   25   12   13 1     
   26   12   16 1     
   27   12   36 1     
   28   13   15 1     
   29   13   14 1     
   30   13   29 1     
   31   14   15 1     
   32   14   30 1     
   33   14   31 1     
   34   15   32 1     
   35   15   33 1     
   36   16   34 1     
   37   16   35 1     
   38   17   18 1     
   39    7   37 1     
   40    7   38 1     
   41    8   39 1     
   42   17   40 1     
   43   18   41 1     
   44   18   42 1     
@<TRIPOS>SUBSTRUCTURE
      1 S1             1
@<TRIPOS>SET
LONE_PAIRS      STATIC     ATOMS    <user>   **** ""
6 37 38 39 40 41 42
DONOR_HYDROGENS      STATIC     ATOMS    <user>   **** ""
2 23 36
ATOM$BLUE        STATIC     ATOMS    COLORGROUP SYSTEM
6 37 38 39 40 41 42
ATOM$RED        STATIC     ATOMS    COLORGROUP SYSTEM
2 23 36
