#       Name:                AV-unprocessed.smi:49
#       Creating user name   scv26
#       Creation time:       Thu Mar 26 16:34:34 2020


#       File generated by GOLD software.
#

@<TRIPOS>MOLECULE
AV-unprocessed.smi:49
    32    33     1
SMALL
NO_CHARGES


@<TRIPOS>ATOM
      1 ****        -4.4119   1.0418  -0.9358 C.3            1 S1                 0.0000
      2 ****        -3.6100  -0.2378  -1.1967 C.3            1 S1                 0.0000
      3 ****        -2.1367  -0.0281  -1.0709 C.2            1 S1                 0.0000
      4 ****        -1.4732  -0.3056   0.0608 N.pl3          1 S1                 0.0000
      5 ****        -0.2111   0.0366  -0.2369 C.2            1 S1                 0.0000
      6 ****         0.8984  -0.1217   0.7597 C.3            1 S1                 0.0000
      7 ****         1.8524  -1.2867   0.4866 C.3            1 S1                 0.0000
      8 ****         3.1725  -0.7584   1.0398 C.3            1 S1                 0.0000
      9 ****         4.2870  -1.4171   0.4767 O.3            1 S1                 0.0000
     10 ****         3.1348   0.7302   0.6753 C.3            1 S1                 0.0000
     11 ****         1.7078   1.1105   0.6484 N.4            1 S1                 1.0000
     12 ****        -0.0795   0.5024  -1.4854 N.2            1 S1                 0.0000
     13 ****        -1.3505   0.4665  -2.0312 N.2            1 S1                 0.0000
     14 ****         0.4968  -0.1849   1.7723 H              1 S1                 0.0000
     15 ****         3.1896  -0.8739   2.1245 H              1 S1                 0.0000
     16 ****        -1.8384  -0.6825   0.9236 H              1 S1                 0.0000
     17 ****        -5.4814   0.8569  -1.0375 H              1 S1                 0.0000
     18 ****        -4.1413   1.8264  -1.6431 H              1 S1                 0.0000
     19 ****        -4.2330   1.4213   0.0705 H              1 S1                 0.0000
     20 ****        -3.9202  -1.0190  -0.5015 H              1 S1                 0.0000
     21 ****        -3.8252  -0.6113  -2.1985 H              1 S1                 0.0000
     22 ****         1.5276  -2.2235   0.9402 H              1 S1                 0.0000
     23 ****         1.9479  -1.4486  -0.5889 H              1 S1                 0.0000
     24 ****         4.2579  -2.3298   0.7218 H              1 S1                 0.0000
     25 ****         3.7036   1.3460   1.3722 H              1 S1                 0.0000
     26 ****         3.5398   0.8931  -0.3247 H              1 S1                 0.0000
     27 ****         1.5063   1.5641  -0.2320 H              1 S1                 0.0000
     28 ****         1.4887   1.7344   1.4116 H              1 S1                 0.0000
     29 ****         5.1304  -1.0038   0.8200 LP             1 S1                 0.0000
     30 ****         4.2574  -1.3357  -0.5196 LP             1 S1                 0.0000
     31 ****         0.7612   0.8114  -1.9302 LP             1 S1                 0.0000
     32 ****        -1.6230   0.7507  -2.9504 LP             1 S1                 0.0000
@<TRIPOS>BOND
    1    1    2 1     
    2    1   17 1     
    3    1   18 1     
    4    1   19 1     
    5    2   20 1     
    6    2   21 1     
    7    2    3 1     
    8    3    4 1     
    9    3   13 2     
   10    4   16 1     
   11    4    5 1     
   12    5   12 2     
   13    5    6 1     
   14    6   14 1     
   15    6   11 1     
   16    6    7 1     
   17    7    8 1     
   18    7   22 1     
   19    7   23 1     
   20    8   15 1     
   21    8    9 1     
   22    8   10 1     
   23    9   24 1     
   24   10   11 1     
   25   10   25 1     
   26   10   26 1     
   27   11   27 1     
   28   11   28 1     
   29   12   13 1     
   30    9   29 1     
   31    9   30 1     
   32   12   31 1     
   33   13   32 1     
@<TRIPOS>SUBSTRUCTURE
      1 S1             1
@<TRIPOS>SET
LONE_PAIRS      STATIC     ATOMS    <user>   **** ""
4 29 30 31 32
DONOR_HYDROGENS      STATIC     ATOMS    <user>   **** ""
4 16 24 27 28
ATOM$BLUE        STATIC     ATOMS    COLORGROUP SYSTEM
4 29 30 31 32
ATOM$RED        STATIC     ATOMS    COLORGROUP SYSTEM
4 16 24 27 28
