AV-unprocessed.smi:3238|AV-procd|sdf|12376|dock2
  -GOLD-   2272018233D 1   1.00000     0.00000
 Structure written by MMmdl.
 37 39  0  0  0  0  0  0  0  0  1 V2000
  149.5151  135.1414  154.8558 C   0  0  0  0  0  0  0  0  0  0  0  0
  150.1584  136.3859  154.4635 N   0  0  0  0  0  0  0  0  0  0  0  0
  151.2056  136.9288  155.1014 C   0  0  0  0  0  0  0  0  0  0  0  0
  151.7297  136.4104  156.0889 O   0  0  0  0  0  0  0  0  0  0  0  0
  151.7308  138.2487  154.5205 C   0  0  0  0  0  0  0  0  0  0  0  0
  151.7275  139.3603  155.5244 C   0  0  0  0  0  0  0  0  0  0  0  0
  150.9904  140.4504  155.3440 N   0  0  0  0  0  0  0  0  0  0  0  0
  151.2602  141.2170  156.4866 O   0  0  0  0  0  0  0  0  0  0  0  0
  152.1364  140.4905  157.2213 C   0  0  0  0  0  0  0  0  0  0  0  0
  152.5976  141.0257  158.5372 C   0  0  0  0  0  0  0  0  0  0  0  0
  151.7480  142.2070  159.0485 C   0  0  1  0  0  0  0  0  0  0  0  0
  152.3223  142.8415  160.3360 C   0  0  0  0  0  0  0  0  0  0  0  0
  152.4604  144.3290  159.9638 C   0  0  2  0  0  0  0  0  0  0  0  0
  151.0618  144.9596  159.8353 C   0  0  0  0  0  0  0  0  0  0  0  0
  150.5339  144.3458  158.5248 C   0  0  0  0  0  0  0  0  0  0  0  0
  151.6892  143.4230  158.0917 C   0  0  1  0  0  0  0  0  0  0  0  0
  152.9051  144.2443  158.5097 C   0  0  0  0  0  0  0  0  0  0  0  0
  152.4490  139.3161  156.6794 N   0  0  0  0  0  0  0  0  0  0  0  0
  148.6737  134.9336  154.1950 H   0  0  0  0  0  0  0  0  0  0  0  0
  149.1383  135.2032  155.8776 H   0  0  0  0  0  0  0  0  0  0  0  0
  150.2138  134.3062  154.7921 H   0  0  0  0  0  0  0  0  0  0  0  0
  149.7851  136.8646  153.6566 H   0  0  0  0  0  0  0  0  0  0  0  0
  152.7440  138.0948  154.1467 H   0  0  0  0  0  0  0  0  0  0  0  0
  151.1188  138.5403  153.6658 H   0  0  0  0  0  0  0  0  0  0  0  0
  152.5620  140.2107  159.2611 H   0  0  0  0  0  0  0  0  0  0  0  0
  153.6464  141.3111  158.4508 H   0  0  0  0  0  0  0  0  0  0  0  0
  150.7400  141.8372  159.2431 H   0  0  0  0  0  0  0  0  0  0  0  0
  151.6720  142.6900  161.1984 H   0  0  0  0  0  0  0  0  0  0  0  0
  153.2990  142.4233  160.5840 H   0  0  0  0  0  0  0  0  0  0  0  0
  153.1324  144.8829  160.6199 H   0  0  0  0  0  0  0  0  0  0  0  0
  150.4252  144.7293  160.6905 H   0  0  0  0  0  0  0  0  0  0  0  0
  151.1297  146.0449  159.7503 H   0  0  0  0  0  0  0  0  0  0  0  0
  149.5965  143.8060  158.6637 H   0  0  0  0  0  0  0  0  0  0  0  0
  150.3613  145.1245  157.7807 H   0  0  0  0  0  0  0  0  0  0  0  0
  151.6511  143.1649  157.0336 H   0  0  0  0  0  0  0  0  0  0  0  0
  152.9613  145.2167  158.0173 H   0  0  0  0  0  0  0  0  0  0  0  0
  153.8540  143.7227  158.3762 H   0  0  0  0  0  0  0  0  0  0  0  0
  1  2  1  0  0  0  0
  1 19  1  0  0  0  0
  1 20  1  0  0  0  0
  1 21  1  0  0  0  0
  2  3  1  0  0  0  0
  2 22  1  0  0  0  0
  3  4  2  0  0  0  0
  3  5  1  0  0  0  0
  5  6  1  0  0  0  0
  5 23  1  0  0  0  0
  5 24  1  0  0  0  0
  6 18  1  0  0  0  0
  6  7  2  0  0  0  0
  7  8  1  0  0  0  0
  8  9  1  0  0  0  0
  9 10  1  0  0  0  0
  9 18  2  0  0  0  0
 10 11  1  0  0  0  0
 10 25  1  0  0  0  0
 10 26  1  0  0  0  0
 11 16  1  0  0  0  0
 11 12  1  0  0  0  0
 11 27  1  0  0  0  0
 12 13  1  0  0  0  0
 12 28  1  0  0  0  0
 12 29  1  0  0  0  0
 13 17  1  0  0  0  0
 13 14  1  0  0  0  0
 13 30  1  0  0  0  0
 14 15  1  0  0  0  0
 14 31  1  0  0  0  0
 14 32  1  0  0  0  0
 15 16  1  0  0  0  0
 15 33  1  0  0  0  0
 15 34  1  0  0  0  0
 16 17  1  0  0  0  0
 16 35  1  0  0  0  0
 17 36  1  0  0  0  0
 17 37  1  0  0  0  0
M  END
> <s_m_source_file>
AV-unprocessed.smi

> <i_m_source_file_index>
3238

> <i_lp_mmshare_version>
43012

> <i_f3d_flags>
0

> <s_epik_input>
W0NIM11bTkhdQyg9TylbQ0gyXWMxbm9jKG4xKVtDSDJdW0NASF0oW0NIMl1bQ0BIXTIzKVtDQEhdKFtDSDJdMylbQ0gyXVtDSDJdMg==

> <s_epik_cmdline>
J2VwaWtfcHl0aG9uJywgJy1waCcsICc3LjAnLCAnLXRuJywgJzgnLCAnLW1hJywgJzIwMCcsICctbWV0YWxfYmluZGluZycsICctaW1hZScsICc8aW5maWxlLm1hZT4nLCAnLW9tYWUnLCAnPG91dGZpbGUubWFlPic=

> <r_lp_tautomer_probability>
1

> <r_epik_Ionization_Penalty>
1.02915e-07

> <r_epik_Ionization_Penalty_Charging>
0

> <r_epik_Ionization_Penalty_Neutral>
1.02915e-07

> <r_epik_State_Penalty>
-0

> <r_epik_Charging_Adjusted_Penalty>
0

> <i_epik_Tot_Q>
0

> <i_epik_Tot_abs_Q>
0

> <r_epik_Metal_State_Penalty>
-0

> <b_epik_Metal_Only>
0

> <s_lp_Force_Field>
OPLS_2005

> <r_lp_Energy>
47.9986

> <b_lp_Chiralities_Consistent>
1

> <s_lp_Variant>
AV-unprocessed.smi:3238-2

> <Gold.Version>
5.8.1

> <Gold.Id.Protein>
6NUR|6NUR_protein|mol2

> <Gold.PLP.Fitness>
47.8478

> <Gold.PLP.PLP>
-39.4797

> <Gold.PLP.part.hbond>
-4.9582

> <Gold.PLP.part.metal>
0.0000

> <Gold.PLP.part.buried>
-2.7852

> <Gold.PLP.part.nonpolar>
-31.3182

> <Gold.PLP.part.repulsive>
0.1599

> <Gold.PLP.ligand.clash>
0.0000

> <Gold.PLP.ligand.torsion>
0.2125

> <Gold.PLP.Chemscore.Hbond>
2.9260

> <Gold.PLP.Chemscore.CHOScore>
0.0000

> <Gold.PLP.Chemscore.Metal>
0.0000

> <Gold.Chemscore.Hbonds>
donor molecule, donor type, donor heavy atom, donor atom, acceptor molecule, acceptor atom, score
      L1  H     2    22       P1  7948  0.66
      P1  H  7989  7998       L1     7  0.84
      P1  H  7997  8010       L1    18  0.28
      P1  H 10752 10764       L1     4  0.90

> <Gold.PLP.Chemscore.Internal.Correction>
0.0150

> <Gold.Rescore>
     Score         DG    S(hbond)    S(metal)    S(lipo)     H(rot)  DE(clash)    DE(int)     intcor
     15.65     -17.26       1.36        0.00     102.34       1.85       0.24       1.37       ----

> <Gold.Chemscore.Fitness>
15.6491

> <Gold.Chemscore.DG>
-17.2615

> <Gold.Chemscore.ZeroCoef>
-5.4800

> <Gold.Chemscore.Hbond>
1.3598

> <Gold.Chemscore.Metal>
0.0000

> <Gold.Chemscore.Lipo>
102.3384

> <Gold.Chemscore.Internal_Hbond>
0.0000

> <Gold.Chemscore.DEClash>
0.2386

> <Gold.Chemscore.DEInternal>
1.3738

> <Gold.Chemscore.Rot>
1.8492

> <Gold.Chemscore.Internal.Correction>
   9.000000E+99

> <Gold.Chemscore.Hbonds>
donor molecule, donor type, donor heavy atom, donor atom, acceptor molecule, acceptor atom, score
      L1  H     2    22       P1  7948  0.34
      P1  H  7989  7998       L1     7  0.13
      P1  H 10752 10764       L1     4  0.17

> <Gold.Chemscore.Hbond.Weighted>
-4.5419

> <Gold.Chemscore.Metal.Weighted>
-0.0000

> <Gold.Chemscore.Lipo.Weighted>
-11.9736

> <Gold.Chemscore.Internal_Hbond.Weighted>
0.0000

> <Gold.Chemscore.DEClash.Weighted>
0.2386

> <Gold.Chemscore.DEInternal.Weighted>
1.3738

> <Gold.Chemscore.Rot.Weighted>
4.7340

> <Gold.Chemscore.Internal.Correction.Weighted>
   9.000000E+99

> <Gold.Protein.RotatedTorsions>
[ 6907 6896 6895 6894 ] final   47.43 input  -60.11 | X-H torsion
[ 7974 7965 7964 7962 ] final  -72.71 input  175.53 | X-H torsion
[ 8008 7997 7996 7995 ] final   84.54 input   59.86 | X-H torsion
[ 10167 10162 10161 10158 ] final -153.36 input  -65.29 | X-H torsion
[ 10718 10713 10712 10709 ] final   28.57 input   66.30 | X-H torsion
[ 10763 10752 10751 10750 ] final  -21.99 input  -60.55 | X-H torsion
[ 11005 11000 10999 10996 ] final  -27.17 input  -57.11 | X-H torsion

> <Gold.Protein.ActiveResidues>
 VAL166  LYS551  ARG553  GLY616  TRP617  ASP618  TYR619  PRO620  LYS621  CYS622 
 ASP623  PHE694  ASN695  SER759  ASP760  ASP761  ALA762  ILE779  LEU786  VAL792 
 PHE793  MET794  SER795  GLU796  ALA797  LYS798  CYS799  TRP800  GLU811  SER814 

> <Gold.Protein.RotatedAtoms>
  152.2680  134.7963  160.0418 H   0  0  0  0  0  0  0  0  0  0  0  0  # atno 6907 bound_to 6896
  151.8586  133.3448  159.3704 H   0  0  0  0  0  0  0  0  0  0  0  0  # atno 6908 bound_to 6896
  150.7141  134.5156  159.5673 H   0  0  0  0  0  0  0  0  0  0  0  0  # atno 6909 bound_to 6896
  145.6616  140.9251  143.0931 H   0  0  0  0  0  0  0  0  0  0  0  0  # atno 7974 bound_to 7965
  155.9383  140.3410  155.6306 H   0  0  0  0  0  0  0  0  0  0  0  0  # atno 8008 bound_to 7997
  155.7071  140.0767  157.2405 H   0  0  0  0  0  0  0  0  0  0  0  0  # atno 8009 bound_to 7997
  154.4098  140.1629  156.2242 H   0  0  0  0  0  0  0  0  0  0  0  0  # atno 8010 bound_to 7997
  139.7104  143.9118  152.2465 H   0  0  0  0  0  0  0  0  0  0  0  0  # atno 10167 bound_to 10162
  157.2352  130.7042  149.6332 H   0  0  0  0  0  0  0  0  0  0  0  0  # atno 10718 bound_to 10713
  153.6448  135.6983  153.5229 H   0  0  0  0  0  0  0  0  0  0  0  0  # atno 10763 bound_to 10752
  153.2754  135.4202  155.1027 H   0  0  0  0  0  0  0  0  0  0  0  0  # atno 10764 bound_to 10752
  154.8491  135.3588  154.5992 H   0  0  0  0  0  0  0  0  0  0  0  0  # atno 10765 bound_to 10752
  140.9096  133.7470  156.0652 H   0  0  0  0  0  0  0  0  0  0  0  0  # atno 11005 bound_to 11000
  144.7087  139.8456  143.7421 LP  0  0  0  0  0  0  0  0  0  0  0  0  # atno 17320 bound_to 7965
  146.1121  139.4127  143.0281 LP  0  0  0  0  0  0  0  0  0  0  0  0  # atno 17321 bound_to 7965
  139.8986  144.6925  150.8690 LP  0  0  0  0  0  0  0  0  0  0  0  0  # atno 17342 bound_to 10162
  140.7732  143.3531  151.1974 LP  0  0  0  0  0  0  0  0  0  0  0  0  # atno 17343 bound_to 10162
  155.9673  130.4476  150.5586 LP  0  0  0  0  0  0  0  0  0  0  0  0  # atno 17370 bound_to 10713
  157.3437  131.0721  151.1768 LP  0  0  0  0  0  0  0  0  0  0  0  0  # atno 17371 bound_to 10713
  140.8127  134.3380  157.5406 LP  0  0  0  0  0  0  0  0  0  0  0  0  # atno 17394 bound_to 11000
  139.8755  134.9264  156.3398 LP  0  0  0  0  0  0  0  0  0  0  0  0  # atno 17395 bound_to 11000

$$$$
