AV-unprocessed.smi:846|AV-procd|sdf|3936|dock2
  -GOLD-   22720 1393D 1   1.00000     0.00000
 Structure written by MMmdl.
 37 38  0  0  0  0  0  0  0  0  1 V2000
  144.7536  144.0866  154.3457 C   0  0  0  0  0  0  0  0  0  0  0  0
  145.8989  143.4379  153.5640 C   0  0  0  0  0  0  0  0  0  0  0  0
  146.7399  142.7573  154.4879 O   0  0  0  0  0  0  0  0  0  0  0  0
  147.2244  141.5065  154.1568 C   0  0  0  0  0  0  0  0  0  0  0  0
  146.5043  140.7336  153.3061 N   0  0  0  0  0  0  0  0  0  0  0  0
  146.9853  139.5136  152.9881 C   0  0  0  0  0  0  0  0  0  0  0  0
  148.1931  139.0027  153.4999 C   0  0  0  0  0  0  0  0  0  0  0  0
  148.9409  139.8035  154.3832 C   0  0  0  0  0  0  0  0  0  0  0  0
  148.4543  141.0902  154.7145 C   0  0  0  0  0  0  0  0  0  0  0  0
  149.1081  141.9802  155.6063 N   0  0  0  0  0  0  0  0  0  0  0  0
  150.1384  141.7426  156.4390 C   0  0  0  0  0  0  0  0  0  0  0  0
  150.6235  140.6348  156.6574 O   0  0  0  0  0  0  0  0  0  0  0  0
  150.6245  142.8497  157.0303 N   0  0  0  0  0  0  0  0  0  0  0  0
  151.7328  142.9481  157.9836 C   0  0  1  0  0  0  0  0  0  0  0  0
  151.8031  144.3522  158.6119 C   0  0  0  0  0  0  0  0  0  0  0  0
  152.7374  144.3035  159.8288 C   0  0  0  0  0  0  0  0  0  0  0  0
  152.6260  142.5981  160.4942 S   0  0  0  0  0  0  0  0  0  0  0  0
  153.9599  141.9802  160.4439 O   0  0  0  0  0  0  0  0  0  0  0  0
  151.8376  142.5991  161.7356 O   0  0  0  0  0  0  0  0  0  0  0  0
  151.6013  141.9330  159.1318 C   0  0  0  0  0  0  0  0  0  0  0  0
  144.0795  144.6226  153.6774 H   0  0  0  0  0  0  0  0  0  0  0  0
  145.1337  144.7978  155.0798 H   0  0  0  0  0  0  0  0  0  0  0  0
  144.1697  143.3363  154.8796 H   0  0  0  0  0  0  0  0  0  0  0  0
  145.4950  142.7389  152.8300 H   0  0  0  0  0  0  0  0  0  0  0  0
  146.4602  144.2059  153.0297 H   0  0  0  0  0  0  0  0  0  0  0  0
  146.3865  138.9243  152.3095 H   0  0  0  0  0  0  0  0  0  0  0  0
  148.5355  138.0159  153.2250 H   0  0  0  0  0  0  0  0  0  0  0  0
  149.8576  139.4134  154.7974 H   0  0  0  0  0  0  0  0  0  0  0  0
  148.8514  142.9508  155.5003 H   0  0  0  0  0  0  0  0  0  0  0  0
  150.1744  143.7211  156.7892 H   0  0  0  0  0  0  0  0  0  0  0  0
  152.6788  142.7755  157.4673 H   0  0  0  0  0  0  0  0  0  0  0  0
  152.1259  145.1038  157.8908 H   0  0  0  0  0  0  0  0  0  0  0  0
  150.8076  144.6440  158.9500 H   0  0  0  0  0  0  0  0  0  0  0  0
  153.7713  144.4807  159.5315 H   0  0  0  0  0  0  0  0  0  0  0  0
  152.4681  145.0266  160.5987 H   0  0  0  0  0  0  0  0  0  0  0  0
  150.5722  141.8722  159.4875 H   0  0  0  0  0  0  0  0  0  0  0  0
  151.9389  140.9304  158.8685 H   0  0  0  0  0  0  0  0  0  0  0  0
  1  2  1  0  0  0  0
  1 21  1  0  0  0  0
  1 22  1  0  0  0  0
  1 23  1  0  0  0  0
  2  3  1  0  0  0  0
  2 24  1  0  0  0  0
  2 25  1  0  0  0  0
  3  4  1  0  0  0  0
  4  9  1  0  0  0  0
  4  5  2  0  0  0  0
  5  6  1  0  0  0  0
  6  7  2  0  0  0  0
  6 26  1  0  0  0  0
  7  8  1  0  0  0  0
  7 27  1  0  0  0  0
  8  9  2  0  0  0  0
  8 28  1  0  0  0  0
  9 10  1  0  0  0  0
 10 11  1  0  0  0  0
 10 29  1  0  0  0  0
 11 12  2  0  0  0  0
 11 13  1  0  0  0  0
 13 14  1  0  0  0  0
 13 30  1  0  0  0  0
 14 20  1  0  0  0  0
 14 15  1  0  0  0  0
 14 31  1  0  0  0  0
 15 16  1  0  0  0  0
 15 32  1  0  0  0  0
 15 33  1  0  0  0  0
 16 17  1  0  0  0  0
 16 34  1  0  0  0  0
 16 35  1  0  0  0  0
 17 18  2  0  0  0  0
 17 19  2  0  0  0  0
 17 20  1  0  0  0  0
 20 36  1  0  0  0  0
 20 37  1  0  0  0  0
M  END
> <s_m_source_file>
AV-unprocessed.smi

> <i_m_source_file_index>
846

> <i_lp_mmshare_version>
43012

> <i_f3d_flags>
0

> <s_epik_input>
W0NIM11bQ0gyXU9jMW5bY0hdW2NIXVtjSF1jMVtOSF1DKD1PKVtOSF1bQ0BASF0oW0NIMl0yKVtDSDJdW0NIMl1TMig9Tyk9Tw==

> <s_epik_cmdline>
J2VwaWtfcHl0aG9uJywgJy1waCcsICc3LjAnLCAnLXRuJywgJzgnLCAnLW1hJywgJzIwMCcsICctbWV0YWxfYmluZGluZycsICctaW1hZScsICc8aW5maWxlLm1hZT4nLCAnLW9tYWUnLCAnPG91dGZpbGUubWFlPic=

> <r_lp_tautomer_probability>
1

> <r_epik_Ionization_Penalty>
9.45557e-05

> <r_epik_Ionization_Penalty_Charging>
0

> <r_epik_Ionization_Penalty_Neutral>
9.45557e-05

> <r_epik_State_Penalty>
-0

> <r_epik_Charging_Adjusted_Penalty>
0

> <i_epik_Tot_Q>
0

> <i_epik_Tot_abs_Q>
0

> <r_epik_Metal_State_Penalty>
-0

> <b_epik_Metal_Only>
0

> <s_lp_Force_Field>
OPLS_2005

> <r_lp_Energy>
17.3952

> <b_lp_Chiralities_Consistent>
1

> <s_lp_Variant>
AV-unprocessed.smi:846-2

> <Gold.Version>
5.8.1

> <Gold.Id.Protein>
6NUR|6NUR_protein|mol2

> <Gold.PLP.Fitness>
43.9017

> <Gold.PLP.PLP>
-37.2936

> <Gold.PLP.part.hbond>
-3.0000

> <Gold.PLP.part.metal>
0.0000

> <Gold.PLP.part.buried>
-5.8273

> <Gold.PLP.part.nonpolar>
-30.8494

> <Gold.PLP.part.repulsive>
2.1072

> <Gold.PLP.ligand.clash>
0.0000

> <Gold.PLP.ligand.torsion>
0.8017

> <Gold.PLP.Chemscore.Hbond>
2.7296

> <Gold.PLP.Chemscore.CHOScore>
0.0000

> <Gold.PLP.Chemscore.Metal>
0.0000

> <Gold.Chemscore.Hbonds>
donor molecule, donor type, donor heavy atom, donor atom, acceptor molecule, acceptor atom, score
      L1  H    10    29       P1  8028  1.00
      L1  H    13    30       P1  8028  1.00
      P1  H  6933  6945       L1    19  0.72

> <Gold.PLP.Chemscore.Internal.Correction>
0.0228

> <Gold.Rescore>
     Score         DG    S(hbond)    S(metal)    S(lipo)     H(rot)  DE(clash)    DE(int)     intcor
     15.67     -19.86       2.61        0.00      81.33       1.50       1.50       2.69       ----

> <Gold.Chemscore.Fitness>
15.6706

> <Gold.Chemscore.DG>
-19.8604

> <Gold.Chemscore.ZeroCoef>
-5.4800

> <Gold.Chemscore.Hbond>
2.6087

> <Gold.Chemscore.Metal>
0.0000

> <Gold.Chemscore.Lipo>
81.3327

> <Gold.Chemscore.Internal_Hbond>
0.0000

> <Gold.Chemscore.DEClash>
1.4978

> <Gold.Chemscore.DEInternal>
2.6921

> <Gold.Chemscore.Rot>
1.5033

> <Gold.Chemscore.Internal.Correction>
   9.000000E+99

> <Gold.Chemscore.Hbonds>
donor molecule, donor type, donor heavy atom, donor atom, acceptor molecule, acceptor atom, score
      L1  H    10    29       P1  8028  1.00
      L1  H    13    30       P1  8028  0.93
      P1  H  6933  6945       L1    19  0.68

> <Gold.Chemscore.Hbond.Weighted>
-8.7130

> <Gold.Chemscore.Metal.Weighted>
-0.0000

> <Gold.Chemscore.Lipo.Weighted>
-9.5159

> <Gold.Chemscore.Internal_Hbond.Weighted>
0.0000

> <Gold.Chemscore.DEClash.Weighted>
1.4978

> <Gold.Chemscore.DEInternal.Weighted>
2.6921

> <Gold.Chemscore.Rot.Weighted>
3.8484

> <Gold.Chemscore.Internal.Correction.Weighted>
   9.000000E+99

> <Gold.Protein.RotatedTorsions>
[ 6907 6896 6895 6894 ] final   35.12 input  -60.11 | X-H torsion
[ 7974 7965 7964 7962 ] final -112.75 input  175.53 | X-H torsion
[ 8008 7997 7996 7995 ] final  -68.99 input   59.86 | X-H torsion
[ 10167 10162 10161 10158 ] final  -88.89 input  -65.29 | X-H torsion
[ 10718 10713 10712 10709 ] final   26.25 input   66.30 | X-H torsion
[ 10763 10752 10751 10750 ] final  134.93 input  -60.55 | X-H torsion
[ 11005 11000 10999 10996 ] final  160.69 input  -57.11 | X-H torsion

> <Gold.Protein.ActiveResidues>
 VAL166  LYS551  ARG553  GLY616  TRP617  ASP618  TYR619  PRO620  LYS621  CYS622 
 ASP623  PHE694  ASN695  SER759  ASP760  ASP761  ALA762  ILE779  LEU786  VAL792 
 PHE793  MET794  SER795  GLU796  ALA797  LYS798  CYS799  TRP800  GLU811  SER814 

> <Gold.Protein.RotatedAtoms>
  152.1117  134.9269  160.0566 H   0  0  0  0  0  0  0  0  0  0  0  0  # atno 6907 bound_to 6896
  152.0444  133.3986  159.4359 H   0  0  0  0  0  0  0  0  0  0  0  0  # atno 6908 bound_to 6896
  150.6844  134.3299  159.4866 H   0  0  0  0  0  0  0  0  0  0  0  0  # atno 6909 bound_to 6896
  145.1403  140.8774  143.3706 H   0  0  0  0  0  0  0  0  0  0  0  0  # atno 7974 bound_to 7965
  154.4907  140.0862  156.7587 H   0  0  0  0  0  0  0  0  0  0  0  0  # atno 8008 bound_to 7997
  155.4239  140.3447  155.4255 H   0  0  0  0  0  0  0  0  0  0  0  0  # atno 8009 bound_to 7997
  156.1325  140.1505  156.9032 H   0  0  0  0  0  0  0  0  0  0  0  0  # atno 8010 bound_to 7997
  140.3702  143.2798  151.9509 H   0  0  0  0  0  0  0  0  0  0  0  0  # atno 10167 bound_to 10162
  157.2042  130.6904  149.6201 H   0  0  0  0  0  0  0  0  0  0  0  0  # atno 10718 bound_to 10713
  153.8317  135.3103  155.3419 H   0  0  0  0  0  0  0  0  0  0  0  0  # atno 10763 bound_to 10752
  154.7970  135.4749  154.0188 H   0  0  0  0  0  0  0  0  0  0  0  0  # atno 10764 bound_to 10752
  153.1630  135.6864  153.8807 H   0  0  0  0  0  0  0  0  0  0  0  0  # atno 10765 bound_to 10752
  140.2084  134.8286  157.3094 H   0  0  0  0  0  0  0  0  0  0  0  0  # atno 11005 bound_to 11000
  145.0539  139.3159  143.5914 LP  0  0  0  0  0  0  0  0  0  0  0  0  # atno 17320 bound_to 7965
  146.3506  139.9958  142.8681 LP  0  0  0  0  0  0  0  0  0  0  0  0  # atno 17321 bound_to 7965
  139.4804  144.5913  151.7766 LP  0  0  0  0  0  0  0  0  0  0  0  0  # atno 17342 bound_to 10162
  140.5040  144.1125  150.5978 LP  0  0  0  0  0  0  0  0  0  0  0  0  # atno 17343 bound_to 10162
  155.9697  130.4572  150.5955 LP  0  0  0  0  0  0  0  0  0  0  0  0  # atno 17370 bound_to 10713
  157.3736  131.0769  151.1536 LP  0  0  0  0  0  0  0  0  0  0  0  0  # atno 17371 bound_to 10713
  140.1978  134.4292  155.7680 LP  0  0  0  0  0  0  0  0  0  0  0  0  # atno 17394 bound_to 11000
  141.2226  133.7057  156.8133 LP  0  0  0  0  0  0  0  0  0  0  0  0  # atno 17395 bound_to 11000

$$$$
