AV-unprocessed.smi:1240|AV-procd|sdf|5204|dock2
  -GOLD-   22720 4293D 1   1.00000     0.00000
 Structure written by MMmdl.
 48 50  0  0  0  0  0  0  0  0  2 V2000
  146.3566  131.6292  153.9469 O   0  0  0  0  0  0  0  0  0  0  0  0
  147.0921  131.3858  152.9907 C   0  0  0  0  0  0  0  0  0  0  0  0
  148.2717  130.7591  153.1017 N   0  0  0  0  0  0  0  0  0  0  0  0
  148.8699  130.2845  154.3469 C   0  0  0  0  0  0  0  0  0  0  0  0
  150.2030  131.0175  154.6555 C   0  0  1  0  0  0  0  0  0  0  0  0
  149.9792  132.3636  155.4147 C   0  0  2  0  0  0  0  0  0  0  0  0
  150.6965  133.5978  154.8590 C   0  0  0  0  0  0  0  0  0  0  0  0
  151.3776  134.2100  156.0823 C   0  0  0  0  0  0  0  0  0  0  0  0
  150.5979  133.7550  157.1755 O   0  0  0  0  0  0  0  0  0  0  0  0
  150.2865  132.3951  156.9214 C   0  0  0  0  0  0  0  0  0  0  0  0
  151.2752  130.1570  155.1969 N   0  0  0  0  0  0  0  0  0  0  0  0
  152.4895  130.8934  155.5432 C   0  0  0  0  0  0  0  0  0  0  0  0
  153.5234  129.9945  156.2395 C   0  0  0  0  0  0  0  0  0  0  0  0
  153.8300  128.8910  155.3945 O   0  0  0  0  0  0  0  0  0  0  0  0
  152.6824  128.1108  155.0775 C   0  0  0  0  0  0  0  0  0  0  0  0
  151.6190  128.9870  154.3916 C   0  0  0  0  0  0  0  0  0  0  0  0
  146.8435  131.7264  151.7144 N   0  0  0  0  0  0  0  0  0  0  0  0
  145.7140  132.4057  151.1815 C   0  0  0  0  0  0  0  0  0  0  0  0
  145.4468  132.2458  149.8036 C   0  0  0  0  0  0  0  0  0  0  0  0
  144.3288  132.8870  149.2322 C   0  0  0  0  0  0  0  0  0  0  0  0
  143.5175  133.6398  150.0055 N   0  3  0  0  0  0  0  0  0  0  0  0
  143.7234  133.8109  151.3291 C   0  0  0  0  0  0  0  0  0  0  0  0
  144.8252  133.1942  151.9564 C   0  0  0  0  0  0  0  0  0  0  0  0
  148.8079  130.6058  152.2600 H   0  0  0  0  0  0  0  0  0  0  0  0
  148.1786  130.3926  155.1835 H   0  0  0  0  0  0  0  0  0  0  0  0
  149.0304  129.2147  154.2224 H   0  0  0  0  0  0  0  0  0  0  0  0
  150.5748  131.3427  153.6825 H   0  0  0  0  0  0  0  0  0  0  0  0
  148.9140  132.5880  155.3364 H   0  0  0  0  0  0  0  0  0  0  0  0
  151.4175  133.3919  154.0687 H   0  0  0  0  0  0  0  0  0  0  0  0
  149.9642  134.2950  154.4497 H   0  0  0  0  0  0  0  0  0  0  0  0
  152.3970  133.8351  156.1860 H   0  0  0  0  0  0  0  0  0  0  0  0
  151.4166  135.2987  156.0410 H   0  0  0  0  0  0  0  0  0  0  0  0
  149.4371  132.0781  157.5264 H   0  0  0  0  0  0  0  0  0  0  0  0
  151.1337  131.7717  157.1992 H   0  0  0  0  0  0  0  0  0  0  0  0
  152.9482  131.3127  154.6480 H   0  0  0  0  0  0  0  0  0  0  0  0
  152.2441  131.7323  156.1953 H   0  0  0  0  0  0  0  0  0  0  0  0
  154.4369  130.5533  156.4426 H   0  0  0  0  0  0  0  0  0  0  0  0
  153.1450  129.6377  157.1987 H   0  0  0  0  0  0  0  0  0  0  0  0
  152.9776  127.2912  154.4222 H   0  0  0  0  0  0  0  0  0  0  0  0
  152.2800  127.6629  155.9874 H   0  0  0  0  0  0  0  0  0  0  0  0
  150.7414  128.3673  154.2303 H   0  0  0  0  0  0  0  0  0  0  0  0
  151.9837  129.2968  153.4120 H   0  0  0  0  0  0  0  0  0  0  0  0
  147.5810  131.5293  151.0539 H   0  0  0  0  0  0  0  0  0  0  0  0
  146.0943  131.6419  149.1842 H   0  0  0  0  0  0  0  0  0  0  0  0
  144.0606  132.8192  148.1878 H   0  0  0  0  0  0  0  0  0  0  0  0
  143.0020  134.4269  151.8461 H   0  0  0  0  0  0  0  0  0  0  0  0
  144.9580  133.3292  153.0189 H   0  0  0  0  0  0  0  0  0  0  0  0
  142.7126  134.0943  149.5731 H   0  0  0  0  0  0  0  0  0  0  0  0
  1  2  2  0  0  0  0
  2  3  1  0  0  0  0
  2 17  1  0  0  0  0
  3  4  1  0  0  0  0
  3 24  1  0  0  0  0
  4  5  1  0  0  0  0
  4 25  1  0  0  0  0
  4 26  1  0  0  0  0
  5  6  1  0  0  0  0
  5 11  1  0  0  0  0
  5 27  1  0  0  0  0
  6 10  1  0  0  0  0
  6  7  1  0  0  0  0
  6 28  1  0  0  0  0
  7  8  1  0  0  0  0
  7 29  1  0  0  0  0
  7 30  1  0  0  0  0
  8  9  1  0  0  0  0
  8 31  1  0  0  0  0
  8 32  1  0  0  0  0
  9 10  1  0  0  0  0
 10 33  1  0  0  0  0
 10 34  1  0  0  0  0
 11 16  1  0  0  0  0
 11 12  1  0  0  0  0
 12 13  1  0  0  0  0
 12 35  1  0  0  0  0
 12 36  1  0  0  0  0
 13 14  1  0  0  0  0
 13 37  1  0  0  0  0
 13 38  1  0  0  0  0
 14 15  1  0  0  0  0
 15 16  1  0  0  0  0
 15 39  1  0  0  0  0
 15 40  1  0  0  0  0
 16 41  1  0  0  0  0
 16 42  1  0  0  0  0
 17 18  1  0  0  0  0
 17 43  1  0  0  0  0
 18 23  1  0  0  0  0
 18 19  2  0  0  0  0
 19 20  1  0  0  0  0
 19 44  1  0  0  0  0
 20 21  2  0  0  0  0
 20 45  1  0  0  0  0
 21 22  1  0  0  0  0
 21 48  1  0  0  0  0
 22 23  2  0  0  0  0
 22 46  1  0  0  0  0
 23 47  1  0  0  0  0
M  CHG  1  21   1
M  END
> <s_m_source_file>
AV-unprocessed.smi

> <i_m_source_file_index>
1240

> <i_lp_mmshare_version>
43012

> <i_f3d_flags>
0

> <s_epik_input>
W2NIXTFbY0hdbltjSF1bY0hdYzFbTkhdQyg9TylbTkhdW0NIMl1bQ0BIXShbQ0BASF0yW0NIMl1bQ0gyXU9bQ0gyXTIpTjNbQ0gyXVtDSDJdT1tDSDJdW0NIMl0z

> <s_epik_cmdline>
J2VwaWtfcHl0aG9uJywgJy1waCcsICc3LjAnLCAnLXRuJywgJzgnLCAnLW1hJywgJzIwMCcsICctbWV0YWxfYmluZGluZycsICctaW1hZScsICc8aW5maWxlLm1hZT4nLCAnLW9tYWUnLCAnPG91dGZpbGUubWFlPic=

> <r_epik_Ionization_Penalty>
1.15944

> <r_epik_Ionization_Penalty_Charging>
1.0344

> <r_epik_Ionization_Penalty_Neutral>
0.125034

> <r_epik_State_Penalty>
1.2199

> <r_epik_Charging_Adjusted_Penalty>
2.25431

> <i_epik_Tot_Q>
1

> <i_epik_Tot_abs_Q>
1

> <r_epik_Metal_State_Penalty>
1.3155

> <b_epik_Metal_Only>
0

> <s_lp_Force_Field>
OPLS_2005

> <r_lp_Energy>
64.7191

> <b_lp_Chiralities_Consistent>
1

> <s_lp_Variant>
AV-unprocessed.smi:1240-10

> <Gold.Version>
5.8.1

> <Gold.Id.Protein>
6NUR|6NUR_protein|mol2

> <Gold.PLP.Fitness>
49.2182

> <Gold.PLP.PLP>
-37.2657

> <Gold.PLP.part.hbond>
-4.0000

> <Gold.PLP.part.metal>
0.0000

> <Gold.PLP.part.buried>
-5.5615

> <Gold.PLP.part.nonpolar>
-27.7497

> <Gold.PLP.part.repulsive>
0.2731

> <Gold.PLP.ligand.clash>
0.0000

> <Gold.PLP.ligand.torsion>
1.6966

> <Gold.PLP.Chemscore.Hbond>
4.9920

> <Gold.PLP.Chemscore.CHOScore>
0.0000

> <Gold.PLP.Chemscore.Metal>
0.0000

> <Gold.Chemscore.Hbonds>
donor molecule, donor type, donor heavy atom, donor atom, acceptor molecule, acceptor atom, score
      L1  H     3    24       P1 10747  0.99
      L1  H    17    43       P1 10747  1.00
      L1  H    21    48       P1 10186  2.00
      P1  H  6896  6907       L1     9  0.70

> <Gold.PLP.Chemscore.Internal.Correction>
0.3696

> <Gold.Rescore>
     Score         DG    S(hbond)    S(metal)    S(lipo)     H(rot)  DE(clash)    DE(int)     intcor
     19.95     -22.63       3.30        0.00      89.32       1.69       0.01       2.66       ----

> <Gold.Chemscore.Fitness>
19.9491

> <Gold.Chemscore.DG>
-22.6281

> <Gold.Chemscore.ZeroCoef>
-5.4800

> <Gold.Chemscore.Hbond>
3.3015

> <Gold.Chemscore.Metal>
0.0000

> <Gold.Chemscore.Lipo>
89.3225

> <Gold.Chemscore.Internal_Hbond>
0.0000

> <Gold.Chemscore.DEClash>
0.0144

> <Gold.Chemscore.DEInternal>
2.6646

> <Gold.Chemscore.Rot>
1.6912

> <Gold.Chemscore.Internal.Correction>
   9.000000E+99

> <Gold.Chemscore.Hbonds>
donor molecule, donor type, donor heavy atom, donor atom, acceptor molecule, acceptor atom, score
      L1  H     3    24       P1 10747  0.46
      L1  H    17    43       P1 10747  1.00
      L1  H    21    48       P1 10186  0.94
      P1  H  6896  6907       L1     9  0.20

> <Gold.Chemscore.Hbond.Weighted>
-11.0268

> <Gold.Chemscore.Metal.Weighted>
-0.0000

> <Gold.Chemscore.Lipo.Weighted>
-10.4507

> <Gold.Chemscore.Internal_Hbond.Weighted>
0.0000

> <Gold.Chemscore.DEClash.Weighted>
0.0144

> <Gold.Chemscore.DEInternal.Weighted>
2.6646

> <Gold.Chemscore.Rot.Weighted>
4.3295

> <Gold.Chemscore.Internal.Correction.Weighted>
   9.000000E+99

> <Gold.Protein.RotatedTorsions>
[ 6907 6896 6895 6894 ] final -125.04 input  -60.11 | X-H torsion
[ 7974 7965 7964 7962 ] final  -10.91 input  175.53 | X-H torsion
[ 8008 7997 7996 7995 ] final   88.17 input   59.86 | X-H torsion
[ 10167 10162 10161 10158 ] final  149.78 input  -65.29 | X-H torsion
[ 10718 10713 10712 10709 ] final  -13.65 input   66.30 | X-H torsion
[ 10763 10752 10751 10750 ] final  150.47 input  -60.55 | X-H torsion
[ 11005 11000 10999 10996 ] final -119.06 input  -57.11 | X-H torsion

> <Gold.Protein.ActiveResidues>
 VAL166  LYS551  ARG553  GLY616  TRP617  ASP618  TYR619  PRO620  LYS621  CYS622 
 ASP623  PHE694  ASN695  SER759  ASP760  ASP761  ALA762  ILE779  LEU786  VAL792 
 PHE793  MET794  SER795  GLU796  ALA797  LYS798  CYS799  TRP800  GLU811  SER814 

> <Gold.Protein.RotatedAtoms>
  150.8828  133.7348  159.2926 H   0  0  0  0  0  0  0  0  0  0  0  0  # atno 6907 bound_to 6896
  151.4924  135.1056  159.9816 H   0  0  0  0  0  0  0  0  0  0  0  0  # atno 6908 bound_to 6896
  152.4771  133.8118  159.7063 H   0  0  0  0  0  0  0  0  0  0  0  0  # atno 6909 bound_to 6896
  146.2205  140.2834  142.8364 H   0  0  0  0  0  0  0  0  0  0  0  0  # atno 7974 bound_to 7965
  155.9845  140.3374  155.6694 H   0  0  0  0  0  0  0  0  0  0  0  0  # atno 8008 bound_to 7997
  155.6504  140.0705  157.2606 H   0  0  0  0  0  0  0  0  0  0  0  0  # atno 8009 bound_to 7997
  154.4201  140.1726  156.1656 H   0  0  0  0  0  0  0  0  0  0  0  0  # atno 8010 bound_to 7997
  139.4857  144.5574  151.7292 H   0  0  0  0  0  0  0  0  0  0  0  0  # atno 10167 bound_to 10162
  156.6273  130.4892  149.6142 H   0  0  0  0  0  0  0  0  0  0  0  0  # atno 10718 bound_to 10713
  154.0881  135.2854  155.3277 H   0  0  0  0  0  0  0  0  0  0  0  0  # atno 10763 bound_to 10752
  154.6639  135.5324  153.8055 H   0  0  0  0  0  0  0  0  0  0  0  0  # atno 10764 bound_to 10752
  153.0423  135.6540  154.1052 H   0  0  0  0  0  0  0  0  0  0  0  0  # atno 10765 bound_to 10752
  141.0242  134.0079  157.3238 H   0  0  0  0  0  0  0  0  0  0  0  0  # atno 11005 bound_to 11000
  144.9180  140.7835  143.5766 LP  0  0  0  0  0  0  0  0  0  0  0  0  # atno 17320 bound_to 7965
  145.2768  139.1933  143.4812 LP  0  0  0  0  0  0  0  0  0  0  0  0  # atno 17321 bound_to 7965
  140.5138  144.0984  150.6002 LP  0  0  0  0  0  0  0  0  0  0  0  0  # atno 17342 bound_to 10162
  140.3919  143.2748  152.0050 LP  0  0  0  0  0  0  0  0  0  0  0  0  # atno 17343 bound_to 10162
  156.2263  130.6768  151.1419 LP  0  0  0  0  0  0  0  0  0  0  0  0  # atno 17370 bound_to 10713
  157.7210  131.0681  150.6134 LP  0  0  0  0  0  0  0  0  0  0  0  0  # atno 17371 bound_to 10713
  139.9165  135.0197  156.7902 LP  0  0  0  0  0  0  0  0  0  0  0  0  # atno 17394 bound_to 11000
  140.6520  133.9723  155.7760 LP  0  0  0  0  0  0  0  0  0  0  0  0  # atno 17395 bound_to 11000

$$$$
