AV-unprocessed.smi:3287|AV-procd|sdf|12605|dock5
  -GOLD-   2272018533D 1   1.00000     0.00000
 Structure written by MMmdl.
 43 44  0  0  0  0  0  0  0  0  2 V2000
  152.8207  143.6927  161.8394 C   0  0  0  0  0  0  0  0  0  0  0  0
  151.9703  143.3092  160.6152 C   0  0  1  0  0  0  0  0  0  0  0  0
  151.5068  144.5847  159.8826 C   0  0  0  0  0  0  0  0  0  0  0  0
  150.6497  144.2687  158.6491 C   0  0  0  0  0  0  0  0  0  0  0  0
  151.4049  143.3473  157.6734 C   0  0  2  0  0  0  0  0  0  0  0  0
  150.5802  143.0020  156.4944 N   0  3  0  0  0  0  0  0  0  0  0  0
  149.5666  141.9482  156.7183 C   0  0  0  0  0  0  0  0  0  0  0  0
  149.2913  141.1488  155.4330 C   0  0  1  0  0  0  0  0  0  0  0  0
  149.1774  142.0514  154.3499 O   0  0  0  0  0  0  0  0  0  0  0  0
  150.3760  140.1104  155.1929 C   0  0  0  0  0  0  0  0  0  0  0  0
  151.6115  140.1705  155.8740 C   0  0  0  0  0  0  0  0  0  0  0  0
  152.5722  139.1720  155.6166 C   0  0  0  0  0  0  0  0  0  0  0  0
  152.3708  138.1553  154.7514 N   0  0  0  0  0  0  0  0  0  0  0  0
  151.1871  138.1012  154.1044 C   0  0  0  0  0  0  0  0  0  0  0  0
  150.1603  139.0487  154.2892 C   0  0  0  0  0  0  0  0  0  0  0  0
  151.8396  142.0629  158.3998 C   0  0  0  0  0  0  0  0  0  0  0  0
  152.7103  142.3561  159.6395 C   0  0  2  0  0  0  0  0  0  0  0  0
  153.1389  141.0346  160.3022 C   0  0  0  0  0  0  0  0  0  0  0  0
  153.7672  144.1439  161.5395 H   0  0  0  0  0  0  0  0  0  0  0  0
  153.0433  142.8294  162.4657 H   0  0  0  0  0  0  0  0  0  0  0  0
  152.2971  144.4123  162.4694 H   0  0  0  0  0  0  0  0  0  0  0  0
  151.0796  142.7964  160.9814 H   0  0  0  0  0  0  0  0  0  0  0  0
  150.9367  145.2178  160.5635 H   0  0  0  0  0  0  0  0  0  0  0  0
  152.3760  145.1692  159.5772 H   0  0  0  0  0  0  0  0  0  0  0  0
  149.7173  143.7970  158.9626 H   0  0  0  0  0  0  0  0  0  0  0  0
  150.3759  145.2052  158.1635 H   0  0  0  0  0  0  0  0  0  0  0  0
  152.3036  143.8566  157.3215 H   0  0  0  0  0  0  0  0  0  0  0  0
  150.0869  143.8368  156.2124 H   0  0  0  0  0  0  0  0  0  0  0  0
  149.8902  141.2767  157.5138 H   0  0  0  0  0  0  0  0  0  0  0  0
  148.6432  142.4213  157.0553 H   0  0  0  0  0  0  0  0  0  0  0  0
  148.3350  140.6320  155.5276 H   0  0  0  0  0  0  0  0  0  0  0  0
  148.9765  142.9088  154.6945 H   0  0  0  0  0  0  0  0  0  0  0  0
  151.8226  140.9601  156.5801 H   0  0  0  0  0  0  0  0  0  0  0  0
  153.5269  139.1892  156.1210 H   0  0  0  0  0  0  0  0  0  0  0  0
  151.0529  137.2765  153.4203 H   0  0  0  0  0  0  0  0  0  0  0  0
  149.2304  138.9563  153.7475 H   0  0  0  0  0  0  0  0  0  0  0  0
  150.9577  141.4946  158.7009 H   0  0  0  0  0  0  0  0  0  0  0  0
  152.3925  141.4258  157.7080 H   0  0  0  0  0  0  0  0  0  0  0  0
  153.6162  142.8581  159.2960 H   0  0  0  0  0  0  0  0  0  0  0  0
  152.2849  140.5098  160.7313 H   0  0  0  0  0  0  0  0  0  0  0  0
  153.8668  141.1969  161.0966 H   0  0  0  0  0  0  0  0  0  0  0  0
  153.6075  140.3674  159.5782 H   0  0  0  0  0  0  0  0  0  0  0  0
  151.1867  142.7201  155.7371 H   0  0  0  0  0  0  0  0  0  0  0  0
  1  2  1  0  0  0  0
  1 19  1  0  0  0  0
  1 20  1  0  0  0  0
  1 21  1  0  0  0  0
  2 17  1  0  0  0  0
  2  3  1  0  0  0  0
  2 22  1  0  0  0  0
  3  4  1  0  0  0  0
  3 23  1  0  0  0  0
  3 24  1  0  0  0  0
  4  5  1  0  0  0  0
  4 25  1  0  0  0  0
  4 26  1  0  0  0  0
  5  6  1  0  0  0  0
  5 16  1  0  0  0  0
  5 27  1  0  0  0  0
  6  7  1  0  0  0  0
  6 28  1  0  0  0  0
  6 43  1  0  0  0  0
  7  8  1  0  0  0  0
  7 29  1  0  0  0  0
  7 30  1  0  0  0  0
  8  9  1  0  0  0  0
  8 10  1  0  0  0  0
  8 31  1  0  0  0  0
  9 32  1  0  0  0  0
 10 15  1  0  0  0  0
 10 11  2  0  0  0  0
 11 12  1  0  0  0  0
 11 33  1  0  0  0  0
 12 13  2  0  0  0  0
 12 34  1  0  0  0  0
 13 14  1  0  0  0  0
 14 15  2  0  0  0  0
 14 35  1  0  0  0  0
 15 36  1  0  0  0  0
 16 17  1  0  0  0  0
 16 37  1  0  0  0  0
 16 38  1  0  0  0  0
 17 18  1  0  0  0  0
 17 39  1  0  0  0  0
 18 40  1  0  0  0  0
 18 41  1  0  0  0  0
 18 42  1  0  0  0  0
M  CHG  1   6   1
M  END
> <s_m_source_file>
AV-unprocessed.smi

> <i_m_source_file_index>
3287

> <i_lp_mmshare_version>
43012

> <i_f3d_flags>
0

> <s_epik_input>
W0NIM11bQ0BASF0xW0NIMl1bQ0gyXVtDQEhdKFtDSDJdW0NASF0xW0NIM10pW05IXVtDSDJdW0NASF0oW09IXSljMltjSF1bY0hdbltjSF1bY0hdMg==

> <s_epik_cmdline>
J2VwaWtfcHl0aG9uJywgJy1waCcsICc3LjAnLCAnLXRuJywgJzgnLCAnLW1hJywgJzIwMCcsICctbWV0YWxfYmluZGluZycsICctaW1hZScsICc8aW5maWxlLm1hZT4nLCAnLW9tYWUnLCAnPG91dGZpbGUubWFlPic=

> <r_lp_tautomer_probability>
1

> <r_epik_Ionization_Penalty>
0.00537262

> <r_epik_Ionization_Penalty_Charging>
0.00321624

> <r_epik_Ionization_Penalty_Neutral>
0.00215638

> <r_epik_State_Penalty>
-0

> <r_epik_Charging_Adjusted_Penalty>
0.00321624

> <i_epik_Tot_Q>
1

> <i_epik_Tot_abs_Q>
1

> <r_epik_Metal_State_Penalty>
-0

> <b_epik_Metal_Only>
0

> <s_lp_Force_Field>
OPLS_2005

> <r_lp_Energy>
15.7065

> <b_lp_Chiralities_Consistent>
1

> <s_lp_Variant>
AV-unprocessed.smi:3287-16

> <Gold.Version>
5.8.1

> <Gold.Id.Protein>
6NUR|6NUR_protein|mol2

> <Gold.PLP.Fitness>
55.7713

> <Gold.PLP.PLP>
-44.4076

> <Gold.PLP.part.hbond>
-3.1680

> <Gold.PLP.part.metal>
0.0000

> <Gold.PLP.part.buried>
-3.7703

> <Gold.PLP.part.nonpolar>
-37.1138

> <Gold.PLP.part.repulsive>
0.1375

> <Gold.PLP.ligand.clash>
0.0000

> <Gold.PLP.ligand.torsion>
0.8703

> <Gold.PLP.Chemscore.Hbond>
3.2402

> <Gold.PLP.Chemscore.CHOScore>
1.1136

> <Gold.PLP.Chemscore.Metal>
0.0000

> <Gold.Chemscore.Hbonds>
donor molecule, donor type, donor heavy atom, donor atom, acceptor molecule, acceptor atom, score
      L1  H     6    28       P1  8028  2.00
      L1  H     9    32       P1  8028  0.99
      P1  H  8011  8017       L1     9  0.25
      L1  C    14    35       P1  7948  0.06
      L1  C    14    35       P1  7949  1.00

> <Gold.PLP.Chemscore.Internal.Correction>
0.0426

> <Gold.Rescore>
     Score         DG    S(hbond)    S(metal)    S(lipo)     H(rot)  DE(clash)    DE(int)     intcor
     21.82     -22.64       2.03        0.00     130.29       1.90       0.23       0.60       ----

> <Gold.Chemscore.Fitness>
21.8154

> <Gold.Chemscore.DG>
-22.6439

> <Gold.Chemscore.ZeroCoef>
-5.4800

> <Gold.Chemscore.Hbond>
2.0339

> <Gold.Chemscore.Metal>
0.0000

> <Gold.Chemscore.Lipo>
130.2861

> <Gold.Chemscore.Internal_Hbond>
0.0000

> <Gold.Chemscore.DEClash>
0.2253

> <Gold.Chemscore.DEInternal>
0.6032

> <Gold.Chemscore.Rot>
1.9035

> <Gold.Chemscore.Internal.Correction>
   9.000000E+99

> <Gold.Chemscore.Hbonds>
donor molecule, donor type, donor heavy atom, donor atom, acceptor molecule, acceptor atom, score
      L1  H     6    28       P1  8028  0.97
      L1  H     9    32       P1  8028  0.92
      P1  H  8011  8017       L1     9  0.11

> <Gold.Chemscore.Hbond.Weighted>
-6.7933

> <Gold.Chemscore.Metal.Weighted>
-0.0000

> <Gold.Chemscore.Lipo.Weighted>
-15.2435

> <Gold.Chemscore.Internal_Hbond.Weighted>
0.0000

> <Gold.Chemscore.DEClash.Weighted>
0.2253

> <Gold.Chemscore.DEInternal.Weighted>
0.6032

> <Gold.Chemscore.Rot.Weighted>
4.8729

> <Gold.Chemscore.Internal.Correction.Weighted>
   9.000000E+99

> <Gold.Protein.RotatedTorsions>
[ 6907 6896 6895 6894 ] final   54.23 input  -60.11 | X-H torsion
[ 7974 7965 7964 7962 ] final  -88.18 input  175.53 | X-H torsion
[ 8008 7997 7996 7995 ] final  -69.33 input   59.86 | X-H torsion
[ 10167 10162 10161 10158 ] final   34.61 input  -65.29 | X-H torsion
[ 10718 10713 10712 10709 ] final -157.67 input   66.30 | X-H torsion
[ 10763 10752 10751 10750 ] final  -67.77 input  -60.55 | X-H torsion
[ 11005 11000 10999 10996 ] final -100.16 input  -57.11 | X-H torsion

> <Gold.Protein.ActiveResidues>
 VAL166  LYS551  ARG553  GLY616  TRP617  ASP618  TYR619  PRO620  LYS621  CYS622 
 ASP623  PHE694  ASN695  SER759  ASP760  ASP761  ALA762  ILE779  LEU786  VAL792 
 PHE793  MET794  SER795  GLU796  ALA797  LYS798  CYS799  TRP800  GLU811  SER814 

> <Gold.Protein.RotatedAtoms>
  152.3418  134.7124  160.0261 H   0  0  0  0  0  0  0  0  0  0  0  0  # atno 6907 bound_to 6896
  151.7507  133.3322  159.3399 H   0  0  0  0  0  0  0  0  0  0  0  0  # atno 6908 bound_to 6896
  150.7484  134.6127  159.6139 H   0  0  0  0  0  0  0  0  0  0  0  0  # atno 6909 bound_to 6896
  145.4567  140.9561  143.1992 H   0  0  0  0  0  0  0  0  0  0  0  0  # atno 7974 bound_to 7965
  154.4931  140.0855  156.7638 H   0  0  0  0  0  0  0  0  0  0  0  0  # atno 8008 bound_to 7997
  155.4182  140.3444  155.4251 H   0  0  0  0  0  0  0  0  0  0  0  0  # atno 8009 bound_to 7997
  156.1357  140.1514  156.8986 H   0  0  0  0  0  0  0  0  0  0  0  0  # atno 8010 bound_to 7997
  140.4299  144.1339  150.6158 H   0  0  0  0  0  0  0  0  0  0  0  0  # atno 10167 bound_to 10162
  156.5435  130.8573  151.2756 H   0  0  0  0  0  0  0  0  0  0  0  0  # atno 10718 bound_to 10713
  154.3794  135.6077  153.5782 H   0  0  0  0  0  0  0  0  0  0  0  0  # atno 10763 bound_to 10752
  152.9788  135.5857  154.4428 H   0  0  0  0  0  0  0  0  0  0  0  0  # atno 10764 bound_to 10752
  154.4195  135.2845  155.1962 H   0  0  0  0  0  0  0  0  0  0  0  0  # atno 10765 bound_to 10752
  141.1281  133.8377  157.1066 H   0  0  0  0  0  0  0  0  0  0  0  0  # atno 11005 bound_to 11000
  144.8028  139.6108  143.7064 LP  0  0  0  0  0  0  0  0  0  0  0  0  # atno 17320 bound_to 7965
  146.2474  139.6127  142.9450 LP  0  0  0  0  0  0  0  0  0  0  0  0  # atno 17321 bound_to 7965
  140.4439  143.2515  151.9437 LP  0  0  0  0  0  0  0  0  0  0  0  0  # atno 17342 bound_to 10162
  139.4784  144.5628  151.8212 LP  0  0  0  0  0  0  0  0  0  0  0  0  # atno 17343 bound_to 10162
  157.7401  130.9844  150.2355 LP  0  0  0  0  0  0  0  0  0  0  0  0  # atno 17370 bound_to 10713
  156.2950  130.3750  149.7805 LP  0  0  0  0  0  0  0  0  0  0  0  0  # atno 17371 bound_to 10713
  140.0301  134.9905  157.0763 LP  0  0  0  0  0  0  0  0  0  0  0  0  # atno 17394 bound_to 11000
  140.4299  134.1791  155.7167 LP  0  0  0  0  0  0  0  0  0  0  0  0  # atno 17395 bound_to 11000

$$$$
