AV-unprocessed.smi:35|AV-procd|sdf|267|dock7
  -GOLD-   2262016 33D 1   1.00000     0.00000
 Structure written by MMmdl.
 28 29  0  0  0  0  0  0  0  0  2 V2000
  149.9475  134.8697  157.8974 O   0  0  0  0  0  0  0  0  0  0  0  0
  150.1684  135.9486  157.3505 C   0  0  0  0  0  0  0  0  0  0  0  0
  150.9678  136.0725  156.2522 N   0  5  0  0  0  0  0  0  0  0  0  0
  151.2004  137.2713  155.6415 C   0  0  0  0  0  0  0  0  0  0  0  0
  151.9394  137.3941  154.6641 O   0  0  0  0  0  0  0  0  0  0  0  0
  150.5672  138.4410  156.1484 N   0  0  0  0  0  0  0  0  0  0  0  0
  150.8458  139.7716  155.4690 C   0  0  2  0  0  0  0  0  0  0  0  0
  151.3937  140.6717  156.3856 O   0  0  0  0  0  0  0  0  0  0  0  0
  150.3587  141.4710  156.9442 C   0  0  1  0  0  0  0  0  0  0  0  0
  150.9549  142.7480  157.5549 C   0  0  0  0  0  0  0  0  0  0  0  0
  149.9287  143.6779  157.8298 O   0  0  0  0  0  0  0  0  0  0  0  0
  149.4679  141.7295  155.7281 C   0  0  2  0  0  0  0  0  0  0  0  0
  148.1405  141.9940  156.1362 O   0  0  0  0  0  0  0  0  0  0  0  0
  149.5427  140.4187  154.9488 C   0  0  1  0  0  0  0  0  0  0  0  0
  149.6085  140.6772  153.5614 O   0  0  0  0  0  0  0  0  0  0  0  0
  149.7789  138.3485  157.2855 C   0  0  0  0  0  0  0  0  0  0  0  0
  149.5608  137.1623  157.8882 C   0  0  0  0  0  0  0  0  0  0  0  0
  148.4105  137.1819  159.5018 Br  0  0  0  0  0  0  0  0  0  0  0  0
  151.5801  139.5402  154.6951 H   0  0  0  0  0  0  0  0  0  0  0  0
  149.8046  140.8996  157.6917 H   0  0  0  0  0  0  0  0  0  0  0  0
  151.5227  142.5285  158.4596 H   0  0  0  0  0  0  0  0  0  0  0  0
  151.6399  143.2167  156.8479 H   0  0  0  0  0  0  0  0  0  0  0  0
  149.5875  144.0002  157.0098 H   0  0  0  0  0  0  0  0  0  0  0  0
  149.8626  142.5601  155.1399 H   0  0  0  0  0  0  0  0  0  0  0  0
  148.1088  141.9618  157.0803 H   0  0  0  0  0  0  0  0  0  0  0  0
  148.6891  139.7753  155.1690 H   0  0  0  0  0  0  0  0  0  0  0  0
  149.3361  139.8947  153.1049 H   0  0  0  0  0  0  0  0  0  0  0  0
  149.3264  139.2283  157.7161 H   0  0  0  0  0  0  0  0  0  0  0  0
  1  2  2  0  0  0  0
  2 17  1  0  0  0  0
  2  3  1  0  0  0  0
  3  4  1  0  0  0  0
  4  5  2  0  0  0  0
  4  6  1  0  0  0  0
  6  7  1  0  0  0  0
  6 16  1  0  0  0  0
  7 14  1  0  0  0  0
  7  8  1  0  0  0  0
  7 19  1  0  0  0  0
  8  9  1  0  0  0  0
  9 10  1  0  0  0  0
  9 12  1  0  0  0  0
  9 20  1  0  0  0  0
 10 11  1  0  0  0  0
 10 21  1  0  0  0  0
 10 22  1  0  0  0  0
 11 23  1  0  0  0  0
 12 13  1  0  0  0  0
 12 14  1  0  0  0  0
 12 24  1  0  0  0  0
 13 25  1  0  0  0  0
 14 15  1  0  0  0  0
 14 26  1  0  0  0  0
 15 27  1  0  0  0  0
 16 17  2  0  0  0  0
 16 28  1  0  0  0  0
 17 18  1  0  0  0  0
M  CHG  1   3  -1
M  END
> <s_m_source_file>
AV-unprocessed.smi

> <i_m_source_file_index>
35

> <i_lp_mmshare_version>
43012

> <i_f3d_flags>
0

> <s_epik_input>
Tz1jMVtuSF1jKD1PKW4oW2NIXWMxQnIpW0NAQEhdMk9bQ0BASF0oW0NIMl1bT0hdKVtDQEBIXShbT0hdKVtDQEhdMltPSF0=

> <s_epik_cmdline>
J2VwaWtfcHl0aG9uJywgJy1waCcsICc3LjAnLCAnLXRuJywgJzgnLCAnLW1hJywgJzIwMCcsICctbWV0YWxfYmluZGluZycsICctaW1hZScsICc8aW5maWxlLm1hZT4nLCAnLW9tYWUnLCAnPG91dGZpbGUubWFlPic=

> <r_epik_Ionization_Penalty>
1.06112

> <r_epik_Ionization_Penalty_Charging>
2.1796e-09

> <r_epik_Ionization_Penalty_Neutral>
1.06112

> <r_epik_State_Penalty>
1.11484

> <r_epik_Charging_Adjusted_Penalty>
1.11484

> <i_epik_Tot_Q>
-1

> <i_epik_Tot_abs_Q>
1

> <r_epik_Metal_State_Penalty>
0.0032876

> <b_epik_Metal_Only>
0

> <s_epik_Chemistry_Notes>
This compound contains an acetal/aminal-like group ( X-CH(R)-Y where X, Y are N, S, or O) that may be acid/base labile, releasing an aldehyde.

> <s_lp_Force_Field>
OPLS_2005

> <r_lp_Energy>
34.7757

> <b_lp_Chiralities_Consistent>
1

> <s_lp_Variant>
AV-unprocessed.smi:35-21

> <Gold.Version>
5.8.1

> <Gold.Id.Protein>
6NUR|6NUR_protein|mol2

> <Gold.PLP.Fitness>
41.2363

> <Gold.PLP.PLP>
-26.6967

> <Gold.PLP.part.hbond>
-8.2836

> <Gold.PLP.part.metal>
0.0000

> <Gold.PLP.part.buried>
-0.6917

> <Gold.PLP.part.nonpolar>
-17.6779

> <Gold.PLP.part.repulsive>
0.1997

> <Gold.PLP.ligand.clash>
0.0000

> <Gold.PLP.ligand.torsion>
0.0722

> <Gold.PLP.Chemscore.Hbond>
4.8845

> <Gold.PLP.Chemscore.CHOScore>
0.0000

> <Gold.PLP.Chemscore.Metal>
0.0000

> <Gold.Chemscore.Hbonds>
donor molecule, donor type, donor heavy atom, donor atom, acceptor molecule, acceptor atom, score
      L1  H    11    23       P1  8028  1.00
      L1  H    15    27       P1  7957  0.24
      P1  H  6896  6908       L1     1  0.88
      P1  H  7989  7998       L1    15  0.35
      P1  H  8011  8017       L1    15  0.75
      P1  H 10752 10765       L1     5  0.29

> <Gold.PLP.Chemscore.Internal.Correction>
0.0303

> <Gold.Rescore>
     Score         DG    S(hbond)    S(metal)    S(lipo)     H(rot)  DE(clash)    DE(int)     intcor
     11.30     -11.48       3.25        0.00      37.92       3.63       0.05       0.13       ----

> <Gold.Chemscore.Fitness>
11.2998

> <Gold.Chemscore.DG>
-11.4849

> <Gold.Chemscore.ZeroCoef>
-5.4800

> <Gold.Chemscore.Hbond>
3.2487

> <Gold.Chemscore.Metal>
0.0000

> <Gold.Chemscore.Lipo>
37.9241

> <Gold.Chemscore.Internal_Hbond>
0.0000

> <Gold.Chemscore.DEClash>
0.0526

> <Gold.Chemscore.DEInternal>
0.1325

> <Gold.Chemscore.Rot>
3.6261

> <Gold.Chemscore.Internal.Correction>
   9.000000E+99

> <Gold.Chemscore.Hbonds>
donor molecule, donor type, donor heavy atom, donor atom, acceptor molecule, acceptor atom, score
      L1  H    11    23       P1  8028  0.74
      L1  H    15    27       P1  7957  0.24
      P1  H  6896  6908       L1     1  0.87
      P1  H  7989  7998       L1    15  0.04
      P1  H  8011  8017       L1    15  0.67
      P1  H 10752 10765       L1     5  0.06

> <Gold.Chemscore.Hbond.Weighted>
-10.8506

> <Gold.Chemscore.Metal.Weighted>
-0.0000

> <Gold.Chemscore.Lipo.Weighted>
-4.4371

> <Gold.Chemscore.Internal_Hbond.Weighted>
0.0000

> <Gold.Chemscore.DEClash.Weighted>
0.0526

> <Gold.Chemscore.DEInternal.Weighted>
0.1325

> <Gold.Chemscore.Rot.Weighted>
9.2828

> <Gold.Chemscore.Internal.Correction.Weighted>
   9.000000E+99

> <Gold.Protein.RotatedTorsions>
[ 6907 6896 6895 6894 ] final  142.87 input  -60.11 | X-H torsion
[ 7974 7965 7964 7962 ] final   83.52 input  175.53 | X-H torsion
[ 8008 7997 7996 7995 ] final  -42.81 input   59.86 | X-H torsion
[ 10167 10162 10161 10158 ] final   29.29 input  -65.29 | X-H torsion
[ 10718 10713 10712 10709 ] final -122.94 input   66.30 | X-H torsion
[ 10763 10752 10751 10750 ] final -157.91 input  -60.55 | X-H torsion
[ 11005 11000 10999 10996 ] final -154.58 input  -57.11 | X-H torsion

> <Gold.Protein.ActiveResidues>
 VAL166  LYS551  ARG553  GLY616  TRP617  ASP618  TYR619  PRO620  LYS621  CYS622 
 ASP623  PHE694  ASN695  SER759  ASP760  ASP761  ALA762  ILE779  LEU786  VAL792 
 PHE793  MET794  SER795  GLU796  ALA797  LYS798  CYS799  TRP800  GLU811  SER814 

> <Gold.Protein.RotatedAtoms>
  152.2133  133.4927  159.5121 H   0  0  0  0  0  0  0  0  0  0  0  0  # atno 6907 bound_to 6896
  150.6995  134.1438  159.4124 H   0  0  0  0  0  0  0  0  0  0  0  0  # atno 6908 bound_to 6896
  151.9358  135.0235  160.0583 H   0  0  0  0  0  0  0  0  0  0  0  0  # atno 6909 bound_to 6896
  145.6108  139.2368  143.2193 H   0  0  0  0  0  0  0  0  0  0  0  0  # atno 7974 bound_to 7965
  154.3998  140.1464  156.3416 H   0  0  0  0  0  0  0  0  0  0  0  0  # atno 8008 bound_to 7997
  155.8351  140.3464  155.5576 H   0  0  0  0  0  0  0  0  0  0  0  0  # atno 8009 bound_to 7997
  155.8146  140.0889  157.1874 H   0  0  0  0  0  0  0  0  0  0  0  0  # atno 8010 bound_to 7997
  140.4778  144.0663  150.6256 H   0  0  0  0  0  0  0  0  0  0  0  0  # atno 10167 bound_to 10162
  156.1460  130.6500  150.9843 H   0  0  0  0  0  0  0  0  0  0  0  0  # atno 10718 bound_to 10713
  154.7599  135.3115  154.8398 H   0  0  0  0  0  0  0  0  0  0  0  0  # atno 10763 bound_to 10752
  153.9162  135.6800  153.4753 H   0  0  0  0  0  0  0  0  0  0  0  0  # atno 10764 bound_to 10752
  153.1199  135.4827  154.9109 H   0  0  0  0  0  0  0  0  0  0  0  0  # atno 10765 bound_to 10752
  140.6957  134.3992  157.5215 H   0  0  0  0  0  0  0  0  0  0  0  0  # atno 11005 bound_to 11000
  146.1506  140.6931  142.9324 LP  0  0  0  0  0  0  0  0  0  0  0  0  # atno 17320 bound_to 7965
  144.7271  140.4557  143.6965 LP  0  0  0  0  0  0  0  0  0  0  0  0  # atno 17321 bound_to 7965
  140.3896  143.2759  152.0076 LP  0  0  0  0  0  0  0  0  0  0  0  0  # atno 17342 bound_to 10162
  139.4828  144.6088  151.7471 LP  0  0  0  0  0  0  0  0  0  0  0  0  # atno 17343 bound_to 10162
  157.6617  131.0879  150.7823 LP  0  0  0  0  0  0  0  0  0  0  0  0  # atno 17370 bound_to 10713
  156.7895  130.4885  149.5387 LP  0  0  0  0  0  0  0  0  0  0  0  0  # atno 17371 bound_to 10713
  139.8911  134.8789  156.2338 LP  0  0  0  0  0  0  0  0  0  0  0  0  # atno 17394 bound_to 11000
  141.0205  133.7044  156.1260 LP  0  0  0  0  0  0  0  0  0  0  0  0  # atno 17395 bound_to 11000

$$$$
