AV-unprocessed.smi:3116|AV-procd|sdf|11866|dock3
  -GOLD-   2272017243D 1   1.00000     0.00000
 Structure written by MMmdl.
 34 34  0  0  0  0  0  0  0  0  2 V2000
  149.5537  141.3076  155.8979 C   0  0  0  0  0  0  0  0  0  0  0  0
  150.3176  141.0953  157.2164 C   0  0  2  0  0  0  0  0  0  0  0  0
  151.0485  142.3237  157.6053 N   0  3  0  0  0  0  0  0  0  0  0  0
  151.1545  142.5852  159.0610 C   0  0  2  0  0  0  0  0  0  0  0  0
  150.4535  143.9198  159.3648 C   0  0  0  0  0  0  0  0  0  0  0  0
  152.6427  142.5767  159.5082 C   0  0  1  0  0  0  0  0  0  0  0  0
  153.3837  143.8891  159.1841 C   0  0  0  0  0  0  0  0  0  0  0  0
  152.7750  142.2685  160.9280 N   0  0  0  0  0  0  0  0  0  0  0  0
  153.3874  141.1773  161.5101 C   0  0  0  0  0  0  0  0  0  0  0  0
  153.2418  141.2992  162.8622 C   0  0  0  0  0  0  0  0  0  0  0  0
  152.5201  142.5151  163.0167 C   0  0  0  0  0  0  0  0  0  0  0  0
  152.2372  143.0895  161.8588 N   0  0  0  0  0  0  0  0  0  0  0  0
  151.2880  139.9151  157.0897 C   0  0  0  0  0  0  0  0  0  0  0  0
  151.2219  138.9698  158.0309 N   0  0  0  0  0  0  0  0  0  0  0  0
  152.0823  139.8493  156.1531 O   0  0  0  0  0  0  0  0  0  0  0  0
  149.0106  140.4081  155.6057 H   0  0  0  0  0  0  0  0  0  0  0  0
  150.2292  141.5681  155.0818 H   0  0  0  0  0  0  0  0  0  0  0  0
  148.8208  142.1096  155.9876 H   0  0  0  0  0  0  0  0  0  0  0  0
  149.6049  140.8459  158.0028 H   0  0  0  0  0  0  0  0  0  0  0  0
  151.9874  142.2549  157.2397 H   0  0  0  0  0  0  0  0  0  0  0  0
  150.6186  141.8077  159.6075 H   0  0  0  0  0  0  0  0  0  0  0  0
  150.3995  144.1146  160.4355 H   0  0  0  0  0  0  0  0  0  0  0  0
  149.4283  143.9149  158.9931 H   0  0  0  0  0  0  0  0  0  0  0  0
  150.9715  144.7573  158.8962 H   0  0  0  0  0  0  0  0  0  0  0  0
  153.1521  141.7780  158.9665 H   0  0  0  0  0  0  0  0  0  0  0  0
  153.4725  144.0474  158.1097 H   0  0  0  0  0  0  0  0  0  0  0  0
  154.3976  143.8740  159.5859 H   0  0  0  0  0  0  0  0  0  0  0  0
  152.8732  144.7544  159.6078 H   0  0  0  0  0  0  0  0  0  0  0  0
  153.8693  140.4105  160.9212 H   0  0  0  0  0  0  0  0  0  0  0  0
  153.5989  140.6237  163.6255 H   0  0  0  0  0  0  0  0  0  0  0  0
  152.1929  142.9922  163.9289 H   0  0  0  0  0  0  0  0  0  0  0  0
  151.8416  138.1729  157.9965 H   0  0  0  0  0  0  0  0  0  0  0  0
  150.5510  139.0573  158.7810 H   0  0  0  0  0  0  0  0  0  0  0  0
  150.5964  143.1092  157.1596 H   0  0  0  0  0  0  0  0  0  0  0  0
  1  2  1  0  0  0  0
  1 16  1  0  0  0  0
  1 17  1  0  0  0  0
  1 18  1  0  0  0  0
  2  3  1  0  0  0  0
  2 13  1  0  0  0  0
  2 19  1  0  0  0  0
  3  4  1  0  0  0  0
  3 20  1  0  0  0  0
  3 34  1  0  0  0  0
  4  5  1  0  0  0  0
  4  6  1  0  0  0  0
  4 21  1  0  0  0  0
  5 22  1  0  0  0  0
  5 23  1  0  0  0  0
  5 24  1  0  0  0  0
  6  7  1  0  0  0  0
  6  8  1  0  0  0  0
  6 25  1  0  0  0  0
  7 26  1  0  0  0  0
  7 27  1  0  0  0  0
  7 28  1  0  0  0  0
  8 12  1  0  0  0  0
  8  9  1  0  0  0  0
  9 10  2  0  0  0  0
  9 29  1  0  0  0  0
 10 11  1  0  0  0  0
 10 30  1  0  0  0  0
 11 12  2  0  0  0  0
 11 31  1  0  0  0  0
 13 14  1  0  0  0  0
 13 15  2  0  0  0  0
 14 32  1  0  0  0  0
 14 33  1  0  0  0  0
M  CHG  1   3   1
M  END
> <s_m_source_file>
AV-unprocessed.smi

> <i_m_source_file_index>
3116

> <i_lp_mmshare_version>
43012

> <i_f3d_flags>
0

> <s_epik_input>
W05IMl1DKD1PKVtDQEhdKFtDSDNdKVtOSF1bQ0BIXShbQ0gzXSlbQ0BIXShbQ0gzXSluMVtjSF1bY0hdW2NIXW4x

> <s_epik_cmdline>
J2VwaWtfcHl0aG9uJywgJy1waCcsICc3LjAnLCAnLXRuJywgJzgnLCAnLW1hJywgJzIwMCcsICctbWV0YWxfYmluZGluZycsICctaW1hZScsICc8aW5maWxlLm1hZT4nLCAnLW9tYWUnLCAnPG91dGZpbGUubWFlPic=

> <r_lp_tautomer_probability>
1

> <r_epik_Ionization_Penalty>
0.15658

> <r_epik_Ionization_Penalty_Charging>
0.156568

> <r_epik_Ionization_Penalty_Neutral>
1.19778e-05

> <r_epik_State_Penalty>
0.145866

> <r_epik_Charging_Adjusted_Penalty>
0.302434

> <i_epik_Tot_Q>
1

> <i_epik_Tot_abs_Q>
1

> <r_epik_Metal_State_Penalty>
0.146064

> <b_epik_Metal_Only>
0

> <s_lp_Force_Field>
OPLS_2005

> <r_lp_Energy>
9.52806

> <b_lp_Chiralities_Consistent>
1

> <s_lp_Variant>
AV-unprocessed.smi:3116-5

> <Gold.Version>
5.8.1

> <Gold.Id.Protein>
6NUR|6NUR_protein|mol2

> <Gold.PLP.Fitness>
42.8791

> <Gold.PLP.PLP>
-37.8466

> <Gold.PLP.part.hbond>
-2.0000

> <Gold.PLP.part.metal>
0.0000

> <Gold.PLP.part.buried>
-4.2905

> <Gold.PLP.part.nonpolar>
-31.0227

> <Gold.PLP.part.repulsive>
0.1837

> <Gold.PLP.ligand.clash>
0.0000

> <Gold.PLP.ligand.torsion>
1.7999

> <Gold.PLP.Chemscore.Hbond>
2.8320

> <Gold.PLP.Chemscore.CHOScore>
0.0000

> <Gold.PLP.Chemscore.Metal>
0.0000

> <Gold.PLP.Chemscore.Internal.Correction>
0.1362

> <Gold.Rescore>
     Score         DG    S(hbond)    S(metal)    S(lipo)     H(rot)  DE(clash)    DE(int)     intcor
     13.58     -15.40       1.87        0.00      84.97       2.45       0.09       1.73       ----

> <Gold.Chemscore.Fitness>
13.5842

> <Gold.Chemscore.DG>
-15.4030

> <Gold.Chemscore.ZeroCoef>
-5.4800

> <Gold.Chemscore.Hbond>
1.8695

> <Gold.Chemscore.Metal>
0.0000

> <Gold.Chemscore.Lipo>
84.9735

> <Gold.Chemscore.Internal_Hbond>
0.0000

> <Gold.Chemscore.DEClash>
0.0901

> <Gold.Chemscore.DEInternal>
1.7287

> <Gold.Chemscore.Rot>
2.4465

> <Gold.Chemscore.Internal.Correction>
   9.000000E+99

> <Gold.Chemscore.Hbond.Weighted>
-6.2442

> <Gold.Chemscore.Metal.Weighted>
-0.0000

> <Gold.Chemscore.Lipo.Weighted>
-9.9419

> <Gold.Chemscore.Internal_Hbond.Weighted>
0.0000

> <Gold.Chemscore.DEClash.Weighted>
0.0901

> <Gold.Chemscore.DEInternal.Weighted>
1.7287

> <Gold.Chemscore.Rot.Weighted>
6.2631

> <Gold.Chemscore.Internal.Correction.Weighted>
   9.000000E+99

> <Gold.Protein.RotatedTorsions>
[ 6907 6896 6895 6894 ] final   -6.88 input  -60.11 | X-H torsion
[ 7974 7965 7964 7962 ] final  -60.29 input  175.53 | X-H torsion
[ 8008 7997 7996 7995 ] final -112.66 input   59.86 | X-H torsion
[ 10167 10162 10161 10158 ] final    4.03 input  -65.29 | X-H torsion
[ 10718 10713 10712 10709 ] final   73.30 input   66.30 | X-H torsion
[ 10763 10752 10751 10750 ] final   27.23 input  -60.55 | X-H torsion
[ 11005 11000 10999 10996 ] final   64.28 input  -57.11 | X-H torsion

> <Gold.Protein.ActiveResidues>
 VAL166  LYS551  ARG553  GLY616  TRP617  ASP618  TYR619  PRO620  LYS621  CYS622 
 ASP623  PHE694  ASN695  SER759  ASP760  ASP761  ALA762  ILE779  LEU786  VAL792 
 PHE793  MET794  SER795  GLU796  ALA797  LYS798  CYS799  TRP800  GLU811  SER814 

> <Gold.Protein.RotatedAtoms>
  151.4584  135.1036  159.9717 H   0  0  0  0  0  0  0  0  0  0  0  0  # atno 6907 bound_to 6896
  152.4862  133.8375  159.7146 H   0  0  0  0  0  0  0  0  0  0  0  0  # atno 6908 bound_to 6896
  150.8973  133.7103  159.2915 H   0  0  0  0  0  0  0  0  0  0  0  0  # atno 6909 bound_to 6896
  145.8173  140.8562  143.0151 H   0  0  0  0  0  0  0  0  0  0  0  0  # atno 7974 bound_to 7965
  155.0086  140.0393  157.2390 H   0  0  0  0  0  0  0  0  0  0  0  0  # atno 8008 bound_to 7997
  154.7480  140.2761  155.6293 H   0  0  0  0  0  0  0  0  0  0  0  0  # atno 8009 bound_to 7997
  156.2879  140.2652  156.2225 H   0  0  0  0  0  0  0  0  0  0  0  0  # atno 8010 bound_to 7997
  140.6556  143.7436  150.7648 H   0  0  0  0  0  0  0  0  0  0  0  0  # atno 10167 bound_to 10162
  157.6541  130.9622  150.1050 H   0  0  0  0  0  0  0  0  0  0  0  0  # atno 10718 bound_to 10713
  153.0569  135.6542  154.0555 H   0  0  0  0  0  0  0  0  0  0  0  0  # atno 10763 bound_to 10752
  154.0231  135.2918  155.3380 H   0  0  0  0  0  0  0  0  0  0  0  0  # atno 10764 bound_to 10752
  154.6889  135.5290  153.8432 H   0  0  0  0  0  0  0  0  0  0  0  0  # atno 10765 bound_to 10752
  139.9969  134.6503  155.9995 H   0  0  0  0  0  0  0  0  0  0  0  0  # atno 11005 bound_to 11000
  144.6751  140.0482  143.7479 LP  0  0  0  0  0  0  0  0  0  0  0  0  # atno 17320 bound_to 7965
  145.9713  139.2872  143.1097 LP  0  0  0  0  0  0  0  0  0  0  0  0  # atno 17321 bound_to 7965
  140.1095  143.4712  152.2378 LP  0  0  0  0  0  0  0  0  0  0  0  0  # atno 17342 bound_to 10162
  139.5778  144.7496  151.3719 LP  0  0  0  0  0  0  0  0  0  0  0  0  # atno 17343 bound_to 10162
  156.1962  130.3657  149.8846 LP  0  0  0  0  0  0  0  0  0  0  0  0  # atno 17370 bound_to 10713
  156.6761  130.8840  151.3569 LP  0  0  0  0  0  0  0  0  0  0  0  0  # atno 17371 bound_to 10713
  141.1611  133.6539  156.4324 LP  0  0  0  0  0  0  0  0  0  0  0  0  # atno 17394 bound_to 11000
  140.4801  134.6673  157.5167 LP  0  0  0  0  0  0  0  0  0  0  0  0  # atno 17395 bound_to 11000

$$$$
