AV-unprocessed.smi:977|AV-procd|sdf|4305|dock4
  -GOLD-   22720 2213D 1   1.00000     0.00000
 Structure written by MMmdl.
 37 38  0  0  0  0  0  0  0  0  1 V2000
  152.2194  140.6244  157.7807 C   0  0  0  0  0  0  0  0  0  0  0  0
  151.3677  140.6800  156.5428 C   0  0  0  0  0  0  0  0  0  0  0  0
  151.6218  139.8441  155.5466 N   0  0  0  0  0  0  0  0  0  0  0  0
  150.6396  140.0710  154.5698 O   0  0  0  0  0  0  0  0  0  0  0  0
  149.8055  141.0517  155.0039 C   0  0  0  0  0  0  0  0  0  0  0  0
  148.6757  141.4281  154.1062 C   0  0  0  0  0  0  0  0  0  0  0  0
  150.2369  141.4868  156.2219 C   0  0  0  0  0  0  0  0  0  0  0  0
  149.5991  142.4874  156.9967 N   0  0  0  0  0  0  0  0  0  0  0  0
  149.3933  142.4608  158.3220 C   0  0  0  0  0  0  0  0  0  0  0  0
  149.7946  141.5743  159.0760 O   0  0  0  0  0  0  0  0  0  0  0  0
  148.7094  143.5381  158.7338 N   0  0  0  0  0  0  0  0  0  0  0  0
  148.3137  143.8138  160.1135 C   0  0  1  0  0  0  0  0  0  0  0  0
  149.0247  145.0949  160.5772 C   0  0  0  0  0  0  0  0  0  0  0  0
  146.7766  143.9262  160.2167 C   0  0  2  0  0  0  0  0  0  0  0  0
  146.2795  144.6714  161.4598 C   0  0  0  0  0  0  0  0  0  0  0  0
  144.9279  144.0383  161.6949 C   0  0  0  0  0  0  0  0  0  0  0  0
  145.2176  142.5843  161.3478 C   0  0  0  0  0  0  0  0  0  0  0  0
  146.1740  142.6330  160.2953 O   0  0  0  0  0  0  0  0  0  0  0  0
  151.6371  140.8608  158.6714 H   0  0  0  0  0  0  0  0  0  0  0  0
  153.0451  141.3336  157.7205 H   0  0  0  0  0  0  0  0  0  0  0  0
  152.6464  139.6317  157.9273 H   0  0  0  0  0  0  0  0  0  0  0  0
  147.9769  142.0943  154.6123 H   0  0  0  0  0  0  0  0  0  0  0  0
  148.1253  140.5436  153.7852 H   0  0  0  0  0  0  0  0  0  0  0  0
  149.0451  141.9386  153.2169 H   0  0  0  0  0  0  0  0  0  0  0  0
  149.3419  143.3329  156.5091 H   0  0  0  0  0  0  0  0  0  0  0  0
  148.4272  144.2139  158.0391 H   0  0  0  0  0  0  0  0  0  0  0  0
  148.6507  142.9978  160.7555 H   0  0  0  0  0  0  0  0  0  0  0  0
  148.8116  145.3122  161.6239 H   0  0  0  0  0  0  0  0  0  0  0  0
  148.7128  145.9579  159.9879 H   0  0  0  0  0  0  0  0  0  0  0  0
  150.1067  144.9994  160.4808 H   0  0  0  0  0  0  0  0  0  0  0  0
  146.3757  144.4145  159.3268 H   0  0  0  0  0  0  0  0  0  0  0  0
  146.9298  144.4748  162.3137 H   0  0  0  0  0  0  0  0  0  0  0  0
  146.2249  145.7507  161.3151 H   0  0  0  0  0  0  0  0  0  0  0  0
  144.5616  144.1691  162.7135 H   0  0  0  0  0  0  0  0  0  0  0  0
  144.1910  144.4535  161.0059 H   0  0  0  0  0  0  0  0  0  0  0  0
  145.6660  142.0722  162.1999 H   0  0  0  0  0  0  0  0  0  0  0  0
  144.3237  142.0351  161.0523 H   0  0  0  0  0  0  0  0  0  0  0  0
  1  2  1  0  0  0  0
  1 19  1  0  0  0  0
  1 20  1  0  0  0  0
  1 21  1  0  0  0  0
  2  7  1  0  0  0  0
  2  3  2  0  0  0  0
  3  4  1  0  0  0  0
  4  5  1  0  0  0  0
  5  6  1  0  0  0  0
  5  7  2  0  0  0  0
  6 22  1  0  0  0  0
  6 23  1  0  0  0  0
  6 24  1  0  0  0  0
  7  8  1  0  0  0  0
  8  9  1  0  0  0  0
  8 25  1  0  0  0  0
  9 10  2  0  0  0  0
  9 11  1  0  0  0  0
 11 12  1  0  0  0  0
 11 26  1  0  0  0  0
 12 13  1  0  0  0  0
 12 14  1  0  0  0  0
 12 27  1  0  0  0  0
 13 28  1  0  0  0  0
 13 29  1  0  0  0  0
 13 30  1  0  0  0  0
 14 18  1  0  0  0  0
 14 15  1  0  0  0  0
 14 31  1  0  0  0  0
 15 16  1  0  0  0  0
 15 32  1  0  0  0  0
 15 33  1  0  0  0  0
 16 17  1  0  0  0  0
 16 34  1  0  0  0  0
 16 35  1  0  0  0  0
 17 18  1  0  0  0  0
 17 36  1  0  0  0  0
 17 37  1  0  0  0  0
M  END
> <s_m_source_file>
AV-unprocessed.smi

> <i_m_source_file_index>
977

> <i_lp_mmshare_version>
43012

> <i_f3d_flags>
0

> <s_epik_input>
W0NIM11jMW5vYyhbQ0gzXSljMVtOSF1DKD1PKVtOSF1bQ0BIXShbQ0gzXSlbQ0BASF0yW0NIMl1bQ0gyXVtDSDJdTzI=

> <s_epik_cmdline>
J2VwaWtfcHl0aG9uJywgJy1waCcsICc3LjAnLCAnLXRuJywgJzgnLCAnLW1hJywgJzIwMCcsICctbWV0YWxfYmluZGluZycsICctaW1hZScsICc8aW5maWxlLm1hZT4nLCAnLW9tYWUnLCAnPG91dGZpbGUubWFlPic=

> <r_lp_tautomer_probability>
1

> <r_epik_Ionization_Penalty>
3.41601e-05

> <r_epik_Ionization_Penalty_Charging>
0

> <r_epik_Ionization_Penalty_Neutral>
3.41601e-05

> <r_epik_State_Penalty>
-0

> <r_epik_Charging_Adjusted_Penalty>
0

> <i_epik_Tot_Q>
0

> <i_epik_Tot_abs_Q>
0

> <r_epik_Metal_State_Penalty>
-0

> <b_epik_Metal_Only>
0

> <s_lp_Force_Field>
OPLS_2005

> <r_lp_Energy>
19.7508

> <b_lp_Chiralities_Consistent>
1

> <s_lp_Variant>
AV-unprocessed.smi:977-2

> <Gold.Version>
5.8.1

> <Gold.Id.Protein>
6NUR|6NUR_protein|mol2

> <Gold.PLP.Fitness>
38.6725

> <Gold.PLP.PLP>
-29.6985

> <Gold.PLP.part.hbond>
-5.7091

> <Gold.PLP.part.metal>
0.0000

> <Gold.PLP.part.buried>
-0.7069

> <Gold.PLP.part.nonpolar>
-24.3944

> <Gold.PLP.part.repulsive>
0.2275

> <Gold.PLP.ligand.clash>
0.0000

> <Gold.PLP.ligand.torsion>
0.7414

> <Gold.PLP.Chemscore.Hbond>
3.4000

> <Gold.PLP.Chemscore.CHOScore>
0.0000

> <Gold.PLP.Chemscore.Metal>
0.0000

> <Gold.Chemscore.Hbonds>
donor molecule, donor type, donor heavy atom, donor atom, acceptor molecule, acceptor atom, score
      L1  H     8    25       P1  8028  1.00
      L1  H    11    26       P1  8029  0.85
      P1  H  6934  6946       L1    18  0.65
      P1  H  7989  7998       L1     4  0.85

> <Gold.PLP.Chemscore.Internal.Correction>
0.2567

> <Gold.Rescore>
     Score         DG    S(hbond)    S(metal)    S(lipo)     H(rot)  DE(clash)    DE(int)     intcor
     12.61     -15.10       1.46        0.00      67.29       1.22       0.38       2.11       ----

> <Gold.Chemscore.Fitness>
12.6075

> <Gold.Chemscore.DG>
-15.1004

> <Gold.Chemscore.ZeroCoef>
-5.4800

> <Gold.Chemscore.Hbond>
1.4583

> <Gold.Chemscore.Metal>
0.0000

> <Gold.Chemscore.Lipo>
67.2898

> <Gold.Chemscore.Internal_Hbond>
0.0000

> <Gold.Chemscore.DEClash>
0.3784

> <Gold.Chemscore.DEInternal>
2.1145

> <Gold.Chemscore.Rot>
1.2200

> <Gold.Chemscore.Internal.Correction>
   9.000000E+99

> <Gold.Chemscore.Hbonds>
donor molecule, donor type, donor heavy atom, donor atom, acceptor molecule, acceptor atom, score
      L1  H     8    25       P1  8028  1.00
      L1  H    11    26       P1  8029  0.14
      P1  H  6934  6946       L1    18  0.06
      P1  H  7989  7998       L1     4  0.06

> <Gold.Chemscore.Hbond.Weighted>
-4.8706

> <Gold.Chemscore.Metal.Weighted>
-0.0000

> <Gold.Chemscore.Lipo.Weighted>
-7.8729

> <Gold.Chemscore.Internal_Hbond.Weighted>
0.0000

> <Gold.Chemscore.DEClash.Weighted>
0.3784

> <Gold.Chemscore.DEInternal.Weighted>
2.1145

> <Gold.Chemscore.Rot.Weighted>
3.1232

> <Gold.Chemscore.Internal.Correction.Weighted>
   9.000000E+99

> <Gold.Protein.RotatedTorsions>
[ 6907 6896 6895 6894 ] final  176.06 input  -60.11 | X-H torsion
[ 7974 7965 7964 7962 ] final  -24.11 input  175.53 | X-H torsion
[ 8008 7997 7996 7995 ] final  -74.52 input   59.86 | X-H torsion
[ 10167 10162 10161 10158 ] final   30.70 input  -65.29 | X-H torsion
[ 10718 10713 10712 10709 ] final -153.18 input   66.30 | X-H torsion
[ 10763 10752 10751 10750 ] final -157.76 input  -60.55 | X-H torsion
[ 11005 11000 10999 10996 ] final   33.66 input  -57.11 | X-H torsion

> <Gold.Protein.ActiveResidues>
 VAL166  LYS551  ARG553  GLY616  TRP617  ASP618  TYR619  PRO620  LYS621  CYS622 
 ASP623  PHE694  ASN695  SER759  ASP760  ASP761  ALA762  ILE779  LEU786  VAL792 
 PHE793  MET794  SER795  GLU796  ALA797  LYS798  CYS799  TRP800  GLU811  SER814 

> <Gold.Protein.RotatedAtoms>
  151.7263  133.3316  159.3328 H   0  0  0  0  0  0  0  0  0  0  0  0  # atno 6907 bound_to 6896
  150.7631  134.6403  159.6243 H   0  0  0  0  0  0  0  0  0  0  0  0  # atno 6908 bound_to 6896
  152.3620  134.6860  160.0256 H   0  0  0  0  0  0  0  0  0  0  0  0  # atno 6909 bound_to 6896
  146.1575  140.4708  142.8585 H   0  0  0  0  0  0  0  0  0  0  0  0  # atno 7974 bound_to 7965
  154.5338  140.0760  156.8391 H   0  0  0  0  0  0  0  0  0  0  0  0  # atno 8008 bound_to 7997
  155.3320  140.3402  155.4221 H   0  0  0  0  0  0  0  0  0  0  0  0  # atno 8009 bound_to 7997
  156.1808  140.1651  156.8265 H   0  0  0  0  0  0  0  0  0  0  0  0  # atno 8010 bound_to 7997
  140.4655  144.0842  150.6223 H   0  0  0  0  0  0  0  0  0  0  0  0  # atno 10167 bound_to 10162
  156.4824  130.8309  151.2535 H   0  0  0  0  0  0  0  0  0  0  0  0  # atno 10718 bound_to 10713
  154.7611  135.3118  154.8377 H   0  0  0  0  0  0  0  0  0  0  0  0  # atno 10763 bound_to 10752
  153.9137  135.6803  153.4754 H   0  0  0  0  0  0  0  0  0  0  0  0  # atno 10764 bound_to 10752
  153.1212  135.4822  154.9129 H   0  0  0  0  0  0  0  0  0  0  0  0  # atno 10765 bound_to 10752
  140.2609  134.3194  155.7858 H   0  0  0  0  0  0  0  0  0  0  0  0  # atno 11005 bound_to 11000
  144.7982  140.6163  143.6496 LP  0  0  0  0  0  0  0  0  0  0  0  0  # atno 17320 bound_to 7965
  145.4673  139.1507  143.3833 LP  0  0  0  0  0  0  0  0  0  0  0  0  # atno 17321 bound_to 7965
  140.4042  143.2689  151.9911 LP  0  0  0  0  0  0  0  0  0  0  0  0  # atno 17342 bound_to 10162
  139.4811  144.5972  151.7670 LP  0  0  0  0  0  0  0  0  0  0  0  0  # atno 17343 bound_to 10162
  157.7482  131.0041  150.3061 LP  0  0  0  0  0  0  0  0  0  0  0  0  # atno 17370 bound_to 10713
  156.3509  130.3831  149.7330 LP  0  0  0  0  0  0  0  0  0  0  0  0  # atno 17371 bound_to 10713
  141.2190  133.7409  156.9185 LP  0  0  0  0  0  0  0  0  0  0  0  0  # atno 17394 bound_to 11000
  140.1466  134.9258  157.2537 LP  0  0  0  0  0  0  0  0  0  0  0  0  # atno 17395 bound_to 11000

$$$$
