AV-unprocessed.smi:2079|AV-procd|sdf|8483|dock6
  -GOLD-   2272011183D 1   1.00000     0.00000
 Structure written by MMmdl.
 41 42  0  0  0  0  0  0  0  0  3 V2000
  147.6272  135.8772  162.8740 C   0  0  0  0  0  0  0  0  0  0  0  0
  147.7078  135.9407  161.3868 C   0  0  0  0  0  0  0  0  0  0  0  0
  147.7587  134.9771  160.4195 C   0  0  0  0  0  0  0  0  0  0  0  0
  147.8208  135.7312  159.2176 C   0  0  0  0  0  0  0  0  0  0  0  0
  147.8913  135.0808  157.9576 N   0  0  0  0  0  0  0  0  0  0  0  0
  148.5074  133.9283  157.6389 C   0  0  0  0  0  0  0  0  0  0  0  0
  149.1510  133.3055  158.4919 O   0  0  0  0  0  0  0  0  0  0  0  0
  148.3090  133.5788  156.3379 N   0  5  0  0  0  0  0  0  0  0  0  0
  147.1214  133.9112  155.5467 C   0  0  0  0  0  0  0  0  0  0  0  0
  147.3630  135.1743  154.6896 C   0  0  0  0  0  0  0  0  0  0  0  0
  147.0964  134.9375  153.2388 N   0  3  2  0  0  0  0  0  0  0  0  0
  145.8011  135.5497  152.8211 C   0  0  0  0  0  0  0  0  0  0  0  0
  145.5768  135.4556  151.3079 C   0  0  0  0  0  0  0  0  0  0  0  0
  145.6143  133.9943  150.8637 C   0  0  0  0  0  0  0  0  0  0  0  0
  146.9536  133.3795  151.2758 C   0  0  0  0  0  0  0  0  0  0  0  0
  147.2299  133.5115  152.7917 C   0  0  1  0  0  0  0  0  0  0  0  0
  148.6303  132.9189  153.0653 C   0  0  0  0  0  0  0  0  0  0  0  0
  147.8142  137.0385  159.4330 N   0  0  0  0  0  0  0  0  0  0  0  0
  147.7394  137.1792  160.8237 O   0  0  0  0  0  0  0  0  0  0  0  0
  148.4324  135.2635  163.2778 H   0  0  0  0  0  0  0  0  0  0  0  0
  146.6790  135.4420  163.1898 H   0  0  0  0  0  0  0  0  0  0  0  0
  147.7064  136.8707  163.3159 H   0  0  0  0  0  0  0  0  0  0  0  0
  147.7498  133.9056  160.5520 H   0  0  0  0  0  0  0  0  0  0  0  0
  147.4069  135.5421  157.2019 H   0  0  0  0  0  0  0  0  0  0  0  0
  146.8645  133.0895  154.8786 H   0  0  0  0  0  0  0  0  0  0  0  0
  146.2365  134.0621  156.1662 H   0  0  0  0  0  0  0  0  0  0  0  0
  146.7738  135.9952  155.0917 H   0  0  0  0  0  0  0  0  0  0  0  0
  148.3953  135.5014  154.8230 H   0  0  0  0  0  0  0  0  0  0  0  0
  144.9812  135.0570  153.3462 H   0  0  0  0  0  0  0  0  0  0  0  0
  145.7759  136.5997  153.1155 H   0  0  0  0  0  0  0  0  0  0  0  0
  144.6174  135.9018  151.0441 H   0  0  0  0  0  0  0  0  0  0  0  0
  146.3431  136.0275  150.7823 H   0  0  0  0  0  0  0  0  0  0  0  0
  144.7920  133.4413  151.3195 H   0  0  0  0  0  0  0  0  0  0  0  0
  145.4826  133.9240  149.7835 H   0  0  0  0  0  0  0  0  0  0  0  0
  146.9721  132.3290  150.9830 H   0  0  0  0  0  0  0  0  0  0  0  0
  147.7537  133.8662  150.7155 H   0  0  0  0  0  0  0  0  0  0  0  0
  146.4889  132.9214  153.3333 H   0  0  0  0  0  0  0  0  0  0  0  0
  148.7079  131.9113  152.6561 H   0  0  0  0  0  0  0  0  0  0  0  0
  148.8677  132.8340  154.1239 H   0  0  0  0  0  0  0  0  0  0  0  0
  149.4116  133.5171  152.5960 H   0  0  0  0  0  0  0  0  0  0  0  0
  147.8242  135.4434  152.7522 H   0  0  0  0  0  0  0  0  0  0  0  0
  1  2  1  0  0  0  0
  1 20  1  0  0  0  0
  1 21  1  0  0  0  0
  1 22  1  0  0  0  0
  2 19  1  0  0  0  0
  2  3  2  0  0  0  0
  3  4  1  0  0  0  0
  3 23  1  0  0  0  0
  4  5  1  0  0  0  0
  4 18  2  0  0  0  0
  5  6  1  0  0  0  0
  5 24  1  0  0  0  0
  6  7  2  0  0  0  0
  6  8  1  0  0  0  0
  8  9  1  0  0  0  0
  9 10  1  0  0  0  0
  9 25  1  0  0  0  0
  9 26  1  0  0  0  0
 10 11  1  0  0  0  0
 10 27  1  0  0  0  0
 10 28  1  0  0  0  0
 11 16  1  0  0  0  0
 11 12  1  0  0  0  0
 11 41  1  0  0  0  0
 12 13  1  0  0  0  0
 12 29  1  0  0  0  0
 12 30  1  0  0  0  0
 13 14  1  0  0  0  0
 13 31  1  0  0  0  0
 13 32  1  0  0  0  0
 14 15  1  0  0  0  0
 14 33  1  0  0  0  0
 14 34  1  0  0  0  0
 15 16  1  0  0  0  0
 15 35  1  0  0  0  0
 15 36  1  0  0  0  0
 16 17  1  0  0  0  0
 16 37  1  0  0  0  0
 17 38  1  0  0  0  0
 17 39  1  0  0  0  0
 17 40  1  0  0  0  0
 18 19  1  0  0  0  0
M  CHG  1   8  -1
M  CHG  1  11   1
M  END
> <s_m_source_file>
AV-unprocessed.smi

> <i_m_source_file_index>
2079

> <i_lp_mmshare_version>
43012

> <i_f3d_flags>
0

> <s_epik_input>
W0NIM11jMVtjSF1jKG5vMSlbTkhdQyg9TylbTkhdW0NIMl1bQ0gyXU4yW0NIMl1bQ0gyXVtDSDJdW0NIMl1bQ0BIXTJbQ0gzXQ==

> <s_epik_cmdline>
J2VwaWtfcHl0aG9uJywgJy1waCcsICc3LjAnLCAnLXRuJywgJzgnLCAnLW1hJywgJzIwMCcsICctbWV0YWxfYmluZGluZycsICctaW1hZScsICc8aW5maWxlLm1hZT4nLCAnLW9tYWUnLCAnPG91dGZpbGUubWFlPic=

> <r_epik_Ionization_Penalty>
6.7666

> <r_epik_Ionization_Penalty_Charging>
6.7666

> <r_epik_Ionization_Penalty_Neutral>
5.77131e-06

> <r_epik_State_Penalty>
6.79217

> <r_epik_Charging_Adjusted_Penalty>
13.5588

> <i_epik_Tot_Q>
0

> <i_epik_Tot_abs_Q>
2

> <r_epik_Metal_State_Penalty>
2.72569

> <b_epik_Metal_Only>
1

> <s_lp_Force_Field>
OPLS_2005

> <r_lp_Energy>
12.5834

> <b_lp_Chiralities_Consistent>
1

> <s_lp_Variant>
AV-unprocessed.smi:2079-9

> <Gold.Version>
5.8.1

> <Gold.Id.Protein>
6NUR|6NUR_protein|mol2

> <Gold.PLP.Fitness>
41.0192

> <Gold.PLP.PLP>
-29.7410

> <Gold.PLP.part.hbond>
-4.0000

> <Gold.PLP.part.metal>
0.0000

> <Gold.PLP.part.buried>
-4.1316

> <Gold.PLP.part.nonpolar>
-22.1354

> <Gold.PLP.part.repulsive>
0.0391

> <Gold.PLP.ligand.clash>
0.0000

> <Gold.PLP.ligand.torsion>
1.5184

> <Gold.PLP.Chemscore.Hbond>
4.7280

> <Gold.PLP.Chemscore.CHOScore>
0.0000

> <Gold.PLP.Chemscore.Metal>
0.0000

> <Gold.Chemscore.Hbonds>
donor molecule, donor type, donor heavy atom, donor atom, acceptor molecule, acceptor atom, score
      L1  H    11    41       P1  7948  2.00
      P1  H  6896  6909       L1     7  1.00
      P1  H  6931  6943       L1    19  0.85
      P1  H  6934  6947       L1    19  0.90

> <Gold.PLP.Chemscore.Internal.Correction>
0.1310

> <Gold.Rescore>
     Score         DG    S(hbond)    S(metal)    S(lipo)     H(rot)  DE(clash)    DE(int)     intcor
     17.58     -19.30       3.21        0.00      60.11       1.54       0.02       1.70       ----

> <Gold.Chemscore.Fitness>
17.5757

> <Gold.Chemscore.DG>
-19.2951

> <Gold.Chemscore.ZeroCoef>
-5.4800

> <Gold.Chemscore.Hbond>
3.2116

> <Gold.Chemscore.Metal>
0.0000

> <Gold.Chemscore.Lipo>
60.1100

> <Gold.Chemscore.Internal_Hbond>
0.0000

> <Gold.Chemscore.DEClash>
0.0162

> <Gold.Chemscore.DEInternal>
1.7031

> <Gold.Chemscore.Rot>
1.5409

> <Gold.Chemscore.Internal.Correction>
   9.000000E+99

> <Gold.Chemscore.Hbonds>
donor molecule, donor type, donor heavy atom, donor atom, acceptor molecule, acceptor atom, score
      L1  H    11    41       P1  7948  0.99
      P1  H  6896  6909       L1     7  1.00
      P1  H  6931  6943       L1    19  0.49
      P1  H  6934  6947       L1    19  0.22

> <Gold.Chemscore.Hbond.Weighted>
-10.7268

> <Gold.Chemscore.Metal.Weighted>
-0.0000

> <Gold.Chemscore.Lipo.Weighted>
-7.0329

> <Gold.Chemscore.Internal_Hbond.Weighted>
0.0000

> <Gold.Chemscore.DEClash.Weighted>
0.0162

> <Gold.Chemscore.DEInternal.Weighted>
1.7031

> <Gold.Chemscore.Rot.Weighted>
3.9446

> <Gold.Chemscore.Internal.Correction.Weighted>
   9.000000E+99

> <Gold.Protein.RotatedTorsions>
[ 6907 6896 6895 6894 ] final    1.23 input  -60.11 | X-H torsion
[ 7974 7965 7964 7962 ] final  -41.72 input  175.53 | X-H torsion
[ 8008 7997 7996 7995 ] final  114.06 input   59.86 | X-H torsion
[ 10167 10162 10161 10158 ] final  -22.44 input  -65.29 | X-H torsion
[ 10718 10713 10712 10709 ] final  103.95 input   66.30 | X-H torsion
[ 10763 10752 10751 10750 ] final   16.30 input  -60.55 | X-H torsion
[ 11005 11000 10999 10996 ] final -101.41 input  -57.11 | X-H torsion

> <Gold.Protein.ActiveResidues>
 VAL166  LYS551  ARG553  GLY616  TRP617  ASP618  TYR619  PRO620  LYS621  CYS622 
 ASP623  PHE694  ASN695  SER759  ASP760  ASP761  ALA762  ILE779  LEU786  VAL792 
 PHE793  MET794  SER795  GLU796  ALA797  LYS798  CYS799  TRP800  GLU811  SER814 

> <Gold.Protein.RotatedAtoms>
  151.5893  135.1054  160.0035 H   0  0  0  0  0  0  0  0  0  0  0  0  # atno 6907 bound_to 6896
  152.4314  133.7281  159.6582 H   0  0  0  0  0  0  0  0  0  0  0  0  # atno 6908 bound_to 6896
  150.8207  133.8187  159.3163 H   0  0  0  0  0  0  0  0  0  0  0  0  # atno 6909 bound_to 6896
  146.0184  140.6880  142.9190 H   0  0  0  0  0  0  0  0  0  0  0  0  # atno 7974 bound_to 7965
  156.2298  140.2967  156.0158 H   0  0  0  0  0  0  0  0  0  0  0  0  # atno 8008 bound_to 7997
  155.2257  140.0417  157.2972 H   0  0  0  0  0  0  0  0  0  0  0  0  # atno 8009 bound_to 7997
  154.5976  140.2418  155.7844 H   0  0  0  0  0  0  0  0  0  0  0  0  # atno 8010 bound_to 7997
  140.7286  143.4535  151.0482 H   0  0  0  0  0  0  0  0  0  0  0  0  # atno 10167 bound_to 10162
  157.6756  131.0791  150.5632 H   0  0  0  0  0  0  0  0  0  0  0  0  # atno 10718 bound_to 10713
  153.1443  135.6766  153.8978 H   0  0  0  0  0  0  0  0  0  0  0  0  # atno 10763 bound_to 10752
  153.8425  135.3103  155.3428 H   0  0  0  0  0  0  0  0  0  0  0  0  # atno 10764 bound_to 10752
  154.7813  135.4887  153.9935 H   0  0  0  0  0  0  0  0  0  0  0  0  # atno 10765 bound_to 10752
  141.1232  133.8476  157.1228 H   0  0  0  0  0  0  0  0  0  0  0  0  # atno 11005 bound_to 11000
  144.6980  140.3522  143.7179 LP  0  0  0  0  0  0  0  0  0  0  0  0  # atno 17320 bound_to 7965
  145.7232  139.1715  143.2472 LP  0  0  0  0  0  0  0  0  0  0  0  0  # atno 17321 bound_to 7965
  139.8213  143.7816  152.3177 LP  0  0  0  0  0  0  0  0  0  0  0  0  # atno 17342 bound_to 10162
  139.7899  144.7414  150.9969 LP  0  0  0  0  0  0  0  0  0  0  0  0  # atno 17343 bound_to 10162
  156.5934  130.4335  149.5927 LP  0  0  0  0  0  0  0  0  0  0  0  0  # atno 17370 bound_to 10713
  156.2564  130.6937  151.1692 LP  0  0  0  0  0  0  0  0  0  0  0  0  # atno 17371 bound_to 10713
  140.0206  134.9947  157.0584 LP  0  0  0  0  0  0  0  0  0  0  0  0  # atno 17394 bound_to 11000
  140.4445  134.1646  155.7176 LP  0  0  0  0  0  0  0  0  0  0  0  0  # atno 17395 bound_to 11000

$$$$
