AV-unprocessed.smi:876|AV-procd|sdf|4021|dock8
  -GOLD-   22720 1513D 1   1.00000     0.00000
 Structure written by MMmdl.
 41 42  0  0  0  0  0  0  0  0  2 V2000
  152.1525  142.3279  158.6048 C   0  0  0  0  0  0  0  0  0  0  0  0
  151.4185  142.7654  157.4245 N   0  0  0  0  0  0  0  0  0  0  0  0
  151.2989  144.1865  157.1181 C   0  0  0  0  0  0  0  0  0  0  0  0
  150.9066  141.8080  156.5220 C   0  0  0  0  0  0  0  0  0  0  0  0
  151.5417  140.5684  156.2629 C   0  0  0  0  0  0  0  0  0  0  0  0
  150.9695  139.6607  155.3477 C   0  0  0  0  0  0  0  0  0  0  0  0
  149.7548  139.9938  154.6998 C   0  0  0  0  0  0  0  0  0  0  0  0
  149.1019  139.1621  153.7503 N   0  0  0  0  0  0  0  0  0  0  0  0
  147.8031  139.1457  153.4036 C   0  0  0  0  0  0  0  0  0  0  0  0
  146.9356  139.8914  153.8578 O   0  0  0  0  0  0  0  0  0  0  0  0
  147.5621  138.2147  152.4700 N   0  0  0  0  0  0  0  0  0  0  0  0
  146.2590  137.9551  151.8684 C   0  0  2  0  0  0  0  0  0  0  0  0
  145.2814  137.4837  152.9096 C   0  0  0  0  0  0  0  0  0  0  0  0
  144.7719  136.2859  152.6319 C   0  0  0  0  0  0  0  0  0  0  0  0
  145.3212  135.6962  151.3579 C   0  0  1  0  0  0  0  0  0  0  0  0
  144.2206  135.3365  150.3448 C   0  0  0  0  0  0  0  0  0  0  0  0
  143.6343  134.0925  150.6670 O   0  0  0  0  0  0  0  0  0  0  0  0
  146.2905  136.7910  150.8428 C   0  0  0  0  0  0  0  0  0  0  0  0
  149.1714  141.2451  154.9817 C   0  0  0  0  0  0  0  0  0  0  0  0
  149.7535  142.0840  155.8653 N   0  3  0  0  0  0  0  0  0  0  0  0
  145.8648  138.8648  151.4119 H   0  0  0  0  0  0  0  0  0  0  0  0
  145.8890  134.8012  151.6169 H   0  0  0  0  0  0  0  0  0  0  0  0
  153.0208  141.7335  158.3187 H   0  0  0  0  0  0  0  0  0  0  0  0
  151.5139  141.7249  159.2513 H   0  0  0  0  0  0  0  0  0  0  0  0
  152.5083  143.1774  159.1881 H   0  0  0  0  0  0  0  0  0  0  0  0
  150.2535  144.4638  156.9789 H   0  0  0  0  0  0  0  0  0  0  0  0
  151.8472  144.4289  156.2070 H   0  0  0  0  0  0  0  0  0  0  0  0
  151.7001  144.8012  157.9240 H   0  0  0  0  0  0  0  0  0  0  0  0
  152.4664  140.2965  156.7498 H   0  0  0  0  0  0  0  0  0  0  0  0
  151.4838  138.7325  155.1534 H   0  0  0  0  0  0  0  0  0  0  0  0
  149.7054  138.5424  153.2298 H   0  0  0  0  0  0  0  0  0  0  0  0
  148.3330  137.6489  152.1459 H   0  0  0  0  0  0  0  0  0  0  0  0
  145.0285  138.0800  153.7741 H   0  0  0  0  0  0  0  0  0  0  0  0
  144.0520  135.7618  153.2433 H   0  0  0  0  0  0  0  0  0  0  0  0
  143.4460  136.1041  150.3224 H   0  0  0  0  0  0  0  0  0  0  0  0
  144.6391  135.2701  149.3400 H   0  0  0  0  0  0  0  0  0  0  0  0
  142.7516  134.0801  150.3294 H   0  0  0  0  0  0  0  0  0  0  0  0
  145.9898  137.1558  149.8596 H   0  0  0  0  0  0  0  0  0  0  0  0
  147.2939  136.3787  150.7262 H   0  0  0  0  0  0  0  0  0  0  0  0
  148.2541  141.5997  154.5340 H   0  0  0  0  0  0  0  0  0  0  0  0
  149.2979  142.9782  156.0485 H   0  0  0  0  0  0  0  0  0  0  0  0
  1  2  1  0  0  0  0
  1 23  1  0  0  0  0
  1 24  1  0  0  0  0
  1 25  1  0  0  0  0
  2  3  1  0  0  0  0
  2  4  1  0  0  0  0
  3 26  1  0  0  0  0
  3 27  1  0  0  0  0
  3 28  1  0  0  0  0
  4 20  1  0  0  0  0
  4  5  2  0  0  0  0
  5  6  1  0  0  0  0
  5 29  1  0  0  0  0
  6  7  2  0  0  0  0
  6 30  1  0  0  0  0
  7  8  1  0  0  0  0
  7 19  1  0  0  0  0
  8  9  1  0  0  0  0
  8 31  1  0  0  0  0
  9 10  2  0  0  0  0
  9 11  1  0  0  0  0
 11 12  1  0  0  0  0
 11 32  1  0  0  0  0
 12 21  1  0  0  0  0
 12 18  1  0  0  0  0
 12 13  1  0  0  0  0
 13 14  2  0  0  0  0
 13 33  1  0  0  0  0
 14 15  1  0  0  0  0
 14 34  1  0  0  0  0
 15 22  1  0  0  0  0
 15 16  1  0  0  0  0
 15 18  1  0  0  0  0
 16 17  1  0  0  0  0
 16 35  1  0  0  0  0
 16 36  1  0  0  0  0
 17 37  1  0  0  0  0
 18 38  1  0  0  0  0
 18 39  1  0  0  0  0
 19 20  2  0  0  0  0
 19 40  1  0  0  0  0
 20 41  1  0  0  0  0
M  CHG  1  20   1
M  END
> <s_m_source_file>
AV-unprocessed.smi

> <i_m_source_file_index>
876

> <i_lp_mmshare_version>
43012

> <i_f3d_flags>
0

> <s_epik_input>
W0NIM11OKFtDSDNdKWMxW2NIXVtjSF1jKFtjSF1uMSlbTkhdQyg9TylbTkhdW0NAQEhdMltDSF09W0NIXVtDQEBIXShbQ0gyXTIpW0NIMl1bT0hd

> <s_epik_cmdline>
J2VwaWtfcHl0aG9uJywgJy1waCcsICc3LjAnLCAnLXRuJywgJzgnLCAnLW1hJywgJzIwMCcsICctbWV0YWxfYmluZGluZycsICctaW1hZScsICc8aW5maWxlLm1hZT4nLCAnLW9tYWUnLCAnPG91dGZpbGUubWFlPic=

> <r_lp_tautomer_probability>
0.999994

> <r_epik_Ionization_Penalty>
0.257994

> <r_epik_Ionization_Penalty_Charging>
0.257974

> <r_epik_Ionization_Penalty_Neutral>
1.95938e-05

> <r_epik_State_Penalty>
0.249586

> <r_epik_Charging_Adjusted_Penalty>
0.50756

> <i_epik_Tot_Q>
1

> <i_epik_Tot_abs_Q>
1

> <r_epik_Metal_State_Penalty>
0.538508

> <b_epik_Metal_Only>
0

> <s_lp_Force_Field>
OPLS_2005

> <r_lp_Energy>
26.2592

> <b_lp_Chiralities_Consistent>
1

> <s_lp_Variant>
AV-unprocessed.smi:876-3

> <Gold.Version>
5.8.1

> <Gold.Id.Protein>
6NUR|6NUR_protein|mol2

> <Gold.PLP.Fitness>
47.5697

> <Gold.PLP.PLP>
-37.1441

> <Gold.PLP.part.hbond>
-4.9227

> <Gold.PLP.part.metal>
0.0000

> <Gold.PLP.part.buried>
1.3101

> <Gold.PLP.part.nonpolar>
-35.0375

> <Gold.PLP.part.repulsive>
0.4252

> <Gold.PLP.ligand.clash>
0.0000

> <Gold.PLP.ligand.torsion>
0.7986

> <Gold.PLP.Chemscore.Hbond>
4.0000

> <Gold.PLP.Chemscore.CHOScore>
0.0000

> <Gold.PLP.Chemscore.Metal>
0.0000

> <Gold.Chemscore.Hbonds>
donor molecule, donor type, donor heavy atom, donor atom, acceptor molecule, acceptor atom, score
      L1  H    11    32       P1  7948  1.00
      L1  H    17    37       P1 10186  1.00
      L1  H    20    41       P1  8028  2.00

> <Gold.PLP.Chemscore.Internal.Correction>
0.0228

> <Gold.Rescore>
     Score         DG    S(hbond)    S(metal)    S(lipo)     H(rot)  DE(clash)    DE(int)     intcor
     17.00     -20.45       2.92        0.00      84.43       1.82       1.33       2.12       ----

> <Gold.Chemscore.Fitness>
16.9960

> <Gold.Chemscore.DG>
-20.4458

> <Gold.Chemscore.ZeroCoef>
-5.4800

> <Gold.Chemscore.Hbond>
2.9180

> <Gold.Chemscore.Metal>
0.0000

> <Gold.Chemscore.Lipo>
84.4277

> <Gold.Chemscore.Internal_Hbond>
0.0000

> <Gold.Chemscore.DEClash>
1.3272

> <Gold.Chemscore.DEInternal>
2.1226

> <Gold.Chemscore.Rot>
1.8197

> <Gold.Chemscore.Internal.Correction>
   9.000000E+99

> <Gold.Chemscore.Hbonds>
donor molecule, donor type, donor heavy atom, donor atom, acceptor molecule, acceptor atom, score
      L1  H    11    32       P1  7948  0.90
      L1  H    17    37       P1 10186  0.92
      L1  H    20    41       P1  8028  0.98

> <Gold.Chemscore.Hbond.Weighted>
-9.7463

> <Gold.Chemscore.Metal.Weighted>
-0.0000

> <Gold.Chemscore.Lipo.Weighted>
-9.8780

> <Gold.Chemscore.Internal_Hbond.Weighted>
0.0000

> <Gold.Chemscore.DEClash.Weighted>
1.3272

> <Gold.Chemscore.DEInternal.Weighted>
2.1226

> <Gold.Chemscore.Rot.Weighted>
4.6585

> <Gold.Chemscore.Internal.Correction.Weighted>
   9.000000E+99

> <Gold.Protein.RotatedTorsions>
[ 6907 6896 6895 6894 ] final   92.29 input  -60.11 | X-H torsion
[ 7974 7965 7964 7962 ] final   38.76 input  175.53 | X-H torsion
[ 8008 7997 7996 7995 ] final  -76.32 input   59.86 | X-H torsion
[ 10167 10162 10161 10158 ] final  -53.54 input  -65.29 | X-H torsion
[ 10718 10713 10712 10709 ] final    9.42 input   66.30 | X-H torsion
[ 10763 10752 10751 10750 ] final  127.61 input  -60.55 | X-H torsion
[ 11005 11000 10999 10996 ] final   22.42 input  -57.11 | X-H torsion

> <Gold.Protein.ActiveResidues>
 VAL166  LYS551  ARG553  GLY616  TRP617  ASP618  TYR619  PRO620  LYS621  CYS622 
 ASP623  PHE694  ASN695  SER759  ASP760  ASP761  ALA762  ILE779  LEU786  VAL792 
 PHE793  MET794  SER795  GLU796  ALA797  LYS798  CYS799  TRP800  GLU811  SER814 

> <Gold.Protein.RotatedAtoms>
  152.5452  134.1524  159.8523 H   0  0  0  0  0  0  0  0  0  0  0  0  # atno 6907 bound_to 6896
  151.1550  133.4875  159.2602 H   0  0  0  0  0  0  0  0  0  0  0  0  # atno 6908 bound_to 6896
  151.1432  135.0201  159.8690 H   0  0  0  0  0  0  0  0  0  0  0  0  # atno 6909 bound_to 6896
  146.1037  139.5733  142.9397 H   0  0  0  0  0  0  0  0  0  0  0  0  # atno 7974 bound_to 7965
  154.5494  140.0729  156.8643 H   0  0  0  0  0  0  0  0  0  0  0  0  # atno 8008 bound_to 7997
  155.3022  140.3385  155.4229 H   0  0  0  0  0  0  0  0  0  0  0  0  # atno 8009 bound_to 7997
  156.1948  140.1699  156.8006 H   0  0  0  0  0  0  0  0  0  0  0  0  # atno 8010 bound_to 7997
  140.6479  143.2547  151.4807 H   0  0  0  0  0  0  0  0  0  0  0  0  # atno 10167 bound_to 10162
  156.9660  130.5951  149.5665 H   0  0  0  0  0  0  0  0  0  0  0  0  # atno 10718 bound_to 10713
  153.7121  135.3266  155.3248 H   0  0  0  0  0  0  0  0  0  0  0  0  # atno 10763 bound_to 10752
  154.8381  135.4479  154.1303 H   0  0  0  0  0  0  0  0  0  0  0  0  # atno 10764 bound_to 10752
  153.2399  135.6970  153.7873 H   0  0  0  0  0  0  0  0  0  0  0  0  # atno 10765 bound_to 10752
  140.3808  134.1923  155.7663 H   0  0  0  0  0  0  0  0  0  0  0  0  # atno 11005 bound_to 11000
  145.5804  141.0383  143.2125 LP  0  0  0  0  0  0  0  0  0  0  0  0  # atno 17320 bound_to 7965
  144.7453  139.7337  143.7294 LP  0  0  0  0  0  0  0  0  0  0  0  0  # atno 17321 bound_to 7965
  139.5691  144.1971  152.1810 LP  0  0  0  0  0  0  0  0  0  0  0  0  # atno 17342 bound_to 10162
  140.1261  144.5330  150.6831 LP  0  0  0  0  0  0  0  0  0  0  0  0  # atno 17343 bound_to 10162
  156.0302  130.5394  150.8514 LP  0  0  0  0  0  0  0  0  0  0  0  0  # atno 17370 bound_to 10713
  157.5625  131.0946  150.9538 LP  0  0  0  0  0  0  0  0  0  0  0  0  # atno 17371 bound_to 10713
  141.1924  133.8174  157.0841 LP  0  0  0  0  0  0  0  0  0  0  0  0  # atno 17394 bound_to 11000
  140.0480  134.9820  157.1084 LP  0  0  0  0  0  0  0  0  0  0  0  0  # atno 17395 bound_to 11000

$$$$
