AV-unprocessed.smi:2438|AV-procd|sdf|9595|dock4
  -GOLD-   2272013223D 1   1.00000     0.00000
 Structure written by MMmdl.
 43 44  0  0  0  0  0  0  0  0  1 V2000
  145.7974  142.8459  153.8943 C   0  0  0  0  0  0  0  0  0  0  0  0
  146.7288  142.0689  154.7007 N   0  0  0  0  0  0  0  0  0  0  0  0
  147.7052  141.2737  153.9666 C   0  0  0  0  0  0  0  0  0  0  0  0
  146.1187  141.4438  155.8070 C   0  0  0  0  0  0  0  0  0  0  0  0
  144.9815  140.7390  155.5908 N   0  0  0  0  0  0  0  0  0  0  0  0
  144.3995  140.1663  156.6455 C   0  0  0  0  0  0  0  0  0  0  0  0
  144.8235  140.2063  157.9084 N   0  0  0  0  0  0  0  0  0  0  0  0
  145.9552  140.9009  158.1474 C   0  0  0  0  0  0  0  0  0  0  0  0
  146.6612  141.5652  157.1137 C   0  0  0  0  0  0  0  0  0  0  0  0
  147.8828  142.2642  157.3222 N   0  0  0  0  0  0  0  0  0  0  0  0
  148.3294  142.8333  158.4534 C   0  0  0  0  0  0  0  0  0  0  0  0
  147.7421  142.8214  159.5348 O   0  0  0  0  0  0  0  0  0  0  0  0
  149.5034  143.4479  158.2528 N   0  0  0  0  0  0  0  0  0  0  0  0
  150.2551  144.1942  159.2609 C   0  0  2  0  0  0  0  0  0  0  0  0
  151.0379  145.3651  158.6302 C   0  0  0  0  0  0  0  0  0  0  0  0
  152.2117  144.8756  157.7669 C   0  0  0  0  0  0  0  0  0  0  0  0
  153.1462  143.9554  158.5677 C   0  0  0  0  0  0  0  0  0  0  0  0
  152.3865  142.7547  159.1703 C   0  0  1  0  0  0  0  0  0  0  0  0
  153.3217  141.8179  159.9628 C   0  0  0  0  0  0  0  0  0  0  0  0
  154.5031  141.7004  159.3560 F   0  0  0  0  0  0  0  0  0  0  0  0
  153.5137  142.2988  161.1913 F   0  0  0  0  0  0  0  0  0  0  0  0
  152.7709  140.6089  160.0719 F   0  0  0  0  0  0  0  0  0  0  0  0
  151.2009  143.2503  160.0306 C   0  0  0  0  0  0  0  0  0  0  0  0
  145.3055  143.6213  154.4814 H   0  0  0  0  0  0  0  0  0  0  0  0
  145.0285  142.1989  153.4703 H   0  0  0  0  0  0  0  0  0  0  0  0
  146.3208  143.3343  153.0718 H   0  0  0  0  0  0  0  0  0  0  0  0
  148.3767  140.7522  154.6499 H   0  0  0  0  0  0  0  0  0  0  0  0
  148.3114  141.9167  153.3282 H   0  0  0  0  0  0  0  0  0  0  0  0
  147.2100  140.5355  153.3347 H   0  0  0  0  0  0  0  0  0  0  0  0
  143.4937  139.6099  156.4559 H   0  0  0  0  0  0  0  0  0  0  0  0
  146.2983  140.8914  159.1703 H   0  0  0  0  0  0  0  0  0  0  0  0
  148.4326  142.4287  156.4914 H   0  0  0  0  0  0  0  0  0  0  0  0
  149.9062  143.4056  157.3281 H   0  0  0  0  0  0  0  0  0  0  0  0
  149.5400  144.6025  159.9775 H   0  0  0  0  0  0  0  0  0  0  0  0
  150.3752  145.9963  158.0371 H   0  0  0  0  0  0  0  0  0  0  0  0
  151.4255  146.0025  159.4260 H   0  0  0  0  0  0  0  0  0  0  0  0
  151.8322  144.3439  156.8935 H   0  0  0  0  0  0  0  0  0  0  0  0
  152.7712  145.7304  157.3860 H   0  0  0  0  0  0  0  0  0  0  0  0
  153.9489  143.6046  157.9187 H   0  0  0  0  0  0  0  0  0  0  0  0
  153.6232  144.5284  159.3638 H   0  0  0  0  0  0  0  0  0  0  0  0
  151.9792  142.1737  158.3415 H   0  0  0  0  0  0  0  0  0  0  0  0
  151.5883  143.7771  160.9036 H   0  0  0  0  0  0  0  0  0  0  0  0
  150.6358  142.4022  160.4193 H   0  0  0  0  0  0  0  0  0  0  0  0
  1  2  1  0  0  0  0
  1 24  1  0  0  0  0
  1 25  1  0  0  0  0
  1 26  1  0  0  0  0
  2  3  1  0  0  0  0
  2  4  1  0  0  0  0
  3 27  1  0  0  0  0
  3 28  1  0  0  0  0
  3 29  1  0  0  0  0
  4  9  1  0  0  0  0
  4  5  2  0  0  0  0
  5  6  1  0  0  0  0
  6  7  2  0  0  0  0
  6 30  1  0  0  0  0
  7  8  1  0  0  0  0
  8  9  2  0  0  0  0
  8 31  1  0  0  0  0
  9 10  1  0  0  0  0
 10 11  1  0  0  0  0
 10 32  1  0  0  0  0
 11 12  2  0  0  0  0
 11 13  1  0  0  0  0
 13 14  1  0  0  0  0
 13 33  1  0  0  0  0
 14 23  1  0  0  0  0
 14 15  1  0  0  0  0
 14 34  1  0  0  0  0
 15 16  1  0  0  0  0
 15 35  1  0  0  0  0
 15 36  1  0  0  0  0
 16 17  1  0  0  0  0
 16 37  1  0  0  0  0
 16 38  1  0  0  0  0
 17 18  1  0  0  0  0
 17 39  1  0  0  0  0
 17 40  1  0  0  0  0
 18 19  1  0  0  0  0
 18 23  1  0  0  0  0
 18 41  1  0  0  0  0
 19 20  1  0  0  0  0
 19 21  1  0  0  0  0
 19 22  1  0  0  0  0
 23 42  1  0  0  0  0
 23 43  1  0  0  0  0
M  END
> <s_m_source_file>
AV-unprocessed.smi

> <i_m_source_file_index>
2438

> <i_lp_mmshare_version>
43012

> <i_f3d_flags>
0

> <s_epik_input>
W0NIM11OKFtDSDNdKWMxbltjSF1uW2NIXWMxW05IXUMoPU8pW05IXVtDQEBIXTJbQ0gyXVtDSDJdW0NIMl1bQ0BASF0oQyhGKShGKUYpW0NIMl0y

> <s_epik_cmdline>
J2VwaWtfcHl0aG9uJywgJy1waCcsICc3LjAnLCAnLXRuJywgJzgnLCAnLW1hJywgJzIwMCcsICctbWV0YWxfYmluZGluZycsICctaW1hZScsICc8aW5maWxlLm1hZT4nLCAnLW9tYWUnLCAnPG91dGZpbGUubWFlPic=

> <r_lp_tautomer_probability>
1

> <r_epik_Ionization_Penalty>
0.01759

> <r_epik_Ionization_Penalty_Charging>
0

> <r_epik_Ionization_Penalty_Neutral>
0.01759

> <r_epik_State_Penalty>
0.0133536

> <r_epik_Charging_Adjusted_Penalty>
0.0133536

> <i_epik_Tot_Q>
0

> <i_epik_Tot_abs_Q>
0

> <r_epik_Metal_State_Penalty>
0.0129828

> <b_epik_Metal_Only>
0

> <s_lp_Force_Field>
OPLS_2005

> <r_lp_Energy>
11.7103

> <b_lp_Chiralities_Consistent>
1

> <s_lp_Variant>
AV-unprocessed.smi:2438-1

> <Gold.Version>
5.8.1

> <Gold.Id.Protein>
6NUR|6NUR_protein|mol2

> <Gold.PLP.Fitness>
40.9609

> <Gold.PLP.PLP>
-41.5942

> <Gold.PLP.part.hbond>
-3.5721

> <Gold.PLP.part.metal>
0.0000

> <Gold.PLP.part.buried>
-4.7394

> <Gold.PLP.part.nonpolar>
-34.0486

> <Gold.PLP.part.repulsive>
0.4948

> <Gold.PLP.ligand.clash>
0.0994

> <Gold.PLP.ligand.torsion>
1.5075

> <Gold.PLP.Chemscore.Hbond>
0.7119

> <Gold.PLP.Chemscore.CHOScore>
0.0000

> <Gold.PLP.Chemscore.Metal>
0.0000

> <Gold.Chemscore.Hbonds>
donor molecule, donor type, donor heavy atom, donor atom, acceptor molecule, acceptor atom, score
      L1  H    13    33       P1  8028  0.07
      P1  H  6933  6944       L1    12  0.55
      P1  H  6934  6946       L1    12  0.02

> <Gold.PLP.Chemscore.Internal.Correction>
0.3456

> <Gold.Rescore>
     Score         DG    S(hbond)    S(metal)    S(lipo)     H(rot)  DE(clash)    DE(int)     intcor
     13.28     -15.69       0.74        0.00      94.61       1.30       0.37       2.04       ----

> <Gold.Chemscore.Fitness>
13.2815

> <Gold.Chemscore.DG>
-15.6921

> <Gold.Chemscore.ZeroCoef>
-5.4800

> <Gold.Chemscore.Hbond>
0.7388

> <Gold.Chemscore.Metal>
0.0000

> <Gold.Chemscore.Lipo>
94.6072

> <Gold.Chemscore.Internal_Hbond>
0.0000

> <Gold.Chemscore.DEClash>
0.3712

> <Gold.Chemscore.DEInternal>
2.0394

> <Gold.Chemscore.Rot>
1.2987

> <Gold.Chemscore.Internal.Correction>
   9.000000E+99

> <Gold.Chemscore.Hbonds>
donor molecule, donor type, donor heavy atom, donor atom, acceptor molecule, acceptor atom, score
      L1  H    10    32       P1  8028  0.01
      L1  H    13    33       P1  8028  0.07
      P1  H  6933  6944       L1    12  0.54
      P1  H  6934  6946       L1    12  0.04

> <Gold.Chemscore.Hbond.Weighted>
-2.4676

> <Gold.Chemscore.Metal.Weighted>
-0.0000

> <Gold.Chemscore.Lipo.Weighted>
-11.0690

> <Gold.Chemscore.Internal_Hbond.Weighted>
0.0000

> <Gold.Chemscore.DEClash.Weighted>
0.3712

> <Gold.Chemscore.DEInternal.Weighted>
2.0394

> <Gold.Chemscore.Rot.Weighted>
3.3246

> <Gold.Chemscore.Internal.Correction.Weighted>
   9.000000E+99

> <Gold.Protein.RotatedTorsions>
[ 6907 6896 6895 6894 ] final    4.97 input  -60.11 | X-H torsion
[ 7974 7965 7964 7962 ] final  107.68 input  175.53 | X-H torsion
[ 8008 7997 7996 7995 ] final  -58.62 input   59.86 | X-H torsion
[ 10167 10162 10161 10158 ] final  144.86 input  -65.29 | X-H torsion
[ 10718 10713 10712 10709 ] final -113.39 input   66.30 | X-H torsion
[ 10763 10752 10751 10750 ] final  -30.22 input  -60.55 | X-H torsion
[ 11005 11000 10999 10996 ] final   24.73 input  -57.11 | X-H torsion

> <Gold.Protein.ActiveResidues>
 VAL166  LYS551  ARG553  GLY616  TRP617  ASP618  TYR619  PRO620  LYS621  CYS622 
 ASP623  PHE694  ASN695  SER759  ASP760  ASP761  ALA762  ILE779  LEU786  VAL792 
 PHE793  MET794  SER795  GLU796  ALA797  LYS798  CYS799  TRP800  GLU811  SER814 

> <Gold.Protein.RotatedAtoms>
  151.6499  135.1003  160.0158 H   0  0  0  0  0  0  0  0  0  0  0  0  # atno 6907 bound_to 6896
  152.4007  133.6809  159.6322 H   0  0  0  0  0  0  0  0  0  0  0  0  # atno 6908 bound_to 6896
  150.7907  133.8713  159.3300 H   0  0  0  0  0  0  0  0  0  0  0  0  # atno 6909 bound_to 6896
  145.2905  139.2602  143.3867 H   0  0  0  0  0  0  0  0  0  0  0  0  # atno 7974 bound_to 7965
  154.4316  140.1080  156.5986 H   0  0  0  0  0  0  0  0  0  0  0  0  # atno 8008 bound_to 7997
  155.5936  140.3492  155.4554 H   0  0  0  0  0  0  0  0  0  0  0  0  # atno 8009 bound_to 7997
  156.0228  140.1243  157.0329 H   0  0  0  0  0  0  0  0  0  0  0  0  # atno 8010 bound_to 7997
  139.4938  144.5942  151.6617 H   0  0  0  0  0  0  0  0  0  0  0  0  # atno 10167 bound_to 10162
  156.0763  130.5970  150.8635 H   0  0  0  0  0  0  0  0  0  0  0  0  # atno 10718 bound_to 10713
  153.7774  135.6908  153.4895 H   0  0  0  0  0  0  0  0  0  0  0  0  # atno 10763 bound_to 10752
  153.1834  135.4498  155.0056 H   0  0  0  0  0  0  0  0  0  0  0  0  # atno 10764 bound_to 10752
  154.8094  135.3371  154.7280 H   0  0  0  0  0  0  0  0  0  0  0  0  # atno 10765 bound_to 10752
  140.3555  134.2182  155.7676 H   0  0  0  0  0  0  0  0  0  0  0  0  # atno 11005 bound_to 11000
  146.3186  140.3395  142.8647 LP  0  0  0  0  0  0  0  0  0  0  0  0  # atno 17320 bound_to 7965
  144.9177  140.7831  143.5768 LP  0  0  0  0  0  0  0  0  0  0  0  0  # atno 17321 bound_to 7965
  140.5576  144.0322  150.6155 LP  0  0  0  0  0  0  0  0  0  0  0  0  # atno 17342 bound_to 10162
  140.3397  143.3027  152.0601 LP  0  0  0  0  0  0  0  0  0  0  0  0  # atno 17343 bound_to 10162
  157.5861  131.0945  150.9195 LP  0  0  0  0  0  0  0  0  0  0  0  0  # atno 17370 bound_to 10713
  156.9380  130.5374  149.5280 LP  0  0  0  0  0  0  0  0  0  0  0  0  # atno 17371 bound_to 10713
  141.1999  133.7999  157.0512 LP  0  0  0  0  0  0  0  0  0  0  0  0  # atno 17394 bound_to 11000
  140.0668  134.9724  157.1400 LP  0  0  0  0  0  0  0  0  0  0  0  0  # atno 17395 bound_to 11000

$$$$
