AV-unprocessed.smi:148|AV-procd|sdf|1204|dock6
  -GOLD-   2262018373D 1   1.00000     0.00000
 Structure written by MMmdl.
 63 67  0  0  0  0  0  0  0  0  1 V2000
  146.8578  135.5990  152.6758 O   0  0  0  0  0  0  0  0  0  0  0  0
  147.0836  134.5379  153.5807 C   0  0  0  0  0  0  0  0  0  0  0  0
  146.0437  133.4050  153.3968 C   0  0  2  0  0  0  0  0  0  0  0  0
  146.3068  132.1954  154.3284 C   0  0  0  0  0  0  0  0  0  0  0  0
  146.3874  132.5658  155.7303 N   0  0  0  0  0  0  0  0  0  0  0  0
  145.3671  133.0713  156.5042 C   0  0  0  0  0  0  0  0  0  0  0  0
  145.6887  133.3488  157.7383 N   0  0  0  0  0  0  0  0  0  0  0  0
  147.0313  133.0032  157.8198 C   0  0  0  0  0  0  0  0  0  0  0  0
  148.0067  133.0724  158.8487 C   0  0  0  0  0  0  0  0  0  0  0  0
  147.7226  133.5708  160.0731 N   0  0  0  0  0  0  0  0  0  0  0  0
  147.7455  135.0354  160.0635 C   0  0  0  0  0  0  0  0  0  0  0  0
  147.7681  135.6006  161.4870 C   0  0  0  0  0  0  0  0  0  0  0  0
  146.5766  135.0597  162.2791 C   0  0  0  0  0  0  0  0  0  0  0  0
  146.5866  133.5257  162.2557 C   0  0  0  0  0  0  0  0  0  0  0  0
  146.6050  132.9470  160.8152 C   0  0  2  0  0  0  0  0  0  0  0  0
  146.6426  131.3771  160.8182 C   0  0  2  0  0  0  0  0  0  0  0  0
  145.3891  130.7145  161.4470 C   0  0  0  0  0  0  0  0  0  0  0  0
  145.8509  129.5264  162.2991 C   0  0  0  0  0  0  0  0  0  0  0  0
  147.3148  129.3196  161.9391 C   0  0  0  0  0  0  0  0  0  0  0  0
  147.8036  130.7259  161.6032 C   0  0  1  0  0  0  0  0  0  0  0  0
  148.9984  130.6411  160.8518 O   0  0  0  0  0  0  0  0  0  0  0  0
  149.2623  132.6328  158.5684 N   0  0  0  0  0  0  0  0  0  0  0  0
  149.5477  132.1667  157.3487 C   0  0  0  0  0  0  0  0  0  0  0  0
  148.7457  132.0599  156.2868 N   0  0  0  0  0  0  0  0  0  0  0  0
  147.4844  132.4954  156.5707 C   0  0  0  0  0  0  0  0  0  0  0  0
  145.9031  132.9643  151.9177 C   0  0  2  0  0  0  0  0  0  0  0  0
  145.0193  133.8567  151.0640 C   0  0  0  0  0  0  0  0  0  0  0  0
  144.7064  132.9534  149.8774 C   0  0  0  0  0  0  0  0  0  0  0  0
  144.6355  131.6375  150.4131 O   0  0  0  0  0  0  0  0  0  0  0  0
  145.2113  131.6108  151.7161 C   0  0  0  0  0  0  0  0  0  0  0  0
  147.6915  135.9767  152.4401 H   0  0  0  0  0  0  0  0  0  0  0  0
  148.0986  134.1671  153.4378 H   0  0  0  0  0  0  0  0  0  0  0  0
  147.0523  134.9329  154.5957 H   0  0  0  0  0  0  0  0  0  0  0  0
  145.0827  133.8266  153.6954 H   0  0  0  0  0  0  0  0  0  0  0  0
  145.5131  131.4547  154.2300 H   0  0  0  0  0  0  0  0  0  0  0  0
  147.2324  131.6932  154.0447 H   0  0  0  0  0  0  0  0  0  0  0  0
  144.3724  133.2387  156.1171 H   0  0  0  0  0  0  0  0  0  0  0  0
  148.6215  135.3919  159.5187 H   0  0  0  0  0  0  0  0  0  0  0  0
  146.8673  135.4108  159.5359 H   0  0  0  0  0  0  0  0  0  0  0  0
  148.6999  135.3212  161.9805 H   0  0  0  0  0  0  0  0  0  0  0  0
  147.7411  136.6901  161.4605 H   0  0  0  0  0  0  0  0  0  0  0  0
  146.6123  135.4211  163.3072 H   0  0  0  0  0  0  0  0  0  0  0  0
  145.6451  135.4296  161.8483 H   0  0  0  0  0  0  0  0  0  0  0  0
  147.4580  133.1664  162.8049 H   0  0  0  0  0  0  0  0  0  0  0  0
  145.7085  133.1825  162.8012 H   0  0  0  0  0  0  0  0  0  0  0  0
  145.6782  133.2624  160.3336 H   0  0  0  0  0  0  0  0  0  0  0  0
  146.7243  131.0278  159.7873 H   0  0  0  0  0  0  0  0  0  0  0  0
  144.8334  131.4120  162.0742 H   0  0  0  0  0  0  0  0  0  0  0  0
  144.7085  130.3684  160.6697 H   0  0  0  0  0  0  0  0  0  0  0  0
  145.7671  129.7799  163.3567 H   0  0  0  0  0  0  0  0  0  0  0  0
  145.2524  128.6314  162.1266 H   0  0  0  0  0  0  0  0  0  0  0  0
  147.8849  128.8538  162.7437 H   0  0  0  0  0  0  0  0  0  0  0  0
  147.3845  128.6745  161.0615 H   0  0  0  0  0  0  0  0  0  0  0  0
  147.9871  131.2699  162.5308 H   0  0  0  0  0  0  0  0  0  0  0  0
  149.1669  131.4846  160.4604 H   0  0  0  0  0  0  0  0  0  0  0  0
  150.5656  131.8378  157.2007 H   0  0  0  0  0  0  0  0  0  0  0  0
  146.8904  132.9164  151.4552 H   0  0  0  0  0  0  0  0  0  0  0  0
  144.1008  134.1080  151.5962 H   0  0  0  0  0  0  0  0  0  0  0  0
  145.5061  134.7844  150.7624 H   0  0  0  0  0  0  0  0  0  0  0  0
  143.7819  133.2312  149.3711 H   0  0  0  0  0  0  0  0  0  0  0  0
  145.5172  132.9894  149.1487 H   0  0  0  0  0  0  0  0  0  0  0  0
  145.9010  130.7729  151.8193 H   0  0  0  0  0  0  0  0  0  0  0  0
  144.4056  131.4738  152.4389 H   0  0  0  0  0  0  0  0  0  0  0  0
  1  2  1  0  0  0  0
  1 31  1  0  0  0  0
  2  3  1  0  0  0  0
  2 32  1  0  0  0  0
  2 33  1  0  0  0  0
  3  4  1  0  0  0  0
  3 26  1  0  0  0  0
  3 34  1  0  0  0  0
  4  5  1  0  0  0  0
  4 35  1  0  0  0  0
  4 36  1  0  0  0  0
  5 25  1  0  0  0  0
  5  6  1  0  0  0  0
  6  7  2  0  0  0  0
  6 37  1  0  0  0  0
  7  8  1  0  0  0  0
  8 25  2  0  0  0  0
  8  9  1  0  0  0  0
  9 10  1  0  0  0  0
  9 22  2  0  0  0  0
 10 15  1  0  0  0  0
 10 11  1  0  0  0  0
 11 12  1  0  0  0  0
 11 38  1  0  0  0  0
 11 39  1  0  0  0  0
 12 13  1  0  0  0  0
 12 40  1  0  0  0  0
 12 41  1  0  0  0  0
 13 14  1  0  0  0  0
 13 42  1  0  0  0  0
 13 43  1  0  0  0  0
 14 15  1  0  0  0  0
 14 44  1  0  0  0  0
 14 45  1  0  0  0  0
 15 16  1  0  0  0  0
 15 46  1  0  0  0  0
 16 20  1  0  0  0  0
 16 17  1  0  0  0  0
 16 47  1  0  0  0  0
 17 18  1  0  0  0  0
 17 48  1  0  0  0  0
 17 49  1  0  0  0  0
 18 19  1  0  0  0  0
 18 50  1  0  0  0  0
 18 51  1  0  0  0  0
 19 20  1  0  0  0  0
 19 52  1  0  0  0  0
 19 53  1  0  0  0  0
 20 21  1  0  0  0  0
 20 54  1  0  0  0  0
 21 55  1  0  0  0  0
 22 23  1  0  0  0  0
 23 24  2  0  0  0  0
 23 56  1  0  0  0  0
 24 25  1  0  0  0  0
 26 30  1  0  0  0  0
 26 27  1  0  0  0  0
 26 57  1  0  0  0  0
 27 28  1  0  0  0  0
 27 58  1  0  0  0  0
 27 59  1  0  0  0  0
 28 29  1  0  0  0  0
 28 60  1  0  0  0  0
 28 61  1  0  0  0  0
 29 30  1  0  0  0  0
 30 62  1  0  0  0  0
 30 63  1  0  0  0  0
M  END
> <s_m_source_file>
AV-unprocessed.smi

> <i_m_source_file_index>
148

> <i_lp_mmshare_version>
43012

> <i_f3d_flags>
0

> <s_epik_input>
W0NIMl0xT1tDSDJdW0NIMl1bQ0BIXTFbQ0BIXShbQ0gyXVtPSF0pW0NIMl1uKFtjSF1uMiljKGMyMyluW2NIXW5jM040W0NIMl1bQ0gyXVtDSDJdW0NIMl1bQ0BIXTRbQ0BASF01W0NIMl1bQ0gyXVtDSDJdW0NASF01W09IXQ==

> <s_epik_cmdline>
J2VwaWtfcHl0aG9uJywgJy1waCcsICc3LjAnLCAnLXRuJywgJzgnLCAnLW1hJywgJzIwMCcsICctbWV0YWxfYmluZGluZycsICctaW1hZScsICc8aW5maWxlLm1hZT4nLCAnLW9tYWUnLCAnPG91dGZpbGUubWFlPic=

> <r_lp_tautomer_probability>
1

> <r_epik_Ionization_Penalty>
0.00556303

> <r_epik_Ionization_Penalty_Charging>
0

> <r_epik_Ionization_Penalty_Neutral>
0.00556303

> <r_epik_State_Penalty>
0.00401767

> <r_epik_Charging_Adjusted_Penalty>
0.00401767

> <i_epik_Tot_Q>
0

> <i_epik_Tot_abs_Q>
0

> <r_epik_Metal_State_Penalty>
-0

> <b_epik_Metal_Only>
0

> <s_lp_Force_Field>
OPLS_2005

> <r_lp_Energy>
68.5956

> <b_lp_Chiralities_Consistent>
1

> <s_lp_Variant>
AV-unprocessed.smi:148-3

> <Gold.Version>
5.8.1

> <Gold.Id.Protein>
6NUR|6NUR_protein|mol2

> <Gold.PLP.Fitness>
42.5467

> <Gold.PLP.PLP>
-34.7039

> <Gold.PLP.part.hbond>
-2.3087

> <Gold.PLP.part.metal>
0.0000

> <Gold.PLP.part.buried>
-5.8975

> <Gold.PLP.part.nonpolar>
-27.2010

> <Gold.PLP.part.repulsive>
0.1620

> <Gold.PLP.ligand.clash>
0.0000

> <Gold.PLP.ligand.torsion>
0.8850

> <Gold.PLP.Chemscore.Hbond>
2.0000

> <Gold.PLP.Chemscore.CHOScore>
1.0000

> <Gold.PLP.Chemscore.Metal>
0.0000

> <Gold.Chemscore.Hbonds>
donor molecule, donor type, donor heavy atom, donor atom, acceptor molecule, acceptor atom, score
      L1  H     1    31       P1  7948  0.67
      P1  H  6896  6909       L1    22  0.96
      L1  C     6    37       P1 10957  0.84

> <Gold.PLP.Chemscore.Internal.Correction>
0.6127

> <Gold.Rescore>
     Score         DG    S(hbond)    S(metal)    S(lipo)     H(rot)  DE(clash)    DE(int)     intcor
     13.41     -14.64       1.89        0.00      96.86       3.32       0.06       1.18       ----

> <Gold.Chemscore.Fitness>
13.4052

> <Gold.Chemscore.DG>
-14.6369

> <Gold.Chemscore.ZeroCoef>
-5.4800

> <Gold.Chemscore.Hbond>
1.8933

> <Gold.Chemscore.Metal>
0.0000

> <Gold.Chemscore.Lipo>
96.8649

> <Gold.Chemscore.Internal_Hbond>
0.0000

> <Gold.Chemscore.DEClash>
0.0551

> <Gold.Chemscore.DEInternal>
1.1767

> <Gold.Chemscore.Rot>
3.3203

> <Gold.Chemscore.Internal.Correction>
   9.000000E+99

> <Gold.Chemscore.Hbonds>
donor molecule, donor type, donor heavy atom, donor atom, acceptor molecule, acceptor atom, score
      L1  H     1    31       P1  7948  0.67
      P1  H  6896  6909       L1    22  0.48

> <Gold.Chemscore.Hbond.Weighted>
-6.3237

> <Gold.Chemscore.Metal.Weighted>
-0.0000

> <Gold.Chemscore.Lipo.Weighted>
-11.3332

> <Gold.Chemscore.Internal_Hbond.Weighted>
0.0000

> <Gold.Chemscore.DEClash.Weighted>
0.0551

> <Gold.Chemscore.DEInternal.Weighted>
1.1767

> <Gold.Chemscore.Rot.Weighted>
8.5000

> <Gold.Chemscore.Internal.Correction.Weighted>
   9.000000E+99

> <Gold.Protein.RotatedTorsions>
[ 6907 6896 6895 6894 ] final  -17.34 input  -60.11 | X-H torsion
[ 7974 7965 7964 7962 ] final  171.05 input  175.53 | X-H torsion
[ 8008 7997 7996 7995 ] final -131.85 input   59.86 | X-H torsion
[ 10167 10162 10161 10158 ] final -113.31 input  -65.29 | X-H torsion
[ 10718 10713 10712 10709 ] final -105.78 input   66.30 | X-H torsion
[ 10763 10752 10751 10750 ] final -116.23 input  -60.55 | X-H torsion
[ 11005 11000 10999 10996 ] final  165.16 input  -57.11 | X-H torsion

> <Gold.Protein.ActiveResidues>
 VAL166  LYS551  ARG553  GLY616  TRP617  ASP618  TYR619  PRO620  LYS621  CYS622 
 ASP623  PHE694  ASN695  SER759  ASP760  ASP761  ALA762  ILE779  LEU786  VAL792 
 PHE793  MET794  SER795  GLU796  ALA797  LYS798  CYS799  TRP800  GLU811  SER814 

> <Gold.Protein.RotatedAtoms>
  151.2948  135.0752  159.9216 H   0  0  0  0  0  0  0  0  0  0  0  0  # atno 6907 bound_to 6896
  152.5309  133.9894  159.7854 H   0  0  0  0  0  0  0  0  0  0  0  0  # atno 6908 bound_to 6896
  151.0171  133.5860  159.2706 H   0  0  0  0  0  0  0  0  0  0  0  0  # atno 6909 bound_to 6896
  144.7306  139.9293  143.6424 H   0  0  0  0  0  0  0  0  0  0  0  0  # atno 7974 bound_to 7965
  155.3191  140.0461  157.3038 H   0  0  0  0  0  0  0  0  0  0  0  0  # atno 8008 bound_to 7997
  154.5390  140.2281  155.8640 H   0  0  0  0  0  0  0  0  0  0  0  0  # atno 8009 bound_to 7997
  156.1862  140.3062  155.9250 H   0  0  0  0  0  0  0  0  0  0  0  0  # atno 8010 bound_to 7997
  140.1132  143.4509  152.1739 H   0  0  0  0  0  0  0  0  0  0  0  0  # atno 10167 bound_to 10162
  156.0361  130.5580  150.7587 H   0  0  0  0  0  0  0  0  0  0  0  0  # atno 10718 bound_to 10713
  154.8512  135.4353  154.1789 H   0  0  0  0  0  0  0  0  0  0  0  0  # atno 10763 bound_to 10752
  153.2884  135.6959  153.7323 H   0  0  0  0  0  0  0  0  0  0  0  0  # atno 10764 bound_to 10752
  153.6499  135.3453  155.3071 H   0  0  0  0  0  0  0  0  0  0  0  0  # atno 10765 bound_to 10752
  140.2532  134.7960  157.3521 H   0  0  0  0  0  0  0  0  0  0  0  0  # atno 11005 bound_to 11000
  146.0870  139.3858  143.0429 LP  0  0  0  0  0  0  0  0  0  0  0  0  # atno 17320 bound_to 7965
  145.7763  140.9875  143.1122 LP  0  0  0  0  0  0  0  0  0  0  0  0  # atno 17321 bound_to 7965
  139.5608  144.7404  151.4161 LP  0  0  0  0  0  0  0  0  0  0  0  0  # atno 17342 bound_to 10162
  140.6914  143.7853  150.7261 LP  0  0  0  0  0  0  0  0  0  0  0  0  # atno 17343 bound_to 10162
  157.5112  131.0925  151.0195 LP  0  0  0  0  0  0  0  0  0  0  0  0  # atno 17370 bound_to 10713
  157.0550  130.5802  149.5376 LP  0  0  0  0  0  0  0  0  0  0  0  0  # atno 17371 bound_to 10713
  140.1537  134.4817  155.7943 LP  0  0  0  0  0  0  0  0  0  0  0  0  # atno 17394 bound_to 11000
  141.2199  133.6873  156.7423 LP  0  0  0  0  0  0  0  0  0  0  0  0  # atno 17395 bound_to 11000

$$$$
