AV-unprocessed.smi:1047|AV-procd|sdf|4583|dock4
  -GOLD-   22720 3 53D 1   1.00000     0.00000
 Structure written by MMmdl.
 58 60  0  0  0  0  0  0  0  0  4 V2000
  145.5707  131.8087  150.4775 C   0  0  0  0  0  0  0  0  0  0  0  0
  145.3664  132.6581  151.7403 C   0  0  0  0  0  0  0  0  0  0  0  0
  146.6312  132.8960  152.4807 N   0  3  2  0  0  0  0  0  0  0  0  0
  147.1129  131.7075  153.2267 C   0  0  0  0  0  0  0  0  0  0  0  0
  148.4339  132.0240  153.9453 C   0  0  0  0  0  0  0  0  0  0  0  0
  148.2497  133.1403  154.8066 O   0  0  0  0  0  0  0  0  0  0  0  0
  147.8880  134.3203  154.0986 C   0  0  2  0  0  0  0  0  0  0  0  0
  147.8172  135.4634  155.1251 C   0  0  0  0  0  0  0  0  0  0  0  0
  148.6351  136.6259  154.7206 N   0  3  0  0  0  0  0  0  0  0  0  0
  149.9413  136.7019  155.4058 C   0  0  0  0  0  0  0  0  0  0  0  0
  150.7903  137.8775  154.8900 C   0  0  2  0  0  0  0  0  0  0  0  0
  151.7593  137.3511  154.0067 O   0  0  0  0  0  0  0  0  0  0  0  0
  151.4871  138.6582  156.0246 C   0  0  0  0  0  0  0  0  0  0  0  0
  151.0570  140.0625  156.1054 N   0  0  0  0  0  0  0  0  0  0  0  0
  150.2046  140.7589  155.3041 C   0  0  0  0  0  0  0  0  0  0  0  0
  150.1192  142.0256  155.7961 N   0  3  0  0  0  0  0  0  0  0  0  0
  150.9277  142.1418  156.9286 C   0  0  0  0  0  0  0  0  0  0  0  0
  151.1673  143.2235  157.7676 C   0  0  0  0  0  0  0  0  0  0  0  0
  152.0562  143.0183  158.8468 C   0  0  0  0  0  0  0  0  0  0  0  0
  152.3406  144.1802  159.7835 C   0  0  0  0  0  0  0  0  0  0  0  0
  152.6732  141.7575  159.0543 C   0  0  0  0  0  0  0  0  0  0  0  0
  153.6306  141.5488  160.2154 C   0  0  0  0  0  0  0  0  0  0  0  0
  152.4155  140.6696  158.1900 C   0  0  0  0  0  0  0  0  0  0  0  0
  151.5346  140.8872  157.1326 C   0  0  0  0  0  0  0  0  0  0  0  0
  146.5429  134.0717  153.3817 C   0  0  0  0  0  0  0  0  0  0  0  0
  144.6414  131.7350  149.9121 H   0  0  0  0  0  0  0  0  0  0  0  0
  145.8828  130.7916  150.7141 H   0  0  0  0  0  0  0  0  0  0  0  0
  146.3214  132.2494  149.8206 H   0  0  0  0  0  0  0  0  0  0  0  0
  144.9491  133.6178  151.4325 H   0  0  0  0  0  0  0  0  0  0  0  0
  144.6280  132.1963  152.3974 H   0  0  0  0  0  0  0  0  0  0  0  0
  146.3591  131.3988  153.9528 H   0  0  0  0  0  0  0  0  0  0  0  0
  147.2677  130.8677  152.5500 H   0  0  0  0  0  0  0  0  0  0  0  0
  148.7520  131.1677  154.5404 H   0  0  0  0  0  0  0  0  0  0  0  0
  149.2311  132.2270  153.2282 H   0  0  0  0  0  0  0  0  0  0  0  0
  148.6678  134.5448  153.3680 H   0  0  0  0  0  0  0  0  0  0  0  0
  146.7824  135.7726  155.2789 H   0  0  0  0  0  0  0  0  0  0  0  0
  148.1870  135.1068  156.0876 H   0  0  0  0  0  0  0  0  0  0  0  0
  148.8008  136.5750  153.7255 H   0  0  0  0  0  0  0  0  0  0  0  0
  149.7889  136.7870  156.4829 H   0  0  0  0  0  0  0  0  0  0  0  0
  150.4700  135.7629  155.2332 H   0  0  0  0  0  0  0  0  0  0  0  0
  150.1603  138.5554  154.3123 H   0  0  0  0  0  0  0  0  0  0  0  0
  151.3363  137.1295  153.1907 H   0  0  0  0  0  0  0  0  0  0  0  0
  151.2582  138.2010  156.9879 H   0  0  0  0  0  0  0  0  0  0  0  0
  152.5718  138.6199  155.9230 H   0  0  0  0  0  0  0  0  0  0  0  0
  149.6861  140.3776  154.4361 H   0  0  0  0  0  0  0  0  0  0  0  0
  150.6949  144.1812  157.6026 H   0  0  0  0  0  0  0  0  0  0  0  0
  152.0399  143.9337  160.8020 H   0  0  0  0  0  0  0  0  0  0  0  0
  151.7972  145.0770  159.4840 H   0  0  0  0  0  0  0  0  0  0  0  0
  153.4040  144.4207  159.7840 H   0  0  0  0  0  0  0  0  0  0  0  0
  154.0052  140.5252  160.2453 H   0  0  0  0  0  0  0  0  0  0  0  0
  153.1322  141.7478  161.1644 H   0  0  0  0  0  0  0  0  0  0  0  0
  154.4893  142.2150  160.1281 H   0  0  0  0  0  0  0  0  0  0  0  0
  152.8912  139.7132  158.3488 H   0  0  0  0  0  0  0  0  0  0  0  0
  146.2636  134.9529  152.8028 H   0  0  0  0  0  0  0  0  0  0  0  0
  145.7505  133.9057  154.1136 H   0  0  0  0  0  0  0  0  0  0  0  0
  148.1203  137.4708  154.9232 H   0  0  0  0  0  0  0  0  0  0  0  0
  147.3337  133.1150  151.7886 H   0  0  0  0  0  0  0  0  0  0  0  0
  149.5481  142.7553  155.3885 H   0  0  0  0  0  0  0  0  0  0  0  0
  1  2  1  0  0  0  0
  1 26  1  0  0  0  0
  1 27  1  0  0  0  0
  1 28  1  0  0  0  0
  2  3  1  0  0  0  0
  2 29  1  0  0  0  0
  2 30  1  0  0  0  0
  3 25  1  0  0  0  0
  3  4  1  0  0  0  0
  3 57  1  0  0  0  0
  4  5  1  0  0  0  0
  4 31  1  0  0  0  0
  4 32  1  0  0  0  0
  5  6  1  0  0  0  0
  5 33  1  0  0  0  0
  5 34  1  0  0  0  0
  6  7  1  0  0  0  0
  7  8  1  0  0  0  0
  7 25  1  0  0  0  0
  7 35  1  0  0  0  0
  8  9  1  0  0  0  0
  8 36  1  0  0  0  0
  8 37  1  0  0  0  0
  9 10  1  0  0  0  0
  9 38  1  0  0  0  0
  9 56  1  0  0  0  0
 10 11  1  0  0  0  0
 10 39  1  0  0  0  0
 10 40  1  0  0  0  0
 11 12  1  0  0  0  0
 11 13  1  0  0  0  0
 11 41  1  0  0  0  0
 12 42  1  0  0  0  0
 13 14  1  0  0  0  0
 13 43  1  0  0  0  0
 13 44  1  0  0  0  0
 14 24  1  0  0  0  0
 14 15  1  0  0  0  0
 15 16  2  0  0  0  0
 15 45  1  0  0  0  0
 16 17  1  0  0  0  0
 16 58  1  0  0  0  0
 17 24  2  0  0  0  0
 17 18  1  0  0  0  0
 18 19  2  0  0  0  0
 18 46  1  0  0  0  0
 19 20  1  0  0  0  0
 19 21  1  0  0  0  0
 20 47  1  0  0  0  0
 20 48  1  0  0  0  0
 20 49  1  0  0  0  0
 21 22  1  0  0  0  0
 21 23  2  0  0  0  0
 22 50  1  0  0  0  0
 22 51  1  0  0  0  0
 22 52  1  0  0  0  0
 23 24  1  0  0  0  0
 23 53  1  0  0  0  0
 25 54  1  0  0  0  0
 25 55  1  0  0  0  0
M  CHG  1   3   1
M  CHG  1   9   1
M  CHG  1  16   1
M  END
> <s_m_source_file>
AV-unprocessed.smi

> <i_m_source_file_index>
1047

> <i_lp_mmshare_version>
43012

> <i_f3d_flags>
0

> <s_epik_input>
W0NIM11bQ0gyXU4xW0NIMl1bQ0gyXU9bQ0BIXShbQ0gyXTEpW0NIMl1bTkhdW0NIMl1bQ0BIXShbT0hdKVtDSDJdbihbY0hdbjIpYyhjMjMpW2NIXWMoW0NIM10pYyhbY0hdMylbQ0gzXQ==

> <s_epik_cmdline>
J2VwaWtfcHl0aG9uJywgJy1waCcsICc3LjAnLCAnLXRuJywgJzgnLCAnLW1hJywgJzIwMCcsICctbWV0YWxfYmluZGluZycsICctaW1hZScsICc8aW5maWxlLm1hZT4nLCAnLW9tYWUnLCAnPG91dGZpbGUubWFlPic=

> <r_epik_Ionization_Penalty>
1.6114

> <r_epik_Ionization_Penalty_Charging>
1.61139

> <r_epik_Ionization_Penalty_Neutral>
5.04732e-06

> <r_epik_State_Penalty>
1.63724

> <r_epik_Charging_Adjusted_Penalty>
3.24864

> <i_epik_Tot_Q>
3

> <i_epik_Tot_abs_Q>
3

> <r_epik_Metal_State_Penalty>
5.64594

> <b_epik_Metal_Only>
0

> <s_lp_Force_Field>
OPLS_2005

> <r_lp_Energy>
40.251

> <b_lp_Chiralities_Consistent>
1

> <s_lp_Variant>
AV-unprocessed.smi:1047-24

> <Gold.Version>
5.8.1

> <Gold.Id.Protein>
6NUR|6NUR_protein|mol2

> <Gold.PLP.Fitness>
59.7854

> <Gold.PLP.PLP>
-48.2180

> <Gold.PLP.part.hbond>
-3.9834

> <Gold.PLP.part.metal>
0.0000

> <Gold.PLP.part.buried>
-2.5481

> <Gold.PLP.part.nonpolar>
-41.2313

> <Gold.PLP.part.repulsive>
0.1899

> <Gold.PLP.ligand.clash>
0.0000

> <Gold.PLP.ligand.torsion>
2.5303

> <Gold.PLP.Chemscore.Hbond>
5.4987

> <Gold.PLP.Chemscore.CHOScore>
0.0000

> <Gold.PLP.Chemscore.Metal>
0.0000

> <Gold.Chemscore.Hbonds>
donor molecule, donor type, donor heavy atom, donor atom, acceptor molecule, acceptor atom, score
      L1  H     9    38       P1  7948  2.00
      L1  H    12    42       P1  7949  0.94
      L1  H    16    58       P1  8028  1.52
      P1  H 10752 10764       L1    12  0.83

> <Gold.PLP.Chemscore.Internal.Correction>
0.1319

> <Gold.Rescore>
     Score         DG    S(hbond)    S(metal)    S(lipo)     H(rot)  DE(clash)    DE(int)     intcor
     20.17     -22.71       2.90        0.00     125.56       2.78       0.01       2.53       ----

> <Gold.Chemscore.Fitness>
20.1683

> <Gold.Chemscore.DG>
-22.7150

> <Gold.Chemscore.ZeroCoef>
-5.4800

> <Gold.Chemscore.Hbond>
2.8961

> <Gold.Chemscore.Metal>
0.0000

> <Gold.Chemscore.Lipo>
125.5642

> <Gold.Chemscore.Internal_Hbond>
0.0000

> <Gold.Chemscore.DEClash>
0.0133

> <Gold.Chemscore.DEInternal>
2.5334

> <Gold.Chemscore.Rot>
2.7848

> <Gold.Chemscore.Internal.Correction>
   9.000000E+99

> <Gold.Chemscore.Hbonds>
donor molecule, donor type, donor heavy atom, donor atom, acceptor molecule, acceptor atom, score
      L1  H     9    38       P1  7948  1.00
      L1  H    12    42       P1  7949  0.64
      L1  H    16    58       P1  8028  0.73
      P1  H 10752 10764       L1    12  0.15

> <Gold.Chemscore.Hbond.Weighted>
-9.6731

> <Gold.Chemscore.Metal.Weighted>
-0.0000

> <Gold.Chemscore.Lipo.Weighted>
-14.6910

> <Gold.Chemscore.Internal_Hbond.Weighted>
0.0000

> <Gold.Chemscore.DEClash.Weighted>
0.0133

> <Gold.Chemscore.DEInternal.Weighted>
2.5334

> <Gold.Chemscore.Rot.Weighted>
7.1291

> <Gold.Chemscore.Internal.Correction.Weighted>
   9.000000E+99

> <Gold.Protein.RotatedTorsions>
[ 6907 6896 6895 6894 ] final  114.36 input  -60.11 | X-H torsion
[ 7974 7965 7964 7962 ] final  109.53 input  175.53 | X-H torsion
[ 8008 7997 7996 7995 ] final  145.11 input   59.86 | X-H torsion
[ 10167 10162 10161 10158 ] final  132.82 input  -65.29 | X-H torsion
[ 10718 10713 10712 10709 ] final  -61.80 input   66.30 | X-H torsion
[ 10763 10752 10751 10750 ] final  -85.43 input  -60.55 | X-H torsion
[ 11005 11000 10999 10996 ] final   39.87 input  -57.11 | X-H torsion

> <Gold.Protein.ActiveResidues>
 VAL166  LYS551  ARG553  GLY616  TRP617  ASP618  TYR619  PRO620  LYS621  CYS622 
 ASP623  PHE694  ASN695  SER759  ASP760  ASP761  ALA762  ILE779  LEU786  VAL792 
 PHE793  MET794  SER795  GLU796  ALA797  LYS798  CYS799  TRP800  GLU811  SER814 

> <Gold.Protein.RotatedAtoms>
  152.4807  133.8247  159.7071 H   0  0  0  0  0  0  0  0  0  0  0  0  # atno 6907 bound_to 6896
  150.8854  133.7305  159.2926 H   0  0  0  0  0  0  0  0  0  0  0  0  # atno 6908 bound_to 6896
  151.4795  135.1055  159.9826 H   0  0  0  0  0  0  0  0  0  0  0  0  # atno 6909 bound_to 6896
  145.2666  139.2682  143.3989 H   0  0  0  0  0  0  0  0  0  0  0  0  # atno 7974 bound_to 7965
  156.2891  140.2218  156.5161 H   0  0  0  0  0  0  0  0  0  0  0  0  # atno 8008 bound_to 7997
  154.7568  140.0476  157.0961 H   0  0  0  0  0  0  0  0  0  0  0  0  # atno 8009 bound_to 7997
  155.0041  140.3105  155.4859 H   0  0  0  0  0  0  0  0  0  0  0  0  # atno 8010 bound_to 7997
  139.5323  144.6644  151.4907 H   0  0  0  0  0  0  0  0  0  0  0  0  # atno 10167 bound_to 10162
  156.0898  130.4202  150.1044 H   0  0  0  0  0  0  0  0  0  0  0  0  # atno 10718 bound_to 10713
  154.6110  135.5485  153.7473 H   0  0  0  0  0  0  0  0  0  0  0  0  # atno 10763 bound_to 10752
  153.0195  135.6389  154.1578 H   0  0  0  0  0  0  0  0  0  0  0  0  # atno 10764 bound_to 10752
  154.1516  135.2902  155.3114 H   0  0  0  0  0  0  0  0  0  0  0  0  # atno 10765 bound_to 10752
  140.1986  134.3898  155.8108 H   0  0  0  0  0  0  0  0  0  0  0  0  # atno 11005 bound_to 11000
  146.3259  140.3097  142.8626 LP  0  0  0  0  0  0  0  0  0  0  0  0  # atno 17320 bound_to 7965
  144.9372  140.8039  143.5653 LP  0  0  0  0  0  0  0  0  0  0  0  0  # atno 17321 bound_to 7965
  140.6509  143.8699  150.6784 LP  0  0  0  0  0  0  0  0  0  0  0  0  # atno 17342 bound_to 10162
  140.2063  143.3919  152.1753 LP  0  0  0  0  0  0  0  0  0  0  0  0  # atno 17343 bound_to 10162
  156.9057  130.9635  151.3570 LP  0  0  0  0  0  0  0  0  0  0  0  0  # atno 17370 bound_to 10713
  157.6043  130.8536  149.8851 LP  0  0  0  0  0  0  0  0  0  0  0  0  # atno 17371 bound_to 10713
  141.2227  133.7082  156.8218 LP  0  0  0  0  0  0  0  0  0  0  0  0  # atno 17394 bound_to 11000
  140.2080  134.8849  157.3242 LP  0  0  0  0  0  0  0  0  0  0  0  0  # atno 17395 bound_to 11000

$$$$
