AV-unprocessed.smi:2405|AV-procd|sdf|9512|dock3
  -GOLD-   2272013143D 1   1.00000     0.00000
 Structure written by MMmdl.
 36 37  0  0  0  0  0  0  0  0  2 V2000
  144.8032  131.5543  150.8678 C   0  0  0  0  0  0  0  0  0  0  0  0
  145.7378  132.7567  150.6967 C   0  0  0  0  0  0  0  0  0  0  0  0
  146.3768  133.1683  151.9801 C   0  0  0  0  0  0  0  0  0  0  0  0
  147.6912  133.0956  152.2036 N   0  0  0  0  0  0  0  0  0  0  0  0
  148.0544  133.5940  153.4596 C   0  0  0  0  0  0  0  0  0  0  0  0
  149.4985  133.6103  153.8759 C   0  0  0  0  0  0  0  0  0  0  0  0
  149.7412  134.6689  154.9556 C   0  0  0  0  0  0  0  0  0  0  0  0
  149.7855  134.3387  156.1404 O   0  0  0  0  0  0  0  0  0  0  0  0
  149.8958  135.9344  154.5347 N   0  0  0  0  0  0  0  0  0  0  0  0
  150.1993  137.0759  155.3913 C   0  0  2  0  0  0  0  0  0  0  0  0
  149.1794  138.2067  155.1607 C   0  0  0  0  0  0  0  0  0  0  0  0
  149.9476  139.3320  154.4604 C   0  0  0  0  0  0  0  0  0  0  0  0
  151.3900  139.2004  154.9645 C   0  0  1  0  0  0  0  0  0  0  0  0
  151.5612  139.9311  156.3120 C   0  0  0  0  0  0  0  0  0  0  0  0
  150.6129  140.6187  156.7525 O   0  0  0  0  0  0  0  0  0  0  0  0
  152.6660  139.7916  156.8814 O   0  5  0  0  0  0  0  0  0  0  0  0
  151.5841  137.6755  155.0628 C   0  0  0  0  0  0  0  0  0  0  0  0
  146.9822  134.0401  154.1928 C   0  0  0  0  0  0  0  0  0  0  0  0
  145.4828  133.8714  153.3227 S   0  0  0  0  0  0  0  0  0  0  0  0
  144.3504  131.2748  149.9164 H   0  0  0  0  0  0  0  0  0  0  0  0
  143.9971  131.7793  151.5672 H   0  0  0  0  0  0  0  0  0  0  0  0
  145.3437  130.6871  151.2482 H   0  0  0  0  0  0  0  0  0  0  0  0
  146.5212  132.5197  149.9766 H   0  0  0  0  0  0  0  0  0  0  0  0
  145.1844  133.6039  150.2899 H   0  0  0  0  0  0  0  0  0  0  0  0
  149.8009  132.6373  154.2647 H   0  0  0  0  0  0  0  0  0  0  0  0
  150.1407  133.8130  153.0178 H   0  0  0  0  0  0  0  0  0  0  0  0
  149.8418  136.1137  153.5428 H   0  0  0  0  0  0  0  0  0  0  0  0
  150.1580  136.7719  156.4391 H   0  0  0  0  0  0  0  0  0  0  0  0
  148.3053  137.8934  154.5884 H   0  0  0  0  0  0  0  0  0  0  0  0
  148.8163  138.5647  156.1250 H   0  0  0  0  0  0  0  0  0  0  0  0
  149.9273  139.1749  153.3812 H   0  0  0  0  0  0  0  0  0  0  0  0
  149.5056  140.3112  154.6513 H   0  0  0  0  0  0  0  0  0  0  0  0
  152.0947  139.6358  154.2548 H   0  0  0  0  0  0  0  0  0  0  0  0
  152.3425  137.3751  155.7871 H   0  0  0  0  0  0  0  0  0  0  0  0
  151.9345  137.3137  154.0944 H   0  0  0  0  0  0  0  0  0  0  0  0
  146.9856  134.4691  155.1837 H   0  0  0  0  0  0  0  0  0  0  0  0
  1  2  1  0  0  0  0
  1 20  1  0  0  0  0
  1 21  1  0  0  0  0
  1 22  1  0  0  0  0
  2  3  1  0  0  0  0
  2 23  1  0  0  0  0
  2 24  1  0  0  0  0
  3 19  1  0  0  0  0
  3  4  2  0  0  0  0
  4  5  1  0  0  0  0
  5  6  1  0  0  0  0
  5 18  2  0  0  0  0
  6  7  1  0  0  0  0
  6 25  1  0  0  0  0
  6 26  1  0  0  0  0
  7  8  2  0  0  0  0
  7  9  1  0  0  0  0
  9 10  1  0  0  0  0
  9 27  1  0  0  0  0
 10 17  1  0  0  0  0
 10 11  1  0  0  0  0
 10 28  1  0  0  0  0
 11 12  1  0  0  0  0
 11 29  1  0  0  0  0
 11 30  1  0  0  0  0
 12 13  1  0  0  0  0
 12 31  1  0  0  0  0
 12 32  1  0  0  0  0
 13 14  1  0  0  0  0
 13 17  1  0  0  0  0
 13 33  1  0  0  0  0
 14 15  2  0  0  0  0
 14 16  1  0  0  0  0
 17 34  1  0  0  0  0
 17 35  1  0  0  0  0
 18 19  1  0  0  0  0
 18 36  1  0  0  0  0
M  CHG  1  16  -1
M  END
> <s_m_source_file>
AV-unprocessed.smi

> <i_m_source_file_index>
2405

> <i_lp_mmshare_version>
43012

> <i_f3d_flags>
0

> <s_epik_input>
W0NIM11bQ0gyXWMxbmMoW2NIXXMxKVtDSDJdQyg9TylbTkhdW0NAQEhdMltDSDJdW0NIMl1bQ0BIXShbQ0gyXTIpQyg9TylbT0hd

> <s_epik_cmdline>
J2VwaWtfcHl0aG9uJywgJy1waCcsICc3LjAnLCAnLXRuJywgJzgnLCAnLW1hJywgJzIwMCcsICctbWV0YWxfYmluZGluZycsICctaW1hZScsICc8aW5maWxlLm1hZT4nLCAnLW9tYWUnLCAnPG91dGZpbGUubWFlPic=

> <r_epik_Ionization_Penalty>
0.000544611

> <r_epik_Ionization_Penalty_Charging>
0.000481685

> <r_epik_Ionization_Penalty_Neutral>
6.29266e-05

> <r_epik_State_Penalty>
0.00029893

> <r_epik_Charging_Adjusted_Penalty>
0.000780614

> <i_epik_Tot_Q>
-1

> <i_epik_Tot_abs_Q>
1

> <r_epik_Metal_State_Penalty>
-0

> <b_epik_Metal_Only>
0

> <s_lp_Force_Field>
OPLS_2005

> <r_lp_Energy>
8.39141

> <b_lp_Chiralities_Consistent>
1

> <s_lp_Variant>
AV-unprocessed.smi:2405-1

> <Gold.Version>
5.8.1

> <Gold.Id.Protein>
6NUR|6NUR_protein|mol2

> <Gold.PLP.Fitness>
39.1304

> <Gold.PLP.PLP>
-31.8882

> <Gold.PLP.part.hbond>
-2.0364

> <Gold.PLP.part.metal>
0.0000

> <Gold.PLP.part.buried>
-4.7797

> <Gold.PLP.part.nonpolar>
-25.7526

> <Gold.PLP.part.repulsive>
0.2882

> <Gold.PLP.ligand.clash>
0.0000

> <Gold.PLP.ligand.torsion>
0.7544

> <Gold.PLP.Chemscore.Hbond>
2.9000

> <Gold.PLP.Chemscore.CHOScore>
0.0000

> <Gold.PLP.Chemscore.Metal>
0.0000

> <Gold.Chemscore.Hbonds>
donor molecule, donor type, donor heavy atom, donor atom, acceptor molecule, acceptor atom, score
      L1  H     9    27       P1  7948  0.80
      P1  H  7997  8010       L1    16  2.00

> <Gold.PLP.Chemscore.Internal.Correction>
0.0509

> <Gold.Rescore>
     Score         DG    S(hbond)    S(metal)    S(lipo)     H(rot)  DE(clash)    DE(int)     intcor
     11.67     -12.70       1.53        0.00      63.18       2.06       0.01       1.02       ----

> <Gold.Chemscore.Fitness>
11.6749

> <Gold.Chemscore.DG>
-12.7019

> <Gold.Chemscore.ZeroCoef>
-5.4800

> <Gold.Chemscore.Hbond>
1.5305

> <Gold.Chemscore.Metal>
0.0000

> <Gold.Chemscore.Lipo>
63.1844

> <Gold.Chemscore.Internal_Hbond>
0.0000

> <Gold.Chemscore.DEClash>
0.0060

> <Gold.Chemscore.DEInternal>
1.0211

> <Gold.Chemscore.Rot>
2.0635

> <Gold.Chemscore.Internal.Correction>
   9.000000E+99

> <Gold.Chemscore.Hbonds>
donor molecule, donor type, donor heavy atom, donor atom, acceptor molecule, acceptor atom, score
      L1  H     9    27       P1  7948  0.12
      P1  H  7997  8010       L1    16  0.96

> <Gold.Chemscore.Hbond.Weighted>
-5.1118

> <Gold.Chemscore.Metal.Weighted>
-0.0000

> <Gold.Chemscore.Lipo.Weighted>
-7.3926

> <Gold.Chemscore.Internal_Hbond.Weighted>
0.0000

> <Gold.Chemscore.DEClash.Weighted>
0.0060

> <Gold.Chemscore.DEInternal.Weighted>
1.0211

> <Gold.Chemscore.Rot.Weighted>
5.2825

> <Gold.Chemscore.Internal.Correction.Weighted>
   9.000000E+99

> <Gold.Protein.RotatedTorsions>
[ 6907 6896 6895 6894 ] final   47.46 input  -60.11 | X-H torsion
[ 7974 7965 7964 7962 ] final -120.29 input  175.53 | X-H torsion
[ 8008 7997 7996 7995 ] final   48.23 input   59.86 | X-H torsion
[ 10167 10162 10161 10158 ] final -151.75 input  -65.29 | X-H torsion
[ 10718 10713 10712 10709 ] final  -45.43 input   66.30 | X-H torsion
[ 10763 10752 10751 10750 ] final  106.36 input  -60.55 | X-H torsion
[ 11005 11000 10999 10996 ] final   83.25 input  -57.11 | X-H torsion

> <Gold.Protein.ActiveResidues>
 VAL166  LYS551  ARG553  GLY616  TRP617  ASP618  TYR619  PRO620  LYS621  CYS622 
 ASP623  PHE694  ASN695  SER759  ASP760  ASP761  ALA762  ILE779  LEU786  VAL792 
 PHE793  MET794  SER795  GLU796  ALA797  LYS798  CYS799  TRP800  GLU811  SER814 

> <Gold.Protein.RotatedAtoms>
  152.2683  134.7960  160.0418 H   0  0  0  0  0  0  0  0  0  0  0  0  # atno 6907 bound_to 6896
  151.8582  133.3447  159.3703 H   0  0  0  0  0  0  0  0  0  0  0  0  # atno 6908 bound_to 6896
  150.7142  134.5160  159.5674 H   0  0  0  0  0  0  0  0  0  0  0  0  # atno 6909 bound_to 6896
  145.0530  140.8233  143.4198 H   0  0  0  0  0  0  0  0  0  0  0  0  # atno 7974 bound_to 7965
  155.3821  140.3429  155.4247 H   0  0  0  0  0  0  0  0  0  0  0  0  # atno 8008 bound_to 7997
  156.1604  140.1599  156.8654 H   0  0  0  0  0  0  0  0  0  0  0  0  # atno 8009 bound_to 7997
  154.5135  140.0784  156.8017 H   0  0  0  0  0  0  0  0  0  0  0  0  # atno 8010 bound_to 7997
  139.7240  143.8911  152.2513 H   0  0  0  0  0  0  0  0  0  0  0  0  # atno 10167 bound_to 10162
  156.2284  130.4171  149.8905 H   0  0  0  0  0  0  0  0  0  0  0  0  # atno 10718 bound_to 10713
  153.3919  135.3879  155.1929 H   0  0  0  0  0  0  0  0  0  0  0  0  # atno 10763 bound_to 10752
  154.8720  135.3750  154.4726 H   0  0  0  0  0  0  0  0  0  0  0  0  # atno 10764 bound_to 10752
  153.5214  135.7087  153.5791 H   0  0  0  0  0  0  0  0  0  0  0  0  # atno 10765 bound_to 10752
  139.9037  134.8131  156.2283 H   0  0  0  0  0  0  0  0  0  0  0  0  # atno 11005 bound_to 11000
  145.1504  139.2518  143.5444 LP  0  0  0  0  0  0  0  0  0  0  0  0  # atno 17320 bound_to 7965
  146.3519  140.1205  142.8600 LP  0  0  0  0  0  0  0  0  0  0  0  0  # atno 17321 bound_to 7965
  139.8816  144.7015  150.8872 LP  0  0  0  0  0  0  0  0  0  0  0  0  # atno 17342 bound_to 10162
  140.7759  143.3657  151.1744 LP  0  0  0  0  0  0  0  0  0  0  0  0  # atno 17343 bound_to 10162
  156.6528  130.8750  151.3534 LP  0  0  0  0  0  0  0  0  0  0  0  0  # atno 17370 bound_to 10713
  157.7121  130.9453  150.1127 LP  0  0  0  0  0  0  0  0  0  0  0  0  # atno 17371 bound_to 10713
  141.0361  133.6962  156.1516 LP  0  0  0  0  0  0  0  0  0  0  0  0  # atno 17394 bound_to 11000
  140.7024  134.4549  157.5585 LP  0  0  0  0  0  0  0  0  0  0  0  0  # atno 17395 bound_to 11000

$$$$
