AV-unprocessed.smi:2269|AV-procd|sdf|9153|dock3
  -GOLD-   2272012363D 1   1.00000     0.00000
 Structure written by MMmdl.
 41 42  0  0  0  0  0  0  0  0  1 V2000
  145.8964  135.9588  150.8875 C   0  0  0  0  0  0  0  0  0  0  0  0
  146.3191  137.1424  151.7399 C   0  0  0  0  0  0  0  0  0  0  0  0
  146.7760  138.2607  151.0361 N   0  0  0  0  0  0  0  0  0  0  0  0
  147.1550  139.3164  151.6792 C   0  0  0  0  0  0  0  0  0  0  0  0
  147.1202  139.3774  153.0814 N   0  0  0  0  0  0  0  0  0  0  0  0
  147.5834  140.6340  153.6908 C   0  0  0  0  0  0  0  0  0  0  0  0
  148.8351  140.4238  154.5741 C   0  0  1  0  0  0  0  0  0  0  0  0
  149.9302  140.0928  153.7443 O   0  0  0  0  0  0  0  0  0  0  0  0
  149.2139  141.6964  155.3449 C   0  0  0  0  0  0  0  0  0  0  0  0
  150.3236  141.3991  156.1796 O   0  0  0  0  0  0  0  0  0  0  0  0
  150.9574  142.5426  156.7331 C   0  0  0  0  0  0  0  0  0  0  0  0
  151.7515  142.2335  157.9939 C   0  0  0  0  0  0  0  0  0  0  0  0
  151.9573  140.8883  158.3691 C   0  0  0  0  0  0  0  0  0  0  0  0
  152.6874  140.5762  159.5318 C   0  0  0  0  0  0  0  0  0  0  0  0
  153.2146  141.6088  160.3293 C   0  0  0  0  0  0  0  0  0  0  0  0
  153.0088  142.9527  159.9642 C   0  0  0  0  0  0  0  0  0  0  0  0
  152.2782  143.2705  158.8014 C   0  0  0  0  0  0  0  0  0  0  0  0
  152.0424  144.9342  158.3936 Cl  0  0  0  0  0  0  0  0  0  0  0  0
  146.6978  138.3288  153.8457 C   0  0  0  0  0  0  0  0  0  0  0  0
  146.6875  138.3880  155.0768 O   0  0  0  0  0  0  0  0  0  0  0  0
  146.2664  137.1355  153.1000 C   0  0  0  0  0  0  0  0  0  0  0  0
  145.7801  135.9464  153.9195 C   0  0  0  0  0  0  0  0  0  0  0  0
  146.5015  135.0829  151.1230 H   0  0  0  0  0  0  0  0  0  0  0  0
  146.0166  136.1716  149.8245 H   0  0  0  0  0  0  0  0  0  0  0  0
  144.8478  135.7170  151.0626 H   0  0  0  0  0  0  0  0  0  0  0  0
  147.5243  140.2132  151.1787 H   0  0  0  0  0  0  0  0  0  0  0  0
  147.7603  141.4147  152.9476 H   0  0  0  0  0  0  0  0  0  0  0  0
  146.7691  141.0356  154.2962 H   0  0  0  0  0  0  0  0  0  0  0  0
  148.6869  139.6126  155.2883 H   0  0  0  0  0  0  0  0  0  0  0  0
  149.6150  139.9825  152.8603 H   0  0  0  0  0  0  0  0  0  0  0  0
  149.4970  142.4923  154.6542 H   0  0  0  0  0  0  0  0  0  0  0  0
  148.3603  142.0527  155.9238 H   0  0  0  0  0  0  0  0  0  0  0  0
  151.6465  142.9410  155.9882 H   0  0  0  0  0  0  0  0  0  0  0  0
  150.2215  143.3269  156.9172 H   0  0  0  0  0  0  0  0  0  0  0  0
  151.5580  140.0879  157.7636 H   0  0  0  0  0  0  0  0  0  0  0  0
  152.8427  139.5446  159.8115 H   0  0  0  0  0  0  0  0  0  0  0  0
  153.7747  141.3706  161.2215 H   0  0  0  0  0  0  0  0  0  0  0  0
  153.4123  143.7426  160.5803 H   0  0  0  0  0  0  0  0  0  0  0  0
  144.9212  136.2347  154.5263 H   0  0  0  0  0  0  0  0  0  0  0  0
  146.5687  135.6049  154.5905 H   0  0  0  0  0  0  0  0  0  0  0  0
  145.4795  135.0970  153.3083 H   0  0  0  0  0  0  0  0  0  0  0  0
  1  2  1  0  0  0  0
  1 23  1  0  0  0  0
  1 24  1  0  0  0  0
  1 25  1  0  0  0  0
  2 21  2  0  0  0  0
  2  3  1  0  0  0  0
  3  4  2  0  0  0  0
  4  5  1  0  0  0  0
  4 26  1  0  0  0  0
  5  6  1  0  0  0  0
  5 19  1  0  0  0  0
  6  7  1  0  0  0  0
  6 27  1  0  0  0  0
  6 28  1  0  0  0  0
  7  8  1  0  0  0  0
  7  9  1  0  0  0  0
  7 29  1  0  0  0  0
  8 30  1  0  0  0  0
  9 10  1  0  0  0  0
  9 31  1  0  0  0  0
  9 32  1  0  0  0  0
 10 11  1  0  0  0  0
 11 12  1  0  0  0  0
 11 33  1  0  0  0  0
 11 34  1  0  0  0  0
 12 17  1  0  0  0  0
 12 13  2  0  0  0  0
 13 14  1  0  0  0  0
 13 35  1  0  0  0  0
 14 15  2  0  0  0  0
 14 36  1  0  0  0  0
 15 16  1  0  0  0  0
 15 37  1  0  0  0  0
 16 17  2  0  0  0  0
 16 38  1  0  0  0  0
 17 18  1  0  0  0  0
 19 20  2  0  0  0  0
 19 21  1  0  0  0  0
 21 22  1  0  0  0  0
 22 39  1  0  0  0  0
 22 40  1  0  0  0  0
 22 41  1  0  0  0  0
M  END
> <s_m_source_file>
AV-unprocessed.smi

> <i_m_source_file_index>
2269

> <i_lp_mmshare_version>
43012

> <i_f3d_flags>
0

> <s_epik_input>
W0NIM11jMW5bY0hdbihjKD1PKWMxW0NIM10pW0NIMl1bQ0BIXShbT0hdKVtDSDJdT1tDSDJdYzJbY0hdW2NIXVtjSF1bY0hdYzJDbA==

> <s_epik_cmdline>
J2VwaWtfcHl0aG9uJywgJy1waCcsICc3LjAnLCAnLXRuJywgJzgnLCAnLW1hJywgJzIwMCcsICctbWV0YWxfYmluZGluZycsICctaW1hZScsICc8aW5maWxlLm1hZT4nLCAnLW9tYWUnLCAnPG91dGZpbGUubWFlPic=

> <r_lp_tautomer_probability>
1

> <r_epik_Ionization_Penalty>
5.36022e-05

> <r_epik_Ionization_Penalty_Charging>
1.17753e-07

> <r_epik_Ionization_Penalty_Neutral>
5.34845e-05

> <r_epik_State_Penalty>
-0

> <r_epik_Charging_Adjusted_Penalty>
1.17753e-07

> <i_epik_Tot_Q>
0

> <i_epik_Tot_abs_Q>
0

> <r_epik_Metal_State_Penalty>
-0

> <b_epik_Metal_Only>
0

> <s_lp_Force_Field>
OPLS_2005

> <r_lp_Energy>
21.6364

> <b_lp_Chiralities_Consistent>
1

> <s_lp_Variant>
AV-unprocessed.smi:2269-2

> <Gold.Version>
5.8.1

> <Gold.Id.Protein>
6NUR|6NUR_protein|mol2

> <Gold.PLP.Fitness>
54.5745

> <Gold.PLP.PLP>
-44.5382

> <Gold.PLP.part.hbond>
-3.0000

> <Gold.PLP.part.metal>
0.0000

> <Gold.PLP.part.buried>
-1.4038

> <Gold.PLP.part.nonpolar>
-42.5124

> <Gold.PLP.part.repulsive>
0.9883

> <Gold.PLP.ligand.clash>
0.0000

> <Gold.PLP.ligand.torsion>
0.2860

> <Gold.PLP.Chemscore.Hbond>
2.8160

> <Gold.PLP.Chemscore.CHOScore>
0.6615

> <Gold.PLP.Chemscore.Metal>
0.0000

> <Gold.Chemscore.Hbonds>
donor molecule, donor type, donor heavy atom, donor atom, acceptor molecule, acceptor atom, score
      L1  H     8    30       P1  7957  1.00
      P1  H  7954  7966       L1     3  1.00
      P1  H  7989  7998       L1     8  0.75
      L1  C     4    26       P1  7957  0.54

> <Gold.PLP.Chemscore.Internal.Correction>
0.1759

> <Gold.Rescore>
     Score         DG    S(hbond)    S(metal)    S(lipo)     H(rot)  DE(clash)    DE(int)     intcor
     15.89     -19.23       1.79        0.00     121.36       2.52       2.69       0.65       ----

> <Gold.Chemscore.Fitness>
15.8860

> <Gold.Chemscore.DG>
-19.2262

> <Gold.Chemscore.ZeroCoef>
-5.4800

> <Gold.Chemscore.Hbond>
1.7928

> <Gold.Chemscore.Metal>
0.0000

> <Gold.Chemscore.Lipo>
121.3631

> <Gold.Chemscore.Internal_Hbond>
0.0000

> <Gold.Chemscore.DEClash>
2.6899

> <Gold.Chemscore.DEInternal>
0.6502

> <Gold.Chemscore.Rot>
2.5162

> <Gold.Chemscore.Internal.Correction>
   9.000000E+99

> <Gold.Chemscore.Hbonds>
donor molecule, donor type, donor heavy atom, donor atom, acceptor molecule, acceptor atom, score
      L1  H     8    30       P1  7957  0.99
      P1  H  7954  7966       L1     3  0.42
      P1  H  7989  7998       L1     8  0.26

> <Gold.Chemscore.Hbond.Weighted>
-5.9881

> <Gold.Chemscore.Metal.Weighted>
-0.0000

> <Gold.Chemscore.Lipo.Weighted>
-14.1995

> <Gold.Chemscore.Internal_Hbond.Weighted>
0.0000

> <Gold.Chemscore.DEClash.Weighted>
2.6899

> <Gold.Chemscore.DEInternal.Weighted>
0.6502

> <Gold.Chemscore.Rot.Weighted>
6.4414

> <Gold.Chemscore.Internal.Correction.Weighted>
   9.000000E+99

> <Gold.Protein.RotatedTorsions>
[ 6907 6896 6895 6894 ] final   85.27 input  -60.11 | X-H torsion
[ 7974 7965 7964 7962 ] final  -65.55 input  175.53 | X-H torsion
[ 8008 7997 7996 7995 ] final    9.61 input   59.86 | X-H torsion
[ 10167 10162 10161 10158 ] final -138.92 input  -65.29 | X-H torsion
[ 10718 10713 10712 10709 ] final  -19.24 input   66.30 | X-H torsion
[ 10763 10752 10751 10750 ] final  -20.59 input  -60.55 | X-H torsion
[ 11005 11000 10999 10996 ] final  102.48 input  -57.11 | X-H torsion

> <Gold.Protein.ActiveResidues>
 VAL166  LYS551  ARG553  GLY616  TRP617  ASP618  TYR619  PRO620  LYS621  CYS622 
 ASP623  PHE694  ASN695  SER759  ASP760  ASP761  ALA762  ILE779  LEU786  VAL792 
 PHE793  MET794  SER795  GLU796  ALA797  LYS798  CYS799  TRP800  GLU811  SER814 

> <Gold.Protein.RotatedAtoms>
  152.5371  134.2613  159.8935 H   0  0  0  0  0  0  0  0  0  0  0  0  # atno 6907 bound_to 6896
  151.2572  133.4313  159.2622 H   0  0  0  0  0  0  0  0  0  0  0  0  # atno 6908 bound_to 6896
  151.0485  134.9671  159.8255 H   0  0  0  0  0  0  0  0  0  0  0  0  # atno 6909 bound_to 6896
  145.7529  140.8899  143.0470 H   0  0  0  0  0  0  0  0  0  0  0  0  # atno 7974 bound_to 7965
  154.7823  140.2821  155.6054 H   0  0  0  0  0  0  0  0  0  0  0  0  # atno 8008 bound_to 7997
  156.2952  140.2621  156.2579 H   0  0  0  0  0  0  0  0  0  0  0  0  # atno 8009 bound_to 7997
  154.9770  140.0375  157.2250 H   0  0  0  0  0  0  0  0  0  0  0  0  # atno 8010 bound_to 7997
  139.8431  143.7296  152.2662 H   0  0  0  0  0  0  0  0  0  0  0  0  # atno 10167 bound_to 10162
  156.5484  130.4695  149.6464 H   0  0  0  0  0  0  0  0  0  0  0  0  # atno 10718 bound_to 10713
  153.6228  135.6992  153.5304 H   0  0  0  0  0  0  0  0  0  0  0  0  # atno 10763 bound_to 10752
  153.2924  135.4153  155.1178 H   0  0  0  0  0  0  0  0  0  0  0  0  # atno 10764 bound_to 10752
  154.8539  135.3628  154.5769 H   0  0  0  0  0  0  0  0  0  0  0  0  # atno 10765 bound_to 10752
  139.8778  134.9225  156.5064 H   0  0  0  0  0  0  0  0  0  0  0  0  # atno 11005 bound_to 11000
  144.6846  139.9616  143.7480 LP  0  0  0  0  0  0  0  0  0  0  0  0  # atno 17320 bound_to 7965
  146.0339  139.3360  143.0738 LP  0  0  0  0  0  0  0  0  0  0  0  0  # atno 17321 bound_to 7965
  139.7539  144.7526  151.0464 LP  0  0  0  0  0  0  0  0  0  0  0  0  # atno 17342 bound_to 10162
  140.7796  143.4828  150.9996 LP  0  0  0  0  0  0  0  0  0  0  0  0  # atno 17343 bound_to 10162
  156.2907  130.7122  151.1970 LP  0  0  0  0  0  0  0  0  0  0  0  0  # atno 17370 bound_to 10713
  157.7392  131.0532  150.5246 LP  0  0  0  0  0  0  0  0  0  0  0  0  # atno 17371 bound_to 10713
  140.8552  133.8101  155.9209 LP  0  0  0  0  0  0  0  0  0  0  0  0  # atno 17394 bound_to 11000
  140.9104  134.2267  157.4989 LP  0  0  0  0  0  0  0  0  0  0  0  0  # atno 17395 bound_to 11000

$$$$
