AV-unprocessed.smi:2958|AV-procd|sdf|11307|dock4
  -GOLD-   2272016203D 1   1.00000     0.00000
 Structure written by MMmdl.
 39 41  0  0  0  0  0  0  0  0  1 V2000
  151.0133  145.3397  160.0985 C   0  0  0  0  0  0  0  0  0  0  0  0
  151.8295  144.0772  159.9113 C   0  0  0  0  0  0  0  0  0  0  0  0
  152.6141  143.5734  160.9681 C   0  0  0  0  0  0  0  0  0  0  0  0
  153.3693  142.4007  160.7847 C   0  0  0  0  0  0  0  0  0  0  0  0
  153.3415  141.7312  159.5467 C   0  0  0  0  0  0  0  0  0  0  0  0
  152.5607  142.2198  158.4794 C   0  0  0  0  0  0  0  0  0  0  0  0
  152.5900  141.5003  157.3042 O   0  0  0  0  0  0  0  0  0  0  0  0
  151.5102  141.6559  156.3950 C   0  0  0  0  0  0  0  0  0  0  0  0
  151.9001  141.0128  155.0593 C   0  0  0  0  0  0  0  0  0  0  0  0
  150.7825  140.2960  154.4663 N   0  0  0  0  0  0  0  0  0  0  0  0
  150.7781  139.0582  153.9112 C   0  0  0  0  0  0  0  0  0  0  0  0
  152.0125  138.2131  153.8333 C   0  0  0  0  0  0  0  0  0  0  0  0
  152.8433  138.5616  152.7468 O   0  0  0  0  0  0  0  0  0  0  0  0
  149.6034  138.6383  153.4393 N   0  0  0  0  0  0  0  0  0  0  0  0
  148.7664  139.7009  153.7199 C   0  0  0  0  0  0  0  0  0  0  0  0
  147.3861  139.8736  153.4703 C   0  0  0  0  0  0  0  0  0  0  0  0
  146.7335  141.0622  153.8587 C   0  0  0  0  0  0  0  0  0  0  0  0
  147.4499  142.0929  154.5011 C   0  0  0  0  0  0  0  0  0  0  0  0
  148.8265  141.9423  154.7572 C   0  0  0  0  0  0  0  0  0  0  0  0
  149.4731  140.7545  154.3664 C   0  0  0  0  0  0  0  0  0  0  0  0
  151.8031  143.4032  158.6727 C   0  0  0  0  0  0  0  0  0  0  0  0
  151.1427  145.7534  161.0991 H   0  0  0  0  0  0  0  0  0  0  0  0
  149.9535  145.1298  159.9517 H   0  0  0  0  0  0  0  0  0  0  0  0
  151.3175  146.0971  159.3757 H   0  0  0  0  0  0  0  0  0  0  0  0
  152.6402  144.0822  161.9206 H   0  0  0  0  0  0  0  0  0  0  0  0
  153.9710  142.0139  161.5940 H   0  0  0  0  0  0  0  0  0  0  0  0
  153.9245  140.8314  159.4152 H   0  0  0  0  0  0  0  0  0  0  0  0
  150.6137  141.1747  156.7892 H   0  0  0  0  0  0  0  0  0  0  0  0
  151.2924  142.7147  156.2451 H   0  0  0  0  0  0  0  0  0  0  0  0
  152.2350  141.7775  154.3575 H   0  0  0  0  0  0  0  0  0  0  0  0
  152.7403  140.3315  155.1926 H   0  0  0  0  0  0  0  0  0  0  0  0
  152.5767  138.2948  154.7624 H   0  0  0  0  0  0  0  0  0  0  0  0
  151.7260  137.1659  153.7322 H   0  0  0  0  0  0  0  0  0  0  0  0
  152.3928  138.3475  151.9444 H   0  0  0  0  0  0  0  0  0  0  0  0
  146.8281  139.0900  152.9796 H   0  0  0  0  0  0  0  0  0  0  0  0
  145.6781  141.1831  153.6634 H   0  0  0  0  0  0  0  0  0  0  0  0
  146.9420  142.9995  154.7962 H   0  0  0  0  0  0  0  0  0  0  0  0
  149.3782  142.7299  155.2488 H   0  0  0  0  0  0  0  0  0  0  0  0
  151.1929  143.8147  157.8829 H   0  0  0  0  0  0  0  0  0  0  0  0
  1  2  1  0  0  0  0
  1 22  1  0  0  0  0
  1 23  1  0  0  0  0
  1 24  1  0  0  0  0
  2 21  1  0  0  0  0
  2  3  2  0  0  0  0
  3  4  1  0  0  0  0
  3 25  1  0  0  0  0
  4  5  2  0  0  0  0
  4 26  1  0  0  0  0
  5  6  1  0  0  0  0
  5 27  1  0  0  0  0
  6  7  1  0  0  0  0
  6 21  2  0  0  0  0
  7  8  1  0  0  0  0
  8  9  1  0  0  0  0
  8 28  1  0  0  0  0
  8 29  1  0  0  0  0
  9 10  1  0  0  0  0
  9 30  1  0  0  0  0
  9 31  1  0  0  0  0
 10 20  1  0  0  0  0
 10 11  1  0  0  0  0
 11 12  1  0  0  0  0
 11 14  2  0  0  0  0
 12 13  1  0  0  0  0
 12 32  1  0  0  0  0
 12 33  1  0  0  0  0
 13 34  1  0  0  0  0
 14 15  1  0  0  0  0
 15 20  2  0  0  0  0
 15 16  1  0  0  0  0
 16 17  2  0  0  0  0
 16 35  1  0  0  0  0
 17 18  1  0  0  0  0
 17 36  1  0  0  0  0
 18 19  2  0  0  0  0
 18 37  1  0  0  0  0
 19 20  1  0  0  0  0
 19 38  1  0  0  0  0
 21 39  1  0  0  0  0
M  END
> <s_m_source_file>
AV-unprocessed.smi

> <i_m_source_file_index>
2958

> <i_lp_mmshare_version>
43012

> <i_f3d_flags>
0

> <s_epik_input>
W0NIM11jMVtjSF1bY0hdW2NIXWMoW2NIXTEpT1tDSDJdW0NIMl1uKGMobjIpW0NIMl1bT0hdKWMoYzIzKVtjSF1bY0hdW2NIXVtjSF0z

> <s_epik_cmdline>
J2VwaWtfcHl0aG9uJywgJy1waCcsICc3LjAnLCAnLXRuJywgJzgnLCAnLW1hJywgJzIwMCcsICctbWV0YWxfYmluZGluZycsICctaW1hZScsICc8aW5maWxlLm1hZT4nLCAnLW9tYWUnLCAnPG91dGZpbGUubWFlPic=

> <r_lp_tautomer_probability>
1

> <r_epik_Ionization_Penalty>
0.0482759

> <r_epik_Ionization_Penalty_Charging>
0

> <r_epik_Ionization_Penalty_Neutral>
0.0482759

> <r_epik_State_Penalty>
0.0410957

> <r_epik_Charging_Adjusted_Penalty>
0.0410957

> <i_epik_Tot_Q>
0

> <i_epik_Tot_abs_Q>
0

> <r_epik_Metal_State_Penalty>
4.25529e-05

> <b_epik_Metal_Only>
0

> <s_lp_Force_Field>
OPLS_2005

> <r_lp_Energy>
16.0806

> <b_lp_Chiralities_Consistent>
1

> <s_lp_Variant>
AV-unprocessed.smi:2958-1

> <Gold.Version>
5.8.1

> <Gold.Id.Protein>
6NUR|6NUR_protein|mol2

> <Gold.PLP.Fitness>
55.0285

> <Gold.PLP.PLP>
-51.0737

> <Gold.PLP.part.hbond>
-2.3819

> <Gold.PLP.part.metal>
0.0000

> <Gold.PLP.part.buried>
-0.3767

> <Gold.PLP.part.nonpolar>
-47.5774

> <Gold.PLP.part.repulsive>
1.6394

> <Gold.PLP.ligand.clash>
0.0000

> <Gold.PLP.ligand.torsion>
1.1125

> <Gold.PLP.Chemscore.Hbond>
2.0416

> <Gold.PLP.Chemscore.CHOScore>
0.0000

> <Gold.PLP.Chemscore.Metal>
0.0000

> <Gold.PLP.Chemscore.Internal.Correction>
0.0549

> <Gold.Rescore>
     Score         DG    S(hbond)    S(metal)    S(lipo)     H(rot)  DE(clash)    DE(int)     intcor
     20.03     -22.60       1.75        0.00     143.41       2.15       1.65       0.91       ----

> <Gold.Chemscore.Fitness>
20.0349

> <Gold.Chemscore.DG>
-22.5962

> <Gold.Chemscore.ZeroCoef>
-5.4800

> <Gold.Chemscore.Hbond>
1.7487

> <Gold.Chemscore.Metal>
0.0000

> <Gold.Chemscore.Lipo>
143.4143

> <Gold.Chemscore.Internal_Hbond>
0.0000

> <Gold.Chemscore.DEClash>
1.6524

> <Gold.Chemscore.DEInternal>
0.9089

> <Gold.Chemscore.Rot>
2.1499

> <Gold.Chemscore.Internal.Correction>
   9.000000E+99

> <Gold.Chemscore.Hbonds>
donor molecule, donor type, donor heavy atom, donor atom, acceptor molecule, acceptor atom, score
      P1  H  7997  8008       L1     7  0.01

> <Gold.Chemscore.Hbond.Weighted>
-5.8405

> <Gold.Chemscore.Metal.Weighted>
-0.0000

> <Gold.Chemscore.Lipo.Weighted>
-16.7795

> <Gold.Chemscore.Internal_Hbond.Weighted>
0.0000

> <Gold.Chemscore.DEClash.Weighted>
1.6524

> <Gold.Chemscore.DEInternal.Weighted>
0.9089

> <Gold.Chemscore.Rot.Weighted>
5.5038

> <Gold.Chemscore.Internal.Correction.Weighted>
   9.000000E+99

> <Gold.Protein.RotatedTorsions>
[ 6907 6896 6895 6894 ] final  -16.99 input  -60.11 | X-H torsion
[ 7974 7965 7964 7962 ] final  152.82 input  175.53 | X-H torsion
[ 8008 7997 7996 7995 ] final  -86.89 input   59.86 | X-H torsion
[ 10167 10162 10161 10158 ] final   36.60 input  -65.29 | X-H torsion
[ 10718 10713 10712 10709 ] final -147.90 input   66.30 | X-H torsion
[ 10763 10752 10751 10750 ] final  -85.39 input  -60.55 | X-H torsion
[ 11005 11000 10999 10996 ] final  -19.16 input  -57.11 | X-H torsion

> <Gold.Protein.ActiveResidues>
 VAL166  LYS551  ARG553  GLY616  TRP617  ASP618  TYR619  PRO620  LYS621  CYS622 
 ASP623  PHE694  ASN695  SER759  ASP760  ASP761  ALA762  ILE779  LEU786  VAL792 
 PHE793  MET794  SER795  GLU796  ALA797  LYS798  CYS799  TRP800  GLU811  SER814 

> <Gold.Protein.RotatedAtoms>
  151.3001  135.0766  159.9235 H   0  0  0  0  0  0  0  0  0  0  0  0  # atno 6907 bound_to 6896
  152.5299  133.9842  159.7831 H   0  0  0  0  0  0  0  0  0  0  0  0  # atno 6908 bound_to 6896
  151.0127  133.5899  159.2711 H   0  0  0  0  0  0  0  0  0  0  0  0  # atno 6909 bound_to 6896
  144.8196  139.6719  143.6106 H   0  0  0  0  0  0  0  0  0  0  0  0  # atno 7974 bound_to 7965
  154.6570  140.0572  157.0020 H   0  0  0  0  0  0  0  0  0  0  0  0  # atno 8008 bound_to 7997
  155.1285  140.3254  155.4461 H   0  0  0  0  0  0  0  0  0  0  0  0  # atno 8009 bound_to 7997
  156.2601  140.1985  156.6405 H   0  0  0  0  0  0  0  0  0  0  0  0  # atno 8010 bound_to 7997
  140.4112  144.1590  150.6139 H   0  0  0  0  0  0  0  0  0  0  0  0  # atno 10167 bound_to 10162
  156.4134  130.7993  151.2211 H   0  0  0  0  0  0  0  0  0  0  0  0  # atno 10718 bound_to 10713
  154.6105  135.5487  153.7468 H   0  0  0  0  0  0  0  0  0  0  0  0  # atno 10763 bound_to 10752
  153.0193  135.6388  154.1585 H   0  0  0  0  0  0  0  0  0  0  0  0  # atno 10764 bound_to 10752
  154.1523  135.2902  155.3112 H   0  0  0  0  0  0  0  0  0  0  0  0  # atno 10765 bound_to 10752
  140.8339  133.7976  155.9788 H   0  0  0  0  0  0  0  0  0  0  0  0  # atno 11005 bound_to 11000
  146.2501  139.6181  142.9433 LP  0  0  0  0  0  0  0  0  0  0  0  0  # atno 17320 bound_to 7965
  145.5135  141.0434  143.2474 LP  0  0  0  0  0  0  0  0  0  0  0  0  # atno 17321 bound_to 7965
  140.4635  143.2439  151.9187 LP  0  0  0  0  0  0  0  0  0  0  0  0  # atno 17342 bound_to 10162
  139.4782  144.5443  151.8482 LP  0  0  0  0  0  0  0  0  0  0  0  0  # atno 17343 bound_to 10162
  157.7507  131.0250  150.3903 LP  0  0  0  0  0  0  0  0  0  0  0  0  # atno 17370 bound_to 10713
  156.4206  130.3952  149.6828 LP  0  0  0  0  0  0  0  0  0  0  0  0  # atno 17371 bound_to 10713
  140.8968  134.2428  157.5064 LP  0  0  0  0  0  0  0  0  0  0  0  0  # atno 17394 bound_to 11000
  139.8704  134.9688  156.4642 LP  0  0  0  0  0  0  0  0  0  0  0  0  # atno 17395 bound_to 11000

$$$$
