AV-unprocessed.smi:1744|AV-procd|sdf|7026|dock9
  -GOLD-   22720 8243D 1   1.00000     0.00000
 Structure written by MMmdl.
 44 45  0  0  0  0  0  0  0  0  2 V2000
  151.8127  145.7618  160.1456 C   0  0  0  0  0  0  0  0  0  0  0  0
  152.3043  145.1326  158.8360 C   0  0  0  0  0  0  0  0  0  0  0  0
  152.0021  143.7157  158.7726 N   0  0  0  0  0  0  0  0  0  0  0  0
  151.1740  143.0579  157.8850 C   0  0  0  0  0  0  0  0  0  0  0  0
  151.2235  141.7422  158.2352 C   0  0  0  0  0  0  0  0  0  0  0  0
  150.5136  140.7040  157.5822 N   0  0  0  0  0  0  0  0  0  0  0  0
  150.4138  140.4959  156.2596 C   0  0  0  0  0  0  0  0  0  0  0  0
  150.9275  141.1999  155.3907 O   0  0  0  0  0  0  0  0  0  0  0  0
  149.6693  139.4131  155.9919 N   0  0  0  0  0  0  0  0  0  0  0  0
  149.3701  138.9026  154.6542 C   0  0  2  0  0  0  0  0  0  0  0  0
  148.2416  137.8526  154.6795 C   0  0  0  0  0  0  0  0  0  0  0  0
  148.6958  136.5348  155.3311 C   0  0  0  0  0  0  0  0  0  0  0  0
  149.9024  135.9898  154.6531 N   0  3  2  0  0  0  0  0  0  0  0  0
  150.2989  134.6496  155.1575 C   0  0  0  0  0  0  0  0  0  0  0  0
  149.4883  133.5090  154.5330 C   0  0  0  0  0  0  0  0  0  0  0  0
  148.6724  133.8311  153.5269 N   0  0  0  0  0  0  0  0  0  0  0  0
  149.5817  132.3589  154.9583 O   0  0  0  0  0  0  0  0  0  0  0  0
  151.0273  136.9593  154.6768 C   0  0  0  0  0  0  0  0  0  0  0  0
  150.6305  138.2929  154.0166 C   0  0  0  0  0  0  0  0  0  0  0  0
  152.1030  141.6704  159.3527 C   0  0  0  0  0  0  0  0  0  0  0  0
  152.5678  142.8698  159.6688 N   0  0  0  0  0  0  0  0  0  0  0  0
  152.0590  146.8230  160.1817 H   0  0  0  0  0  0  0  0  0  0  0  0
  152.2740  145.2829  161.0100 H   0  0  0  0  0  0  0  0  0  0  0  0
  150.7309  145.6689  160.2475 H   0  0  0  0  0  0  0  0  0  0  0  0
  151.8448  145.6281  157.9795 H   0  0  0  0  0  0  0  0  0  0  0  0
  153.3826  145.2644  158.7375 H   0  0  0  0  0  0  0  0  0  0  0  0
  150.6375  143.5720  157.1009 H   0  0  0  0  0  0  0  0  0  0  0  0
  150.0318  140.0537  158.1855 H   0  0  0  0  0  0  0  0  0  0  0  0
  149.2948  138.8945  156.7727 H   0  0  0  0  0  0  0  0  0  0  0  0
  149.0533  139.7452  154.0366 H   0  0  0  0  0  0  0  0  0  0  0  0
  147.3634  138.2423  155.1957 H   0  0  0  0  0  0  0  0  0  0  0  0
  147.9211  137.6492  153.6568 H   0  0  0  0  0  0  0  0  0  0  0  0
  148.9088  136.6911  156.3898 H   0  0  0  0  0  0  0  0  0  0  0  0
  147.8791  135.8143  155.2805 H   0  0  0  0  0  0  0  0  0  0  0  0
  151.3441  134.4585  154.9104 H   0  0  0  0  0  0  0  0  0  0  0  0
  150.2246  134.6213  156.2461 H   0  0  0  0  0  0  0  0  0  0  0  0
  148.1180  133.1194  153.0732 H   0  0  0  0  0  0  0  0  0  0  0  0
  148.6154  134.7909  153.2160 H   0  0  0  0  0  0  0  0  0  0  0  0
  151.3466  137.1234  155.7072 H   0  0  0  0  0  0  0  0  0  0  0  0
  151.8831  136.5420  154.1446 H   0  0  0  0  0  0  0  0  0  0  0  0
  150.4455  138.1213  152.9554 H   0  0  0  0  0  0  0  0  0  0  0  0
  151.4603  138.9990  154.0674 H   0  0  0  0  0  0  0  0  0  0  0  0
  152.4168  140.8182  159.9369 H   0  0  0  0  0  0  0  0  0  0  0  0
  149.6601  135.8602  153.6807 H   0  0  0  0  0  0  0  0  0  0  0  0
  1  2  1  0  0  0  0
  1 22  1  0  0  0  0
  1 23  1  0  0  0  0
  1 24  1  0  0  0  0
  2  3  1  0  0  0  0
  2 25  1  0  0  0  0
  2 26  1  0  0  0  0
  3 21  1  0  0  0  0
  3  4  1  0  0  0  0
  4  5  2  0  0  0  0
  4 27  1  0  0  0  0
  5  6  1  0  0  0  0
  5 20  1  0  0  0  0
  6  7  1  0  0  0  0
  6 28  1  0  0  0  0
  7  8  2  0  0  0  0
  7  9  1  0  0  0  0
  9 10  1  0  0  0  0
  9 29  1  0  0  0  0
 10 19  1  0  0  0  0
 10 11  1  0  0  0  0
 10 30  1  0  0  0  0
 11 12  1  0  0  0  0
 11 31  1  0  0  0  0
 11 32  1  0  0  0  0
 12 13  1  0  0  0  0
 12 33  1  0  0  0  0
 12 34  1  0  0  0  0
 13 14  1  0  0  0  0
 13 18  1  0  0  0  0
 13 44  1  0  0  0  0
 14 15  1  0  0  0  0
 14 35  1  0  0  0  0
 14 36  1  0  0  0  0
 15 16  1  0  0  0  0
 15 17  2  0  0  0  0
 16 37  1  0  0  0  0
 16 38  1  0  0  0  0
 18 19  1  0  0  0  0
 18 39  1  0  0  0  0
 18 40  1  0  0  0  0
 19 41  1  0  0  0  0
 19 42  1  0  0  0  0
 20 21  2  0  0  0  0
 20 43  1  0  0  0  0
M  CHG  1  13   1
M  END
> <s_m_source_file>
AV-unprocessed.smi

> <i_m_source_file_index>
1744

> <i_lp_mmshare_version>
43012

> <i_f3d_flags>
0

> <s_epik_input>
W0NIM11bQ0gyXW4xW2NIXWMoW2NIXW4xKVtOSF1DKD1PKVtOSF1bQ0hdMltDSDJdW0NIMl1OKFtDSDJdW0NIMl0yKVtDSDJdQyg9TylbTkgyXQ==

> <s_epik_cmdline>
J2VwaWtfcHl0aG9uJywgJy1waCcsICc3LjAnLCAnLXRuJywgJzgnLCAnLW1hJywgJzIwMCcsICctbWV0YWxfYmluZGluZycsICctaW1hZScsICc8aW5maWxlLm1hZT4nLCAnLW9tYWUnLCAnPG91dGZpbGUubWFlPic=

> <r_lp_tautomer_probability>
1

> <r_epik_Ionization_Penalty>
0.839033

> <r_epik_Ionization_Penalty_Charging>
0.838844

> <r_epik_Ionization_Penalty_Neutral>
0.000189439

> <r_epik_State_Penalty>
0.8734

> <r_epik_Charging_Adjusted_Penalty>
1.71224

> <i_epik_Tot_Q>
1

> <i_epik_Tot_abs_Q>
1

> <r_epik_Metal_State_Penalty>
0.89072

> <b_epik_Metal_Only>
0

> <s_lp_Force_Field>
OPLS_2005

> <r_lp_Energy>
17.546

> <b_lp_Chiralities_Consistent>
1

> <s_lp_Variant>
AV-unprocessed.smi:1744-3

> <Gold.Version>
5.8.1

> <Gold.Id.Protein>
6NUR|6NUR_protein|mol2

> <Gold.PLP.Fitness>
49.7553

> <Gold.PLP.PLP>
-37.7117

> <Gold.PLP.part.hbond>
-3.0000

> <Gold.PLP.part.metal>
0.0000

> <Gold.PLP.part.buried>
-4.8703

> <Gold.PLP.part.nonpolar>
-30.8656

> <Gold.PLP.part.repulsive>
0.1985

> <Gold.PLP.ligand.clash>
0.0000

> <Gold.PLP.ligand.torsion>
0.8820

> <Gold.PLP.Chemscore.Hbond>
3.5920

> <Gold.PLP.Chemscore.CHOScore>
1.0000

> <Gold.PLP.Chemscore.Metal>
0.0000

> <Gold.Chemscore.Hbonds>
donor molecule, donor type, donor heavy atom, donor atom, acceptor molecule, acceptor atom, score
      L1  H    13    44       P1  7948  1.90
      L1  H    16    38       P1  7948  0.99
      P1  H  7989  7998       L1     8  0.59
      L1  C     4    27       P1  8028  1.00

> <Gold.PLP.Chemscore.Internal.Correction>
0.0317

> <Gold.Rescore>
     Score         DG    S(hbond)    S(metal)    S(lipo)     H(rot)  DE(clash)    DE(int)     intcor
     16.04     -17.04       2.38        0.00      79.59       2.22       0.12       0.88       ----

> <Gold.Chemscore.Fitness>
16.0396

> <Gold.Chemscore.DG>
-17.0417

> <Gold.Chemscore.ZeroCoef>
-5.4800

> <Gold.Chemscore.Hbond>
2.3758

> <Gold.Chemscore.Metal>
0.0000

> <Gold.Chemscore.Lipo>
79.5947

> <Gold.Chemscore.Internal_Hbond>
0.0000

> <Gold.Chemscore.DEClash>
0.1199

> <Gold.Chemscore.DEInternal>
0.8822

> <Gold.Chemscore.Rot>
2.2211

> <Gold.Chemscore.Internal.Correction>
   9.000000E+99

> <Gold.Chemscore.Hbonds>
donor molecule, donor type, donor heavy atom, donor atom, acceptor molecule, acceptor atom, score
      L1  H    13    44       P1  7948  0.21
      L1  H    16    38       P1  7948  0.42
      P1  H  7989  7998       L1     8  0.54

> <Gold.Chemscore.Hbond.Weighted>
-7.9352

> <Gold.Chemscore.Metal.Weighted>
-0.0000

> <Gold.Chemscore.Lipo.Weighted>
-9.3126

> <Gold.Chemscore.Internal_Hbond.Weighted>
0.0000

> <Gold.Chemscore.DEClash.Weighted>
0.1199

> <Gold.Chemscore.DEInternal.Weighted>
0.8822

> <Gold.Chemscore.Rot.Weighted>
5.6860

> <Gold.Chemscore.Internal.Correction.Weighted>
   9.000000E+99

> <Gold.Protein.RotatedTorsions>
[ 6907 6896 6895 6894 ] final  162.56 input  -60.11 | X-H torsion
[ 7974 7965 7964 7962 ] final   68.70 input  175.53 | X-H torsion
[ 8008 7997 7996 7995 ] final -160.96 input   59.86 | X-H torsion
[ 10167 10162 10161 10158 ] final  123.30 input  -65.29 | X-H torsion
[ 10718 10713 10712 10709 ] final -128.15 input   66.30 | X-H torsion
[ 10763 10752 10751 10750 ] final -100.69 input  -60.55 | X-H torsion
[ 11005 11000 10999 10996 ] final   71.50 input  -57.11 | X-H torsion

> <Gold.Protein.ActiveResidues>
 VAL166  LYS551  ARG553  GLY616  TRP617  ASP618  TYR619  PRO620  LYS621  CYS622 
 ASP623  PHE694  ASN695  SER759  ASP760  ASP761  ALA762  ILE779  LEU786  VAL792 
 PHE793  MET794  SER795  GLU796  ALA797  LYS798  CYS799  TRP800  GLU811  SER814 

> <Gold.Protein.RotatedAtoms>
  151.9386  133.3631  159.3956 H   0  0  0  0  0  0  0  0  0  0  0  0  # atno 6907 bound_to 6896
  150.7003  134.4463  159.5325 H   0  0  0  0  0  0  0  0  0  0  0  0  # atno 6908 bound_to 6896
  152.2116  134.8496  160.0547 H   0  0  0  0  0  0  0  0  0  0  0  0  # atno 6909 bound_to 6896
  145.7994  139.2974  143.1164 H   0  0  0  0  0  0  0  0  0  0  0  0  # atno 7974 bound_to 7965
  155.7851  140.0870  157.2038 H   0  0  0  0  0  0  0  0  0  0  0  0  # atno 8008 bound_to 7997
  154.3988  140.1500  156.3156 H   0  0  0  0  0  0  0  0  0  0  0  0  # atno 8009 bound_to 7997
  155.8614  140.3430  155.5762 H   0  0  0  0  0  0  0  0  0  0  0  0  # atno 8010 bound_to 7997
  139.5808  144.6985  151.3534 H   0  0  0  0  0  0  0  0  0  0  0  0  # atno 10167 bound_to 10162
  156.1924  130.6804  151.0440 H   0  0  0  0  0  0  0  0  0  0  0  0  # atno 10718 bound_to 10713
  154.7599  135.4926  153.9444 H   0  0  0  0  0  0  0  0  0  0  0  0  # atno 10763 bound_to 10752
  153.1239  135.6738  153.9298 H   0  0  0  0  0  0  0  0  0  0  0  0  # atno 10764 bound_to 10752
  153.9021  135.3108  155.3427 H   0  0  0  0  0  0  0  0  0  0  0  0  # atno 10765 bound_to 10752
  139.9540  134.7177  156.0796 H   0  0  0  0  0  0  0  0  0  0  0  0  # atno 11005 bound_to 11000
  145.9894  140.8615  143.0074 LP  0  0  0  0  0  0  0  0  0  0  0  0  # atno 17320 bound_to 7965
  144.6771  140.2194  143.7368 LP  0  0  0  0  0  0  0  0  0  0  0  0  # atno 17321 bound_to 7965
  140.7086  143.7449  150.7526 LP  0  0  0  0  0  0  0  0  0  0  0  0  # atno 17342 bound_to 10162
  140.0981  143.4814  152.2441 LP  0  0  0  0  0  0  0  0  0  0  0  0  # atno 17343 bound_to 10162
  157.6937  131.0801  150.7032 LP  0  0  0  0  0  0  0  0  0  0  0  0  # atno 17370 bound_to 10713
  156.7089  130.4646  149.5552 LP  0  0  0  0  0  0  0  0  0  0  0  0  # atno 17371 bound_to 10713
  141.1208  133.6613  156.3210 LP  0  0  0  0  0  0  0  0  0  0  0  0  # atno 17394 bound_to 11000
  140.5652  134.5894  157.5444 LP  0  0  0  0  0  0  0  0  0  0  0  0  # atno 17395 bound_to 11000

$$$$
