AV-unprocessed.smi:72|AV-procd|sdf|747|dock9
  -GOLD-   2262017 83D 1   1.00000     0.00000
 Structure written by MMmdl.
 29 30  0  0  0  0  0  0  0  0  1 V2000
  152.9607  141.1749  158.9782 N   0  0  0  0  0  0  0  0  0  0  0  0
  152.2192  141.0137  157.8264 C   0  0  0  0  0  0  0  0  0  0  0  0
  151.2153  141.9638  157.5926 N   0  0  0  0  0  0  0  0  0  0  0  0
  150.5220  141.8199  156.5078 C   0  0  0  0  0  0  0  0  0  0  0  0
  150.7894  140.7345  155.5810 N   0  0  0  0  0  0  0  0  0  0  0  0
  149.9736  140.5484  154.3218 C   0  0  2  0  0  0  0  0  0  0  0  0
  149.0977  141.6268  154.1785 O   0  0  0  0  0  0  0  0  0  0  0  0
  147.8381  141.1549  153.7174 C   0  0  2  0  0  0  0  0  0  0  0  0
  146.7161  142.1635  154.0213 C   0  0  0  0  0  0  0  0  0  0  0  0
  146.8019  142.5976  155.3618 O   0  0  0  0  0  0  0  0  0  0  0  0
  147.7052  139.7884  154.4039 C   0  0  2  0  0  0  0  0  0  0  0  0
  147.2304  139.9243  155.7312 O   0  0  0  0  0  0  0  0  0  0  0  0
  149.1348  139.2604  154.4031 C   0  0  1  0  0  0  0  0  0  0  0  0
  149.3480  138.4419  153.2708 O   0  0  0  0  0  0  0  0  0  0  0  0
  151.8038  139.7897  155.8950 C   0  0  0  0  0  0  0  0  0  0  0  0
  152.0150  138.8352  155.1468 O   0  0  0  0  0  0  0  0  0  0  0  0
  152.5267  139.9942  157.0765 N   0  0  0  0  0  0  0  0  0  0  0  0
  150.6790  140.5656  153.4892 H   0  0  0  0  0  0  0  0  0  0  0  0
  147.9082  140.9856  152.6407 H   0  0  0  0  0  0  0  0  0  0  0  0
  147.0161  139.1332  153.8692 H   0  0  0  0  0  0  0  0  0  0  0  0
  149.3688  138.6844  155.3002 H   0  0  0  0  0  0  0  0  0  0  0  0
  153.7071  140.5522  159.2506 H   0  0  0  0  0  0  0  0  0  0  0  0
  152.8114  141.9270  159.6350 H   0  0  0  0  0  0  0  0  0  0  0  0
  149.7069  142.4886  156.2284 H   0  0  0  0  0  0  0  0  0  0  0  0
  146.8226  143.0452  153.3885 H   0  0  0  0  0  0  0  0  0  0  0  0
  145.7322  141.7364  153.8241 H   0  0  0  0  0  0  0  0  0  0  0  0
  147.4569  143.2765  155.4173 H   0  0  0  0  0  0  0  0  0  0  0  0
  147.5705  139.2092  156.2467 H   0  0  0  0  0  0  0  0  0  0  0  0
  149.6540  138.9865  152.5615 H   0  0  0  0  0  0  0  0  0  0  0  0
  1  2  1  0  0  0  0
  1 22  1  0  0  0  0
  1 23  1  0  0  0  0
  2 17  2  0  0  0  0
  2  3  1  0  0  0  0
  3  4  2  0  0  0  0
  4  5  1  0  0  0  0
  4 24  1  0  0  0  0
  5  6  1  0  0  0  0
  5 15  1  0  0  0  0
  6 18  1  0  0  0  0
  6 13  1  0  0  0  0
  6  7  1  0  0  0  0
  7  8  1  0  0  0  0
  8 19  1  0  0  0  0
  8  9  1  0  0  0  0
  8 11  1  0  0  0  0
  9 10  1  0  0  0  0
  9 25  1  0  0  0  0
  9 26  1  0  0  0  0
 10 27  1  0  0  0  0
 11 20  1  0  0  0  0
 11 12  1  0  0  0  0
 11 13  1  0  0  0  0
 12 28  1  0  0  0  0
 13 21  1  0  0  0  0
 13 14  1  0  0  0  0
 14 29  1  0  0  0  0
 15 16  2  0  0  0  0
 15 17  1  0  0  0  0
M  END
> <s_m_source_file>
AV-unprocessed.smi

> <i_m_source_file_index>
72

> <i_lp_mmshare_version>
43012

> <i_f3d_flags>
0

> <s_epik_input>
W05IMl1jMW5bY0hdbihjKD1PKW4xKVtDQEBIXTJPW0NASF0oW0NIMl1bT0hdKVtDQEBIXShbT0hdKVtDQEhdMltPSF0=

> <s_epik_cmdline>
J2VwaWtfcHl0aG9uJywgJy1waCcsICc3LjAnLCAnLXRuJywgJzgnLCAnLW1hJywgJzIwMCcsICctbWV0YWxfYmluZGluZycsICctaW1hZScsICc8aW5maWxlLm1hZT4nLCAnLW9tYWUnLCAnPG91dGZpbGUubWFlPic=

> <r_lp_tautomer_probability>
4.77166e-05

> <r_epik_Ionization_Penalty>
1.3546

> <r_epik_Ionization_Penalty_Charging>
1.46833e-10

> <r_epik_Ionization_Penalty_Neutral>
1.3546

> <r_epik_State_Penalty>
3.51908

> <r_epik_Charging_Adjusted_Penalty>
3.51908

> <i_epik_Tot_Q>
0

> <i_epik_Tot_abs_Q>
0

> <r_epik_Metal_State_Penalty>
3.44088

> <b_epik_Metal_Only>
1

> <s_epik_Chemistry_Notes>
This compound contains an acetal/aminal-like group ( X-CH(R)-Y where X, Y are N, S, or O) that may be acid/base labile, releasing an aldehyde.

> <s_lp_Force_Field>
OPLS_2005

> <r_lp_Energy>
27.1219

> <b_lp_Chiralities_Consistent>
1

> <s_lp_Variant>
AV-unprocessed.smi:72-85

> <Gold.Version>
5.8.1

> <Gold.Id.Protein>
6NUR|6NUR_protein|mol2

> <Gold.PLP.Fitness>
40.2138

> <Gold.PLP.PLP>
-27.7720

> <Gold.PLP.part.hbond>
-5.4288

> <Gold.PLP.part.metal>
0.0000

> <Gold.PLP.part.buried>
-1.4203

> <Gold.PLP.part.nonpolar>
-20.6917

> <Gold.PLP.part.repulsive>
0.3443

> <Gold.PLP.ligand.clash>
0.0000

> <Gold.PLP.ligand.torsion>
0.1241

> <Gold.PLP.Chemscore.Hbond>
3.2261

> <Gold.PLP.Chemscore.CHOScore>
1.0000

> <Gold.PLP.Chemscore.Metal>
0.0000

> <Gold.Chemscore.Hbonds>
donor molecule, donor type, donor heavy atom, donor atom, acceptor molecule, acceptor atom, score
      L1  H    10    27       P1  8028  0.80
      L1  H    14    29       P1  7957  1.00
      P1  H  7997  8010       L1    17  1.00
      P1  H  8011  8017       L1     7  0.40
      L1  C     4    24       P1  8028  1.00

> <Gold.PLP.Chemscore.Internal.Correction>
0.0117

> <Gold.Rescore>
     Score         DG    S(hbond)    S(metal)    S(lipo)     H(rot)  DE(clash)    DE(int)     intcor
      2.36      -3.50       1.77        0.00      21.49       4.06       0.78       0.36       ----

> <Gold.Chemscore.Fitness>
2.3622

> <Gold.Chemscore.DG>
-3.5029

> <Gold.Chemscore.ZeroCoef>
-5.4800

> <Gold.Chemscore.Hbond>
1.7671

> <Gold.Chemscore.Metal>
0.0000

> <Gold.Chemscore.Lipo>
21.4910

> <Gold.Chemscore.Internal_Hbond>
0.0000

> <Gold.Chemscore.DEClash>
0.7838

> <Gold.Chemscore.DEInternal>
0.3569

> <Gold.Chemscore.Rot>
4.0600

> <Gold.Chemscore.Internal.Correction>
   9.000000E+99

> <Gold.Chemscore.Hbonds>
donor molecule, donor type, donor heavy atom, donor atom, acceptor molecule, acceptor atom, score
      L1  H    10    27       P1  8028  0.11
      L1  H    14    29       P1  7957  0.85
      P1  H  7997  8010       L1    17  0.42
      P1  H  8011  8017       L1     7  0.02

> <Gold.Chemscore.Hbond.Weighted>
-5.9020

> <Gold.Chemscore.Metal.Weighted>
-0.0000

> <Gold.Chemscore.Lipo.Weighted>
-2.5144

> <Gold.Chemscore.Internal_Hbond.Weighted>
0.0000

> <Gold.Chemscore.DEClash.Weighted>
0.7838

> <Gold.Chemscore.DEInternal.Weighted>
0.3569

> <Gold.Chemscore.Rot.Weighted>
10.3936

> <Gold.Chemscore.Internal.Correction.Weighted>
   9.000000E+99

> <Gold.Protein.RotatedTorsions>
[ 6907 6896 6895 6894 ] final  -42.93 input  -60.11 | X-H torsion
[ 7974 7965 7964 7962 ] final  -84.31 input  175.53 | X-H torsion
[ 8008 7997 7996 7995 ] final   62.43 input   59.86 | X-H torsion
[ 10167 10162 10161 10158 ] final -114.14 input  -65.29 | X-H torsion
[ 10718 10713 10712 10709 ] final  162.66 input   66.30 | X-H torsion
[ 10763 10752 10751 10750 ] final   71.57 input  -60.55 | X-H torsion
[ 11005 11000 10999 10996 ] final -126.05 input  -57.11 | X-H torsion

> <Gold.Protein.ActiveResidues>
 VAL166  LYS551  ARG553  GLY616  TRP617  ASP618  TYR619  PRO620  LYS621  CYS622 
 ASP623  PHE694  ASN695  SER759  ASP760  ASP761  ALA762  ILE779  LEU786  VAL792 
 PHE793  MET794  SER795  GLU796  ALA797  LYS798  CYS799  TRP800  GLU811  SER814 

> <Gold.Protein.RotatedAtoms>
  150.9496  134.8898  159.7663 H   0  0  0  0  0  0  0  0  0  0  0  0  # atno 6907 bound_to 6896
  152.5114  134.3825  159.9366 H   0  0  0  0  0  0  0  0  0  0  0  0  # atno 6908 bound_to 6896
  151.3841  133.3771  159.2748 H   0  0  0  0  0  0  0  0  0  0  0  0  # atno 6909 bound_to 6896
  145.5083  140.9542  143.1721 H   0  0  0  0  0  0  0  0  0  0  0  0  # atno 7974 bound_to 7965
  155.6142  140.3495  155.4632 H   0  0  0  0  0  0  0  0  0  0  0  0  # atno 8008 bound_to 7997
  156.0130  140.1237  157.0458 H   0  0  0  0  0  0  0  0  0  0  0  0  # atno 8009 bound_to 7997
  154.4287  140.1077  156.5843 H   0  0  0  0  0  0  0  0  0  0  0  0  # atno 8010 bound_to 7997
  140.1042  143.4585  152.1793 H   0  0  0  0  0  0  0  0  0  0  0  0  # atno 10167 bound_to 10162
  157.1194  131.0488  151.2422 H   0  0  0  0  0  0  0  0  0  0  0  0  # atno 10718 bound_to 10713
  153.0407  135.5132  154.7613 H   0  0  0  0  0  0  0  0  0  0  0  0  # atno 10763 bound_to 10752
  154.6553  135.2931  154.9937 H   0  0  0  0  0  0  0  0  0  0  0  0  # atno 10764 bound_to 10752
  154.0807  135.6664  153.4890 H   0  0  0  0  0  0  0  0  0  0  0  0  # atno 10765 bound_to 10752
  140.9713  134.0802  157.3866 H   0  0  0  0  0  0  0  0  0  0  0  0  # atno 11005 bound_to 11000
  144.7741  139.6668  143.7182 LP  0  0  0  0  0  0  0  0  0  0  0  0  # atno 17320 bound_to 7965
  146.2182  139.5588  142.9636 LP  0  0  0  0  0  0  0  0  0  0  0  0  # atno 17321 bound_to 7965
  139.5654  144.7432  151.4037 LP  0  0  0  0  0  0  0  0  0  0  0  0  # atno 17342 bound_to 10162
  140.6961  143.7746  150.7329 LP  0  0  0  0  0  0  0  0  0  0  0  0  # atno 17343 bound_to 10162
  157.4489  130.7587  149.7134 LP  0  0  0  0  0  0  0  0  0  0  0  0  # atno 17370 bound_to 10713
  155.9832  130.4003  150.3377 LP  0  0  0  0  0  0  0  0  0  0  0  0  # atno 17371 bound_to 10713
  139.8913  135.0118  156.6785 LP  0  0  0  0  0  0  0  0  0  0  0  0  # atno 17394 bound_to 11000
  140.7325  133.9047  155.8221 LP  0  0  0  0  0  0  0  0  0  0  0  0  # atno 17395 bound_to 11000

$$$$
