AV-unprocessed.smi:594|AV-procd|sdf|3014|dock6
  -GOLD-   2262023523D 1   1.00000     0.00000
 Structure written by MMmdl.
 40 41  0  0  0  0  0  0  0  0  3 V2000
  153.4304  141.2407  160.5939 C   0  0  0  0  0  0  0  0  0  0  0  0
  152.8597  142.6114  160.1878 C   0  0  2  0  0  0  0  0  0  0  0  0
  152.4812  143.4316  161.4381 C   0  0  0  0  0  0  0  0  0  0  0  0
  151.9141  144.8105  161.0687 C   0  0  0  0  0  0  0  0  0  0  0  0
  150.7067  144.6762  160.1313 C   0  0  0  0  0  0  0  0  0  0  0  0
  151.0728  143.8759  158.8733 C   0  0  0  0  0  0  0  0  0  0  0  0
  151.6497  142.4890  159.2280 C   0  0  1  0  0  0  0  0  0  0  0  0
  152.0389  141.7890  158.0057 N   0  0  0  0  0  0  0  0  0  0  0  0
  151.2113  141.4478  157.0066 C   0  0  0  0  0  0  0  0  0  0  0  0
  150.0095  141.7176  157.0022 O   0  0  0  0  0  0  0  0  0  0  0  0
  151.8552  140.7060  155.8267 C   0  0  0  0  0  0  0  0  0  0  0  0
  151.4492  139.2932  155.7388 N   0  0  0  0  0  0  0  0  0  0  0  0
  152.0493  138.3960  156.6444 C   0  0  0  0  0  0  0  0  0  0  0  0
  151.7572  137.0807  156.6486 C   0  0  0  0  0  0  0  0  0  0  0  0
  152.3869  136.1730  157.5826 N   0  3  0  0  0  0  0  0  0  0  0  0
  152.7690  135.0808  157.1749 O   0  0  0  0  0  0  0  0  0  0  0  0
  152.5198  136.5195  158.7525 O   0  5  0  0  0  0  0  0  0  0  0  0
  150.7900  136.6016  155.6801 C   0  0  0  0  0  0  0  0  0  0  0  0
  150.2151  137.4540  154.8090 C   0  0  0  0  0  0  0  0  0  0  0  0
  150.5374  138.8846  154.8037 C   0  0  0  0  0  0  0  0  0  0  0  0
  150.0193  139.6678  154.0076 O   0  0  0  0  0  0  0  0  0  0  0  0
  152.6763  140.6312  161.0929 H   0  0  0  0  0  0  0  0  0  0  0  0
  154.2709  141.3541  161.2790 H   0  0  0  0  0  0  0  0  0  0  0  0
  153.7920  140.6812  159.7309 H   0  0  0  0  0  0  0  0  0  0  0  0
  153.6509  143.1533  159.6670 H   0  0  0  0  0  0  0  0  0  0  0  0
  151.7453  142.8840  162.0289 H   0  0  0  0  0  0  0  0  0  0  0  0
  153.3548  143.5598  162.0783 H   0  0  0  0  0  0  0  0  0  0  0  0
  151.6246  145.3475  161.9724 H   0  0  0  0  0  0  0  0  0  0  0  0
  152.6881  145.4089  160.5867 H   0  0  0  0  0  0  0  0  0  0  0  0
  149.8880  144.1809  160.6550 H   0  0  0  0  0  0  0  0  0  0  0  0
  150.3421  145.6645  159.8501 H   0  0  0  0  0  0  0  0  0  0  0  0
  150.1888  143.7662  158.2438 H   0  0  0  0  0  0  0  0  0  0  0  0
  151.7999  144.4393  158.2869 H   0  0  0  0  0  0  0  0  0  0  0  0
  150.8753  141.9117  159.7373 H   0  0  0  0  0  0  0  0  0  0  0  0
  153.0122  141.5333  157.9212 H   0  0  0  0  0  0  0  0  0  0  0  0
  151.5960  141.2374  154.9101 H   0  0  0  0  0  0  0  0  0  0  0  0
  152.9420  140.7800  155.9005 H   0  0  0  0  0  0  0  0  0  0  0  0
  152.7604  138.8498  157.3196 H   0  0  0  0  0  0  0  0  0  0  0  0
  150.5206  135.5561  155.6453 H   0  0  0  0  0  0  0  0  0  0  0  0
  149.4979  137.0759  154.0954 H   0  0  0  0  0  0  0  0  0  0  0  0
  1  2  1  0  0  0  0
  1 22  1  0  0  0  0
  1 23  1  0  0  0  0
  1 24  1  0  0  0  0
  2  7  1  0  0  0  0
  2  3  1  0  0  0  0
  2 25  1  0  0  0  0
  3  4  1  0  0  0  0
  3 26  1  0  0  0  0
  3 27  1  0  0  0  0
  4  5  1  0  0  0  0
  4 28  1  0  0  0  0
  4 29  1  0  0  0  0
  5  6  1  0  0  0  0
  5 30  1  0  0  0  0
  5 31  1  0  0  0  0
  6  7  1  0  0  0  0
  6 32  1  0  0  0  0
  6 33  1  0  0  0  0
  7  8  1  0  0  0  0
  7 34  1  0  0  0  0
  8  9  1  0  0  0  0
  8 35  1  0  0  0  0
  9 10  2  0  0  0  0
  9 11  1  0  0  0  0
 11 12  1  0  0  0  0
 11 36  1  0  0  0  0
 11 37  1  0  0  0  0
 12 20  1  0  0  0  0
 12 13  1  0  0  0  0
 13 14  2  0  0  0  0
 13 38  1  0  0  0  0
 14 15  1  0  0  0  0
 14 18  1  0  0  0  0
 15 16  2  0  0  0  0
 15 17  1  0  0  0  0
 18 19  2  0  0  0  0
 18 39  1  0  0  0  0
 19 20  1  0  0  0  0
 19 40  1  0  0  0  0
 20 21  2  0  0  0  0
M  CHG  1  15   1
M  CHG  1  17  -1
M  END
> <s_m_source_file>
AV-unprocessed.smi

> <i_m_source_file_index>
594

> <i_lp_mmshare_version>
43012

> <i_f3d_flags>
0

> <s_epik_input>
W0NIM11bQ0BASF0xW0NIMl1bQ0gyXVtDSDJdW0NIMl1bQ0BIXTFbTkhdQyg9TylbQ0gyXW4yW2NIXWMoW04rXSg9TylbTy1dKVtjSF1bY0hdYzI9Tw==

> <s_epik_cmdline>
J2VwaWtfcHl0aG9uJywgJy1waCcsICc3LjAnLCAnLXRuJywgJzgnLCAnLW1hJywgJzIwMCcsICctbWV0YWxfYmluZGluZycsICctaW1hZScsICc8aW5maWxlLm1hZT4nLCAnLW9tYWUnLCAnPG91dGZpbGUubWFlPic=

> <r_lp_tautomer_probability>
1

> <r_epik_Ionization_Penalty>
1.91305e-08

> <r_epik_Ionization_Penalty_Charging>
8.35811e-11

> <r_epik_Ionization_Penalty_Neutral>
1.90469e-08

> <r_epik_State_Penalty>
-0

> <r_epik_Charging_Adjusted_Penalty>
8.35811e-11

> <i_epik_Tot_Q>
0

> <i_epik_Tot_abs_Q>
2

> <r_epik_Metal_State_Penalty>
-0

> <b_epik_Metal_Only>
0

> <s_lp_Force_Field>
OPLS_2005

> <r_lp_Energy>
21.501

> <b_lp_Chiralities_Consistent>
1

> <s_lp_Variant>
AV-unprocessed.smi:594-1

> <Gold.Version>
5.8.1

> <Gold.Id.Protein>
6NUR|6NUR_protein|mol2

> <Gold.PLP.Fitness>
43.1522

> <Gold.PLP.PLP>
-37.1412

> <Gold.PLP.part.hbond>
-3.5138

> <Gold.PLP.part.metal>
0.0000

> <Gold.PLP.part.buried>
-3.2882

> <Gold.PLP.part.nonpolar>
-32.3336

> <Gold.PLP.part.repulsive>
1.9679

> <Gold.PLP.ligand.clash>
0.0000

> <Gold.PLP.ligand.torsion>
1.0112

> <Gold.PLP.Chemscore.Hbond>
2.6740

> <Gold.PLP.Chemscore.CHOScore>
0.0000

> <Gold.PLP.Chemscore.Metal>
0.0000

> <Gold.Chemscore.Hbonds>
donor molecule, donor type, donor heavy atom, donor atom, acceptor molecule, acceptor atom, score
      P1  H  6896  6908       L1    17  0.69
      P1  H  7989  7998       L1    21  0.92
      P1  H 10752 10764       L1    16  1.00

> <Gold.PLP.Chemscore.Internal.Correction>
0.0116

> <Gold.Rescore>
     Score         DG    S(hbond)    S(metal)    S(lipo)     H(rot)  DE(clash)    DE(int)     intcor
     14.51     -15.93       0.79        0.00     100.57       1.55       0.36       1.06       ----

> <Gold.Chemscore.Fitness>
14.5058

> <Gold.Chemscore.DG>
-15.9256

> <Gold.Chemscore.ZeroCoef>
-5.4800

> <Gold.Chemscore.Hbond>
0.7930

> <Gold.Chemscore.Metal>
0.0000

> <Gold.Chemscore.Lipo>
100.5661

> <Gold.Chemscore.Internal_Hbond>
0.0000

> <Gold.Chemscore.DEClash>
0.3645

> <Gold.Chemscore.DEInternal>
1.0553

> <Gold.Chemscore.Rot>
1.5505

> <Gold.Chemscore.Internal.Correction>
   9.000000E+99

> <Gold.Chemscore.Hbonds>
donor molecule, donor type, donor heavy atom, donor atom, acceptor molecule, acceptor atom, score
      P1  H  6896  6908       L1    17  0.48
      P1  H  7989  7998       L1    21  0.29
      P1  H 10752 10764       L1    16  0.56

> <Gold.Chemscore.Hbond.Weighted>
-2.6485

> <Gold.Chemscore.Metal.Weighted>
-0.0000

> <Gold.Chemscore.Lipo.Weighted>
-11.7662

> <Gold.Chemscore.Internal_Hbond.Weighted>
0.0000

> <Gold.Chemscore.DEClash.Weighted>
0.3645

> <Gold.Chemscore.DEInternal.Weighted>
1.0553

> <Gold.Chemscore.Rot.Weighted>
3.9692

> <Gold.Chemscore.Internal.Correction.Weighted>
   9.000000E+99

> <Gold.Protein.RotatedTorsions>
[ 6907 6896 6895 6894 ] final -112.33 input  -60.11 | X-H torsion
[ 7974 7965 7964 7962 ] final  155.68 input  175.53 | X-H torsion
[ 8008 7997 7996 7995 ] final  -56.86 input   59.86 | X-H torsion
[ 10167 10162 10161 10158 ] final   45.44 input  -65.29 | X-H torsion
[ 10718 10713 10712 10709 ] final   89.91 input   66.30 | X-H torsion
[ 10763 10752 10751 10750 ] final   -9.43 input  -60.55 | X-H torsion
[ 11005 11000 10999 10996 ] final   64.17 input  -57.11 | X-H torsion

> <Gold.Protein.ActiveResidues>
 VAL166  LYS551  ARG553  GLY616  TRP617  ASP618  TYR619  PRO620  LYS621  CYS622 
 ASP623  PHE694  ASN695  SER759  ASP760  ASP761  ALA762  ILE779  LEU786  VAL792 
 PHE793  MET794  SER795  GLU796  ALA797  LYS798  CYS799  TRP800  GLU811  SER814 

> <Gold.Protein.RotatedAtoms>
  150.7751  133.9104  159.3367 H   0  0  0  0  0  0  0  0  0  0  0  0  # atno 6907 bound_to 6896
  151.6981  135.0933  160.0255 H   0  0  0  0  0  0  0  0  0  0  0  0  # atno 6908 bound_to 6896
  152.3784  133.6474  159.6177 H   0  0  0  0  0  0  0  0  0  0  0  0  # atno 6909 bound_to 6896
  144.8009  139.7101  143.6182 H   0  0  0  0  0  0  0  0  0  0  0  0  # atno 7974 bound_to 7965
  154.4246  140.1120  156.5705 H   0  0  0  0  0  0  0  0  0  0  0  0  # atno 8008 bound_to 7997
  155.6216  140.3495  155.4635 H   0  0  0  0  0  0  0  0  0  0  0  0  # atno 8009 bound_to 7997
  156.0019  140.1201  157.0528 H   0  0  0  0  0  0  0  0  0  0  0  0  # atno 8010 bound_to 7997
  140.3241  144.2669  150.6178 H   0  0  0  0  0  0  0  0  0  0  0  0  # atno 10167 bound_to 10162
  157.6957  131.0351  150.3497 H   0  0  0  0  0  0  0  0  0  0  0  0  # atno 10718 bound_to 10713
  153.4547  135.7015  153.6087 H   0  0  0  0  0  0  0  0  0  0  0  0  # atno 10763 bound_to 10752
  153.4407  135.3781  155.2226 H   0  0  0  0  0  0  0  0  0  0  0  0  # atno 10764 bound_to 10752
  154.8728  135.3973  154.3964 H   0  0  0  0  0  0  0  0  0  0  0  0  # atno 10765 bound_to 10752
  139.9976  134.6492  155.9984 H   0  0  0  0  0  0  0  0  0  0  0  0  # atno 11005 bound_to 11000
  146.2290  139.5778  142.9567 LP  0  0  0  0  0  0  0  0  0  0  0  0  # atno 17320 bound_to 7965
  145.5555  141.0409  143.2255 LP  0  0  0  0  0  0  0  0  0  0  0  0  # atno 17321 bound_to 7965
  140.5457  143.2215  151.8011 LP  0  0  0  0  0  0  0  0  0  0  0  0  # atno 17342 bound_to 10162
  139.4868  144.4543  151.9617 LP  0  0  0  0  0  0  0  0  0  0  0  0  # atno 17343 bound_to 10162
  156.3947  130.3904  149.7003 LP  0  0  0  0  0  0  0  0  0  0  0  0  # atno 17370 bound_to 10713
  156.4341  130.7829  151.2850 LP  0  0  0  0  0  0  0  0  0  0  0  0  # atno 17371 bound_to 10713
  141.1617  133.6538  156.4340 LP  0  0  0  0  0  0  0  0  0  0  0  0  # atno 17394 bound_to 11000
  140.4788  134.6684  157.5162 LP  0  0  0  0  0  0  0  0  0  0  0  0  # atno 17395 bound_to 11000

$$$$
