AV-unprocessed.smi:754|AV-procd|sdf|3609|dock9
  -GOLD-   22720 1 03D 1   1.00000     0.00000
 Structure written by MMmdl.
 37 38  0  0  0  0  0  0  0  0  1 V2000
  144.5810  131.4619  150.7989 C   0  0  0  0  0  0  0  0  0  0  0  0
  145.2129  132.8147  151.1326 C   0  0  0  0  0  0  0  0  0  0  0  0
  146.3677  132.5971  151.9255 O   0  0  0  0  0  0  0  0  0  0  0  0
  146.3089  133.2578  153.1798 C   0  0  2  0  0  0  0  0  0  0  0  0
  146.5708  134.7659  153.1183 C   0  0  0  0  0  0  0  0  0  0  0  0
  147.3386  134.5754  154.4272 C   0  0  2  0  0  0  0  0  0  0  0  0
  148.5349  135.4045  154.5012 N   0  0  0  0  0  0  0  0  0  0  0  0
  149.2822  135.5593  155.6043 C   0  0  0  0  0  0  0  0  0  0  0  0
  148.9758  135.0957  156.7021 O   0  0  0  0  0  0  0  0  0  0  0  0
  150.5907  136.3312  155.4362 C   0  0  0  0  0  0  0  0  0  0  0  0
  151.3038  136.4100  156.6979 N   0  0  0  0  0  0  0  0  0  0  0  0
  150.9150  136.8411  157.8998 C   0  0  0  0  0  0  0  0  0  0  0  0
  151.8963  136.7704  158.7859 N   0  0  0  0  0  0  0  0  0  0  0  0
  152.9491  136.2546  158.0485 N   0  0  0  0  0  0  0  0  0  0  0  0
  152.6037  136.0387  156.8089 N   0  0  0  0  0  0  0  0  0  0  0  0
  147.6058  133.1030  154.0115 C   0  0  0  0  0  0  0  0  0  0  0  0
  147.5487  132.0723  155.1386 C   0  0  0  0  0  0  0  0  0  0  0  0
  148.8916  132.8200  153.2127 C   0  0  0  0  0  0  0  0  0  0  0  0
  143.6858  131.5894  150.1902 H   0  0  0  0  0  0  0  0  0  0  0  0
  144.2962  130.9289  151.7064 H   0  0  0  0  0  0  0  0  0  0  0  0
  145.2764  130.8317  150.2438 H   0  0  0  0  0  0  0  0  0  0  0  0
  145.4757  133.3384  150.2127 H   0  0  0  0  0  0  0  0  0  0  0  0
  144.4978  133.4357  151.6738 H   0  0  0  0  0  0  0  0  0  0  0  0
  145.4154  133.0077  153.7570 H   0  0  0  0  0  0  0  0  0  0  0  0
  147.1959  135.0603  152.2733 H   0  0  0  0  0  0  0  0  0  0  0  0
  145.6778  135.3862  153.1978 H   0  0  0  0  0  0  0  0  0  0  0  0
  146.6808  134.6599  155.2957 H   0  0  0  0  0  0  0  0  0  0  0  0
  148.8530  135.8278  153.6416 H   0  0  0  0  0  0  0  0  0  0  0  0
  151.2248  135.8373  154.6988 H   0  0  0  0  0  0  0  0  0  0  0  0
  150.3925  137.3403  155.0717 H   0  0  0  0  0  0  0  0  0  0  0  0
  149.9253  137.2125  158.1210 H   0  0  0  0  0  0  0  0  0  0  0  0
  148.4171  132.1480  155.7939 H   0  0  0  0  0  0  0  0  0  0  0  0
  147.5166  131.0547  154.7481 H   0  0  0  0  0  0  0  0  0  0  0  0
  146.6637  132.2076  155.7609 H   0  0  0  0  0  0  0  0  0  0  0  0
  149.7801  132.8885  153.8417 H   0  0  0  0  0  0  0  0  0  0  0  0
  149.0276  133.5213  152.3893 H   0  0  0  0  0  0  0  0  0  0  0  0
  148.8785  131.8196  152.7795 H   0  0  0  0  0  0  0  0  0  0  0  0
  1  2  1  0  0  0  0
  1 19  1  0  0  0  0
  1 20  1  0  0  0  0
  1 21  1  0  0  0  0
  2  3  1  0  0  0  0
  2 22  1  0  0  0  0
  2 23  1  0  0  0  0
  3  4  1  0  0  0  0
  4 16  1  0  0  0  0
  4  5  1  0  0  0  0
  4 24  1  0  0  0  0
  5  6  1  0  0  0  0
  5 25  1  0  0  0  0
  5 26  1  0  0  0  0
  6  7  1  0  0  0  0
  6 16  1  0  0  0  0
  6 27  1  0  0  0  0
  7  8  1  0  0  0  0
  7 28  1  0  0  0  0
  8  9  2  0  0  0  0
  8 10  1  0  0  0  0
 10 11  1  0  0  0  0
 10 29  1  0  0  0  0
 10 30  1  0  0  0  0
 11 15  1  0  0  0  0
 11 12  1  0  0  0  0
 12 13  2  0  0  0  0
 12 31  1  0  0  0  0
 13 14  1  0  0  0  0
 14 15  2  0  0  0  0
 16 17  1  0  0  0  0
 16 18  1  0  0  0  0
 17 32  1  0  0  0  0
 17 33  1  0  0  0  0
 17 34  1  0  0  0  0
 18 35  1  0  0  0  0
 18 36  1  0  0  0  0
 18 37  1  0  0  0  0
M  END
> <s_m_source_file>
AV-unprocessed.smi

> <i_m_source_file_index>
754

> <i_lp_mmshare_version>
43012

> <i_f3d_flags>
0

> <s_epik_input>
W0NIM11bQ0gyXU9bQ0BASF0oQzEoW0NIM10pW0NIM10pW0NIMl1bQ0BIXTFbTkhdQyg9TylbQ0gyXW4yW2NIXW5ubjI=

> <s_epik_cmdline>
J2VwaWtfcHl0aG9uJywgJy1waCcsICc3LjAnLCAnLXRuJywgJzgnLCAnLW1hJywgJzIwMCcsICctbWV0YWxfYmluZGluZycsICctaW1hZScsICc8aW5maWxlLm1hZT4nLCAnLW9tYWUnLCAnPG91dGZpbGUubWFlPic=

> <r_lp_tautomer_probability>
1

> <r_epik_Ionization_Penalty>
8.28422e-07

> <r_epik_Ionization_Penalty_Charging>
0

> <r_epik_Ionization_Penalty_Neutral>
8.28422e-07

> <r_epik_State_Penalty>
-0

> <r_epik_Charging_Adjusted_Penalty>
0

> <i_epik_Tot_Q>
0

> <i_epik_Tot_abs_Q>
0

> <r_epik_Metal_State_Penalty>
-0

> <b_epik_Metal_Only>
0

> <s_lp_Force_Field>
OPLS_2005

> <r_lp_Energy>
20.4803

> <b_lp_Chiralities_Consistent>
1

> <s_lp_Variant>
AV-unprocessed.smi:754-3

> <Gold.Version>
5.8.1

> <Gold.Id.Protein>
6NUR|6NUR_protein|mol2

> <Gold.PLP.Fitness>
28.5239

> <Gold.PLP.PLP>
-21.1909

> <Gold.PLP.part.hbond>
-3.5694

> <Gold.PLP.part.metal>
0.0000

> <Gold.PLP.part.buried>
-3.1303

> <Gold.PLP.part.nonpolar>
-14.2432

> <Gold.PLP.part.repulsive>
0.1238

> <Gold.PLP.ligand.clash>
0.0000

> <Gold.PLP.ligand.torsion>
0.7204

> <Gold.PLP.Chemscore.Hbond>
2.8160

> <Gold.PLP.Chemscore.CHOScore>
0.0000

> <Gold.PLP.Chemscore.Metal>
0.0000

> <Gold.Chemscore.Hbonds>
donor molecule, donor type, donor heavy atom, donor atom, acceptor molecule, acceptor atom, score
      L1  H     7    28       P1  7948  1.00
      P1  H  6896  6908       L1    13  0.75
      P1  H 10752 10765       L1    15  1.00

> <Gold.PLP.Chemscore.Internal.Correction>
0.3257

> <Gold.Rescore>
     Score         DG    S(hbond)    S(metal)    S(lipo)     H(rot)  DE(clash)    DE(int)     intcor
     10.48     -12.51       2.40        0.00      45.30       2.46       0.01       2.01       ----

> <Gold.Chemscore.Fitness>
10.4843

> <Gold.Chemscore.DG>
-12.5058

> <Gold.Chemscore.ZeroCoef>
-5.4800

> <Gold.Chemscore.Hbond>
2.4033

> <Gold.Chemscore.Metal>
0.0000

> <Gold.Chemscore.Lipo>
45.3030

> <Gold.Chemscore.Internal_Hbond>
0.0000

> <Gold.Chemscore.DEClash>
0.0118

> <Gold.Chemscore.DEInternal>
2.0097

> <Gold.Chemscore.Rot>
2.4616

> <Gold.Chemscore.Internal.Correction>
   9.000000E+99

> <Gold.Chemscore.Hbonds>
donor molecule, donor type, donor heavy atom, donor atom, acceptor molecule, acceptor atom, score
      L1  H     7    28       P1  7948  0.96
      P1  H  6896  6908       L1    13  0.09
      P1  H 10752 10765       L1    15  0.93

> <Gold.Chemscore.Hbond.Weighted>
-8.0270

> <Gold.Chemscore.Metal.Weighted>
-0.0000

> <Gold.Chemscore.Lipo.Weighted>
-5.3005

> <Gold.Chemscore.Internal_Hbond.Weighted>
0.0000

> <Gold.Chemscore.DEClash.Weighted>
0.0118

> <Gold.Chemscore.DEInternal.Weighted>
2.0097

> <Gold.Chemscore.Rot.Weighted>
6.3016

> <Gold.Chemscore.Internal.Correction.Weighted>
   9.000000E+99

> <Gold.Protein.RotatedTorsions>
[ 6907 6896 6895 6894 ] final -122.14 input  -60.11 | X-H torsion
[ 7974 7965 7964 7962 ] final  -69.25 input  175.53 | X-H torsion
[ 8008 7997 7996 7995 ] final -113.85 input   59.86 | X-H torsion
[ 10167 10162 10161 10158 ] final  111.55 input  -65.29 | X-H torsion
[ 10718 10713 10712 10709 ] final  123.83 input   66.30 | X-H torsion
[ 10763 10752 10751 10750 ] final -131.28 input  -60.55 | X-H torsion
[ 11005 11000 10999 10996 ] final   35.59 input  -57.11 | X-H torsion

> <Gold.Protein.ActiveResidues>
 VAL166  LYS551  ARG553  GLY616  TRP617  ASP618  TYR619  PRO620  LYS621  CYS622 
 ASP623  PHE694  ASN695  SER759  ASP760  ASP761  ALA762  ILE779  LEU786  VAL792 
 PHE793  MET794  SER795  GLU796  ALA797  LYS798  CYS799  TRP800  GLU811  SER814 

> <Gold.Protein.RotatedAtoms>
  150.8548  133.7732  159.3012 H   0  0  0  0  0  0  0  0  0  0  0  0  # atno 6907 bound_to 6896
  151.5393  135.1067  159.9932 H   0  0  0  0  0  0  0  0  0  0  0  0  # atno 6908 bound_to 6896
  152.4581  133.7721  159.6860 H   0  0  0  0  0  0  0  0  0  0  0  0  # atno 6909 bound_to 6896
  145.7062  140.9097  143.0705 H   0  0  0  0  0  0  0  0  0  0  0  0  # atno 7974 bound_to 7965
  155.0271  140.0393  157.2460 H   0  0  0  0  0  0  0  0  0  0  0  0  # atno 8008 bound_to 7997
  154.7328  140.2734  155.6418 H   0  0  0  0  0  0  0  0  0  0  0  0  # atno 8009 bound_to 7997
  156.2845  140.2681  156.2033 H   0  0  0  0  0  0  0  0  0  0  0  0  # atno 8010 bound_to 7997
  139.6602  144.7129  151.1879 H   0  0  0  0  0  0  0  0  0  0  0  0  # atno 10167 bound_to 10162
  157.5634  131.1088  150.8498 H   0  0  0  0  0  0  0  0  0  0  0  0  # atno 10718 bound_to 10713
  154.8751  135.3835  154.4220 H   0  0  0  0  0  0  0  0  0  0  0  0  # atno 10763 bound_to 10752
  153.4923  135.7030  153.5883 H   0  0  0  0  0  0  0  0  0  0  0  0  # atno 10764 bound_to 10752
  153.4251  135.3892  155.2102 H   0  0  0  0  0  0  0  0  0  0  0  0  # atno 10765 bound_to 10752
  140.2411  134.3413  155.7925 H   0  0  0  0  0  0  0  0  0  0  0  0  # atno 11005 bound_to 11000
  144.6954  139.9013  143.7458 LP  0  0  0  0  0  0  0  0  0  0  0  0  # atno 17320 bound_to 7965
  146.0754  139.3742  143.0497 LP  0  0  0  0  0  0  0  0  0  0  0  0  # atno 17321 bound_to 7965
  140.7577  143.6006  150.8704 LP  0  0  0  0  0  0  0  0  0  0  0  0  # atno 17342 bound_to 10162
  139.9663  143.6107  152.2987 LP  0  0  0  0  0  0  0  0  0  0  0  0  # atno 17343 bound_to 10162
  156.8990  130.5240  149.5283 LP  0  0  0  0  0  0  0  0  0  0  0  0  # atno 17370 bound_to 10713
  156.0684  130.5722  150.9335 LP  0  0  0  0  0  0  0  0  0  0  0  0  # atno 17371 bound_to 10713
  141.2210  133.7299  156.8887 LP  0  0  0  0  0  0  0  0  0  0  0  0  # atno 17394 bound_to 11000
  140.1652  134.9138  157.2765 LP  0  0  0  0  0  0  0  0  0  0  0  0  # atno 17395 bound_to 11000

$$$$
