AV-unprocessed.smi:49|AV-procd|sdf|484|dock3
  -GOLD-   2262016343D 1   1.00000     0.00000
 Structure written by MMmdl.
 27 28  0  0  0  0  0  0  0  0  3 V2000
  152.7078  141.9630  159.2288 C   0  0  0  0  0  0  0  0  0  0  0  0
  152.3242  140.5540  158.7657 C   0  0  0  0  0  0  0  0  0  0  0  0
  151.7516  140.5509  157.3652 C   0  0  0  0  0  0  0  0  0  0  0  0
  150.6301  141.1524  156.9806 N   0  0  0  0  0  0  0  0  0  0  0  0
  150.5225  140.9184  155.6662 C   0  0  0  0  0  0  0  0  0  0  0  0
  149.3967  141.4397  154.7983 C   0  0  1  0  0  0  0  0  0  0  0  0
  148.5861  140.3318  154.1222 C   0  0  0  0  0  0  0  0  0  0  0  0
  147.2509  141.0193  153.8574 C   0  0  1  0  0  0  0  0  0  0  0  0
  146.1964  140.0935  153.7001 O   0  0  0  0  0  0  0  0  0  0  0  0
  147.0644  141.9084  155.0915 C   0  0  0  0  0  0  0  0  0  0  0  0
  148.4223  142.2350  155.5711 N   0  3  0  0  0  0  0  0  0  0  0  0
  151.5701  140.2058  155.2226 N   0  0  0  0  0  0  0  0  0  0  0  0
  152.3174  139.9859  156.2839 N   0  5  0  0  0  0  0  0  0  0  0  0
  149.8146  142.0938  154.0319 H   0  0  0  0  0  0  0  0  0  0  0  0
  147.3285  141.6384  152.9625 H   0  0  0  0  0  0  0  0  0  0  0  0
  153.1175  141.9425  160.2387 H   0  0  0  0  0  0  0  0  0  0  0  0
  151.8405  142.6239  159.2329 H   0  0  0  0  0  0  0  0  0  0  0  0
  153.4599  142.4003  158.5714 H   0  0  0  0  0  0  0  0  0  0  0  0
  153.1981  139.9023  158.7902 H   0  0  0  0  0  0  0  0  0  0  0  0
  151.5911  140.1234  159.4484 H   0  0  0  0  0  0  0  0  0  0  0  0
  149.0639  139.9390  153.2241 H   0  0  0  0  0  0  0  0  0  0  0  0
  148.4411  139.5017  154.8166 H   0  0  0  0  0  0  0  0  0  0  0  0
  145.4420  140.5498  153.3590 H   0  0  0  0  0  0  0  0  0  0  0  0
  146.4877  142.8075  154.8736 H   0  0  0  0  0  0  0  0  0  0  0  0
  146.5530  141.3650  155.8874 H   0  0  0  0  0  0  0  0  0  0  0  0
  148.4952  141.9809  156.5464 H   0  0  0  0  0  0  0  0  0  0  0  0
  148.6216  143.2184  155.4602 H   0  0  0  0  0  0  0  0  0  0  0  0
  1  2  1  0  0  0  0
  1 16  1  0  0  0  0
  1 17  1  0  0  0  0
  1 18  1  0  0  0  0
  2  3  1  0  0  0  0
  2 19  1  0  0  0  0
  2 20  1  0  0  0  0
  3 13  1  0  0  0  0
  3  4  2  0  0  0  0
  4  5  1  0  0  0  0
  5  6  1  0  0  0  0
  5 12  2  0  0  0  0
  6 14  1  0  0  0  0
  6 11  1  0  0  0  0
  6  7  1  0  0  0  0
  7  8  1  0  0  0  0
  7 21  1  0  0  0  0
  7 22  1  0  0  0  0
  8 15  1  0  0  0  0
  8  9  1  0  0  0  0
  8 10  1  0  0  0  0
  9 23  1  0  0  0  0
 10 11  1  0  0  0  0
 10 24  1  0  0  0  0
 10 25  1  0  0  0  0
 11 26  1  0  0  0  0
 11 27  1  0  0  0  0
 12 13  1  0  0  0  0
M  CHG  1  11   1
M  CHG  1  13  -1
M  END
> <s_m_source_file>
AV-unprocessed.smi

> <i_m_source_file_index>
49

> <i_lp_mmshare_version>
43012

> <i_f3d_flags>
0

> <s_epik_input>
W0NIM11bQ0gyXWMxbmMobltuSF0xKVtDQEBIXTJbQ0gyXVtDQEBIXShbT0hdKVtDSDJdW05IXTI=

> <s_epik_cmdline>
J2VwaWtfcHl0aG9uJywgJy1waCcsICc3LjAnLCAnLXRuJywgJzgnLCAnLW1hJywgJzIwMCcsICctbWV0YWxfYmluZGluZycsICctaW1hZScsICc8aW5maWxlLm1hZT4nLCAnLW9tYWUnLCAnPG91dGZpbGUubWFlPic=

> <r_lp_tautomer_probability>
0.948284

> <r_epik_Ionization_Penalty>
3.22013

> <r_epik_Ionization_Penalty_Charging>
3.22013

> <r_epik_Ionization_Penalty_Neutral>
3.9133e-08

> <r_epik_State_Penalty>
2.79459

> <r_epik_Charging_Adjusted_Penalty>
6.01472

> <i_epik_Tot_Q>
0

> <i_epik_Tot_abs_Q>
2

> <r_epik_Metal_State_Penalty>
0.589377

> <b_epik_Metal_Only>
1

> <s_lp_Force_Field>
OPLS_2005

> <r_lp_Energy>
9.67699

> <b_lp_Chiralities_Consistent>
1

> <s_lp_Variant>
AV-unprocessed.smi:49-22

> <Gold.Version>
5.8.1

> <Gold.Id.Protein>
6NUR|6NUR_protein|mol2

> <Gold.PLP.Fitness>
42.7053

> <Gold.PLP.PLP>
-25.0192

> <Gold.PLP.part.hbond>
-3.9771

> <Gold.PLP.part.metal>
0.0000

> <Gold.PLP.part.buried>
-2.8333

> <Gold.PLP.part.nonpolar>
-18.9553

> <Gold.PLP.part.repulsive>
0.1841

> <Gold.PLP.ligand.clash>
0.0000

> <Gold.PLP.ligand.torsion>
0.0307

> <Gold.PLP.Chemscore.Hbond>
5.9120

> <Gold.PLP.Chemscore.CHOScore>
0.0000

> <Gold.PLP.Chemscore.Metal>
0.0000

> <Gold.Chemscore.Hbonds>
donor molecule, donor type, donor heavy atom, donor atom, acceptor molecule, acceptor atom, score
      L1  H     9    23       P1 10175  0.99
      L1  H    11    27       P1  8028  1.98
      P1  H  7989  7998       L1    12  0.91
      P1  H  7997  8009       L1    13  2.00

> <Gold.PLP.Chemscore.Internal.Correction>
0.0116

> <Gold.Rescore>
     Score         DG    S(hbond)    S(metal)    S(lipo)     H(rot)  DE(clash)    DE(int)     intcor
     16.60     -16.84       3.36        0.00      41.93       1.86       0.13       0.12       ----

> <Gold.Chemscore.Fitness>
16.5954

> <Gold.Chemscore.DG>
-16.8386

> <Gold.Chemscore.ZeroCoef>
-5.4800

> <Gold.Chemscore.Hbond>
3.3550

> <Gold.Chemscore.Metal>
0.0000

> <Gold.Chemscore.Lipo>
41.9307

> <Gold.Chemscore.Internal_Hbond>
0.0000

> <Gold.Chemscore.DEClash>
0.1276

> <Gold.Chemscore.DEInternal>
0.1155

> <Gold.Chemscore.Rot>
1.8567

> <Gold.Chemscore.Internal.Correction>
   9.000000E+99

> <Gold.Chemscore.Hbonds>
donor molecule, donor type, donor heavy atom, donor atom, acceptor molecule, acceptor atom, score
      L1  H     9    23       P1 10175  0.88
      L1  H    11    27       P1  8028  0.92
      P1  H  7989  7998       L1    12  0.20
      P1  H  7997  8009       L1    13  0.70

> <Gold.Chemscore.Hbond.Weighted>
-11.2057

> <Gold.Chemscore.Metal.Weighted>
-0.0000

> <Gold.Chemscore.Lipo.Weighted>
-4.9059

> <Gold.Chemscore.Internal_Hbond.Weighted>
0.0000

> <Gold.Chemscore.DEClash.Weighted>
0.1276

> <Gold.Chemscore.DEInternal.Weighted>
0.1155

> <Gold.Chemscore.Rot.Weighted>
4.7531

> <Gold.Chemscore.Internal.Correction.Weighted>
   9.000000E+99

> <Gold.Protein.RotatedTorsions>
[ 6907 6896 6895 6894 ] final   64.14 input  -60.11 | X-H torsion
[ 7974 7965 7964 7962 ] final  134.76 input  175.53 | X-H torsion
[ 8008 7997 7996 7995 ] final -166.02 input   59.86 | X-H torsion
[ 10167 10162 10161 10158 ] final   51.64 input  -65.29 | X-H torsion
[ 10718 10713 10712 10709 ] final   29.35 input   66.30 | X-H torsion
[ 10763 10752 10751 10750 ] final -122.51 input  -60.55 | X-H torsion
[ 11005 11000 10999 10996 ] final -119.91 input  -57.11 | X-H torsion

> <Gold.Protein.ActiveResidues>
 VAL166  LYS551  ARG553  GLY616  TRP617  ASP618  TYR619  PRO620  LYS621  CYS622 
 ASP623  PHE694  ASN695  SER759  ASP760  ASP761  ALA762  ILE779  LEU786  VAL792 
 PHE793  MET794  SER795  GLU796  ALA797  LYS798  CYS799  TRP800  GLU811  SER814 

> <Gold.Protein.RotatedAtoms>
  152.4309  134.5780  159.9939 H   0  0  0  0  0  0  0  0  0  0  0  0  # atno 6907 bound_to 6896
  151.5904  133.3361  159.3034 H   0  0  0  0  0  0  0  0  0  0  0  0  # atno 6908 bound_to 6896
  150.8201  134.7441  159.6830 H   0  0  0  0  0  0  0  0  0  0  0  0  # atno 6909 bound_to 6896
  144.9731  139.4584  143.5423 H   0  0  0  0  0  0  0  0  0  0  0  0  # atno 7974 bound_to 7965
  155.8580  140.0973  157.1632 H   0  0  0  0  0  0  0  0  0  0  0  0  # atno 8008 bound_to 7997
  154.3989  140.1370  156.3988 H   0  0  0  0  0  0  0  0  0  0  0  0  # atno 8009 bound_to 7997
  155.7888  140.3456  155.5340 H   0  0  0  0  0  0  0  0  0  0  0  0  # atno 8010 bound_to 7997
  140.2598  144.3386  150.6322 H   0  0  0  0  0  0  0  0  0  0  0  0  # atno 10167 bound_to 10162
  157.2454  130.7089  149.6379 H   0  0  0  0  0  0  0  0  0  0  0  0  # atno 10718 bound_to 10713
  154.8691  135.4130  154.2793 H   0  0  0  0  0  0  0  0  0  0  0  0  # atno 10763 bound_to 10752
  153.3689  135.7006  153.6659 H   0  0  0  0  0  0  0  0  0  0  0  0  # atno 10764 bound_to 10752
  153.5529  135.3625  155.2739 H   0  0  0  0  0  0  0  0  0  0  0  0  # atno 10765 bound_to 10752
  141.0182  134.0164  157.3320 H   0  0  0  0  0  0  0  0  0  0  0  0  # atno 11005 bound_to 11000
  146.3388  139.8957  142.8802 LP  0  0  0  0  0  0  0  0  0  0  0  0  # atno 17320 bound_to 7965
  145.2529  141.0050  143.3870 LP  0  0  0  0  0  0  0  0  0  0  0  0  # atno 17321 bound_to 7965
  140.5975  143.2167  151.7136 LP  0  0  0  0  0  0  0  0  0  0  0  0  # atno 17342 bound_to 10162
  139.5020  144.3844  152.0343 LP  0  0  0  0  0  0  0  0  0  0  0  0  # atno 17343 bound_to 10162
  155.9668  130.4444  150.5462 LP  0  0  0  0  0  0  0  0  0  0  0  0  # atno 17370 bound_to 10713
  157.3334  131.0703  151.1843 LP  0  0  0  0  0  0  0  0  0  0  0  0  # atno 17371 bound_to 10713
  139.9130  135.0193  156.7767 LP  0  0  0  0  0  0  0  0  0  0  0  0  # atno 17394 bound_to 11000
  140.6619  133.9637  155.7809 LP  0  0  0  0  0  0  0  0  0  0  0  0  # atno 17395 bound_to 11000

$$$$
