#       Name:                AV-unprocessed.smi:326
#       Creating user name   scv26
#       Creation time:       Thu Mar 26 22:25:31 2020


#       File generated by GOLD software.
#

@<TRIPOS>MOLECULE
AV-unprocessed.smi:326
    51    52     1
SMALL
NO_CHARGES


@<TRIPOS>ATOM
      1 ****        -3.6847  -1.7141   4.5823 C.3            1 S1                 0.0000
      2 ****        -3.0357  -2.6006   3.6885 O.3            1 S1                 0.0000
      3 ****        -3.1125  -2.1684   2.3405 C.3            1 S1                 0.0000
      4 ****        -2.3650  -3.1577   1.4317 C.3            1 S1                 0.0000
      5 ****        -0.9127  -3.0851   1.6285 N.am           1 S1                 0.0000
      6 ****        -0.2920  -2.1104   0.8645 N.2            1 S1                 0.0000
      7 ****         0.9859  -1.9286   0.9543 C.2            1 S1                 0.0000
      8 ****         1.6897  -0.8905   0.1516 C.2            1 S1                 0.0000
      9 ****         2.9083  -0.7247   0.2279 O.2            1 S1                 0.0000
     10 ****         0.9026  -0.1543  -0.6537 N.am           1 S1                 0.0000
     11 ****         1.3586   0.9138  -1.5376 C.3            1 S1                 0.0000
     12 ****         1.5568   2.2268  -0.7536 C.3            1 S1                 0.0000
     13 ****         1.9680   3.3792  -1.6843 C.3            1 S1                 0.0000
     14 ****         0.9542   3.5779  -2.8274 C.3            1 S1                 0.0000
     15 ****         1.3751   4.7235  -3.7588 C.3            1 S1                 0.0000
     16 ****         0.7582   2.2625  -3.6057 C.3            1 S1                 0.0000
     17 ****         0.3413   1.1120  -2.6756 C.3            1 S1                 0.0000
     18 ****         1.7915  -2.7392   1.8517 C.2            1 S1                 0.0000
     19 ****         1.1724  -3.6851   2.5913 C.2            1 S1                 0.0000
     20 ****        -0.2718  -3.9100   2.5112 C.2            1 S1                 0.0000
     21 ****        -0.8562  -4.7623   3.1792 O.2            1 S1                 0.0000
     22 ****        -3.6027  -2.0959   5.5998 H              1 S1                 0.0000
     23 ****        -4.7445  -1.6174   4.3431 H              1 S1                 0.0000
     24 ****        -3.2272  -0.7243   4.5562 H              1 S1                 0.0000
     25 ****        -4.1593  -2.1173   2.0382 H              1 S1                 0.0000
     26 ****        -2.6961  -1.1652   2.2352 H              1 S1                 0.0000
     27 ****        -2.7431  -4.1701   1.5838 H              1 S1                 0.0000
     28 ****        -2.5916  -2.9229   0.3904 H              1 S1                 0.0000
     29 ****        -0.0873  -0.3549  -0.6554 H              1 S1                 0.0000
     30 ****         2.3113   0.6198  -1.9828 H              1 S1                 0.0000
     31 ****         0.6340   2.4913  -0.2352 H              1 S1                 0.0000
     32 ****         2.3163   2.0956   0.0180 H              1 S1                 0.0000
     33 ****         2.0626   4.2984  -1.1050 H              1 S1                 0.0000
     34 ****         2.9560   3.1739  -2.0989 H              1 S1                 0.0000
     35 ****        -0.0039   3.8516  -2.3827 H              1 S1                 0.0000
     36 ****         2.3260   4.5087  -4.2476 H              1 S1                 0.0000
     37 ****         1.4878   5.6573  -3.2072 H              1 S1                 0.0000
     38 ****         0.6305   4.8899  -4.5379 H              1 S1                 0.0000
     39 ****         0.0030   2.3959  -4.3812 H              1 S1                 0.0000
     40 ****         1.6832   1.9956  -4.1191 H              1 S1                 0.0000
     41 ****         0.2418   0.1921  -3.2532 H              1 S1                 0.0000
     42 ****        -0.6450   1.3240  -2.2596 H              1 S1                 0.0000
     43 ****         2.8592  -2.5949   1.9320 H              1 S1                 0.0000
     44 ****         1.7588  -4.2943   3.2631 H              1 S1                 0.0000
     45 ****        -3.4657  -3.5006   3.7613 LP             1 S1                 0.0000
     46 ****        -2.0726  -2.6694   3.9484 LP             1 S1                 0.0000
     47 ****        -0.8333  -1.5456   0.2416 LP             1 S1                 0.0000
     48 ****         3.4531  -1.2959   0.8418 LP             1 S1                 0.0000
     49 ****         3.3524  -0.0190  -0.3241 LP             1 S1                 0.0000
     50 ****        -1.8457  -4.8759   3.0897 LP             1 S1                 0.0000
     51 ****        -0.3417  -5.3414   3.8115 LP             1 S1                 0.0000
@<TRIPOS>BOND
    1    1    2 1     
    2    1   22 1     
    3    1   23 1     
    4    1   24 1     
    5    2    3 1     
    6    3    4 1     
    7    3   25 1     
    8    3   26 1     
    9    4    5 1     
   10    4   27 1     
   11    4   28 1     
   12    5   20 am    
   13    5    6 1     
   14    6    7 2     
   15    7    8 1     
   16    7   18 1     
   17    8    9 2     
   18    8   10 am    
   19   10   11 1     
   20   10   29 1     
   21   11   17 1     
   22   11   12 1     
   23   11   30 1     
   24   12   13 1     
   25   12   31 1     
   26   12   32 1     
   27   13   14 1     
   28   13   33 1     
   29   13   34 1     
   30   14   15 1     
   31   14   16 1     
   32   14   35 1     
   33   15   36 1     
   34   15   37 1     
   35   15   38 1     
   36   16   17 1     
   37   16   39 1     
   38   16   40 1     
   39   17   41 1     
   40   17   42 1     
   41   18   19 2     
   42   18   43 1     
   43   19   20 1     
   44   19   44 1     
   45   20   21 2     
   46    2   45 1     
   47    2   46 1     
   48    6   47 1     
   49    9   48 1     
   50    9   49 1     
   51   21   50 1     
   52   21   51 1     
@<TRIPOS>SUBSTRUCTURE
      1 S1             1
@<TRIPOS>SET
LONE_PAIRS      STATIC     ATOMS    <user>   **** ""
7 45 46 47 48 49 50 51
DONOR_HYDROGENS      STATIC     ATOMS    <user>   **** ""
1 29
ATOM$BLUE        STATIC     ATOMS    COLORGROUP SYSTEM
7 45 46 47 48 49 50 51
ATOM$RED        STATIC     ATOMS    COLORGROUP SYSTEM
1 29
