AV-unprocessed.smi:42|AV-procd|sdf|387|dock1
  -GOLD-   2262016243D 1   1.00000     0.00000
 Structure written by MMmdl.
 27 28  0  0  0  0  0  0  0  0  2 V2000
  153.1597  141.5846  159.3262 C   0  0  0  0  0  0  0  0  0  0  0  0
  151.8714  140.8172  159.0111 C   0  0  0  0  0  0  0  0  0  0  0  0
  151.5691  140.7821  157.5504 C   0  0  0  0  0  0  0  0  0  0  0  0
  152.2599  140.1582  156.5936 N   0  0  0  0  0  0  0  0  0  0  0  0
  151.5639  140.3763  155.4266 N   0  0  0  0  0  0  0  0  0  0  0  0
  150.4812  141.0825  155.7714 C   0  0  0  0  0  0  0  0  0  0  0  0
  149.4112  141.6386  154.8813 C   0  0  1  0  0  0  0  0  0  0  0  0
  148.7286  140.6105  153.9780 C   0  0  0  0  0  0  0  0  0  0  0  0
  147.3239  141.1893  153.8378 C   0  0  1  0  0  0  0  0  0  0  0  0
  146.3767  140.2054  153.4805 O   0  0  0  0  0  0  0  0  0  0  0  0
  147.0460  141.7836  155.2240 C   0  0  0  0  0  0  0  0  0  0  0  0
  148.3614  142.1542  155.7851 N   0  3  0  0  0  0  0  0  0  0  0  0
  150.4361  141.3783  157.0963 O   0  0  0  0  0  0  0  0  0  0  0  0
  149.8053  142.4674  154.2917 H   0  0  0  0  0  0  0  0  0  0  0  0
  147.3263  141.9823  153.0886 H   0  0  0  0  0  0  0  0  0  0  0  0
  153.3568  141.5888  160.3984 H   0  0  0  0  0  0  0  0  0  0  0  0
  153.0898  142.6215  158.9959 H   0  0  0  0  0  0  0  0  0  0  0  0
  154.0193  141.1318  158.8311 H   0  0  0  0  0  0  0  0  0  0  0  0
  151.9486  139.7927  159.3769 H   0  0  0  0  0  0  0  0  0  0  0  0
  151.0295  141.2735  159.5328 H   0  0  0  0  0  0  0  0  0  0  0  0
  149.2425  140.4644  153.0275 H   0  0  0  0  0  0  0  0  0  0  0  0
  148.6770  139.6448  154.4850 H   0  0  0  0  0  0  0  0  0  0  0  0
  145.6003  140.6345  153.1533 H   0  0  0  0  0  0  0  0  0  0  0  0
  146.3714  142.6391  155.1814 H   0  0  0  0  0  0  0  0  0  0  0  0
  146.6013  141.0375  155.8842 H   0  0  0  0  0  0  0  0  0  0  0  0
  148.4620  141.7221  156.6932 H   0  0  0  0  0  0  0  0  0  0  0  0
  148.4452  143.1567  155.8735 H   0  0  0  0  0  0  0  0  0  0  0  0
  1  2  1  0  0  0  0
  1 16  1  0  0  0  0
  1 17  1  0  0  0  0
  1 18  1  0  0  0  0
  2  3  1  0  0  0  0
  2 19  1  0  0  0  0
  2 20  1  0  0  0  0
  3 13  1  0  0  0  0
  3  4  2  0  0  0  0
  4  5  1  0  0  0  0
  5  6  2  0  0  0  0
  6  7  1  0  0  0  0
  6 13  1  0  0  0  0
  7 14  1  0  0  0  0
  7 12  1  0  0  0  0
  7  8  1  0  0  0  0
  8  9  1  0  0  0  0
  8 21  1  0  0  0  0
  8 22  1  0  0  0  0
  9 15  1  0  0  0  0
  9 10  1  0  0  0  0
  9 11  1  0  0  0  0
 10 23  1  0  0  0  0
 11 12  1  0  0  0  0
 11 24  1  0  0  0  0
 11 25  1  0  0  0  0
 12 26  1  0  0  0  0
 12 27  1  0  0  0  0
M  CHG  1  12   1
M  END
> <s_m_source_file>
AV-unprocessed.smi

> <i_m_source_file_index>
42

> <i_lp_mmshare_version>
43012

> <i_f3d_flags>
0

> <s_epik_input>
W0NIM11bQ0gyXWMxbm5jKG8xKVtDQEhdMltDSDJdW0NAQEhdKFtPSF0pW0NIMl1bTkhdMg==

> <s_epik_cmdline>
J2VwaWtfcHl0aG9uJywgJy1waCcsICc3LjAnLCAnLXRuJywgJzgnLCAnLW1hJywgJzIwMCcsICctbWV0YWxfYmluZGluZycsICctaW1hZScsICc8aW5maWxlLm1hZT4nLCAnLW9tYWUnLCAnPG91dGZpbGUubWFlPic=

> <r_lp_tautomer_probability>
1

> <r_epik_Ionization_Penalty>
0.00247063

> <r_epik_Ionization_Penalty_Charging>
0.0024706

> <r_epik_Ionization_Penalty_Neutral>
3.27814e-08

> <r_epik_State_Penalty>
0.00171198

> <r_epik_Charging_Adjusted_Penalty>
0.00418258

> <i_epik_Tot_Q>
1

> <i_epik_Tot_abs_Q>
1

> <r_epik_Metal_State_Penalty>
-0

> <b_epik_Metal_Only>
0

> <s_lp_Force_Field>
OPLS_2005

> <r_lp_Energy>
18.1915

> <b_lp_Chiralities_Consistent>
1

> <s_lp_Variant>
AV-unprocessed.smi:42-1

> <Gold.Version>
5.8.1

> <Gold.Id.Protein>
6NUR|6NUR_protein|mol2

> <Gold.PLP.Fitness>
37.9826

> <Gold.PLP.PLP>
-23.8690

> <Gold.PLP.part.hbond>
-4.0000

> <Gold.PLP.part.metal>
0.0000

> <Gold.PLP.part.buried>
-0.5199

> <Gold.PLP.part.nonpolar>
-18.6074

> <Gold.PLP.part.repulsive>
0.1555

> <Gold.PLP.ligand.clash>
0.0000

> <Gold.PLP.ligand.torsion>
0.1854

> <Gold.PLP.Chemscore.Hbond>
4.8148

> <Gold.PLP.Chemscore.CHOScore>
0.0000

> <Gold.PLP.Chemscore.Metal>
0.0000

> <Gold.Chemscore.Hbonds>
donor molecule, donor type, donor heavy atom, donor atom, acceptor molecule, acceptor atom, score
      L1  H    10    23       P1 10175  0.98
      L1  H    12    27       P1  8028  2.00
      P1  H  7989  7998       L1     5  0.82
      P1  H  7997  8008       L1     4  0.88

> <Gold.PLP.Chemscore.Internal.Correction>
0.0402

> <Gold.Rescore>
     Score         DG    S(hbond)    S(metal)    S(lipo)     H(rot)  DE(clash)    DE(int)     intcor
     15.64     -16.16       3.14        0.00      42.37       1.86       0.35       0.17       ----

> <Gold.Chemscore.Fitness>
15.6403

> <Gold.Chemscore.DG>
-16.1595

> <Gold.Chemscore.ZeroCoef>
-5.4800

> <Gold.Chemscore.Hbond>
3.1363

> <Gold.Chemscore.Metal>
0.0000

> <Gold.Chemscore.Lipo>
42.3705

> <Gold.Chemscore.Internal_Hbond>
0.0000

> <Gold.Chemscore.DEClash>
0.3534

> <Gold.Chemscore.DEInternal>
0.1658

> <Gold.Chemscore.Rot>
1.8567

> <Gold.Chemscore.Internal.Correction>
   9.000000E+99

> <Gold.Chemscore.Hbonds>
donor molecule, donor type, donor heavy atom, donor atom, acceptor molecule, acceptor atom, score
      L1  H    10    23       P1 10175  0.71
      L1  H    12    27       P1  8028  0.95
      P1  H  7989  7998       L1     5  0.18
      P1  H  7997  8008       L1     4  0.76

> <Gold.Chemscore.Hbond.Weighted>
-10.4752

> <Gold.Chemscore.Metal.Weighted>
-0.0000

> <Gold.Chemscore.Lipo.Weighted>
-4.9574

> <Gold.Chemscore.Internal_Hbond.Weighted>
0.0000

> <Gold.Chemscore.DEClash.Weighted>
0.3534

> <Gold.Chemscore.DEInternal.Weighted>
0.1658

> <Gold.Chemscore.Rot.Weighted>
4.7531

> <Gold.Chemscore.Internal.Correction.Weighted>
   9.000000E+99

> <Gold.Protein.RotatedTorsions>
[ 6907 6896 6895 6894 ] final    1.32 input  -60.11 | X-H torsion
[ 7974 7965 7964 7962 ] final  -29.81 input  175.53 | X-H torsion
[ 8008 7997 7996 7995 ] final  -44.67 input   59.86 | X-H torsion
[ 10167 10162 10161 10158 ] final  -63.04 input  -65.29 | X-H torsion
[ 10718 10713 10712 10709 ] final  122.23 input   66.30 | X-H torsion
[ 10763 10752 10751 10750 ] final  174.37 input  -60.55 | X-H torsion
[ 11005 11000 10999 10996 ] final  -67.47 input  -57.11 | X-H torsion

> <Gold.Protein.ActiveResidues>
 VAL166  LYS551  ARG553  GLY616  TRP617  ASP618  TYR619  PRO620  LYS621  CYS622 
 ASP623  PHE694  ASN695  SER759  ASP760  ASP761  ALA762  ILE779  LEU786  VAL792 
 PHE793  MET794  SER795  GLU796  ALA797  LYS798  CYS799  TRP800  GLU811  SER814 

> <Gold.Protein.RotatedAtoms>
  151.5908  135.1053  160.0038 H   0  0  0  0  0  0  0  0  0  0  0  0  # atno 6907 bound_to 6896
  152.4307  133.7269  159.6576 H   0  0  0  0  0  0  0  0  0  0  0  0  # atno 6908 bound_to 6896
  150.8199  133.8199  159.3166 H   0  0  0  0  0  0  0  0  0  0  0  0  # atno 6909 bound_to 6896
  146.1189  140.5460  142.8744 H   0  0  0  0  0  0  0  0  0  0  0  0  # atno 7974 bound_to 7965
  154.3998  140.1416  156.3722 H   0  0  0  0  0  0  0  0  0  0  0  0  # atno 8008 bound_to 7997
  155.8082  140.3473  155.5421 H   0  0  0  0  0  0  0  0  0  0  0  0  # atno 8009 bound_to 7997
  155.8414  140.0927  157.1723 H   0  0  0  0  0  0  0  0  0  0  0  0  # atno 8010 bound_to 7997
  140.5898  143.2340  151.6164 H   0  0  0  0  0  0  0  0  0  0  0  0  # atno 10167 bound_to 10162
  157.5758  131.1079  150.8282 H   0  0  0  0  0  0  0  0  0  0  0  0  # atno 10718 bound_to 10713
  154.4530  135.2765  155.1768 H   0  0  0  0  0  0  0  0  0  0  0  0  # atno 10763 bound_to 10752
  154.3587  135.6134  153.5683 H   0  0  0  0  0  0  0  0  0  0  0  0  # atno 10764 bound_to 10752
  152.9848  135.5829  154.4878 H   0  0  0  0  0  0  0  0  0  0  0  0  # atno 10765 bound_to 10752
  141.1509  133.6720  156.6298 H   0  0  0  0  0  0  0  0  0  0  0  0  # atno 11005 bound_to 11000
  144.7579  140.5351  143.6756 LP  0  0  0  0  0  0  0  0  0  0  0  0  # atno 17320 bound_to 7965
  145.5508  139.1476  143.3395 LP  0  0  0  0  0  0  0  0  0  0  0  0  # atno 17321 bound_to 7965
  139.5220  144.3175  152.0939 LP  0  0  0  0  0  0  0  0  0  0  0  0  # atno 17342 bound_to 10162
  140.2338  144.4341  150.6288 LP  0  0  0  0  0  0  0  0  0  0  0  0  # atno 17343 bound_to 10162
  156.8741  130.5156  149.5295 LP  0  0  0  0  0  0  0  0  0  0  0  0  # atno 17370 bound_to 10713
  156.0803  130.5815  150.9550 LP  0  0  0  0  0  0  0  0  0  0  0  0  # atno 17371 bound_to 10713
  140.3475  134.7796  157.4443 LP  0  0  0  0  0  0  0  0  0  0  0  0  # atno 17394 bound_to 11000
  140.0887  134.5631  155.8466 LP  0  0  0  0  0  0  0  0  0  0  0  0  # atno 17395 bound_to 11000

$$$$
