AV-unprocessed.smi:2108|AV-procd|sdf|8604|dock9
  -GOLD-   2272011343D 1   1.00000     0.00000
 Structure written by MMmdl.
 35 36  0  0  0  0  0  0  0  0  1 V2000
  153.6172  136.3050  158.2054 O   0  0  0  0  0  0  0  0  0  0  0  0
  152.5437  137.2935  158.3879 S   0  0  0  0  0  0  0  0  0  0  0  0
  151.3544  136.9899  159.1987 O   0  0  0  0  0  0  0  0  0  0  0  0
  153.2387  138.7585  158.9790 N   0  0  0  0  0  0  0  0  0  0  0  0
  152.4496  139.9907  158.9692 C   0  0  0  0  0  0  0  0  0  0  0  0
  153.0125  140.9962  159.9817 C   0  0  0  0  0  0  0  0  0  0  0  0
  152.4180  142.3801  159.7989 C   0  0  0  0  0  0  0  0  0  0  0  0
  152.5528  143.3603  160.8052 C   0  0  0  0  0  0  0  0  0  0  0  0
  151.9686  144.6241  160.5935 C   0  0  0  0  0  0  0  0  0  0  0  0
  151.2748  144.8573  159.3902 C   0  0  0  0  0  0  0  0  0  0  0  0
  151.1953  143.8120  158.4488 C   0  0  0  0  0  0  0  0  0  0  0  0
  151.7514  142.5963  158.6422 N   0  0  0  0  0  0  0  0  0  0  0  0
  152.0259  137.8299  156.8243 N   0  0  0  0  0  0  0  0  0  0  0  0
  153.0195  138.5139  155.9819 C   0  0  0  0  0  0  0  0  0  0  0  0
  152.5080  138.6607  154.5395 C   0  0  0  0  0  0  0  0  0  0  0  0
  151.2423  139.3034  154.5319 O   0  0  0  0  0  0  0  0  0  0  0  0
  150.2675  138.5410  155.2276 C   0  0  0  0  0  0  0  0  0  0  0  0
  150.6693  138.3920  156.7037 C   0  0  0  0  0  0  0  0  0  0  0  0
  154.2132  138.8808  158.7049 H   0  0  0  0  0  0  0  0  0  0  0  0
  152.4619  140.4156  157.9649 H   0  0  0  0  0  0  0  0  0  0  0  0
  151.4122  139.7557  159.2099 H   0  0  0  0  0  0  0  0  0  0  0  0
  152.8157  140.6525  160.9983 H   0  0  0  0  0  0  0  0  0  0  0  0
  154.0973  141.0605  159.8834 H   0  0  0  0  0  0  0  0  0  0  0  0
  153.0869  143.1490  161.7201 H   0  0  0  0  0  0  0  0  0  0  0  0
  152.0496  145.3994  161.3411 H   0  0  0  0  0  0  0  0  0  0  0  0
  150.8137  145.8141  159.1937 H   0  0  0  0  0  0  0  0  0  0  0  0
  150.6694  143.9553  157.5165 H   0  0  0  0  0  0  0  0  0  0  0  0
  153.2298  139.4948  156.4097 H   0  0  0  0  0  0  0  0  0  0  0  0
  153.9550  137.9546  155.9844 H   0  0  0  0  0  0  0  0  0  0  0  0
  153.2096  139.2544  153.9535 H   0  0  0  0  0  0  0  0  0  0  0  0
  152.4364  137.6860  154.0539 H   0  0  0  0  0  0  0  0  0  0  0  0
  149.3044  139.0459  155.1517 H   0  0  0  0  0  0  0  0  0  0  0  0
  150.1500  137.5626  154.7584 H   0  0  0  0  0  0  0  0  0  0  0  0
  149.9505  137.7549  157.2181 H   0  0  0  0  0  0  0  0  0  0  0  0
  150.6456  139.3639  157.1981 H   0  0  0  0  0  0  0  0  0  0  0  0
  1  2  2  0  0  0  0
  2  3  2  0  0  0  0
  2  4  1  0  0  0  0
  2 13  1  0  0  0  0
  4  5  1  0  0  0  0
  4 19  1  0  0  0  0
  5  6  1  0  0  0  0
  5 20  1  0  0  0  0
  5 21  1  0  0  0  0
  6  7  1  0  0  0  0
  6 22  1  0  0  0  0
  6 23  1  0  0  0  0
  7 12  1  0  0  0  0
  7  8  2  0  0  0  0
  8  9  1  0  0  0  0
  8 24  1  0  0  0  0
  9 10  2  0  0  0  0
  9 25  1  0  0  0  0
 10 11  1  0  0  0  0
 10 26  1  0  0  0  0
 11 12  2  0  0  0  0
 11 27  1  0  0  0  0
 13 18  1  0  0  0  0
 13 14  1  0  0  0  0
 14 15  1  0  0  0  0
 14 28  1  0  0  0  0
 14 29  1  0  0  0  0
 15 16  1  0  0  0  0
 15 30  1  0  0  0  0
 15 31  1  0  0  0  0
 16 17  1  0  0  0  0
 17 18  1  0  0  0  0
 17 32  1  0  0  0  0
 17 33  1  0  0  0  0
 18 34  1  0  0  0  0
 18 35  1  0  0  0  0
M  END
> <s_m_source_file>
AV-unprocessed.smi

> <i_m_source_file_index>
2108

> <i_lp_mmshare_version>
43012

> <i_f3d_flags>
0

> <s_epik_input>
W0NIMl0xW0NIMl1PW0NIMl1bQ0gyXU4xUyg9TykoPU8pW05IXVtDSDJdW0NIMl1jMltjSF1bY0hdW2NIXVtjSF1uMg==

> <s_epik_cmdline>
J2VwaWtfcHl0aG9uJywgJy1waCcsICc3LjAnLCAnLXRuJywgJzgnLCAnLW1hJywgJzIwMCcsICctbWV0YWxfYmluZGluZycsICctaW1hZScsICc8aW5maWxlLm1hZT4nLCAnLW9tYWUnLCAnPG91dGZpbGUubWFlPic=

> <r_epik_Ionization_Penalty>
0.085378

> <r_epik_Ionization_Penalty_Charging>
0

> <r_epik_Ionization_Penalty_Neutral>
0.085378

> <r_epik_State_Penalty>
0.0441186

> <r_epik_Charging_Adjusted_Penalty>
0.0441186

> <i_epik_Tot_Q>
0

> <i_epik_Tot_abs_Q>
0

> <r_epik_Metal_State_Penalty>
0.24397

> <b_epik_Metal_Only>
0

> <s_lp_Force_Field>
OPLS_2005

> <r_lp_Energy>
7.91242

> <b_lp_Chiralities_Consistent>
1

> <s_lp_Variant>
AV-unprocessed.smi:2108-1

> <Gold.Version>
5.8.1

> <Gold.Id.Protein>
6NUR|6NUR_protein|mol2

> <Gold.PLP.Fitness>
42.1924

> <Gold.PLP.PLP>
-35.0054

> <Gold.PLP.part.hbond>
-2.2598

> <Gold.PLP.part.metal>
0.0000

> <Gold.PLP.part.buried>
-4.5375

> <Gold.PLP.part.nonpolar>
-27.7458

> <Gold.PLP.part.repulsive>
0.1668

> <Gold.PLP.ligand.clash>
0.0000

> <Gold.PLP.ligand.torsion>
1.0822

> <Gold.PLP.Chemscore.Hbond>
1.8450

> <Gold.PLP.Chemscore.CHOScore>
0.9976

> <Gold.PLP.Chemscore.Metal>
0.0000

> <Gold.Chemscore.Hbonds>
donor molecule, donor type, donor heavy atom, donor atom, acceptor molecule, acceptor atom, score
      P1  H  6896  6908       L1     3  1.00
      P1  H  7989  7998       L1    16  1.00
      L1  C    11    27       P1  8028  0.67

> <Gold.PLP.Chemscore.Internal.Correction>
0.8235

> <Gold.Rescore>
     Score         DG    S(hbond)    S(metal)    S(lipo)     H(rot)  DE(clash)    DE(int)     intcor
     17.00     -18.22       1.62        0.00     102.99       1.84       0.37       0.85       ----

> <Gold.Chemscore.Fitness>
17.0031

> <Gold.Chemscore.DG>
-18.2233

> <Gold.Chemscore.ZeroCoef>
-5.4800

> <Gold.Chemscore.Hbond>
1.6166

> <Gold.Chemscore.Metal>
0.0000

> <Gold.Chemscore.Lipo>
102.9860

> <Gold.Chemscore.Internal_Hbond>
0.0000

> <Gold.Chemscore.DEClash>
0.3712

> <Gold.Chemscore.DEInternal>
0.8490

> <Gold.Chemscore.Rot>
1.8382

> <Gold.Chemscore.Internal.Correction>
   9.000000E+99

> <Gold.Chemscore.Hbonds>
donor molecule, donor type, donor heavy atom, donor atom, acceptor molecule, acceptor atom, score
      P1  H  6896  6908       L1     3  0.85
      P1  H  7989  7998       L1    16  0.26

> <Gold.Chemscore.Hbond.Weighted>
-5.3996

> <Gold.Chemscore.Metal.Weighted>
-0.0000

> <Gold.Chemscore.Lipo.Weighted>
-12.0494

> <Gold.Chemscore.Internal_Hbond.Weighted>
0.0000

> <Gold.Chemscore.DEClash.Weighted>
0.3712

> <Gold.Chemscore.DEInternal.Weighted>
0.8490

> <Gold.Chemscore.Rot.Weighted>
4.7057

> <Gold.Chemscore.Internal.Correction.Weighted>
   9.000000E+99

> <Gold.Protein.RotatedTorsions>
[ 6907 6896 6895 6894 ] final -137.60 input  -60.11 | X-H torsion
[ 7974 7965 7964 7962 ] final   26.27 input  175.53 | X-H torsion
[ 8008 7997 7996 7995 ] final  -20.18 input   59.86 | X-H torsion
[ 10167 10162 10161 10158 ] final  -80.16 input  -65.29 | X-H torsion
[ 10718 10713 10712 10709 ] final  -15.23 input   66.30 | X-H torsion
[ 10763 10752 10751 10750 ] final  -53.27 input  -60.55 | X-H torsion
[ 11005 11000 10999 10996 ] final  145.76 input  -57.11 | X-H torsion

> <Gold.Protein.ActiveResidues>
 VAL166  LYS551  ARG553  GLY616  TRP617  ASP618  TYR619  PRO620  LYS621  CYS622 
 ASP623  PHE694  ASN695  SER759  ASP760  ASP761  ALA762  ILE779  LEU786  VAL792 
 PHE793  MET794  SER795  GLU796  ALA797  LYS798  CYS799  TRP800  GLU811  SER814 

> <Gold.Protein.RotatedAtoms>
  151.0245  133.5846  159.2667 H   0  0  0  0  0  0  0  0  0  0  0  0  # atno 6907 bound_to 6896
  151.2951  135.0752  159.9228 H   0  0  0  0  0  0  0  0  0  0  0  0  # atno 6908 bound_to 6896
  152.5331  133.9936  159.7916 H   0  0  0  0  0  0  0  0  0  0  0  0  # atno 6909 bound_to 6896
  146.1846  139.7351  142.8876 H   0  0  0  0  0  0  0  0  0  0  0  0  # atno 7974 bound_to 7965
  154.4786  140.2068  155.9817 H   0  0  0  0  0  0  0  0  0  0  0  0  # atno 8008 bound_to 7997
  156.1130  140.3226  155.8069 H   0  0  0  0  0  0  0  0  0  0  0  0  # atno 8009 bound_to 7997
  155.4602  140.0523  157.2982 H   0  0  0  0  0  0  0  0  0  0  0  0  # atno 8010 bound_to 7997
  140.4528  143.2477  151.8463 H   0  0  0  0  0  0  0  0  0  0  0  0  # atno 10167 bound_to 10162
  156.6047  130.4833  149.6225 H   0  0  0  0  0  0  0  0  0  0  0  0  # atno 10718 bound_to 10713
  154.1561  135.6482  153.4975 H   0  0  0  0  0  0  0  0  0  0  0  0  # atno 10763 bound_to 10752
  153.0124  135.5349  154.6758 H   0  0  0  0  0  0  0  0  0  0  0  0  # atno 10764 bound_to 10752
  154.6059  135.2948  155.0456 H   0  0  0  0  0  0  0  0  0  0  0  0  # atno 10765 bound_to 10752
  140.0738  134.9136  157.1389 H   0  0  0  0  0  0  0  0  0  0  0  0  # atno 11005 bound_to 11000
  145.3977  141.0381  143.3088 LP  0  0  0  0  0  0  0  0  0  0  0  0  # atno 17320 bound_to 7965
  144.8374  139.5527  143.6916 LP  0  0  0  0  0  0  0  0  0  0  0  0  # atno 17321 bound_to 7965
  139.4798  144.5100  151.8946 LP  0  0  0  0  0  0  0  0  0  0  0  0  # atno 17342 bound_to 10162
  140.4186  144.2273  150.5887 LP  0  0  0  0  0  0  0  0  0  0  0  0  # atno 17343 bound_to 10162
  156.2440  130.6868  151.1582 LP  0  0  0  0  0  0  0  0  0  0  0  0  # atno 17370 bound_to 10713
  157.7270  131.0642  150.5883 LP  0  0  0  0  0  0  0  0  0  0  0  0  # atno 17371 bound_to 10713
  140.3588  134.2517  155.7189 LP  0  0  0  0  0  0  0  0  0  0  0  0  # atno 17394 bound_to 11000
  141.2022  133.7944  157.0404 LP  0  0  0  0  0  0  0  0  0  0  0  0  # atno 17395 bound_to 11000

$$$$
