#       Name:                AV-unprocessed.smi:3316
#       Creating user name   scv26
#       Creation time:       Fri Mar 27 19:09:21 2020


#       File generated by GOLD software.
#

@<TRIPOS>MOLECULE
AV-unprocessed.smi:3316
    42    44     1
SMALL
NO_CHARGES


@<TRIPOS>ATOM
      1 ****        -2.8250  -2.4976  -2.1814 C.3            1 S1                 0.0000
      2 ****        -2.2353  -1.6879  -1.0159 C.3            1 S1                 0.0000
      3 ****        -0.6946  -1.7145  -1.0317 C.3            1 S1                 0.0000
      4 ****        -0.1294  -1.0263   0.1468 N.4            1 S1                 1.0000
      5 ****         1.3434  -0.9406   0.1485 C.3            1 S1                 0.0000
      6 ****         1.8500  -0.1806   1.3885 C.3            1 S1                 0.0000
      7 ****         1.5091   1.3427   1.3976 C.3            1 S1                 0.0000
      8 ****         2.8866   2.0054   1.6281 C.3            1 S1                 0.0000
      9 ****         3.7167   1.7792   0.3832 C.2            1 S1                 0.0000
     10 ****         4.0209   0.4811   0.3404 C.2            1 S1                 0.0000
     11 ****         3.3926  -0.1710   1.5563 C.3            1 S1                 0.0000
     12 ****         3.5267   0.9758   2.5656 C.3            1 S1                 0.0000
     13 ****        -2.7785  -0.2637  -0.9989 C.ar           1 S1                 0.0000
     14 ****        -3.5269   0.2051   0.1016 C.ar           1 S1                 0.0000
     15 ****        -3.9973   1.5336   0.0812 C.ar           1 S1                 0.0000
     16 ****        -3.7649   2.3866  -0.9389 N.ar           1 S1                 0.0000
     17 ****        -3.0502   1.9339  -1.9906 C.ar           1 S1                 0.0000
     18 ****        -2.5351   0.6246  -2.0693 C.ar           1 S1                 0.0000
     19 ****        -3.9143  -2.5141  -2.1344 H              1 S1                 0.0000
     20 ****        -2.4802  -3.5317  -2.1550 H              1 S1                 0.0000
     21 ****        -2.5403  -2.0801  -3.1475 H              1 S1                 0.0000
     22 ****        -2.5614  -2.1765  -0.0964 H              1 S1                 0.0000
     23 ****        -0.3384  -2.7455  -1.0377 H              1 S1                 0.0000
     24 ****        -0.3173  -1.2437  -1.9407 H              1 S1                 0.0000
     25 ****        -0.5001  -0.0869   0.1724 H              1 S1                 0.0000
     26 ****         1.7540  -1.9510   0.1409 H              1 S1                 0.0000
     27 ****         1.6756  -0.4508  -0.7677 H              1 S1                 0.0000
     28 ****         1.4178  -0.6450   2.2768 H              1 S1                 0.0000
     29 ****         1.0523   1.6827   0.4667 H              1 S1                 0.0000
     30 ****         0.8198   1.5782   2.2094 H              1 S1                 0.0000
     31 ****         2.8758   3.0331   1.9920 H              1 S1                 0.0000
     32 ****         3.9704   2.5431  -0.3367 H              1 S1                 0.0000
     33 ****         4.5761  -0.0433  -0.4233 H              1 S1                 0.0000
     34 ****         3.8510  -1.1123   1.8610 H              1 S1                 0.0000
     35 ****         4.5651   1.2095   2.8097 H              1 S1                 0.0000
     36 ****         2.9741   0.8190   3.4941 H              1 S1                 0.0000
     37 ****        -3.7407  -0.4334   0.9464 H              1 S1                 0.0000
     38 ****        -4.5733   1.9219   0.9081 H              1 S1                 0.0000
     39 ****        -2.8809   2.6366  -2.7930 H              1 S1                 0.0000
     40 ****        -1.9674   0.3161  -2.9348 H              1 S1                 0.0000
     41 ****        -0.4270  -1.5130   0.9803 H              1 S1                 0.0000
     42 ****        -4.1113   3.3244  -0.9162 LP             1 S1                 0.0000
@<TRIPOS>BOND
    1    1    2 1     
    2    1   19 1     
    3    1   20 1     
    4    1   21 1     
    5    2    3 1     
    6    2   13 1     
    7    2   22 1     
    8    3    4 1     
    9    3   23 1     
   10    3   24 1     
   11    4    5 1     
   12    4   25 1     
   13    4   41 1     
   14    5    6 1     
   15    5   26 1     
   16    5   27 1     
   17    6   11 1     
   18    6    7 1     
   19    6   28 1     
   20    7    8 1     
   21    7   29 1     
   22    7   30 1     
   23    8   12 1     
   24    8    9 1     
   25    8   31 1     
   26    9   10 2     
   27    9   32 1     
   28   10   11 1     
   29   10   33 1     
   30   11   12 1     
   31   11   34 1     
   32   12   35 1     
   33   12   36 1     
   34   13   18 ar    
   35   13   14 ar    
   36   14   15 ar    
   37   14   37 1     
   38   15   16 ar    
   39   15   38 1     
   40   16   17 ar    
   41   17   18 ar    
   42   17   39 1     
   43   18   40 1     
   44   16   42 1     
@<TRIPOS>SUBSTRUCTURE
      1 S1             1
@<TRIPOS>SET
LONE_PAIRS      STATIC     ATOMS    <user>   **** ""
1 42
DONOR_HYDROGENS      STATIC     ATOMS    <user>   **** ""
2 25 41
ATOM$BLUE        STATIC     ATOMS    COLORGROUP SYSTEM
1 42
ATOM$RED        STATIC     ATOMS    COLORGROUP SYSTEM
2 25 41
