AV-unprocessed.smi:1247|AV-procd|sdf|5248|dock2
  -GOLD-   22720 4353D 1   1.00000     0.00000
 Structure written by MMmdl.
 47 48  0  0  0  0  0  0  0  0  2 V2000
  143.4105  132.1195  150.2953 C   0  0  0  0  0  0  0  0  0  0  0  0
  144.5395  132.9545  150.8235 C   0  0  0  0  0  0  0  0  0  0  0  0
  144.6810  134.3717  150.7718 C   0  0  0  0  0  0  0  0  0  0  0  0
  145.8815  134.5777  151.3950 C   0  0  0  0  0  0  0  0  0  0  0  0
  146.5307  135.7485  151.6340 N   0  0  0  0  0  0  0  0  0  0  0  0
  146.0119  136.9399  151.9796 C   0  0  0  0  0  0  0  0  0  0  0  0
  144.8149  137.1796  152.1406 O   0  0  0  0  0  0  0  0  0  0  0  0
  146.9712  137.8643  152.1328 N   0  0  0  0  0  0  0  0  0  0  0  0
  146.7317  139.2486  152.5246 C   0  0  0  0  0  0  0  0  0  0  0  0
  146.6345  139.3968  154.0552 C   0  0  0  0  0  0  0  0  0  0  0  0
  147.9545  139.6662  154.6776 N   0  3  1  0  0  0  0  0  0  0  0  0
  149.0034  138.7284  154.2150 C   0  0  0  0  0  0  0  0  0  0  0  0
  150.3225  138.9841  154.9659 C   0  0  1  0  0  0  0  0  0  0  0  0
  151.4578  138.0902  154.4551 C   0  0  0  0  0  0  0  0  0  0  0  0
  150.7172  140.3410  154.7821 O   0  0  0  0  0  0  0  0  0  0  0  0
  149.7587  141.3082  155.2106 C   0  0  2  0  0  0  0  0  0  0  0  0
  149.6480  141.3811  156.7440 C   0  0  0  0  0  0  0  0  0  0  0  0
  148.4085  141.0687  154.5067 C   0  0  0  0  0  0  0  0  0  0  0  0
  146.3958  133.3600  151.7832 N   0  0  0  0  0  0  0  0  0  0  0  0
  147.6354  133.0586  152.4726 C   0  0  0  0  0  0  0  0  0  0  0  0
  145.5634  132.3587  151.4244 N   0  0  0  0  0  0  0  0  0  0  0  0
  142.6358  132.7426  149.8477 H   0  0  0  0  0  0  0  0  0  0  0  0
  142.9473  131.5362  151.0914 H   0  0  0  0  0  0  0  0  0  0  0  0
  143.7597  131.4251  149.5310 H   0  0  0  0  0  0  0  0  0  0  0  0
  144.0027  135.0946  150.3445 H   0  0  0  0  0  0  0  0  0  0  0  0
  147.5349  135.7089  151.5395 H   0  0  0  0  0  0  0  0  0  0  0  0
  147.9310  137.5889  151.9821 H   0  0  0  0  0  0  0  0  0  0  0  0
  147.5201  139.8775  152.1100 H   0  0  0  0  0  0  0  0  0  0  0  0
  145.8006  139.5757  152.0611 H   0  0  0  0  0  0  0  0  0  0  0  0
  145.9583  140.2254  154.2708 H   0  0  0  0  0  0  0  0  0  0  0  0
  146.1894  138.5114  154.5121 H   0  0  0  0  0  0  0  0  0  0  0  0
  148.6812  137.7004  154.3860 H   0  0  0  0  0  0  0  0  0  0  0  0
  149.1479  138.8444  153.1393 H   0  0  0  0  0  0  0  0  0  0  0  0
  150.1853  138.7808  156.0284 H   0  0  0  0  0  0  0  0  0  0  0  0
  151.2146  137.0349  154.5815 H   0  0  0  0  0  0  0  0  0  0  0  0
  152.3819  138.2846  154.9999 H   0  0  0  0  0  0  0  0  0  0  0  0
  151.6531  138.2649  153.3966 H   0  0  0  0  0  0  0  0  0  0  0  0
  150.1385  142.2747  154.8778 H   0  0  0  0  0  0  0  0  0  0  0  0
  149.0216  142.2208  157.0462 H   0  0  0  0  0  0  0  0  0  0  0  0
  150.6292  141.5239  157.1974 H   0  0  0  0  0  0  0  0  0  0  0  0
  149.2089  140.4803  157.1719 H   0  0  0  0  0  0  0  0  0  0  0  0
  148.5128  141.2802  153.4412 H   0  0  0  0  0  0  0  0  0  0  0  0
  147.6668  141.7679  154.8915 H   0  0  0  0  0  0  0  0  0  0  0  0
  147.7657  133.7402  153.3136 H   0  0  0  0  0  0  0  0  0  0  0  0
  148.4731  133.1751  151.7844 H   0  0  0  0  0  0  0  0  0  0  0  0
  147.6246  132.0351  152.8498 H   0  0  0  0  0  0  0  0  0  0  0  0
  147.8467  139.5045  155.6688 H   0  0  0  0  0  0  0  0  0  0  0  0
  1  2  1  0  0  0  0
  1 22  1  0  0  0  0
  1 23  1  0  0  0  0
  1 24  1  0  0  0  0
  2 21  2  0  0  0  0
  2  3  1  0  0  0  0
  3  4  2  0  0  0  0
  3 25  1  0  0  0  0
  4  5  1  0  0  0  0
  4 19  1  0  0  0  0
  5  6  1  0  0  0  0
  5 26  1  0  0  0  0
  6  7  2  0  0  0  0
  6  8  1  0  0  0  0
  8  9  1  0  0  0  0
  8 27  1  0  0  0  0
  9 10  1  0  0  0  0
  9 28  1  0  0  0  0
  9 29  1  0  0  0  0
 10 11  1  0  0  0  0
 10 30  1  0  0  0  0
 10 31  1  0  0  0  0
 11 18  1  0  0  0  0
 11 12  1  0  0  0  0
 11 47  1  0  0  0  0
 12 13  1  0  0  0  0
 12 32  1  0  0  0  0
 12 33  1  0  0  0  0
 13 14  1  0  0  0  0
 13 15  1  0  0  0  0
 13 34  1  0  0  0  0
 14 35  1  0  0  0  0
 14 36  1  0  0  0  0
 14 37  1  0  0  0  0
 15 16  1  0  0  0  0
 16 17  1  0  0  0  0
 16 18  1  0  0  0  0
 16 38  1  0  0  0  0
 17 39  1  0  0  0  0
 17 40  1  0  0  0  0
 17 41  1  0  0  0  0
 18 42  1  0  0  0  0
 18 43  1  0  0  0  0
 19 20  1  0  0  0  0
 19 21  1  0  0  0  0
 20 44  1  0  0  0  0
 20 45  1  0  0  0  0
 20 46  1  0  0  0  0
M  CHG  1  11   1
M  END
> <s_m_source_file>
AV-unprocessed.smi

> <i_m_source_file_index>
1247

> <i_lp_mmshare_version>
43012

> <i_f3d_flags>
0

> <s_epik_input>
W0NIM11jMVtjSF1jKG4objEpW0NIM10pW05IXUMoPU8pW05IXVtDSDJdW0NIMl1OMltDSDJdW0NAQEhdKFtDSDNdKU9bQ0BASF0oW0NIM10pW0NIMl0y

> <s_epik_cmdline>
J2VwaWtfcHl0aG9uJywgJy1waCcsICc3LjAnLCAnLXRuJywgJzgnLCAnLW1hJywgJzIwMCcsICctbWV0YWxfYmluZGluZycsICctaW1hZScsICc8aW5maWxlLm1hZT4nLCAnLW9tYWUnLCAnPG91dGZpbGUubWFlPic=

> <r_lp_tautomer_probability>
1

> <r_epik_Ionization_Penalty>
0.663902

> <r_epik_Ionization_Penalty_Charging>
0.663826

> <r_epik_Ionization_Penalty_Neutral>
7.65444e-05

> <r_epik_State_Penalty>
0.683414

> <r_epik_Charging_Adjusted_Penalty>
1.34724

> <i_epik_Tot_Q>
1

> <i_epik_Tot_abs_Q>
1

> <r_epik_Metal_State_Penalty>
0.683419

> <b_epik_Metal_Only>
0

> <s_lp_Force_Field>
OPLS_2005

> <r_lp_Energy>
18.4757

> <b_lp_Chiralities_Consistent>
1

> <s_lp_Variant>
AV-unprocessed.smi:1247-6

> <Gold.Version>
5.8.1

> <Gold.Id.Protein>
6NUR|6NUR_protein|mol2

> <Gold.PLP.Fitness>
44.6906

> <Gold.PLP.PLP>
-37.4590

> <Gold.PLP.part.hbond>
-2.7892

> <Gold.PLP.part.metal>
0.0000

> <Gold.PLP.part.buried>
-4.6044

> <Gold.PLP.part.nonpolar>
-32.7189

> <Gold.PLP.part.repulsive>
1.7119

> <Gold.PLP.ligand.clash>
0.0000

> <Gold.PLP.ligand.torsion>
0.7418

> <Gold.PLP.Chemscore.Hbond>
2.8960

> <Gold.PLP.Chemscore.CHOScore>
0.0000

> <Gold.PLP.Chemscore.Metal>
0.0000

> <Gold.Chemscore.Hbonds>
donor molecule, donor type, donor heavy atom, donor atom, acceptor molecule, acceptor atom, score
      L1  H     5    26       P1  7948  0.93
      L1  H     8    27       P1  7948  0.88
      P1  H  7989  7998       L1    15  1.00

> <Gold.PLP.Chemscore.Internal.Correction>
0.0273

> <Gold.Rescore>
     Score         DG    S(hbond)    S(metal)    S(lipo)     H(rot)  DE(clash)    DE(int)     intcor
     18.68     -20.55       2.81        0.00      81.81       1.52       0.18       1.69       ----

> <Gold.Chemscore.Fitness>
18.6814

> <Gold.Chemscore.DG>
-20.5471

> <Gold.Chemscore.ZeroCoef>
-5.4800

> <Gold.Chemscore.Hbond>
2.8120

> <Gold.Chemscore.Metal>
0.0000

> <Gold.Chemscore.Lipo>
81.8094

> <Gold.Chemscore.Internal_Hbond>
0.0000

> <Gold.Chemscore.DEClash>
0.1776

> <Gold.Chemscore.DEInternal>
1.6881

> <Gold.Chemscore.Rot>
1.5221

> <Gold.Chemscore.Internal.Correction>
   9.000000E+99

> <Gold.Chemscore.Hbonds>
donor molecule, donor type, donor heavy atom, donor atom, acceptor molecule, acceptor atom, score
      L1  H     5    26       P1  7948  0.85
      L1  H     8    27       P1  7948  0.86
      P1  H  7989  7998       L1    15  0.81

> <Gold.Chemscore.Hbond.Weighted>
-9.3921

> <Gold.Chemscore.Metal.Weighted>
-0.0000

> <Gold.Chemscore.Lipo.Weighted>
-9.5717

> <Gold.Chemscore.Internal_Hbond.Weighted>
0.0000

> <Gold.Chemscore.DEClash.Weighted>
0.1776

> <Gold.Chemscore.DEInternal.Weighted>
1.6881

> <Gold.Chemscore.Rot.Weighted>
3.8967

> <Gold.Chemscore.Internal.Correction.Weighted>
   9.000000E+99

> <Gold.Protein.RotatedTorsions>
[ 6907 6896 6895 6894 ] final   78.38 input  -60.11 | X-H torsion
[ 7974 7965 7964 7962 ] final  160.45 input  175.53 | X-H torsion
[ 8008 7997 7996 7995 ] final  176.61 input   59.86 | X-H torsion
[ 10167 10162 10161 10158 ] final -118.01 input  -65.29 | X-H torsion
[ 10718 10713 10712 10709 ] final    5.28 input   66.30 | X-H torsion
[ 10763 10752 10751 10750 ] final -117.23 input  -60.55 | X-H torsion
[ 11005 11000 10999 10996 ] final    0.93 input  -57.11 | X-H torsion

> <Gold.Protein.ActiveResidues>
 VAL166  LYS551  ARG553  GLY616  TRP617  ASP618  TYR619  PRO620  LYS621  CYS622 
 ASP623  PHE694  ASN695  SER759  ASP760  ASP761  ALA762  ILE779  LEU786  VAL792 
 PHE793  MET794  SER795  GLU796  ALA797  LYS798  CYS799  TRP800  GLU811  SER814 

> <Gold.Protein.RotatedAtoms>
  152.5157  134.3673  159.9305 H   0  0  0  0  0  0  0  0  0  0  0  0  # atno 6907 bound_to 6896
  151.3626  133.3877  159.2699 H   0  0  0  0  0  0  0  0  0  0  0  0  # atno 6908 bound_to 6896
  150.9640  134.9042  159.7806 H   0  0  0  0  0  0  0  0  0  0  0  0  # atno 6909 bound_to 6896
  144.7736  139.7758  143.6287 H   0  0  0  0  0  0  0  0  0  0  0  0  # atno 7974 bound_to 7965
  156.0746  140.1379  156.9787 H   0  0  0  0  0  0  0  0  0  0  0  0  # atno 8008 bound_to 7997
  154.4550  140.0965  156.6783 H   0  0  0  0  0  0  0  0  0  0  0  0  # atno 8009 bound_to 7997
  155.5173  140.3455  155.4402 H   0  0  0  0  0  0  0  0  0  0  0  0  # atno 8010 bound_to 7997
  140.0622  143.4957  152.2026 H   0  0  0  0  0  0  0  0  0  0  0  0  # atno 10167 bound_to 10162
  156.9050  130.5735  149.5647 H   0  0  0  0  0  0  0  0  0  0  0  0  # atno 10718 bound_to 10713
  154.8548  135.4317  154.1947 H   0  0  0  0  0  0  0  0  0  0  0  0  # atno 10763 bound_to 10752
  153.3007  135.6968  153.7211 H   0  0  0  0  0  0  0  0  0  0  0  0  # atno 10764 bound_to 10752
  153.6342  135.3479  155.3026 H   0  0  0  0  0  0  0  0  0  0  0  0  # atno 10765 bound_to 10752
  140.6211  133.9661  155.8225 H   0  0  0  0  0  0  0  0  0  0  0  0  # atno 11005 bound_to 11000
  146.1901  139.5136  142.9811 LP  0  0  0  0  0  0  0  0  0  0  0  0  # atno 17320 bound_to 7965
  145.6250  141.0315  143.1894 LP  0  0  0  0  0  0  0  0  0  0  0  0  # atno 17321 bound_to 7965
  139.5887  144.7541  151.3455 LP  0  0  0  0  0  0  0  0  0  0  0  0  # atno 17342 bound_to 10162
  140.7166  143.7248  150.7668 LP  0  0  0  0  0  0  0  0  0  0  0  0  # atno 17343 bound_to 10162
  156.0563  130.5624  150.9099 LP  0  0  0  0  0  0  0  0  0  0  0  0  # atno 17370 bound_to 10713
  157.6002  131.0941  150.8972 LP  0  0  0  0  0  0  0  0  0  0  0  0  # atno 17371 bound_to 10713
  141.0742  134.0160  157.3482 LP  0  0  0  0  0  0  0  0  0  0  0  0  # atno 17394 bound_to 11000
  139.9153  135.0196  156.7856 LP  0  0  0  0  0  0  0  0  0  0  0  0  # atno 17395 bound_to 11000

$$$$
