AV-unprocessed.smi:1686|AV-procd|sdf|6761|dock4
  -GOLD-   22720 7523D 1   1.00000     0.00000
 Structure written by MMmdl.
 41 43  0  0  0  0  0  0  0  0  1 V2000
  151.4213  136.5471  156.3857 C   0  0  0  0  0  0  0  0  0  0  0  0
  152.5409  136.4203  157.3782 C   0  0  0  0  0  0  0  0  0  0  0  0
  153.4902  135.5177  157.1683 N   0  0  0  0  0  0  0  0  0  0  0  0
  154.3883  135.6346  158.2354 O   0  0  0  0  0  0  0  0  0  0  0  0
  153.9200  136.6149  159.0413 C   0  0  0  0  0  0  0  0  0  0  0  0
  154.7335  137.0897  160.4794 Cl  0  0  0  0  0  0  0  0  0  0  0  0
  152.7581  137.1610  158.5772 C   0  0  0  0  0  0  0  0  0  0  0  0
  151.9164  138.2673  159.1671 C   0  0  0  0  0  0  0  0  0  0  0  0
  151.8951  139.5080  158.2658 C   0  0  0  0  0  0  0  0  0  0  0  0
  152.6725  139.6228  157.3167 O   0  0  0  0  0  0  0  0  0  0  0  0
  150.9852  140.4406  158.5865 N   0  0  0  0  0  0  0  0  0  0  0  0
  150.7891  141.7148  157.8966 C   0  0  1  0  0  0  0  0  0  0  0  0
  149.4262  141.6904  157.1800 C   0  0  0  0  0  0  0  0  0  0  0  0
  150.9119  142.8766  158.9143 C   0  0  1  0  0  0  0  0  0  0  0  0
  152.2540  142.8857  159.6902 C   0  0  0  0  0  0  0  0  0  0  0  0
  152.7857  144.3119  159.4673 C   0  0  2  0  0  0  0  0  0  0  0  0
  151.9033  145.3170  160.2289 C   0  0  0  0  0  0  0  0  0  0  0  0
  150.6091  145.3285  159.3946 C   0  0  0  0  0  0  0  0  0  0  0  0
  150.9062  144.2957  158.2898 C   0  0  1  0  0  0  0  0  0  0  0  0
  152.3840  144.5619  158.0205 C   0  0  0  0  0  0  0  0  0  0  0  0
  150.7813  137.3996  156.6122 H   0  0  0  0  0  0  0  0  0  0  0  0
  150.7962  135.6540  156.3846 H   0  0  0  0  0  0  0  0  0  0  0  0
  151.8065  136.6865  155.3754 H   0  0  0  0  0  0  0  0  0  0  0  0
  150.8905  137.9322  159.3243 H   0  0  0  0  0  0  0  0  0  0  0  0
  152.2887  138.5648  160.1479 H   0  0  0  0  0  0  0  0  0  0  0  0
  150.3900  140.2623  159.3825 H   0  0  0  0  0  0  0  0  0  0  0  0
  151.5709  141.8335  157.1446 H   0  0  0  0  0  0  0  0  0  0  0  0
  149.2613  142.5904  156.5894 H   0  0  0  0  0  0  0  0  0  0  0  0
  148.6050  141.6048  157.8923 H   0  0  0  0  0  0  0  0  0  0  0  0
  149.3580  140.8454  156.4941 H   0  0  0  0  0  0  0  0  0  0  0  0
  150.0861  142.7891  159.6222 H   0  0  0  0  0  0  0  0  0  0  0  0
  152.1235  142.6505  160.7471 H   0  0  0  0  0  0  0  0  0  0  0  0
  152.9615  142.1648  159.2780 H   0  0  0  0  0  0  0  0  0  0  0  0
  153.8507  144.4183  159.6753 H   0  0  0  0  0  0  0  0  0  0  0  0
  151.7305  145.0133  161.2620 H   0  0  0  0  0  0  0  0  0  0  0  0
  152.3605  146.3071  160.2420 H   0  0  0  0  0  0  0  0  0  0  0  0
  149.7289  145.0712  159.9847 H   0  0  0  0  0  0  0  0  0  0  0  0
  150.4425  146.3167  158.9639 H   0  0  0  0  0  0  0  0  0  0  0  0
  150.2590  144.4125  157.4215 H   0  0  0  0  0  0  0  0  0  0  0  0
  152.5871  145.5807  157.6855 H   0  0  0  0  0  0  0  0  0  0  0  0
  152.8348  143.8596  157.3175 H   0  0  0  0  0  0  0  0  0  0  0  0
  1  2  1  0  0  0  0
  1 21  1  0  0  0  0
  1 22  1  0  0  0  0
  1 23  1  0  0  0  0
  2  7  1  0  0  0  0
  2  3  2  0  0  0  0
  3  4  1  0  0  0  0
  4  5  1  0  0  0  0
  5  6  1  0  0  0  0
  5  7  2  0  0  0  0
  7  8  1  0  0  0  0
  8  9  1  0  0  0  0
  8 24  1  0  0  0  0
  8 25  1  0  0  0  0
  9 10  2  0  0  0  0
  9 11  1  0  0  0  0
 11 12  1  0  0  0  0
 11 26  1  0  0  0  0
 12 13  1  0  0  0  0
 12 14  1  0  0  0  0
 12 27  1  0  0  0  0
 13 28  1  0  0  0  0
 13 29  1  0  0  0  0
 13 30  1  0  0  0  0
 14 19  1  0  0  0  0
 14 15  1  0  0  0  0
 14 31  1  0  0  0  0
 15 16  1  0  0  0  0
 15 32  1  0  0  0  0
 15 33  1  0  0  0  0
 16 20  1  0  0  0  0
 16 17  1  0  0  0  0
 16 34  1  0  0  0  0
 17 18  1  0  0  0  0
 17 35  1  0  0  0  0
 17 36  1  0  0  0  0
 18 19  1  0  0  0  0
 18 37  1  0  0  0  0
 18 38  1  0  0  0  0
 19 20  1  0  0  0  0
 19 39  1  0  0  0  0
 20 40  1  0  0  0  0
 20 41  1  0  0  0  0
M  END
> <s_m_source_file>
AV-unprocessed.smi

> <i_m_source_file_index>
1686

> <i_lp_mmshare_version>
43012

> <i_f3d_flags>
0

> <s_epik_input>
W0NIM11jMW5vYyhDbCljMVtDSDJdQyg9TylbTkhdW0NASF0oW0NIM10pW0NASF0oW0NIMl1bQ0BIXTIzKVtDQEhdKFtDSDJdMylbQ0gyXVtDSDJdMg==

> <s_epik_cmdline>
J2VwaWtfcHl0aG9uJywgJy1waCcsICc3LjAnLCAnLXRuJywgJzgnLCAnLW1hJywgJzIwMCcsICctbWV0YWxfYmluZGluZycsICctaW1hZScsICc8aW5maWxlLm1hZT4nLCAnLW9tYWUnLCAnPG91dGZpbGUubWFlPic=

> <r_lp_tautomer_probability>
1

> <r_epik_Ionization_Penalty>
2.01576e-08

> <r_epik_Ionization_Penalty_Charging>
0

> <r_epik_Ionization_Penalty_Neutral>
2.01576e-08

> <r_epik_State_Penalty>
-0

> <r_epik_Charging_Adjusted_Penalty>
0

> <i_epik_Tot_Q>
0

> <i_epik_Tot_abs_Q>
0

> <r_epik_Metal_State_Penalty>
-0

> <b_epik_Metal_Only>
0

> <s_lp_Force_Field>
OPLS_2005

> <r_lp_Energy>
46.9137

> <b_lp_Chiralities_Consistent>
1

> <s_lp_Variant>
AV-unprocessed.smi:1686-4

> <Gold.Version>
5.8.1

> <Gold.Id.Protein>
6NUR|6NUR_protein|mol2

> <Gold.PLP.Fitness>
43.4099

> <Gold.PLP.PLP>
-37.8099

> <Gold.PLP.part.hbond>
-2.0000

> <Gold.PLP.part.metal>
0.0000

> <Gold.PLP.part.buried>
-5.8665

> <Gold.PLP.part.nonpolar>
-29.8060

> <Gold.PLP.part.repulsive>
0.1623

> <Gold.PLP.ligand.clash>
0.0000

> <Gold.PLP.ligand.torsion>
0.2180

> <Gold.PLP.Chemscore.Hbond>
2.0000

> <Gold.PLP.Chemscore.CHOScore>
0.0000

> <Gold.PLP.Chemscore.Metal>
0.0000

> <Gold.Chemscore.Hbonds>
donor molecule, donor type, donor heavy atom, donor atom, acceptor molecule, acceptor atom, score
      P1  H  7997  8009       L1    10  1.00
      P1  H 10752 10763       L1     3  1.00

> <Gold.PLP.Chemscore.Internal.Correction>
0.0360

> <Gold.Rescore>
     Score         DG    S(hbond)    S(metal)    S(lipo)     H(rot)  DE(clash)    DE(int)     intcor
     21.59     -21.94       1.93        0.00     117.46       1.46       0.11       0.23       ----

> <Gold.Chemscore.Fitness>
21.5943

> <Gold.Chemscore.DG>
-21.9353

> <Gold.Chemscore.ZeroCoef>
-5.4800

> <Gold.Chemscore.Hbond>
1.9349

> <Gold.Chemscore.Metal>
0.0000

> <Gold.Chemscore.Lipo>
117.4598

> <Gold.Chemscore.Internal_Hbond>
0.0000

> <Gold.Chemscore.DEClash>
0.1103

> <Gold.Chemscore.DEInternal>
0.2307

> <Gold.Chemscore.Rot>
1.4648

> <Gold.Chemscore.Internal.Correction>
   9.000000E+99

> <Gold.Chemscore.Hbonds>
donor molecule, donor type, donor heavy atom, donor atom, acceptor molecule, acceptor atom, score
      P1  H  7997  8009       L1    10  1.00
      P1  H 10752 10763       L1     3  0.88

> <Gold.Chemscore.Hbond.Weighted>
-6.4625

> <Gold.Chemscore.Metal.Weighted>
-0.0000

> <Gold.Chemscore.Lipo.Weighted>
-13.7428

> <Gold.Chemscore.Internal_Hbond.Weighted>
0.0000

> <Gold.Chemscore.DEClash.Weighted>
0.1103

> <Gold.Chemscore.DEInternal.Weighted>
0.2307

> <Gold.Chemscore.Rot.Weighted>
3.7500

> <Gold.Chemscore.Internal.Correction.Weighted>
   9.000000E+99

> <Gold.Protein.RotatedTorsions>
[ 6907 6896 6895 6894 ] final   86.46 input  -60.11 | X-H torsion
[ 7974 7965 7964 7962 ] final -117.31 input  175.53 | X-H torsion
[ 8008 7997 7996 7995 ] final -175.68 input   59.86 | X-H torsion
[ 10167 10162 10161 10158 ] final   79.54 input  -65.29 | X-H torsion
[ 10718 10713 10712 10709 ] final  -69.31 input   66.30 | X-H torsion
[ 10763 10752 10751 10750 ] final  143.44 input  -60.55 | X-H torsion
[ 11005 11000 10999 10996 ] final  -45.15 input  -57.11 | X-H torsion

> <Gold.Protein.ActiveResidues>
 VAL166  LYS551  ARG553  GLY616  TRP617  ASP618  TYR619  PRO620  LYS621  CYS622 
 ASP623  PHE694  ASN695  SER759  ASP760  ASP761  ALA762  ILE779  LEU786  VAL792 
 PHE793  MET794  SER795  GLU796  ALA797  LYS798  CYS799  TRP800  GLU811  SER814 

> <Gold.Protein.RotatedAtoms>
  152.5395  134.2427  159.8867 H   0  0  0  0  0  0  0  0  0  0  0  0  # atno 6907 bound_to 6896
  151.2394  133.4401  159.2614 H   0  0  0  0  0  0  0  0  0  0  0  0  # atno 6908 bound_to 6896
  151.0641  134.9769  159.8331 H   0  0  0  0  0  0  0  0  0  0  0  0  # atno 6909 bound_to 6896
  145.0867  140.8462  143.4007 H   0  0  0  0  0  0  0  0  0  0  0  0  # atno 7974 bound_to 7965
  155.9856  140.1190  157.0686 H   0  0  0  0  0  0  0  0  0  0  0  0  # atno 8008 bound_to 7997
  154.4196  140.1136  156.5563 H   0  0  0  0  0  0  0  0  0  0  0  0  # atno 8009 bound_to 7997
  155.6412  140.3473  155.4718 H   0  0  0  0  0  0  0  0  0  0  0  0  # atno 8010 bound_to 7997
  139.9592  144.5972  150.8088 H   0  0  0  0  0  0  0  0  0  0  0  0  # atno 10167 bound_to 10162
  156.0462  130.4310  150.2129 H   0  0  0  0  0  0  0  0  0  0  0  0  # atno 10718 bound_to 10713
  153.9724  135.2949  155.3426 H   0  0  0  0  0  0  0  0  0  0  0  0  # atno 10763 bound_to 10752
  154.7315  135.5065  153.8975 H   0  0  0  0  0  0  0  0  0  0  0  0  # atno 10764 bound_to 10752
  153.0894  135.6703  153.9997 H   0  0  0  0  0  0  0  0  0  0  0  0  # atno 10765 bound_to 10752
  141.0497  133.6747  156.2973 H   0  0  0  0  0  0  0  0  0  0  0  0  # atno 11005 bound_to 11000
  145.1114  139.2754  143.5635 LP  0  0  0  0  0  0  0  0  0  0  0  0  # atno 17320 bound_to 7965
  146.3531  140.0711  142.8623 LP  0  0  0  0  0  0  0  0  0  0  0  0  # atno 17321 bound_to 7965
  140.7558  143.3054  151.2975 LP  0  0  0  0  0  0  0  0  0  0  0  0  # atno 17342 bound_to 10162
  139.6567  144.0263  152.2664 LP  0  0  0  0  0  0  0  0  0  0  0  0  # atno 17343 bound_to 10162
  157.0218  130.9981  151.3337 LP  0  0  0  0  0  0  0  0  0  0  0  0  # atno 17370 bound_to 10713
  157.5339  130.8076  149.7949 LP  0  0  0  0  0  0  0  0  0  0  0  0  # atno 17371 bound_to 10713
  140.6079  134.5489  157.5528 LP  0  0  0  0  0  0  0  0  0  0  0  0  # atno 17394 bound_to 11000
  139.9340  134.7909  156.0852 LP  0  0  0  0  0  0  0  0  0  0  0  0  # atno 17395 bound_to 11000

$$$$
