#       Name:                AV-unprocessed.smi:861
#       Creating user name   scv26
#       Creation time:       Fri Mar 27 01:44:22 2020


#       File generated by GOLD software.
#

@<TRIPOS>MOLECULE
AV-unprocessed.smi:861
    48    49     1
SMALL
NO_CHARGES


@<TRIPOS>ATOM
      1 ****        -1.1538   4.8852   2.5875 C.3            1 S1                 0.0000
      2 ****        -1.7449   4.1269   1.3862 C.3            1 S1                 0.0000
      3 ****        -3.2802   4.1446   1.4514 C.3            1 S1                 0.0000
      4 ****        -1.2184   2.6798   1.2828 C.3            1 S1                 0.0000
      5 ****         0.2663   2.5812   0.8789 C.3            1 S1                 0.0000
      6 ****         0.7683   1.1836   0.8784 N.4            1 S1                 1.0000
      7 ****         2.2479   1.1195   0.9435 C.3            1 S1                 0.0000
      8 ****         2.7226  -0.3413   0.9959 C.3            1 S1                 0.0000
      9 ****         2.2182  -1.0435  -0.1325 O.3            1 S1                 0.0000
     10 ****         0.7948  -1.0803  -0.1524 C.3            1 S1                 0.0000
     11 ****         0.3510  -1.9342  -1.3483 C.3            1 S1                 0.0000
     12 ****         0.6828  -3.3394  -1.1572 N.pl3          1 S1                 0.0000
     13 ****         0.3270  -4.2959  -2.1174 C.ar           1 S1                 0.0000
     14 ****         0.7230  -5.6346  -1.9257 C.ar           1 S1                 0.0000
     15 ****         0.3466  -6.5726  -2.9026 C.ar           1 S1                 0.0000
     16 ****        -0.3980  -6.0995  -3.9985 C.ar           1 S1                 0.0000
     17 ****        -0.7508  -4.8010  -4.1326 N.ar           1 S1                 0.0000
     18 ****        -0.3918  -3.9095  -3.2017 N.ar           1 S1                 0.0000
     19 ****         0.2682   0.3650  -0.2546 C.3            1 S1                 0.0000
     20 ****        -1.3778   4.3770   3.5261 H              1 S1                 0.0000
     21 ****        -1.5641   5.8933   2.6529 H              1 S1                 0.0000
     22 ****        -0.0718   4.9875   2.5134 H              1 S1                 0.0000
     23 ****        -1.4566   4.6587   0.4785 H              1 S1                 0.0000
     24 ****        -3.6457   3.6203   2.3350 H              1 S1                 0.0000
     25 ****        -3.7188   3.6667   0.5749 H              1 S1                 0.0000
     26 ****        -3.6607   5.1659   1.4896 H              1 S1                 0.0000
     27 ****        -1.3797   2.1647   2.2308 H              1 S1                 0.0000
     28 ****        -1.8224   2.1508   0.5462 H              1 S1                 0.0000
     29 ****         0.4326   3.0366  -0.0986 H              1 S1                 0.0000
     30 ****         0.8608   3.1533   1.5907 H              1 S1                 0.0000
     31 ****         2.6739   1.6194   0.0719 H              1 S1                 0.0000
     32 ****         2.6061   1.6513   1.8258 H              1 S1                 0.0000
     33 ****         3.8120  -0.3836   0.9811 H              1 S1                 0.0000
     34 ****         2.3973  -0.8257   1.9179 H              1 S1                 0.0000
     35 ****         0.4237  -1.5354   0.7682 H              1 S1                 0.0000
     36 ****        -0.7294  -1.8496  -1.4731 H              1 S1                 0.0000
     37 ****         0.8114  -1.5679  -2.2669 H              1 S1                 0.0000
     38 ****         1.2447  -3.6092  -0.3628 H              1 S1                 0.0000
     39 ****         1.2945  -5.9352  -1.0598 H              1 S1                 0.0000
     40 ****         0.6173  -7.6143  -2.8155 H              1 S1                 0.0000
     41 ****        -0.7168  -6.7724  -4.7809 H              1 S1                 0.0000
     42 ****        -0.8209   0.3461  -0.2569 H              1 S1                 0.0000
     43 ****         0.5821   0.8154  -1.1980 H              1 S1                 0.0000
     44 ****         0.4285   0.7539   1.7271 H              1 S1                 0.0000
     45 ****         2.5641  -1.9815  -0.1088 LP             1 S1                 0.0000
     46 ****         2.5401  -0.5904  -0.9638 LP             1 S1                 0.0000
     47 ****        -1.2804  -4.5068  -4.9281 LP             1 S1                 0.0000
     48 ****        -0.6553  -2.9505  -3.3058 LP             1 S1                 0.0000
@<TRIPOS>BOND
    1    1    2 1     
    2    1   20 1     
    3    1   21 1     
    4    1   22 1     
    5    2    3 1     
    6    2    4 1     
    7    2   23 1     
    8    3   24 1     
    9    3   25 1     
   10    3   26 1     
   11    4    5 1     
   12    4   27 1     
   13    4   28 1     
   14    5    6 1     
   15    5   29 1     
   16    5   30 1     
   17    6   19 1     
   18    6    7 1     
   19    6   44 1     
   20    7    8 1     
   21    7   31 1     
   22    7   32 1     
   23    8    9 1     
   24    8   33 1     
   25    8   34 1     
   26    9   10 1     
   27   10   11 1     
   28   10   19 1     
   29   10   35 1     
   30   11   12 1     
   31   11   36 1     
   32   11   37 1     
   33   12   13 1     
   34   12   38 1     
   35   13   18 ar    
   36   13   14 ar    
   37   14   15 ar    
   38   14   39 1     
   39   15   16 ar    
   40   15   40 1     
   41   16   17 ar    
   42   16   41 1     
   43   17   18 ar    
   44   19   42 1     
   45   19   43 1     
   46    9   45 1     
   47    9   46 1     
   48   17   47 1     
   49   18   48 1     
@<TRIPOS>SUBSTRUCTURE
      1 S1             1
@<TRIPOS>SET
LONE_PAIRS      STATIC     ATOMS    <user>   **** ""
4 45 46 47 48
DONOR_HYDROGENS      STATIC     ATOMS    <user>   **** ""
2 44 38
ATOM$BLUE        STATIC     ATOMS    COLORGROUP SYSTEM
4 45 46 47 48
ATOM$RED        STATIC     ATOMS    COLORGROUP SYSTEM
2 44 38
