AV-unprocessed.smi:2899|AV-procd|sdf|11146|dock1
  -GOLD-   2272016 23D 1   1.00000     0.00000
 Structure written by MMmdl.
 30 32  0  0  0  0  0  0  0  0  1 V2000
  153.3670  142.0840  160.6451 C   0  0  0  0  0  0  0  0  0  0  0  0
  152.6358  142.9863  159.6742 C   0  0  0  0  0  0  0  0  0  0  0  0
  152.6728  144.3906  159.8001 C   0  0  0  0  0  0  0  0  0  0  0  0
  151.9524  145.1196  158.8328 C   0  0  0  0  0  0  0  0  0  0  0  0
  151.2654  144.5056  157.8447 N   0  0  0  0  0  0  0  0  0  0  0  0
  151.2956  143.1707  157.8215 C   0  0  0  0  0  0  0  0  0  0  0  0
  150.5752  142.5783  156.8006 N   0  0  0  0  0  0  0  0  0  0  0  0
  150.2787  141.1536  156.7140 C   0  0  1  0  0  0  0  0  0  0  0  0
  149.2831  140.8146  155.5974 C   0  0  0  0  0  0  0  0  0  0  0  0
  150.0734  139.7958  154.7667 C   0  0  2  0  0  0  0  0  0  0  0  0
  150.2645  138.4647  155.5063 C   0  0  0  0  0  0  0  0  0  0  0  0
  151.3017  138.8414  156.5641 C   0  0  0  0  0  0  0  0  0  0  0  0
  151.5089  140.3365  156.2856 C   0  0  1  0  0  0  0  0  0  0  0  0
  151.3755  140.3431  154.8732 O   0  0  0  0  0  0  0  0  0  0  0  0
  151.9459  142.3792  158.6836 N   0  0  0  0  0  0  0  0  0  0  0  0
  153.9421  142.6657  161.3662 H   0  0  0  0  0  0  0  0  0  0  0  0
  154.0551  141.4286  160.1105 H   0  0  0  0  0  0  0  0  0  0  0  0
  152.6575  141.4646  161.1945 H   0  0  0  0  0  0  0  0  0  0  0  0
  153.2203  144.8838  160.5898 H   0  0  0  0  0  0  0  0  0  0  0  0
  151.9264  146.1990  158.8518 H   0  0  0  0  0  0  0  0  0  0  0  0
  150.1201  143.1948  156.1432 H   0  0  0  0  0  0  0  0  0  0  0  0
  149.9209  140.8081  157.6849 H   0  0  0  0  0  0  0  0  0  0  0  0
  148.3480  140.4048  155.9802 H   0  0  0  0  0  0  0  0  0  0  0  0
  149.0439  141.6895  154.9906 H   0  0  0  0  0  0  0  0  0  0  0  0
  149.7142  139.6865  153.7430 H   0  0  0  0  0  0  0  0  0  0  0  0
  149.3341  138.0928  155.9366 H   0  0  0  0  0  0  0  0  0  0  0  0
  150.6616  137.7011  154.8368 H   0  0  0  0  0  0  0  0  0  0  0  0
  150.9600  138.6492  157.5818 H   0  0  0  0  0  0  0  0  0  0  0  0
  152.2276  138.2871  156.4051 H   0  0  0  0  0  0  0  0  0  0  0  0
  152.4605  140.7203  156.6556 H   0  0  0  0  0  0  0  0  0  0  0  0
  1  2  1  0  0  0  0
  1 16  1  0  0  0  0
  1 17  1  0  0  0  0
  1 18  1  0  0  0  0
  2 15  1  0  0  0  0
  2  3  2  0  0  0  0
  3  4  1  0  0  0  0
  3 19  1  0  0  0  0
  4  5  2  0  0  0  0
  4 20  1  0  0  0  0
  5  6  1  0  0  0  0
  6  7  1  0  0  0  0
  6 15  2  0  0  0  0
  7  8  1  0  0  0  0
  7 21  1  0  0  0  0
  8 13  1  0  0  0  0
  8  9  1  0  0  0  0
  8 22  1  0  0  0  0
  9 10  1  0  0  0  0
  9 23  1  0  0  0  0
  9 24  1  0  0  0  0
 10 14  1  0  0  0  0
 10 11  1  0  0  0  0
 10 25  1  0  0  0  0
 11 12  1  0  0  0  0
 11 26  1  0  0  0  0
 11 27  1  0  0  0  0
 12 13  1  0  0  0  0
 12 28  1  0  0  0  0
 12 29  1  0  0  0  0
 13 14  1  0  0  0  0
 13 30  1  0  0  0  0
M  END
> <s_m_source_file>
AV-unprocessed.smi

> <i_m_source_file_index>
2899

> <i_lp_mmshare_version>
43012

> <i_f3d_flags>
0

> <s_epik_input>
W0NIM11jMVtjSF1bY0hdbmMobjEpW05IXVtDQEhdKFtDSDJdW0NAQEhdMjMpW0NAQEhdKE8zKVtDSDJdW0NIMl0y

> <s_epik_cmdline>
J2VwaWtfcHl0aG9uJywgJy1waCcsICc3LjAnLCAnLXRuJywgJzgnLCAnLW1hJywgJzIwMCcsICctbWV0YWxfYmluZGluZycsICctaW1hZScsICc8aW5maWxlLm1hZT4nLCAnLW9tYWUnLCAnPG91dGZpbGUubWFlPic=

> <r_lp_tautomer_probability>
1

> <r_epik_Ionization_Penalty>
0.00589655

> <r_epik_Ionization_Penalty_Charging>
0

> <r_epik_Ionization_Penalty_Neutral>
0.00589655

> <r_epik_State_Penalty>
0.00375391

> <r_epik_Charging_Adjusted_Penalty>
0.00375391

> <i_epik_Tot_Q>
0

> <i_epik_Tot_abs_Q>
0

> <r_epik_Metal_State_Penalty>
-0

> <b_epik_Metal_Only>
0

> <s_lp_Force_Field>
OPLS_2005

> <r_lp_Energy>
31.4606

> <b_lp_Chiralities_Consistent>
1

> <s_lp_Variant>
AV-unprocessed.smi:2899-4

> <Gold.Version>
5.8.1

> <Gold.Id.Protein>
6NUR|6NUR_protein|mol2

> <Gold.PLP.Fitness>
37.3875

> <Gold.PLP.PLP>
-31.7104

> <Gold.PLP.part.hbond>
-1.7946

> <Gold.PLP.part.metal>
0.0000

> <Gold.PLP.part.buried>
-4.6677

> <Gold.PLP.part.nonpolar>
-25.8322

> <Gold.PLP.part.repulsive>
0.2779

> <Gold.PLP.ligand.clash>
0.0000

> <Gold.PLP.ligand.torsion>
0.1596

> <Gold.PLP.Chemscore.Hbond>
1.9920

> <Gold.PLP.Chemscore.CHOScore>
0.0000

> <Gold.PLP.Chemscore.Metal>
0.0000

> <Gold.Chemscore.Hbonds>
donor molecule, donor type, donor heavy atom, donor atom, acceptor molecule, acceptor atom, score
      L1  H     7    21       P1  8028  1.00
      P1  H  7989  7998       L1    14  0.89

> <Gold.PLP.Chemscore.Internal.Correction>
0.0203

> <Gold.Rescore>
     Score         DG    S(hbond)    S(metal)    S(lipo)     H(rot)  DE(clash)    DE(int)     intcor
     18.64     -18.84       1.94        0.00      80.64       1.00       0.08       0.11       ----

> <Gold.Chemscore.Fitness>
18.6432

> <Gold.Chemscore.DG>
-18.8390

> <Gold.Chemscore.ZeroCoef>
-5.4800

> <Gold.Chemscore.Hbond>
1.9414

> <Gold.Chemscore.Metal>
0.0000

> <Gold.Chemscore.Lipo>
80.6400

> <Gold.Chemscore.Internal_Hbond>
0.0000

> <Gold.Chemscore.DEClash>
0.0821

> <Gold.Chemscore.DEInternal>
0.1138

> <Gold.Chemscore.Rot>
1.0000

> <Gold.Chemscore.Internal.Correction>
   9.000000E+99

> <Gold.Chemscore.Hbonds>
donor molecule, donor type, donor heavy atom, donor atom, acceptor molecule, acceptor atom, score
      L1  H     7    21       P1  8028  0.92
      P1  H  7989  7998       L1    14  0.38

> <Gold.Chemscore.Hbond.Weighted>
-6.4841

> <Gold.Chemscore.Metal.Weighted>
-0.0000

> <Gold.Chemscore.Lipo.Weighted>
-9.4349

> <Gold.Chemscore.Internal_Hbond.Weighted>
0.0000

> <Gold.Chemscore.DEClash.Weighted>
0.0821

> <Gold.Chemscore.DEInternal.Weighted>
0.1138

> <Gold.Chemscore.Rot.Weighted>
2.5600

> <Gold.Chemscore.Internal.Correction.Weighted>
   9.000000E+99

> <Gold.Protein.RotatedTorsions>
[ 6907 6896 6895 6894 ] final   18.01 input  -60.11 | X-H torsion
[ 7974 7965 7964 7962 ] final  -68.25 input  175.53 | X-H torsion
[ 8008 7997 7996 7995 ] final -115.72 input   59.86 | X-H torsion
[ 10167 10162 10161 10158 ] final  157.61 input  -65.29 | X-H torsion
[ 10718 10713 10712 10709 ] final   45.81 input   66.30 | X-H torsion
[ 10763 10752 10751 10750 ] final  157.63 input  -60.55 | X-H torsion
[ 11005 11000 10999 10996 ] final   18.73 input  -57.11 | X-H torsion

> <Gold.Protein.ActiveResidues>
 VAL166  LYS551  ARG553  GLY616  TRP617  ASP618  TYR619  PRO620  LYS621  CYS622 
 ASP623  PHE694  ASN695  SER759  ASP760  ASP761  ALA762  ILE779  LEU786  VAL792 
 PHE793  MET794  SER795  GLU796  ALA797  LYS798  CYS799  TRP800  GLU811  SER814 

> <Gold.Protein.RotatedAtoms>
  151.8585  135.0532  160.0466 H   0  0  0  0  0  0  0  0  0  0  0  0  # atno 6907 bound_to 6896
  152.2681  133.5353  159.5431 H   0  0  0  0  0  0  0  0  0  0  0  0  # atno 6908 bound_to 6896
  150.7141  134.0652  159.3887 H   0  0  0  0  0  0  0  0  0  0  0  0  # atno 6909 bound_to 6896
  145.7189  140.9047  143.0641 H   0  0  0  0  0  0  0  0  0  0  0  0  # atno 7974 bound_to 7965
  155.0564  140.0393  157.2561 H   0  0  0  0  0  0  0  0  0  0  0  0  # atno 8008 bound_to 7997
  154.7095  140.2690  155.6618 H   0  0  0  0  0  0  0  0  0  0  0  0  # atno 8009 bound_to 7997
  156.2785  140.2724  156.1732 H   0  0  0  0  0  0  0  0  0  0  0  0  # atno 8010 bound_to 7997
  139.4823  144.4902  151.8320 H   0  0  0  0  0  0  0  0  0  0  0  0  # atno 10167 bound_to 10162
  157.4415  130.8084  149.7698 H   0  0  0  0  0  0  0  0  0  0  0  0  # atno 10718 bound_to 10713
  154.2032  135.2789  155.2983 H   0  0  0  0  0  0  0  0  0  0  0  0  # atno 10763 bound_to 10752
  154.5838  135.5581  153.7214 H   0  0  0  0  0  0  0  0  0  0  0  0  # atno 10764 bound_to 10752
  153.0082  135.6351  154.2171 H   0  0  0  0  0  0  0  0  0  0  0  0  # atno 10765 bound_to 10752
  140.4216  134.1513  155.7673 H   0  0  0  0  0  0  0  0  0  0  0  0  # atno 11005 bound_to 11000
  144.6922  139.9175  143.7466 LP  0  0  0  0  0  0  0  0  0  0  0  0  # atno 17320 bound_to 7965
  146.0644  139.3635  143.0561 LP  0  0  0  0  0  0  0  0  0  0  0  0  # atno 17321 bound_to 7965
  140.4385  144.2019  150.5890 LP  0  0  0  0  0  0  0  0  0  0  0  0  # atno 17342 bound_to 10162
  140.4707  143.2414  151.9092 LP  0  0  0  0  0  0  0  0  0  0  0  0  # atno 17343 bound_to 10162
  155.9950  130.3914  150.2835 LP  0  0  0  0  0  0  0  0  0  0  0  0  # atno 17370 bound_to 10713
  157.1000  131.0193  151.3089 LP  0  0  0  0  0  0  0  0  0  0  0  0  # atno 17371 bound_to 10713
  141.1782  133.8470  157.1350 LP  0  0  0  0  0  0  0  0  0  0  0  0  # atno 17394 bound_to 11000
  140.0196  134.9952  157.0565 LP  0  0  0  0  0  0  0  0  0  0  0  0  # atno 17395 bound_to 11000

$$$$
