#       Name:                AV-unprocessed.smi:1808
#       Creating user name   scv26
#       Creation time:       Fri Mar 27 08:56:41 2020


#       File generated by GOLD software.
#

@<TRIPOS>MOLECULE
AV-unprocessed.smi:1808
    33    34     1
SMALL
NO_CHARGES


@<TRIPOS>ATOM
      1 ****        -0.6347   2.0278   1.1030 O.2            1 S1                 0.0000
      2 ****        -1.0224   1.2604   0.2189 C.2            1 S1                 0.0000
      3 ****        -0.2121   0.2899  -0.2229 N.am           1 S1                 0.0000
      4 ****         1.1379   0.0383   0.2631 C.3            1 S1                 0.0000
      5 ****         1.7330  -1.2044  -0.4126 C.3            1 S1                 0.0000
      6 ****         3.1733  -1.5013  -0.0035 C.3            1 S1                 0.0000
      7 ****         3.3147  -2.9883  -0.2852 C.3            1 S1                 0.0000
      8 ****         1.8700  -3.4945  -0.3488 C.3            1 S1                 0.0000
      9 ****         1.0601  -2.3816   0.0057 O.3            1 S1                 0.0000
     10 ****        -2.2310   1.2811  -0.3882 N.pl3          1 S1                -1.0000
     11 ****        -3.1492   2.1919  -0.0265 C.2            1 S1                 0.0000
     12 ****        -3.3697   3.3193  -0.7126 N.2            1 S1                 0.0000
     13 ****        -4.3738   4.1173  -0.1612 C.2            1 S1                 0.0000
     14 ****        -4.9376   3.5806   0.9656 C.2            1 S1                 0.0000
     15 ****        -4.2194   2.0477   1.3706 S.3            1 S1                 0.0000
     16 ****        -0.5636  -0.3230  -0.9437 H              1 S1                 0.0000
     17 ****         1.7573   0.9097   0.0468 H              1 S1                 0.0000
     18 ****         1.1241  -0.0891   1.3467 H              1 S1                 0.0000
     19 ****         1.6672  -1.1196  -1.4991 H              1 S1                 0.0000
     20 ****         3.9002  -0.8940  -0.5434 H              1 S1                 0.0000
     21 ****         3.3064  -1.3176   1.0637 H              1 S1                 0.0000
     22 ****         3.8192  -3.1613  -1.2363 H              1 S1                 0.0000
     23 ****         3.8898  -3.4864   0.4959 H              1 S1                 0.0000
     24 ****         1.6198  -3.8145  -1.3613 H              1 S1                 0.0000
     25 ****         1.6910  -4.3317   0.3260 H              1 S1                 0.0000
     26 ****        -4.6239   5.0531  -0.6385 H              1 S1                 0.0000
     27 ****        -5.7270   3.9890   1.5780 H              1 S1                 0.0000
     28 ****         0.2824   1.9245   1.4880 LP             1 S1                 0.0000
     29 ****        -1.2374   2.7535   1.4349 LP             1 S1                 0.0000
     30 ****         0.1731  -2.4470  -0.4515 LP             1 S1                 0.0000
     31 ****         0.9239  -2.3618   0.9962 LP             1 S1                 0.0000
     32 ****        -2.4408   0.6180  -1.1066 LP             1 S1                 0.0000
     33 ****        -2.8646   3.5662  -1.5396 LP             1 S1                 0.0000
@<TRIPOS>BOND
    1    1    2 2     
    2    2    3 am    
    3    2   10 1     
    4    3    4 1     
    5    3   16 1     
    6    4    5 1     
    7    4   17 1     
    8    4   18 1     
    9    5    9 1     
   10    5    6 1     
   11    5   19 1     
   12    6    7 1     
   13    6   20 1     
   14    6   21 1     
   15    7    8 1     
   16    7   22 1     
   17    7   23 1     
   18    8    9 1     
   19    8   24 1     
   20    8   25 1     
   21   10   11 1     
   22   11   15 1     
   23   11   12 2     
   24   12   13 1     
   25   13   14 2     
   26   13   26 1     
   27   14   15 1     
   28   14   27 1     
   29    1   28 1     
   30    1   29 1     
   31    9   30 1     
   32    9   31 1     
   33   10   32 1     
   34   12   33 1     
@<TRIPOS>SUBSTRUCTURE
      1 S1             1
@<TRIPOS>SET
LONE_PAIRS      STATIC     ATOMS    <user>   **** ""
6 28 29 30 31 32 33
DONOR_HYDROGENS      STATIC     ATOMS    <user>   **** ""
1 16
ATOM$BLUE        STATIC     ATOMS    COLORGROUP SYSTEM
6 28 29 30 31 32 33
ATOM$RED        STATIC     ATOMS    COLORGROUP SYSTEM
1 16
