AV-unprocessed.smi:2555|AV-procd|sdf|10022|dock6
  -GOLD-   2272014 63D 1   1.00000     0.00000
 Structure written by MMmdl.
 40 41  0  0  0  0  0  0  0  0  1 V2000
  152.6108  139.1762  154.9810 C   0  0  0  0  0  0  0  0  0  0  0  0
  151.2442  139.5458  155.4822 C   0  0  0  0  0  0  0  0  0  0  0  0
  150.3864  140.1376  154.6680 N   0  0  0  0  0  0  0  0  0  0  0  0
  149.2268  140.3476  155.4204 O   0  0  0  0  0  0  0  0  0  0  0  0
  149.4353  139.8695  156.6736 C   0  0  0  0  0  0  0  0  0  0  0  0
  148.3066  140.0029  157.6390 C   0  0  0  0  0  0  0  0  0  0  0  0
  150.6944  139.3461  156.7809 C   0  0  0  0  0  0  0  0  0  0  0  0
  151.3498  138.7122  157.9802 C   0  0  0  0  0  0  0  0  0  0  0  0
  152.6750  139.4161  158.2715 C   0  0  0  0  0  0  0  0  0  0  0  0
  153.6776  139.1322  157.6161 O   0  0  0  0  0  0  0  0  0  0  0  0
  152.6655  140.3283  159.2563 N   0  0  0  0  0  0  0  0  0  0  0  0
  153.8222  141.0899  159.7187 C   0  0  0  0  0  0  0  0  0  0  0  0
  153.4519  142.5190  160.1701 C   0  0  0  0  0  0  0  0  0  0  0  0
  152.6529  142.5461  161.4935 C   0  0  0  0  0  0  0  0  0  0  0  0
  152.2623  143.9765  161.9005 C   0  0  0  0  0  0  0  0  0  0  0  0
  151.4840  144.6843  160.7820 C   0  0  0  0  0  0  0  0  0  0  0  0
  152.2805  144.6772  159.4693 C   0  0  0  0  0  0  0  0  0  0  0  0
  152.6632  143.2457  159.0607 C   0  0  0  0  0  0  0  0  0  0  0  0
  153.3866  139.6620  155.5727 H   0  0  0  0  0  0  0  0  0  0  0  0
  152.7551  139.4721  153.9412 H   0  0  0  0  0  0  0  0  0  0  0  0
  152.7698  138.0996  155.0443 H   0  0  0  0  0  0  0  0  0  0  0  0
  148.6767  140.2314  158.6386 H   0  0  0  0  0  0  0  0  0  0  0  0
  147.7353  139.0762  157.6937 H   0  0  0  0  0  0  0  0  0  0  0  0
  147.6285  140.8030  157.3413 H   0  0  0  0  0  0  0  0  0  0  0  0
  150.7151  138.7863  158.8639 H   0  0  0  0  0  0  0  0  0  0  0  0
  151.5237  137.6468  157.8236 H   0  0  0  0  0  0  0  0  0  0  0  0
  151.7922  140.4960  159.7349 H   0  0  0  0  0  0  0  0  0  0  0  0
  154.2510  140.5426  160.5586 H   0  0  0  0  0  0  0  0  0  0  0  0
  154.6004  141.1225  158.9541 H   0  0  0  0  0  0  0  0  0  0  0  0
  154.3810  143.0686  160.3294 H   0  0  0  0  0  0  0  0  0  0  0  0
  151.7530  141.9380  161.3915 H   0  0  0  0  0  0  0  0  0  0  0  0
  153.2351  142.1006  162.2998 H   0  0  0  0  0  0  0  0  0  0  0  0
  151.6632  143.9519  162.8110 H   0  0  0  0  0  0  0  0  0  0  0  0
  153.1614  144.5469  162.1374 H   0  0  0  0  0  0  0  0  0  0  0  0
  150.5251  144.1866  160.6317 H   0  0  0  0  0  0  0  0  0  0  0  0
  151.2585  145.7098  161.0761 H   0  0  0  0  0  0  0  0  0  0  0  0
  151.6947  145.1449  158.6775 H   0  0  0  0  0  0  0  0  0  0  0  0
  153.1827  145.2794  159.5840 H   0  0  0  0  0  0  0  0  0  0  0  0
  153.2530  143.2772  158.1439 H   0  0  0  0  0  0  0  0  0  0  0  0
  151.7587  142.6837  158.8242 H   0  0  0  0  0  0  0  0  0  0  0  0
  1  2  1  0  0  0  0
  1 19  1  0  0  0  0
  1 20  1  0  0  0  0
  1 21  1  0  0  0  0
  2  7  1  0  0  0  0
  2  3  2  0  0  0  0
  3  4  1  0  0  0  0
  4  5  1  0  0  0  0
  5  6  1  0  0  0  0
  5  7  2  0  0  0  0
  6 22  1  0  0  0  0
  6 23  1  0  0  0  0
  6 24  1  0  0  0  0
  7  8  1  0  0  0  0
  8  9  1  0  0  0  0
  8 25  1  0  0  0  0
  8 26  1  0  0  0  0
  9 10  2  0  0  0  0
  9 11  1  0  0  0  0
 11 12  1  0  0  0  0
 11 27  1  0  0  0  0
 12 13  1  0  0  0  0
 12 28  1  0  0  0  0
 12 29  1  0  0  0  0
 13 18  1  0  0  0  0
 13 14  1  0  0  0  0
 13 30  1  0  0  0  0
 14 15  1  0  0  0  0
 14 31  1  0  0  0  0
 14 32  1  0  0  0  0
 15 16  1  0  0  0  0
 15 33  1  0  0  0  0
 15 34  1  0  0  0  0
 16 17  1  0  0  0  0
 16 35  1  0  0  0  0
 16 36  1  0  0  0  0
 17 18  1  0  0  0  0
 17 37  1  0  0  0  0
 17 38  1  0  0  0  0
 18 39  1  0  0  0  0
 18 40  1  0  0  0  0
M  END
> <s_m_source_file>
AV-unprocessed.smi

> <i_m_source_file_index>
2555

> <i_lp_mmshare_version>
43012

> <i_f3d_flags>
0

> <s_epik_input>
W0NIM11jMW5vYyhbQ0gzXSljMVtDSDJdQyg9TylbTkhdW0NIMl1bQ0hdMltDSDJdW0NIMl1bQ0gyXVtDSDJdW0NIMl0y

> <s_epik_cmdline>
J2VwaWtfcHl0aG9uJywgJy1waCcsICc3LjAnLCAnLXRuJywgJzgnLCAnLW1hJywgJzIwMCcsICctbWV0YWxfYmluZGluZycsICctaW1hZScsICc8aW5maWxlLm1hZT4nLCAnLW9tYWUnLCAnPG91dGZpbGUubWFlPic=

> <r_lp_tautomer_probability>
1

> <r_epik_Ionization_Penalty>
1.94914e-08

> <r_epik_Ionization_Penalty_Charging>
0

> <r_epik_Ionization_Penalty_Neutral>
1.94914e-08

> <r_epik_State_Penalty>
-0

> <r_epik_Charging_Adjusted_Penalty>
0

> <i_epik_Tot_Q>
0

> <i_epik_Tot_abs_Q>
0

> <r_epik_Metal_State_Penalty>
-0

> <b_epik_Metal_Only>
0

> <s_lp_Force_Field>
OPLS_2005

> <r_lp_Energy>
4.99285

> <b_lp_Chiralities_Consistent>
1

> <s_lp_Variant>
AV-unprocessed.smi:2555-1

> <Gold.Version>
5.8.1

> <Gold.Id.Protein>
6NUR|6NUR_protein|mol2

> <Gold.PLP.Fitness>
46.4455

> <Gold.PLP.PLP>
-41.4844

> <Gold.PLP.part.hbond>
-2.0000

> <Gold.PLP.part.metal>
0.0000

> <Gold.PLP.part.buried>
-5.9291

> <Gold.PLP.part.nonpolar>
-33.8261

> <Gold.PLP.part.repulsive>
0.3229

> <Gold.PLP.ligand.clash>
0.0000

> <Gold.PLP.ligand.torsion>
0.5326

> <Gold.PLP.Chemscore.Hbond>
2.0000

> <Gold.PLP.Chemscore.CHOScore>
0.0000

> <Gold.PLP.Chemscore.Metal>
0.0000

> <Gold.Chemscore.Hbonds>
donor molecule, donor type, donor heavy atom, donor atom, acceptor molecule, acceptor atom, score
      P1  H  7989  7998       L1     3  0.90
      P1  H  7997  8010       L1    10  0.76

> <Gold.PLP.Chemscore.Internal.Correction>
0.0263

> <Gold.Rescore>
     Score         DG    S(hbond)    S(metal)    S(lipo)     H(rot)  DE(clash)    DE(int)     intcor
     19.06     -21.05       1.89        0.00     110.35       1.43       0.01       1.97       ----

> <Gold.Chemscore.Fitness>
19.0630

> <Gold.Chemscore.DG>
-21.0465

> <Gold.Chemscore.ZeroCoef>
-5.4800

> <Gold.Chemscore.Hbond>
1.8934

> <Gold.Chemscore.Metal>
0.0000

> <Gold.Chemscore.Lipo>
110.3501

> <Gold.Chemscore.Internal_Hbond>
0.0000

> <Gold.Chemscore.DEClash>
0.0089

> <Gold.Chemscore.DEInternal>
1.9747

> <Gold.Chemscore.Rot>
1.4329

> <Gold.Chemscore.Internal.Correction>
   9.000000E+99

> <Gold.Chemscore.Hbonds>
donor molecule, donor type, donor heavy atom, donor atom, acceptor molecule, acceptor atom, score
      P1  H  7989  7998       L1     3  0.18
      P1  H  7997  8010       L1    10  0.74

> <Gold.Chemscore.Hbond.Weighted>
-6.3239

> <Gold.Chemscore.Metal.Weighted>
-0.0000

> <Gold.Chemscore.Lipo.Weighted>
-12.9110

> <Gold.Chemscore.Internal_Hbond.Weighted>
0.0000

> <Gold.Chemscore.DEClash.Weighted>
0.0089

> <Gold.Chemscore.DEInternal.Weighted>
1.9747

> <Gold.Chemscore.Rot.Weighted>
3.6683

> <Gold.Chemscore.Internal.Correction.Weighted>
   9.000000E+99

> <Gold.Protein.RotatedTorsions>
[ 6907 6896 6895 6894 ] final   37.05 input  -60.11 | X-H torsion
[ 7974 7965 7964 7962 ] final  139.09 input  175.53 | X-H torsion
[ 8008 7997 7996 7995 ] final   26.22 input   59.86 | X-H torsion
[ 10167 10162 10161 10158 ] final  176.79 input  -65.29 | X-H torsion
[ 10718 10713 10712 10709 ] final -137.88 input   66.30 | X-H torsion
[ 10763 10752 10751 10750 ] final  -80.38 input  -60.55 | X-H torsion
[ 11005 11000 10999 10996 ] final  144.54 input  -57.11 | X-H torsion

> <Gold.Protein.ActiveResidues>
 VAL166  LYS551  ARG553  GLY616  TRP617  ASP618  TYR619  PRO620  LYS621  CYS622 
 ASP623  PHE694  ASN695  SER759  ASP760  ASP761  ALA762  ILE779  LEU786  VAL792 
 PHE793  MET794  SER795  GLU796  ALA797  LYS798  CYS799  TRP800  GLU811  SER814 

> <Gold.Protein.RotatedAtoms>
  152.1379  134.9085  160.0555 H   0  0  0  0  0  0  0  0  0  0  0  0  # atno 6907 bound_to 6896
  152.0164  133.3876  159.4248 H   0  0  0  0  0  0  0  0  0  0  0  0  # atno 6908 bound_to 6896
  150.6862  134.3596  159.4988 H   0  0  0  0  0  0  0  0  0  0  0  0  # atno 6909 bound_to 6896
  144.9311  139.5045  143.5617 H   0  0  0  0  0  0  0  0  0  0  0  0  # atno 7974 bound_to 7965
  155.0239  140.3151  155.4783 H   0  0  0  0  0  0  0  0  0  0  0  0  # atno 8008 bound_to 7997
  156.2887  140.2192  156.5300 H   0  0  0  0  0  0  0  0  0  0  0  0  # atno 8009 bound_to 7997
  154.7428  140.0472  157.0814 H   0  0  0  0  0  0  0  0  0  0  0  0  # atno 8010 bound_to 7997
  139.5228  144.2874  152.0494 H   0  0  0  0  0  0  0  0  0  0  0  0  # atno 10167 bound_to 10162
  156.2930  130.7386  151.1417 H   0  0  0  0  0  0  0  0  0  0  0  0  # atno 10718 bound_to 10713
  154.5505  135.5663  153.6918 H   0  0  0  0  0  0  0  0  0  0  0  0  # atno 10763 bound_to 10752
  152.9988  135.6249  154.2381 H   0  0  0  0  0  0  0  0  0  0  0  0  # atno 10764 bound_to 10752
  154.2315  135.2865  155.2868 H   0  0  0  0  0  0  0  0  0  0  0  0  # atno 10765 bound_to 10752
  140.0640  134.9189  157.1233 H   0  0  0  0  0  0  0  0  0  0  0  0  # atno 11005 bound_to 11000
  146.3247  139.8263  142.8917 LP  0  0  0  0  0  0  0  0  0  0  0  0  # atno 17320 bound_to 7965
  145.3140  141.0227  143.3538 LP  0  0  0  0  0  0  0  0  0  0  0  0  # atno 17321 bound_to 7965
  140.2327  144.4352  150.6293 LP  0  0  0  0  0  0  0  0  0  0  0  0  # atno 17342 bound_to 10162
  140.6344  143.2192  151.6425 LP  0  0  0  0  0  0  0  0  0  0  0  0  # atno 17343 bound_to 10162
  157.7348  131.0579  150.5506 LP  0  0  0  0  0  0  0  0  0  0  0  0  # atno 17370 bound_to 10713
  156.5625  130.4259  149.6056 LP  0  0  0  0  0  0  0  0  0  0  0  0  # atno 17371 bound_to 10713
  140.3727  134.2373  155.7176 LP  0  0  0  0  0  0  0  0  0  0  0  0  # atno 17394 bound_to 11000
  141.1985  133.8034  157.0579 LP  0  0  0  0  0  0  0  0  0  0  0  0  # atno 17395 bound_to 11000

$$$$
