AV-unprocessed.smi:290|AV-procd|sdf|2225|dock8
  -GOLD-   2262022 73D 1   1.00000     0.00000
 Structure written by MMmdl.
 59 62  0  0  0  0  0  0  0  0  2 V2000
  153.0147  140.3928  159.9379 C   0  0  0  0  0  0  0  0  0  0  0  0
  152.5478  141.3970  158.8714 C   0  0  2  0  0  0  0  0  0  0  0  0
  152.0495  142.5851  159.4854 O   0  0  0  0  0  0  0  0  0  0  0  0
  150.6998  142.8022  159.1006 C   0  0  0  0  0  0  0  0  0  0  0  0
  150.5951  142.1511  157.7281 C   0  0  0  0  0  0  0  0  0  0  0  0
  151.4580  140.9067  157.8885 C   0  0  2  0  0  0  0  0  0  0  0  0
  150.6631  139.8896  158.4782 O   0  0  0  0  0  0  0  0  0  0  0  0
  152.0396  140.3678  156.5598 C   0  0  0  0  0  0  0  0  0  0  0  0
  151.0535  139.6898  155.7336 N   0  0  0  0  0  0  0  0  0  0  0  0
  151.0957  138.3822  155.3025 C   0  0  0  0  0  0  0  0  0  0  0  0
  150.0914  138.0078  154.5570 N   0  0  0  0  0  0  0  0  0  0  0  0
  149.2934  139.1416  154.4786 C   0  0  0  0  0  0  0  0  0  0  0  0
  148.0632  139.4367  153.8375 C   0  0  0  0  0  0  0  0  0  0  0  0
  147.4110  138.5087  153.1030 N   0  0  0  0  0  0  0  0  0  0  0  0
  146.6129  139.0498  152.0144 C   0  0  0  0  0  0  0  0  0  0  0  0
  145.7250  137.8941  151.5396 C   0  0  0  0  0  0  0  0  0  0  0  0
  145.6889  136.9091  152.7295 C   0  0  1  0  0  0  0  0  0  0  0  0
  146.1197  135.5122  152.4090 N   0  3  2  0  0  0  0  0  0  0  0  0
  145.8187  135.0494  151.0297 C   0  0  0  0  0  0  0  0  0  0  0  0
  145.7140  134.5132  153.4305 C   0  0  0  0  0  0  0  0  0  0  0  0
  146.0012  133.0693  152.9836 C   0  0  0  0  0  0  0  0  0  0  0  0
  145.7166  132.1726  154.0367 O   0  0  0  0  0  0  0  0  0  0  0  0
  146.5324  137.5975  153.8233 C   0  0  1  0  0  0  0  0  0  0  0  0
  147.2536  136.6844  154.8353 C   0  0  0  0  0  0  0  0  0  0  0  0
  147.5503  140.6868  153.9846 N   0  0  0  0  0  0  0  0  0  0  0  0
  148.2074  141.5941  154.7143 C   0  0  0  0  0  0  0  0  0  0  0  0
  149.3655  141.4616  155.3655 N   0  0  0  0  0  0  0  0  0  0  0  0
  149.8777  140.2060  155.2183 C   0  0  0  0  0  0  0  0  0  0  0  0
  144.6700  136.8633  153.1129 H   0  0  0  0  0  0  0  0  0  0  0  0
  145.8400  138.2142  154.3994 H   0  0  0  0  0  0  0  0  0  0  0  0
  153.3779  139.4734  159.4782 H   0  0  0  0  0  0  0  0  0  0  0  0
  152.2091  140.1327  160.6252 H   0  0  0  0  0  0  0  0  0  0  0  0
  153.8275  140.8110  160.5317 H   0  0  0  0  0  0  0  0  0  0  0  0
  153.4219  141.7118  158.2997 H   0  0  0  0  0  0  0  0  0  0  0  0
  150.0393  142.3076  159.8143 H   0  0  0  0  0  0  0  0  0  0  0  0
  150.4527  143.8638  159.0849 H   0  0  0  0  0  0  0  0  0  0  0  0
  149.5667  141.9405  157.4307 H   0  0  0  0  0  0  0  0  0  0  0  0
  151.0297  142.8186  156.9827 H   0  0  0  0  0  0  0  0  0  0  0  0
  149.9569  140.2985  158.9545 H   0  0  0  0  0  0  0  0  0  0  0  0
  152.4628  141.1846  155.9737 H   0  0  0  0  0  0  0  0  0  0  0  0
  152.8609  139.6776  156.7587 H   0  0  0  0  0  0  0  0  0  0  0  0
  151.9053  137.7124  155.5544 H   0  0  0  0  0  0  0  0  0  0  0  0
  145.9956  139.8775  152.3674 H   0  0  0  0  0  0  0  0  0  0  0  0
  147.2478  139.4227  151.2101 H   0  0  0  0  0  0  0  0  0  0  0  0
  144.7268  138.2534  151.2881 H   0  0  0  0  0  0  0  0  0  0  0  0
  146.1321  137.4553  150.6308 H   0  0  0  0  0  0  0  0  0  0  0  0
  144.7766  134.7504  150.9186 H   0  0  0  0  0  0  0  0  0  0  0  0
  146.4324  134.1797  150.7926 H   0  0  0  0  0  0  0  0  0  0  0  0
  146.0347  135.8110  150.2816 H   0  0  0  0  0  0  0  0  0  0  0  0
  146.2196  134.7293  154.3728 H   0  0  0  0  0  0  0  0  0  0  0  0
  144.6454  134.6008  153.6348 H   0  0  0  0  0  0  0  0  0  0  0  0
  145.4301  132.7874  152.0996 H   0  0  0  0  0  0  0  0  0  0  0  0
  147.0551  132.9673  152.7237 H   0  0  0  0  0  0  0  0  0  0  0  0
  144.7781  132.0889  154.1169 H   0  0  0  0  0  0  0  0  0  0  0  0
  146.5538  135.9889  155.2993 H   0  0  0  0  0  0  0  0  0  0  0  0
  147.7054  137.2704  155.6362 H   0  0  0  0  0  0  0  0  0  0  0  0
  148.0506  136.1019  154.3749 H   0  0  0  0  0  0  0  0  0  0  0  0
  147.7408  142.5656  154.7859 H   0  0  0  0  0  0  0  0  0  0  0  0
  147.1286  135.5316  152.4596 H   0  0  0  0  0  0  0  0  0  0  0  0
  1  2  1  0  0  0  0
  1 31  1  0  0  0  0
  1 32  1  0  0  0  0
  1 33  1  0  0  0  0
  2  6  1  0  0  0  0
  2  3  1  0  0  0  0
  2 34  1  0  0  0  0
  3  4  1  0  0  0  0
  4  5  1  0  0  0  0
  4 35  1  0  0  0  0
  4 36  1  0  0  0  0
  5  6  1  0  0  0  0
  5 37  1  0  0  0  0
  5 38  1  0  0  0  0
  6  7  1  0  0  0  0
  6  8  1  0  0  0  0
  7 39  1  0  0  0  0
  8  9  1  0  0  0  0
  8 40  1  0  0  0  0
  8 41  1  0  0  0  0
  9 28  1  0  0  0  0
  9 10  1  0  0  0  0
 10 11  2  0  0  0  0
 10 42  1  0  0  0  0
 11 12  1  0  0  0  0
 12 28  2  0  0  0  0
 12 13  1  0  0  0  0
 13 14  1  0  0  0  0
 13 25  2  0  0  0  0
 14 23  1  0  0  0  0
 14 15  1  0  0  0  0
 15 16  1  0  0  0  0
 15 43  1  0  0  0  0
 15 44  1  0  0  0  0
 16 17  1  0  0  0  0
 16 45  1  0  0  0  0
 16 46  1  0  0  0  0
 17 29  1  0  0  0  0
 17 18  1  0  0  0  0
 17 23  1  0  0  0  0
 18 19  1  0  0  0  0
 18 20  1  0  0  0  0
 18 59  1  0  0  0  0
 19 47  1  0  0  0  0
 19 48  1  0  0  0  0
 19 49  1  0  0  0  0
 20 21  1  0  0  0  0
 20 50  1  0  0  0  0
 20 51  1  0  0  0  0
 21 22  1  0  0  0  0
 21 52  1  0  0  0  0
 21 53  1  0  0  0  0
 22 54  1  0  0  0  0
 23 30  1  0  0  0  0
 23 24  1  0  0  0  0
 24 55  1  0  0  0  0
 24 56  1  0  0  0  0
 24 57  1  0  0  0  0
 25 26  1  0  0  0  0
 26 27  2  0  0  0  0
 26 58  1  0  0  0  0
 27 28  1  0  0  0  0
M  CHG  1  18   1
M  END
> <s_m_source_file>
AV-unprocessed.smi

> <i_m_source_file_index>
290

> <i_lp_mmshare_version>
43012

> <i_f3d_flags>
0

> <s_epik_input>
W0NIMl0xW0NIMl1PW0NAQEhdKFtDSDNdKVtDQEBdMShbT0hdKVtDSDJdbihbY0hdbjIpYyhjMjMpbltjSF1uYzNONFtDSDJdW0NIMl1bQ0BIXShbQ0BIXTRbQ0gzXSlOKFtDSDNdKVtDSDJdW0NIMl1bT0hd

> <s_epik_cmdline>
J2VwaWtfcHl0aG9uJywgJy1waCcsICc3LjAnLCAnLXRuJywgJzgnLCAnLW1hJywgJzIwMCcsICctbWV0YWxfYmluZGluZycsICctaW1hZScsICc8aW5maWxlLm1hZT4nLCAnLW9tYWUnLCAnPG91dGZpbGUubWFlPic=

> <r_lp_tautomer_probability>
1

> <r_epik_Ionization_Penalty>
0.0036983

> <r_epik_Ionization_Penalty_Charging>
0.0032725

> <r_epik_Ionization_Penalty_Neutral>
0.000425798

> <r_epik_State_Penalty>
-0

> <r_epik_Charging_Adjusted_Penalty>
0.0032725

> <i_epik_Tot_Q>
1

> <i_epik_Tot_abs_Q>
1

> <r_epik_Metal_State_Penalty>
-0

> <b_epik_Metal_Only>
0

> <s_lp_Force_Field>
OPLS_2005

> <r_lp_Energy>
70.3682

> <b_lp_Chiralities_Consistent>
1

> <s_lp_Variant>
AV-unprocessed.smi:290-11

> <Gold.Version>
5.8.1

> <Gold.Id.Protein>
6NUR|6NUR_protein|mol2

> <Gold.PLP.Fitness>
45.8710

> <Gold.PLP.PLP>
-36.7990

> <Gold.PLP.part.hbond>
-2.0000

> <Gold.PLP.part.metal>
0.0000

> <Gold.PLP.part.buried>
1.3308

> <Gold.PLP.part.nonpolar>
-38.9299

> <Gold.PLP.part.repulsive>
2.3321

> <Gold.PLP.ligand.clash>
0.0000

> <Gold.PLP.ligand.torsion>
1.4337

> <Gold.PLP.Chemscore.Hbond>
3.0000

> <Gold.PLP.Chemscore.CHOScore>
0.9070

> <Gold.PLP.Chemscore.Metal>
0.0000

> <Gold.Chemscore.Hbonds>
donor molecule, donor type, donor heavy atom, donor atom, acceptor molecule, acceptor atom, score
      L1  H    18    59       P1  7948  2.00
      L1  H    22    54       P1 10957  0.46
      L1  C    26    58       P1  8028  0.86

> <Gold.PLP.Chemscore.Internal.Correction>
0.2182

> <Gold.Rescore>
     Score         DG    S(hbond)    S(metal)    S(lipo)     H(rot)  DE(clash)    DE(int)     intcor
      5.30     -10.94       1.34        0.00      88.66       3.67       2.00       3.63       ----

> <Gold.Chemscore.Fitness>
5.3002

> <Gold.Chemscore.DG>
-10.9361

> <Gold.Chemscore.ZeroCoef>
-5.4800

> <Gold.Chemscore.Hbond>
1.3376

> <Gold.Chemscore.Metal>
0.0000

> <Gold.Chemscore.Lipo>
88.6566

> <Gold.Chemscore.Internal_Hbond>
0.0000

> <Gold.Chemscore.DEClash>
2.0027

> <Gold.Chemscore.DEInternal>
3.6332

> <Gold.Chemscore.Rot>
3.6658

> <Gold.Chemscore.Internal.Correction>
   9.000000E+99

> <Gold.Chemscore.Hbonds>
donor molecule, donor type, donor heavy atom, donor atom, acceptor molecule, acceptor atom, score
      L1  H    18    59       P1  7948  0.90
      L1  H    22    54       P1 10957  0.08

> <Gold.Chemscore.Hbond.Weighted>
-4.4677

> <Gold.Chemscore.Metal.Weighted>
-0.0000

> <Gold.Chemscore.Lipo.Weighted>
-10.3728

> <Gold.Chemscore.Internal_Hbond.Weighted>
0.0000

> <Gold.Chemscore.DEClash.Weighted>
2.0027

> <Gold.Chemscore.DEInternal.Weighted>
3.6332

> <Gold.Chemscore.Rot.Weighted>
9.3844

> <Gold.Chemscore.Internal.Correction.Weighted>
   9.000000E+99

> <Gold.Protein.RotatedTorsions>
[ 6907 6896 6895 6894 ] final  117.49 input  -60.11 | X-H torsion
[ 7974 7965 7964 7962 ] final  169.98 input  175.53 | X-H torsion
[ 8008 7997 7996 7995 ] final  -51.17 input   59.86 | X-H torsion
[ 10167 10162 10161 10158 ] final   36.73 input  -65.29 | X-H torsion
[ 10718 10713 10712 10709 ] final -133.66 input   66.30 | X-H torsion
[ 10763 10752 10751 10750 ] final   34.77 input  -60.55 | X-H torsion
[ 11005 11000 10999 10996 ] final  -67.36 input  -57.11 | X-H torsion

> <Gold.Protein.ActiveResidues>
 VAL166  LYS551  ARG553  GLY616  TRP617  ASP618  TYR619  PRO620  LYS621  CYS622 
 ASP623  PHE694  ASN695  SER759  ASP760  ASP761  ALA762  ILE779  LEU786  VAL792 
 PHE793  MET794  SER795  GLU796  ALA797  LYS798  CYS799  TRP800  GLU811  SER814 

> <Gold.Protein.RotatedAtoms>
  152.4608  133.7818  159.6854 H   0  0  0  0  0  0  0  0  0  0  0  0  # atno 6907 bound_to 6896
  150.8551  133.7717  159.3018 H   0  0  0  0  0  0  0  0  0  0  0  0  # atno 6908 bound_to 6896
  151.5300  135.1071  159.9952 H   0  0  0  0  0  0  0  0  0  0  0  0  # atno 6909 bound_to 6896
  144.7338  139.9135  143.6416 H   0  0  0  0  0  0  0  0  0  0  0  0  # atno 7974 bound_to 7965
  154.4077  140.1254  156.4786 H   0  0  0  0  0  0  0  0  0  0  0  0  # atno 8008 bound_to 7997
  155.7108  140.3494  155.4953 H   0  0  0  0  0  0  0  0  0  0  0  0  # atno 8009 bound_to 7997
  155.9302  140.1068  157.1128 H   0  0  0  0  0  0  0  0  0  0  0  0  # atno 8010 bound_to 7997
  140.4100  144.1606  150.6139 H   0  0  0  0  0  0  0  0  0  0  0  0  # atno 10167 bound_to 10162
  156.2473  130.7132  151.1017 H   0  0  0  0  0  0  0  0  0  0  0  0  # atno 10718 bound_to 10713
  153.0149  135.6351  154.1721 H   0  0  0  0  0  0  0  0  0  0  0  0  # atno 10763 bound_to 10752
  154.1461  135.2832  155.3149 H   0  0  0  0  0  0  0  0  0  0  0  0  # atno 10764 bound_to 10752
  154.6088  135.5563  153.7513 H   0  0  0  0  0  0  0  0  0  0  0  0  # atno 10765 bound_to 10752
  141.1506  133.6717  156.6281 H   0  0  0  0  0  0  0  0  0  0  0  0  # atno 11005 bound_to 11000
  146.0983  139.3977  143.0362 LP  0  0  0  0  0  0  0  0  0  0  0  0  # atno 17320 bound_to 7965
  145.7614  140.9933  143.1198 LP  0  0  0  0  0  0  0  0  0  0  0  0  # atno 17321 bound_to 7965
  140.4648  143.2435  151.9170 LP  0  0  0  0  0  0  0  0  0  0  0  0  # atno 17342 bound_to 10162
  139.4783  144.5430  151.8499 LP  0  0  0  0  0  0  0  0  0  0  0  0  # atno 17343 bound_to 10162
  157.7200  131.0687  150.6174 LP  0  0  0  0  0  0  0  0  0  0  0  0  # atno 17370 bound_to 10713
  156.6252  130.4416  149.5807 LP  0  0  0  0  0  0  0  0  0  0  0  0  # atno 17371 bound_to 10713
  140.3488  134.7786  157.4451 LP  0  0  0  0  0  0  0  0  0  0  0  0  # atno 17394 bound_to 11000
  140.0878  134.5643  155.8475 LP  0  0  0  0  0  0  0  0  0  0  0  0  # atno 17395 bound_to 11000

$$$$
