AV-unprocessed.smi:2802|AV-procd|sdf|10805|dock10
  -GOLD-   2272015243D 1   1.00000     0.00000
 Structure written by MMmdl.
 47 48  0  0  0  0  0  0  0  0  1 V2000
  146.3492  142.9994  153.7030 C   0  0  0  0  0  0  0  0  0  0  0  0
  146.7575  141.6881  154.3907 C   0  0  2  0  0  0  0  0  0  0  0  0
  145.7885  141.3363  155.5322 C   0  0  0  0  0  0  0  0  0  0  0  0
  146.1333  140.0088  156.2438 C   0  0  0  0  0  0  0  0  0  0  0  0
  145.2871  139.9142  157.5314 C   0  0  0  0  0  0  0  0  0  0  0  0
  145.7446  138.7953  155.3700 C   0  0  0  0  0  0  0  0  0  0  0  0
  147.6344  139.9833  156.6519 C   0  0  0  0  0  0  0  0  0  0  0  0
  148.6934  140.4650  155.6087 C   0  0  2  0  0  0  0  0  0  0  0  0
  149.0302  139.3725  154.5515 C   0  0  0  0  0  0  0  0  0  0  0  0
  150.1129  139.7469  153.7206 O   0  0  0  0  0  0  0  0  0  0  0  0
  149.9166  140.8381  156.3399 N   0  0  0  0  0  0  0  0  0  0  0  0
  150.0785  141.8013  157.2649 C   0  0  0  0  0  0  0  0  0  0  0  0
  149.1694  142.5361  157.6533 O   0  0  0  0  0  0  0  0  0  0  0  0
  151.4946  141.9413  157.8352 C   0  0  0  0  0  0  0  0  0  0  0  0
  151.6493  143.2105  158.6569 C   0  0  0  0  0  0  0  0  0  0  0  0
  152.0620  143.1549  160.0042 C   0  0  0  0  0  0  0  0  0  0  0  0
  152.1799  144.3570  160.7278 C   0  0  0  0  0  0  0  0  0  0  0  0
  151.8790  145.5672  160.0713 C   0  0  0  0  0  0  0  0  0  0  0  0
  151.4854  145.6332  158.7811 N   0  0  0  0  0  0  0  0  0  0  0  0
  151.3747  144.4757  158.0945 C   0  0  0  0  0  0  0  0  0  0  0  0
  148.1964  141.7678  154.9302 C   0  0  0  0  0  0  0  0  0  0  0  0
  146.3717  143.8384  154.3990 H   0  0  0  0  0  0  0  0  0  0  0  0
  145.3398  142.9312  153.2961 H   0  0  0  0  0  0  0  0  0  0  0  0
  147.0203  143.2343  152.8763 H   0  0  0  0  0  0  0  0  0  0  0  0
  146.7092  140.9108  153.6297 H   0  0  0  0  0  0  0  0  0  0  0  0
  145.8037  142.1502  156.2588 H   0  0  0  0  0  0  0  0  0  0  0  0
  144.7667  141.2962  155.1518 H   0  0  0  0  0  0  0  0  0  0  0  0
  145.4943  138.9922  158.0762 H   0  0  0  0  0  0  0  0  0  0  0  0
  144.2191  139.9319  157.3104 H   0  0  0  0  0  0  0  0  0  0  0  0
  145.4889  140.7444  158.2093 H   0  0  0  0  0  0  0  0  0  0  0  0
  146.0693  137.8590  155.8251 H   0  0  0  0  0  0  0  0  0  0  0  0
  146.1587  138.8342  154.3671 H   0  0  0  0  0  0  0  0  0  0  0  0
  144.6628  138.7344  155.2459 H   0  0  0  0  0  0  0  0  0  0  0  0
  147.7329  140.6324  157.5242 H   0  0  0  0  0  0  0  0  0  0  0  0
  147.8892  138.9875  157.0162 H   0  0  0  0  0  0  0  0  0  0  0  0
  149.2742  138.4235  155.0284 H   0  0  0  0  0  0  0  0  0  0  0  0
  148.1905  139.1734  153.8930 H   0  0  0  0  0  0  0  0  0  0  0  0
  149.8968  139.5241  152.8281 H   0  0  0  0  0  0  0  0  0  0  0  0
  150.7356  140.2935  156.1125 H   0  0  0  0  0  0  0  0  0  0  0  0
  151.7169  141.0697  158.4519 H   0  0  0  0  0  0  0  0  0  0  0  0
  152.2234  141.9505  157.0233 H   0  0  0  0  0  0  0  0  0  0  0  0
  152.2802  142.2087  160.4774 H   0  0  0  0  0  0  0  0  0  0  0  0
  152.4914  144.3516  161.7617 H   0  0  0  0  0  0  0  0  0  0  0  0
  151.9566  146.5073  160.5973 H   0  0  0  0  0  0  0  0  0  0  0  0
  151.0526  144.5608  157.0669 H   0  0  0  0  0  0  0  0  0  0  0  0
  148.8758  142.0576  154.1275 H   0  0  0  0  0  0  0  0  0  0  0  0
  148.2365  142.5850  155.6531 H   0  0  0  0  0  0  0  0  0  0  0  0
  1  2  1  0  0  0  0
  1 22  1  0  0  0  0
  1 23  1  0  0  0  0
  1 24  1  0  0  0  0
  2 21  1  0  0  0  0
  2  3  1  0  0  0  0
  2 25  1  0  0  0  0
  3  4  1  0  0  0  0
  3 26  1  0  0  0  0
  3 27  1  0  0  0  0
  4  5  1  0  0  0  0
  4  6  1  0  0  0  0
  4  7  1  0  0  0  0
  5 28  1  0  0  0  0
  5 29  1  0  0  0  0
  5 30  1  0  0  0  0
  6 31  1  0  0  0  0
  6 32  1  0  0  0  0
  6 33  1  0  0  0  0
  7  8  1  0  0  0  0
  7 34  1  0  0  0  0
  7 35  1  0  0  0  0
  8  9  1  0  0  0  0
  8 11  1  0  0  0  0
  8 21  1  0  0  0  0
  9 10  1  0  0  0  0
  9 36  1  0  0  0  0
  9 37  1  0  0  0  0
 10 38  1  0  0  0  0
 11 12  1  0  0  0  0
 11 39  1  0  0  0  0
 12 13  2  0  0  0  0
 12 14  1  0  0  0  0
 14 15  1  0  0  0  0
 14 40  1  0  0  0  0
 14 41  1  0  0  0  0
 15 20  1  0  0  0  0
 15 16  2  0  0  0  0
 16 17  1  0  0  0  0
 16 42  1  0  0  0  0
 17 18  2  0  0  0  0
 17 43  1  0  0  0  0
 18 19  1  0  0  0  0
 18 44  1  0  0  0  0
 19 20  2  0  0  0  0
 20 45  1  0  0  0  0
 21 46  1  0  0  0  0
 21 47  1  0  0  0  0
M  END
> <s_m_source_file>
AV-unprocessed.smi

> <i_m_source_file_index>
2802

> <i_lp_mmshare_version>
43012

> <i_f3d_flags>
0

> <s_epik_input>
W0NIM11DMShbQ0gzXSlbQ0gyXVtDQEBIXShbQ0gzXSlbQ0gyXVtDQF0oW0NIMl0xKShbQ0gyXVtPSF0pW05IXUMoPU8pW0NIMl1jMltjSF1bY0hdW2NIXW5bY0hdMg==

> <s_epik_cmdline>
J2VwaWtfcHl0aG9uJywgJy1waCcsICc3LjAnLCAnLXRuJywgJzgnLCAnLW1hJywgJzIwMCcsICctbWV0YWxfYmluZGluZycsICctaW1hZScsICc8aW5maWxlLm1hZT4nLCAnLW9tYWUnLCAnPG91dGZpbGUubWFlPic=

> <r_epik_Ionization_Penalty>
0.004793

> <r_epik_Ionization_Penalty_Charging>
0

> <r_epik_Ionization_Penalty_Neutral>
0.004793

> <r_epik_State_Penalty>
0.00347421

> <r_epik_Charging_Adjusted_Penalty>
0.00347421

> <i_epik_Tot_Q>
0

> <i_epik_Tot_abs_Q>
0

> <r_epik_Metal_State_Penalty>
-0

> <b_epik_Metal_Only>
0

> <s_lp_Force_Field>
OPLS_2005

> <r_lp_Energy>
22.6418

> <b_lp_Chiralities_Consistent>
1

> <s_lp_Variant>
AV-unprocessed.smi:2802-3

> <Gold.Version>
5.8.1

> <Gold.Id.Protein>
6NUR|6NUR_protein|mol2

> <Gold.PLP.Fitness>
45.7501

> <Gold.PLP.PLP>
-37.5251

> <Gold.PLP.part.hbond>
-3.0000

> <Gold.PLP.part.metal>
0.0000

> <Gold.PLP.part.buried>
-5.3033

> <Gold.PLP.part.nonpolar>
-29.9112

> <Gold.PLP.part.repulsive>
0.5153

> <Gold.PLP.ligand.clash>
0.0000

> <Gold.PLP.ligand.torsion>
0.1902

> <Gold.PLP.Chemscore.Hbond>
1.8640

> <Gold.PLP.Chemscore.CHOScore>
1.0000

> <Gold.PLP.Chemscore.Metal>
0.0000

> <Gold.Chemscore.Hbonds>
donor molecule, donor type, donor heavy atom, donor atom, acceptor molecule, acceptor atom, score
      L1  H    10    38       P1  7957  0.99
      P1  H  7989  7998       L1    10  0.86
      L1  C    20    45       P1  8028  0.95

> <Gold.PLP.Chemscore.Internal.Correction>
0.0135

> <Gold.Rescore>
     Score         DG    S(hbond)    S(metal)    S(lipo)     H(rot)  DE(clash)    DE(int)     intcor
     15.37     -16.53       1.47        0.00      96.43       2.00       0.08       1.09       ----

> <Gold.Chemscore.Fitness>
15.3692

> <Gold.Chemscore.DG>
-16.5331

> <Gold.Chemscore.ZeroCoef>
-5.4800

> <Gold.Chemscore.Hbond>
1.4664

> <Gold.Chemscore.Metal>
0.0000

> <Gold.Chemscore.Lipo>
96.4271

> <Gold.Chemscore.Internal_Hbond>
0.0000

> <Gold.Chemscore.DEClash>
0.0756

> <Gold.Chemscore.DEInternal>
1.0882

> <Gold.Chemscore.Rot>
2.0026

> <Gold.Chemscore.Internal.Correction>
   9.000000E+99

> <Gold.Chemscore.Hbonds>
donor molecule, donor type, donor heavy atom, donor atom, acceptor molecule, acceptor atom, score
      L1  H    10    38       P1  7957  0.94
      P1  H  7989  7998       L1    10  0.25

> <Gold.Chemscore.Hbond.Weighted>
-4.8977

> <Gold.Chemscore.Metal.Weighted>
-0.0000

> <Gold.Chemscore.Lipo.Weighted>
-11.2820

> <Gold.Chemscore.Internal_Hbond.Weighted>
0.0000

> <Gold.Chemscore.DEClash.Weighted>
0.0756

> <Gold.Chemscore.DEInternal.Weighted>
1.0882

> <Gold.Chemscore.Rot.Weighted>
5.1267

> <Gold.Chemscore.Internal.Correction.Weighted>
   9.000000E+99

> <Gold.Protein.RotatedTorsions>
[ 6907 6896 6895 6894 ] final -134.57 input  -60.11 | X-H torsion
[ 7974 7965 7964 7962 ] final   35.90 input  175.53 | X-H torsion
[ 8008 7997 7996 7995 ] final -142.96 input   59.86 | X-H torsion
[ 10167 10162 10161 10158 ] final  -63.82 input  -65.29 | X-H torsion
[ 10718 10713 10712 10709 ] final -108.40 input   66.30 | X-H torsion
[ 10763 10752 10751 10750 ] final -131.60 input  -60.55 | X-H torsion
[ 11005 11000 10999 10996 ] final   60.39 input  -57.11 | X-H torsion

> <Gold.Protein.ActiveResidues>
 VAL166  LYS551  ARG553  GLY616  TRP617  ASP618  TYR619  PRO620  LYS621  CYS622 
 ASP623  PHE694  ASN695  SER759  ASP760  ASP761  ALA762  ILE779  LEU786  VAL792 
 PHE793  MET794  SER795  GLU796  ALA797  LYS798  CYS799  TRP800  GLU811  SER814 

> <Gold.Protein.RotatedAtoms>
  150.9874  133.6184  159.2713 H   0  0  0  0  0  0  0  0  0  0  0  0  # atno 6907 bound_to 6896
  151.3417  135.0864  159.9383 H   0  0  0  0  0  0  0  0  0  0  0  0  # atno 6908 bound_to 6896
  152.5235  133.9484  159.7714 H   0  0  0  0  0  0  0  0  0  0  0  0  # atno 6909 bound_to 6896
  146.1250  139.6085  142.9264 H   0  0  0  0  0  0  0  0  0  0  0  0  # atno 7974 bound_to 7965
  155.5028  140.0577  157.2936 H   0  0  0  0  0  0  0  0  0  0  0  0  # atno 8008 bound_to 7997
  154.4580  140.1982  156.0273 H   0  0  0  0  0  0  0  0  0  0  0  0  # atno 8009 bound_to 7997
  156.0837  140.3243  155.7730 H   0  0  0  0  0  0  0  0  0  0  0  0  # atno 8010 bound_to 7997
  140.5844  143.2331  151.6274 H   0  0  0  0  0  0  0  0  0  0  0  0  # atno 10167 bound_to 10162
  156.0484  130.5711  150.7956 H   0  0  0  0  0  0  0  0  0  0  0  0  # atno 10718 bound_to 10713
  154.8749  135.3825  154.4273 H   0  0  0  0  0  0  0  0  0  0  0  0  # atno 10763 bound_to 10752
  153.4970  135.7030  153.5857 H   0  0  0  0  0  0  0  0  0  0  0  0  # atno 10764 bound_to 10752
  153.4206  135.3902  155.2075 H   0  0  0  0  0  0  0  0  0  0  0  0  # atno 10765 bound_to 10752
  140.0235  134.6118  155.9606 H   0  0  0  0  0  0  0  0  0  0  0  0  # atno 11005 bound_to 11000
  145.5384  141.0422  143.2344 LP  0  0  0  0  0  0  0  0  0  0  0  0  # atno 17320 bound_to 7965
  144.7634  139.6903  143.7225 LP  0  0  0  0  0  0  0  0  0  0  0  0  # atno 17321 bound_to 7965
  139.5189  144.3271  152.0859 LP  0  0  0  0  0  0  0  0  0  0  0  0  # atno 17342 bound_to 10162
  140.2426  144.4253  150.6254 LP  0  0  0  0  0  0  0  0  0  0  0  0  # atno 17343 bound_to 10162
  157.5384  131.0939  150.9861 LP  0  0  0  0  0  0  0  0  0  0  0  0  # atno 17370 bound_to 10713
  157.0150  130.5651  149.5325 LP  0  0  0  0  0  0  0  0  0  0  0  0  # atno 17371 bound_to 10713
  141.1788  133.6543  156.4937 LP  0  0  0  0  0  0  0  0  0  0  0  0  # atno 17394 bound_to 11000
  140.4347  134.7070  157.4960 LP  0  0  0  0  0  0  0  0  0  0  0  0  # atno 17395 bound_to 11000

$$$$
