AV-unprocessed.smi:2253|AV-procd|sdf|9118|dock10
  -GOLD-   2272012323D 1   1.00000     0.00000
 Structure written by MMmdl.
 52 54  0  0  0  0  0  0  0  0  3 V2000
  145.2508  136.1352  151.6066 C   0  0  0  0  0  0  0  0  0  0  0  0
  146.2708  137.0758  152.1188 N   0  3  2  0  0  0  0  0  0  0  0  0
  146.2916  137.1353  153.6020 C   0  0  0  0  0  0  0  0  0  0  0  0
  147.4146  138.0615  154.1060 C   0  0  0  0  0  0  0  0  0  0  0  0
  147.2804  139.4956  153.5384 C   0  0  2  0  0  0  0  0  0  0  0  0
  146.0854  140.2256  154.0894 N   0  3  2  0  0  0  0  0  0  0  0  0
  146.1194  141.7134  153.9854 C   0  0  0  0  0  0  0  0  0  0  0  0
  147.1224  142.3347  154.9752 C   0  0  0  0  0  0  0  0  0  0  0  0
  146.7724  141.9390  156.4199 C   0  0  2  0  0  0  0  0  0  0  0  0
  147.7721  142.4694  157.3430 N   0  0  0  0  0  0  0  0  0  0  0  0
  149.0032  141.9645  157.5148 C   0  0  0  0  0  0  0  0  0  0  0  0
  149.4283  141.0019  156.8777 O   0  0  0  0  0  0  0  0  0  0  0  0
  149.6798  142.6467  158.4554 N   0  0  0  0  0  0  0  0  0  0  0  0
  150.9930  142.4397  158.9651 C   0  0  0  0  0  0  0  0  0  0  0  0
  151.6125  141.1752  159.1246 C   0  0  0  0  0  0  0  0  0  0  0  0
  152.9207  141.1243  159.6464 C   0  0  0  0  0  0  0  0  0  0  0  0
  153.6231  142.2193  160.0050 N   0  0  0  0  0  0  0  0  0  0  0  0
  153.0317  143.4226  159.8512 C   0  0  0  0  0  0  0  0  0  0  0  0
  151.7283  143.5844  159.3401 C   0  0  0  0  0  0  0  0  0  0  0  0
  151.1942  144.8234  159.2135 F   0  0  0  0  0  0  0  0  0  0  0  0
  146.6633  140.4061  156.5359 C   0  0  0  0  0  0  0  0  0  0  0  0
  145.6985  139.8353  155.4769 C   0  0  0  0  0  0  0  0  0  0  0  0
  147.2833  139.3512  151.9965 C   0  0  0  0  0  0  0  0  0  0  0  0
  146.1597  138.4211  151.5016 C   0  0  0  0  0  0  0  0  0  0  0  0
  144.2451  136.4653  151.8707 H   0  0  0  0  0  0  0  0  0  0  0  0
  145.4035  135.1381  152.0209 H   0  0  0  0  0  0  0  0  0  0  0  0
  145.3107  136.0562  150.5206 H   0  0  0  0  0  0  0  0  0  0  0  0
  145.3233  137.4772  153.9711 H   0  0  0  0  0  0  0  0  0  0  0  0
  146.4437  136.1311  153.9999 H   0  0  0  0  0  0  0  0  0  0  0  0
  147.4576  138.0457  155.1930 H   0  0  0  0  0  0  0  0  0  0  0  0
  148.3727  137.6465  153.7889 H   0  0  0  0  0  0  0  0  0  0  0  0
  148.1736  140.0570  153.8117 H   0  0  0  0  0  0  0  0  0  0  0  0
  146.3039  142.0545  152.9689 H   0  0  0  0  0  0  0  0  0  0  0  0
  145.1213  142.0880  154.2177 H   0  0  0  0  0  0  0  0  0  0  0  0
  148.1366  142.0177  154.7290 H   0  0  0  0  0  0  0  0  0  0  0  0
  147.1080  143.4207  154.8763 H   0  0  0  0  0  0  0  0  0  0  0  0
  145.8028  142.3789  156.6624 H   0  0  0  0  0  0  0  0  0  0  0  0
  147.5014  143.2627  157.9061 H   0  0  0  0  0  0  0  0  0  0  0  0
  149.1835  143.4180  158.8774 H   0  0  0  0  0  0  0  0  0  0  0  0
  151.1272  140.2483  158.8654 H   0  0  0  0  0  0  0  0  0  0  0  0
  153.4165  140.1741  159.7799 H   0  0  0  0  0  0  0  0  0  0  0  0
  153.6143  144.2829  160.1454 H   0  0  0  0  0  0  0  0  0  0  0  0
  147.6483  139.9497  156.4339 H   0  0  0  0  0  0  0  0  0  0  0  0
  146.3080  140.1325  157.5301 H   0  0  0  0  0  0  0  0  0  0  0  0
  144.6977  140.2255  155.6681 H   0  0  0  0  0  0  0  0  0  0  0  0
  145.6033  138.7583  155.5915 H   0  0  0  0  0  0  0  0  0  0  0  0
  147.2467  140.3145  151.4903 H   0  0  0  0  0  0  0  0  0  0  0  0
  148.2395  138.9248  151.6891 H   0  0  0  0  0  0  0  0  0  0  0  0
  146.2186  138.3256  150.4166 H   0  0  0  0  0  0  0  0  0  0  0  0
  145.1825  138.8500  151.7280 H   0  0  0  0  0  0  0  0  0  0  0  0
  145.3148  139.9402  153.5023 H   0  0  0  0  0  0  0  0  0  0  0  0
  147.1665  136.7037  151.8349 H   0  0  0  0  0  0  0  0  0  0  0  0
  1  2  1  0  0  0  0
  1 25  1  0  0  0  0
  1 26  1  0  0  0  0
  1 27  1  0  0  0  0
  2 24  1  0  0  0  0
  2  3  1  0  0  0  0
  2 52  1  0  0  0  0
  3  4  1  0  0  0  0
  3 28  1  0  0  0  0
  3 29  1  0  0  0  0
  4  5  1  0  0  0  0
  4 30  1  0  0  0  0
  4 31  1  0  0  0  0
  5  6  1  0  0  0  0
  5 23  1  0  0  0  0
  5 32  1  0  0  0  0
  6 22  1  0  0  0  0
  6  7  1  0  0  0  0
  6 51  1  0  0  0  0
  7  8  1  0  0  0  0
  7 33  1  0  0  0  0
  7 34  1  0  0  0  0
  8  9  1  0  0  0  0
  8 35  1  0  0  0  0
  8 36  1  0  0  0  0
  9 10  1  0  0  0  0
  9 21  1  0  0  0  0
  9 37  1  0  0  0  0
 10 11  1  0  0  0  0
 10 38  1  0  0  0  0
 11 12  2  0  0  0  0
 11 13  1  0  0  0  0
 13 14  1  0  0  0  0
 13 39  1  0  0  0  0
 14 19  1  0  0  0  0
 14 15  2  0  0  0  0
 15 16  1  0  0  0  0
 15 40  1  0  0  0  0
 16 17  2  0  0  0  0
 16 41  1  0  0  0  0
 17 18  1  0  0  0  0
 18 19  2  0  0  0  0
 18 42  1  0  0  0  0
 19 20  1  0  0  0  0
 21 22  1  0  0  0  0
 21 43  1  0  0  0  0
 21 44  1  0  0  0  0
 22 45  1  0  0  0  0
 22 46  1  0  0  0  0
 23 24  1  0  0  0  0
 23 47  1  0  0  0  0
 23 48  1  0  0  0  0
 24 49  1  0  0  0  0
 24 50  1  0  0  0  0
M  CHG  1   2   1
M  CHG  1   6   1
M  END
> <s_m_source_file>
AV-unprocessed.smi

> <i_m_source_file_index>
2253

> <i_lp_mmshare_version>
43012

> <i_f3d_flags>
0

> <s_epik_input>
W0NIM11OMVtDSDJdW0NIMl1bQ0hdKFtDSDJdW0NIMl0xKU4yW0NIMl1bQ0gyXVtDSF0oW0NIMl1bQ0gyXTIpW05IXUMoPU8pW05IXWMzW2NIXVtjSF1uW2NIXWMzRg==

> <s_epik_cmdline>
J2VwaWtfcHl0aG9uJywgJy1waCcsICc3LjAnLCAnLXRuJywgJzgnLCAnLW1hJywgJzIwMCcsICctbWV0YWxfYmluZGluZycsICctaW1hZScsICc8aW5maWxlLm1hZT4nLCAnLW9tYWUnLCAnPG91dGZpbGUubWFlPic=

> <r_epik_Ionization_Penalty>
0.183544

> <r_epik_Ionization_Penalty_Charging>
0.180787

> <r_epik_Ionization_Penalty_Neutral>
0.00275649

> <r_epik_State_Penalty>
0.153592

> <r_epik_Charging_Adjusted_Penalty>
0.334379

> <i_epik_Tot_Q>
2

> <i_epik_Tot_abs_Q>
2

> <r_epik_Metal_State_Penalty>
0.153693

> <b_epik_Metal_Only>
0

> <s_lp_Force_Field>
OPLS_2005

> <r_lp_Energy>
53.0851

> <b_lp_Chiralities_Consistent>
1

> <s_lp_Variant>
AV-unprocessed.smi:2253-4

> <Gold.Version>
5.8.1

> <Gold.Id.Protein>
6NUR|6NUR_protein|mol2

> <Gold.PLP.Fitness>
45.6088

> <Gold.PLP.PLP>
-35.5950

> <Gold.PLP.part.hbond>
-3.0442

> <Gold.PLP.part.metal>
0.0000

> <Gold.PLP.part.buried>
4.4936

> <Gold.PLP.part.nonpolar>
-37.4491

> <Gold.PLP.part.repulsive>
0.2350

> <Gold.PLP.ligand.clash>
0.0000

> <Gold.PLP.ligand.torsion>
0.9458

> <Gold.PLP.Chemscore.Hbond>
3.9520

> <Gold.PLP.Chemscore.CHOScore>
0.0000

> <Gold.PLP.Chemscore.Metal>
0.0000

> <Gold.Chemscore.Hbonds>
donor molecule, donor type, donor heavy atom, donor atom, acceptor molecule, acceptor atom, score
      L1  H     2    52       P1  7948  2.00
      L1  H     6    51       P1 10175  1.89

> <Gold.PLP.Chemscore.Internal.Correction>
0.0494

> <Gold.Rescore>
     Score         DG    S(hbond)    S(metal)    S(lipo)     H(rot)  DE(clash)    DE(int)     intcor
     14.70     -19.99       1.76        0.00     101.38       1.26       2.32       2.98       ----

> <Gold.Chemscore.Fitness>
14.6950

> <Gold.Chemscore.DG>
-19.9926

> <Gold.Chemscore.ZeroCoef>
-5.4800

> <Gold.Chemscore.Hbond>
1.7563

> <Gold.Chemscore.Metal>
0.0000

> <Gold.Chemscore.Lipo>
101.3820

> <Gold.Chemscore.Internal_Hbond>
0.0000

> <Gold.Chemscore.DEClash>
2.3166

> <Gold.Chemscore.DEInternal>
2.9809

> <Gold.Chemscore.Rot>
1.2559

> <Gold.Chemscore.Internal.Correction>
   9.000000E+99

> <Gold.Chemscore.Hbonds>
donor molecule, donor type, donor heavy atom, donor atom, acceptor molecule, acceptor atom, score
      L1  H     2    52       P1  7948  1.00
      L1  H     6    51       P1 10175  0.87

> <Gold.Chemscore.Hbond.Weighted>
-5.8660

> <Gold.Chemscore.Metal.Weighted>
-0.0000

> <Gold.Chemscore.Lipo.Weighted>
-11.8617

> <Gold.Chemscore.Internal_Hbond.Weighted>
0.0000

> <Gold.Chemscore.DEClash.Weighted>
2.3166

> <Gold.Chemscore.DEInternal.Weighted>
2.9809

> <Gold.Chemscore.Rot.Weighted>
3.2151

> <Gold.Chemscore.Internal.Correction.Weighted>
   9.000000E+99

> <Gold.Protein.RotatedTorsions>
[ 6907 6896 6895 6894 ] final  -10.06 input  -60.11 | X-H torsion
[ 7974 7965 7964 7962 ] final   48.05 input  175.53 | X-H torsion
[ 8008 7997 7996 7995 ] final -136.03 input   59.86 | X-H torsion
[ 10167 10162 10161 10158 ] final   57.81 input  -65.29 | X-H torsion
[ 10718 10713 10712 10709 ] final  120.56 input   66.30 | X-H torsion
[ 10763 10752 10751 10750 ] final -140.10 input  -60.55 | X-H torsion
[ 11005 11000 10999 10996 ] final  -83.82 input  -57.11 | X-H torsion

> <Gold.Protein.ActiveResidues>
 VAL166  LYS551  ARG553  GLY616  TRP617  ASP618  TYR619  PRO620  LYS621  CYS622 
 ASP623  PHE694  ASN695  SER759  ASP760  ASP761  ALA762  ILE779  LEU786  VAL792 
 PHE793  MET794  SER795  GLU796  ALA797  LYS798  CYS799  TRP800  GLU811  SER814 

> <Gold.Protein.RotatedAtoms>
  151.4080  135.0981  159.9576 H   0  0  0  0  0  0  0  0  0  0  0  0  # atno 6907 bound_to 6896
  152.5029  133.8825  159.7364 H   0  0  0  0  0  0  0  0  0  0  0  0  # atno 6908 bound_to 6896
  150.9313  133.6706  159.2838 H   0  0  0  0  0  0  0  0  0  0  0  0  # atno 6909 bound_to 6896
  146.0241  139.4685  142.9879 H   0  0  0  0  0  0  0  0  0  0  0  0  # atno 7974 bound_to 7965
  155.3885  140.0498  157.3041 H   0  0  0  0  0  0  0  0  0  0  0  0  # atno 8008 bound_to 7997
  154.5048  140.2170  155.9235 H   0  0  0  0  0  0  0  0  0  0  0  0  # atno 8009 bound_to 7997
  156.1512  140.3135  155.8656 H   0  0  0  0  0  0  0  0  0  0  0  0  # atno 8010 bound_to 7997
  140.1940  144.4057  150.6558 H   0  0  0  0  0  0  0  0  0  0  0  0  # atno 10167 bound_to 10162
  157.5882  131.1067  150.8052 H   0  0  0  0  0  0  0  0  0  0  0  0  # atno 10718 bound_to 10713
  154.8589  135.3563  154.5653 H   0  0  0  0  0  0  0  0  0  0  0  0  # atno 10763 bound_to 10752
  153.6267  135.7004  153.5295 H   0  0  0  0  0  0  0  0  0  0  0  0  # atno 10764 bound_to 10752
  153.3084  135.4186  155.1274 H   0  0  0  0  0  0  0  0  0  0  0  0  # atno 10765 bound_to 10752
  141.1655  133.7314  156.8776 H   0  0  0  0  0  0  0  0  0  0  0  0  # atno 11005 bound_to 11000
  145.7147  141.0095  143.1434 LP  0  0  0  0  0  0  0  0  0  0  0  0  # atno 17320 bound_to 7965
  144.7002  139.8799  143.7446 LP  0  0  0  0  0  0  0  0  0  0  0  0  # atno 17321 bound_to 7965
  140.6436  143.2209  151.6235 LP  0  0  0  0  0  0  0  0  0  0  0  0  # atno 17342 bound_to 10162
  139.5244  144.3104  152.0998 LP  0  0  0  0  0  0  0  0  0  0  0  0  # atno 17343 bound_to 10162
  156.8481  130.5071  149.5314 LP  0  0  0  0  0  0  0  0  0  0  0  0  # atno 17370 bound_to 10713
  156.0933  130.5913  150.9771 LP  0  0  0  0  0  0  0  0  0  0  0  0  # atno 17371 bound_to 10713
  140.1737  134.9082  157.2865 LP  0  0  0  0  0  0  0  0  0  0  0  0  # atno 17394 bound_to 11000
  140.2473  134.3725  155.7456 LP  0  0  0  0  0  0  0  0  0  0  0  0  # atno 17395 bound_to 11000

$$$$
