AV-unprocessed.smi:280|AV-procd|sdf|2098|dock10
  -GOLD-   2262021383D 1   1.00000     0.00000
 Structure written by MMmdl.
 59 62  0  0  0  0  0  0  0  0  2 V2000
  150.4074  139.8079  155.2833 C   0  0  0  0  0  0  0  0  0  0  0  0
  149.9043  141.2663  155.2039 C   0  0  1  0  0  0  0  0  0  0  0  0
  148.5256  141.3611  154.5154 C   0  0  0  0  0  0  0  0  0  0  0  0
  147.4620  140.8788  155.3974 N   0  0  0  0  0  0  0  0  0  0  0  0
  146.9897  139.6144  155.2159 C   0  0  0  0  0  0  0  0  0  0  0  0
  146.7959  138.8585  156.3283 N   0  0  0  0  0  0  0  0  0  0  0  0
  146.3350  137.6092  156.2349 C   0  0  0  0  0  0  0  0  0  0  0  0
  146.0056  136.9244  155.1406 N   0  0  0  0  0  0  0  0  0  0  0  0
  146.1956  137.6679  154.0149 C   0  0  0  0  0  0  0  0  0  0  0  0
  146.6769  139.0094  153.9589 C   0  0  0  0  0  0  0  0  0  0  0  0
  146.7086  139.4297  152.6329 N   0  0  0  0  0  0  0  0  0  0  0  0
  146.2837  138.4022  151.9514 C   0  0  0  0  0  0  0  0  0  0  0  0
  145.9629  137.2954  152.7021 N   0  0  0  0  0  0  0  0  0  0  0  0
  145.4642  136.0227  152.2008 C   0  0  0  0  0  0  0  0  0  0  0  0
  143.9799  135.7529  152.5180 C   0  0  0  0  0  0  0  0  0  0  0  0
  143.5167  134.5104  151.7296 C   0  0  0  0  0  0  0  0  0  0  0  0
  143.9346  133.3000  152.3287 O   0  0  0  0  0  0  0  0  0  0  0  0
  143.5808  135.7896  154.0006 C   0  0  0  0  0  0  0  0  0  0  0  0
  142.5109  136.7255  153.7443 O   0  0  0  0  0  0  0  0  0  0  0  0
  143.0686  136.9867  152.4376 C   0  0  0  0  0  0  0  0  0  0  0  0
  147.4131  141.5305  156.7018 C   0  0  0  0  0  0  0  0  0  0  0  0
  148.7769  141.4474  157.4131 C   0  0  0  0  0  0  0  0  0  0  0  0
  149.8646  141.9509  156.5304 N   0  3  1  0  0  0  0  0  0  0  0  0
  151.1885  142.0681  157.2012 C   0  0  0  0  0  0  0  0  0  0  0  0
  151.3589  143.3894  157.9902 C   0  0  0  0  0  0  0  0  0  0  0  0
  150.2143  143.5457  159.0059 C   0  0  0  0  0  0  0  0  0  0  0  0
  152.7199  143.4706  158.7062 C   0  0  0  0  0  0  0  0  0  0  0  0
  151.2555  144.4870  157.1063 O   0  0  0  0  0  0  0  0  0  0  0  0
  150.4300  139.3567  154.2911 H   0  0  0  0  0  0  0  0  0  0  0  0
  149.7679  139.1827  155.9058 H   0  0  0  0  0  0  0  0  0  0  0  0
  151.4184  139.7444  155.6847 H   0  0  0  0  0  0  0  0  0  0  0  0
  150.6087  141.8173  154.5793 H   0  0  0  0  0  0  0  0  0  0  0  0
  148.3102  142.4038  154.2791 H   0  0  0  0  0  0  0  0  0  0  0  0
  148.5511  140.8404  153.5582 H   0  0  0  0  0  0  0  0  0  0  0  0
  146.2123  137.0835  157.1705 H   0  0  0  0  0  0  0  0  0  0  0  0
  146.1967  138.4220  150.8746 H   0  0  0  0  0  0  0  0  0  0  0  0
  145.6375  135.9980  151.1241 H   0  0  0  0  0  0  0  0  0  0  0  0
  146.0871  135.2292  152.6155 H   0  0  0  0  0  0  0  0  0  0  0  0
  142.4298  134.4863  151.6444 H   0  0  0  0  0  0  0  0  0  0  0  0
  143.9149  134.5189  150.7149 H   0  0  0  0  0  0  0  0  0  0  0  0
  143.3637  133.1124  153.0582 H   0  0  0  0  0  0  0  0  0  0  0  0
  143.2249  134.8363  154.3927 H   0  0  0  0  0  0  0  0  0  0  0  0
  144.3350  136.2229  154.6577 H   0  0  0  0  0  0  0  0  0  0  0  0
  143.6085  137.9348  152.4135 H   0  0  0  0  0  0  0  0  0  0  0  0
  142.3226  136.9490  151.6430 H   0  0  0  0  0  0  0  0  0  0  0  0
  147.1611  142.5784  156.5359 H   0  0  0  0  0  0  0  0  0  0  0  0
  146.6112  141.1356  157.3243 H   0  0  0  0  0  0  0  0  0  0  0  0
  148.7310  142.0293  158.3320 H   0  0  0  0  0  0  0  0  0  0  0  0
  148.9943  140.4224  157.7123 H   0  0  0  0  0  0  0  0  0  0  0  0
  151.3622  141.2013  157.8410 H   0  0  0  0  0  0  0  0  0  0  0  0
  151.9781  142.0420  156.4489 H   0  0  0  0  0  0  0  0  0  0  0  0
  150.2279  142.7420  159.7430 H   0  0  0  0  0  0  0  0  0  0  0  0
  149.2401  143.5241  158.5157 H   0  0  0  0  0  0  0  0  0  0  0  0
  150.2870  144.4888  159.5495 H   0  0  0  0  0  0  0  0  0  0  0  0
  152.8505  142.6378  159.3983 H   0  0  0  0  0  0  0  0  0  0  0  0
  152.8097  144.3922  159.2826 H   0  0  0  0  0  0  0  0  0  0  0  0
  153.5527  143.4478  158.0027 H   0  0  0  0  0  0  0  0  0  0  0  0
  150.5228  144.3402  156.5268 H   0  0  0  0  0  0  0  0  0  0  0  0
  149.6054  142.9026  156.3131 H   0  0  0  0  0  0  0  0  0  0  0  0
  1  2  1  0  0  0  0
  1 29  1  0  0  0  0
  1 30  1  0  0  0  0
  1 31  1  0  0  0  0
  2 23  1  0  0  0  0
  2  3  1  0  0  0  0
  2 32  1  0  0  0  0
  3  4  1  0  0  0  0
  3 33  1  0  0  0  0
  3 34  1  0  0  0  0
  4  5  1  0  0  0  0
  4 21  1  0  0  0  0
  5 10  1  0  0  0  0
  5  6  2  0  0  0  0
  6  7  1  0  0  0  0
  7  8  2  0  0  0  0
  7 35  1  0  0  0  0
  8  9  1  0  0  0  0
  9 13  1  0  0  0  0
  9 10  2  0  0  0  0
 10 11  1  0  0  0  0
 11 12  2  0  0  0  0
 12 13  1  0  0  0  0
 12 36  1  0  0  0  0
 13 14  1  0  0  0  0
 14 15  1  0  0  0  0
 14 37  1  0  0  0  0
 14 38  1  0  0  0  0
 15 20  1  0  0  0  0
 15 16  1  0  0  0  0
 15 18  1  0  0  0  0
 16 17  1  0  0  0  0
 16 39  1  0  0  0  0
 16 40  1  0  0  0  0
 17 41  1  0  0  0  0
 18 19  1  0  0  0  0
 18 42  1  0  0  0  0
 18 43  1  0  0  0  0
 19 20  1  0  0  0  0
 20 44  1  0  0  0  0
 20 45  1  0  0  0  0
 21 22  1  0  0  0  0
 21 46  1  0  0  0  0
 21 47  1  0  0  0  0
 22 23  1  0  0  0  0
 22 48  1  0  0  0  0
 22 49  1  0  0  0  0
 23 24  1  0  0  0  0
 23 59  1  0  0  0  0
 24 25  1  0  0  0  0
 24 50  1  0  0  0  0
 24 51  1  0  0  0  0
 25 26  1  0  0  0  0
 25 27  1  0  0  0  0
 25 28  1  0  0  0  0
 26 52  1  0  0  0  0
 26 53  1  0  0  0  0
 26 54  1  0  0  0  0
 27 55  1  0  0  0  0
 27 56  1  0  0  0  0
 27 57  1  0  0  0  0
 28 58  1  0  0  0  0
M  CHG  1  23   1
M  END
> <s_m_source_file>
AV-unprocessed.smi

> <i_m_source_file_index>
280

> <i_lp_mmshare_version>
43012

> <i_f3d_flags>
0

> <s_epik_input>
W0NIM11DKFtDSDNdKShbT0hdKVtDSDJdTjFbQ0gyXVtDSDJdTihbQ0gyXVtDQEhdMVtDSDNdKWMobltjSF1uMiljKGMyMyluW2NIXW4zW0NIMl1DNChbQ0gyXVtPSF0pW0NIMl1PW0NIMl00

> <s_epik_cmdline>
J2VwaWtfcHl0aG9uJywgJy1waCcsICc3LjAnLCAnLXRuJywgJzgnLCAnLW1hJywgJzIwMCcsICctbWV0YWxfYmluZGluZycsICctaW1hZScsICc8aW5maWxlLm1hZT4nLCAnLW9tYWUnLCAnPG91dGZpbGUubWFlPic=

> <r_lp_tautomer_probability>
1

> <r_epik_Ionization_Penalty>
0.00179402

> <r_epik_Ionization_Penalty_Charging>
0.00173996

> <r_epik_Ionization_Penalty_Neutral>
5.40607e-05

> <r_epik_State_Penalty>
-0

> <r_epik_Charging_Adjusted_Penalty>
0.00173996

> <i_epik_Tot_Q>
1

> <i_epik_Tot_abs_Q>
1

> <r_epik_Metal_State_Penalty>
-0

> <b_epik_Metal_Only>
0

> <s_lp_Force_Field>
OPLS_2005

> <r_lp_Energy>
54.8934

> <b_lp_Chiralities_Consistent>
1

> <s_lp_Variant>
AV-unprocessed.smi:280-2

> <Gold.Version>
5.8.1

> <Gold.Id.Protein>
6NUR|6NUR_protein|mol2

> <Gold.PLP.Fitness>
49.0761

> <Gold.PLP.PLP>
-36.6365

> <Gold.PLP.part.hbond>
-3.0000

> <Gold.PLP.part.metal>
0.0000

> <Gold.PLP.part.buried>
-6.0557

> <Gold.PLP.part.nonpolar>
-30.4284

> <Gold.PLP.part.repulsive>
0.4180

> <Gold.PLP.ligand.clash>
0.0000

> <Gold.PLP.ligand.torsion>
1.3278

> <Gold.PLP.Chemscore.Hbond>
3.8544

> <Gold.PLP.Chemscore.CHOScore>
0.8711

> <Gold.PLP.Chemscore.Metal>
0.0000

> <Gold.Chemscore.Hbonds>
donor molecule, donor type, donor heavy atom, donor atom, acceptor molecule, acceptor atom, score
      L1  H    17    41       P1 10957  0.36
      L1  H    23    59       P1  8028  1.85
      L1  H    28    58       P1  8028  1.00
      L1  C    12    36       P1 10171  0.77

> <Gold.PLP.Chemscore.Internal.Correction>
0.9188

> <Gold.Rescore>
     Score         DG    S(hbond)    S(metal)    S(lipo)     H(rot)  DE(clash)    DE(int)     intcor
     13.14     -16.81       2.76        0.00      90.36       3.30       1.47       2.20       ----

> <Gold.Chemscore.Fitness>
13.1373

> <Gold.Chemscore.DG>
-16.8112

> <Gold.Chemscore.ZeroCoef>
-5.4800

> <Gold.Chemscore.Hbond>
2.7560

> <Gold.Chemscore.Metal>
0.0000

> <Gold.Chemscore.Lipo>
90.3576

> <Gold.Chemscore.Internal_Hbond>
0.0000

> <Gold.Chemscore.DEClash>
1.4708

> <Gold.Chemscore.DEInternal>
2.2031

> <Gold.Chemscore.Rot>
3.2991

> <Gold.Chemscore.Internal.Correction>
   9.000000E+99

> <Gold.Chemscore.Hbonds>
donor molecule, donor type, donor heavy atom, donor atom, acceptor molecule, acceptor atom, score
      L1  H    17    41       P1 10957  0.23
      L1  H    23    59       P1  8028  0.89
      L1  H    28    58       P1  8028  0.98

> <Gold.Chemscore.Hbond.Weighted>
-9.2049

> <Gold.Chemscore.Metal.Weighted>
-0.0000

> <Gold.Chemscore.Lipo.Weighted>
-10.5718

> <Gold.Chemscore.Internal_Hbond.Weighted>
0.0000

> <Gold.Chemscore.DEClash.Weighted>
1.4708

> <Gold.Chemscore.DEInternal.Weighted>
2.2031

> <Gold.Chemscore.Rot.Weighted>
8.4456

> <Gold.Chemscore.Internal.Correction.Weighted>
   9.000000E+99

> <Gold.Protein.RotatedTorsions>
[ 6907 6896 6895 6894 ] final  109.28 input  -60.11 | X-H torsion
[ 7974 7965 7964 7962 ] final  123.21 input  175.53 | X-H torsion
[ 8008 7997 7996 7995 ] final  -97.88 input   59.86 | X-H torsion
[ 10167 10162 10161 10158 ] final   14.82 input  -65.29 | X-H torsion
[ 10718 10713 10712 10709 ] final -117.91 input   66.30 | X-H torsion
[ 10763 10752 10751 10750 ] final    6.05 input  -60.55 | X-H torsion
[ 11005 11000 10999 10996 ] final   -8.49 input  -57.11 | X-H torsion

> <Gold.Protein.ActiveResidues>
 VAL166  LYS551  ARG553  GLY616  TRP617  ASP618  TYR619  PRO620  LYS621  CYS622 
 ASP623  PHE694  ASN695  SER759  ASP760  ASP761  ALA762  ILE779  LEU786  VAL792 
 PHE793  MET794  SER795  GLU796  ALA797  LYS798  CYS799  TRP800  GLU811  SER814 

> <Gold.Protein.RotatedAtoms>
  152.5074  133.8967  159.7420 H   0  0  0  0  0  0  0  0  0  0  0  0  # atno 6907 bound_to 6896
  150.9393  133.6666  159.2801 H   0  0  0  0  0  0  0  0  0  0  0  0  # atno 6908 bound_to 6896
  151.3984  135.0972  159.9600 H   0  0  0  0  0  0  0  0  0  0  0  0  # atno 6909 bound_to 6896
  145.0986  139.3535  143.4824 H   0  0  0  0  0  0  0  0  0  0  0  0  # atno 7974 bound_to 7965
  154.7937  140.0459  157.1220 H   0  0  0  0  0  0  0  0  0  0  0  0  # atno 8008 bound_to 7997
  154.9561  140.3071  155.5032 H   0  0  0  0  0  0  0  0  0  0  0  0  # atno 8009 bound_to 7997
  156.2953  140.2279  156.4643 H   0  0  0  0  0  0  0  0  0  0  0  0  # atno 8010 bound_to 7997
  140.5909  143.8796  150.6873 H   0  0  0  0  0  0  0  0  0  0  0  0  # atno 10167 bound_to 10162
  156.1068  130.6216  150.9224 H   0  0  0  0  0  0  0  0  0  0  0  0  # atno 10718 bound_to 10713
  153.2522  135.6915  153.7667 H   0  0  0  0  0  0  0  0  0  0  0  0  # atno 10763 bound_to 10752
  153.6757  135.3337  155.3166 H   0  0  0  0  0  0  0  0  0  0  0  0  # atno 10764 bound_to 10752
  154.8399  135.4510  154.1483 H   0  0  0  0  0  0  0  0  0  0  0  0  # atno 10765 bound_to 10752
  140.7241  133.8804  155.8843 H   0  0  0  0  0  0  0  0  0  0  0  0  # atno 11005 bound_to 11000
  146.3530  140.0853  142.8615 LP  0  0  0  0  0  0  0  0  0  0  0  0  # atno 17320 bound_to 7965
  145.0982  140.9329  143.4728 LP  0  0  0  0  0  0  0  0  0  0  0  0  # atno 17321 bound_to 7965
  140.2319  143.3729  152.1559 LP  0  0  0  0  0  0  0  0  0  0  0  0  # atno 17342 bound_to 10162
  139.5227  144.7062  151.5346 LP  0  0  0  0  0  0  0  0  0  0  0  0  # atno 17343 bound_to 10162
  157.6245  131.0927  150.8559 LP  0  0  0  0  0  0  0  0  0  0  0  0  # atno 17370 bound_to 10713
  156.8677  130.5135  149.5299 LP  0  0  0  0  0  0  0  0  0  0  0  0  # atno 17371 bound_to 10713
  140.9978  134.1191  157.4346 LP  0  0  0  0  0  0  0  0  0  0  0  0  # atno 17394 bound_to 11000
  139.8841  135.0059  156.6347 LP  0  0  0  0  0  0  0  0  0  0  0  0  # atno 17395 bound_to 11000

$$$$
