AV-unprocessed.smi:2446|AV-procd|sdf|9647|dock1
  -GOLD-   2272013283D 1   1.00000     0.00000
 Structure written by MMmdl.
 40 41  0  0  0  0  0  0  0  0  2 V2000
  146.0052  131.1007  149.2232 C   0  0  0  0  0  0  0  0  0  0  0  0
  145.3878  132.3133  149.8993 C   0  0  0  0  0  0  0  0  0  0  0  0
  144.2494  132.9230  149.3284 C   0  0  0  0  0  0  0  0  0  0  0  0
  143.6883  133.9987  149.9193 N   0  3  0  0  0  0  0  0  0  0  0  0
  144.1653  134.5353  151.0615 C   0  0  0  0  0  0  0  0  0  0  0  0
  145.2985  133.9737  151.6825 C   0  0  0  0  0  0  0  0  0  0  0  0
  145.9353  132.8517  151.0923 C   0  0  0  0  0  0  0  0  0  0  0  0
  147.0737  132.2129  151.6596 N   0  0  0  0  0  0  0  0  0  0  0  0
  147.5524  132.2812  152.9174 C   0  0  0  0  0  0  0  0  0  0  0  0
  147.0338  132.9187  153.8309 O   0  0  0  0  0  0  0  0  0  0  0  0
  148.6906  131.5893  153.1109 N   0  0  0  0  0  0  0  0  0  0  0  0
  149.4731  131.4487  154.3415 C   0  0  2  0  0  0  0  0  0  0  0  0
  150.0346  132.8216  154.7523 C   0  0  0  0  0  0  0  0  0  0  0  0
  150.9135  132.7122  156.0076 C   0  0  0  0  0  0  0  0  0  0  0  0
  152.0458  131.6919  155.8102 C   0  0  0  0  0  0  0  0  0  0  0  0
  151.4976  130.3063  155.4090 C   0  0  2  0  0  0  0  0  0  0  0  0
  152.6223  129.2664  155.2269 C   0  0  0  0  0  0  0  0  0  0  0  0
  152.1212  128.0805  154.8800 F   0  0  0  0  0  0  0  0  0  0  0  0
  153.4693  129.6707  154.2803 F   0  0  0  0  0  0  0  0  0  0  0  0
  153.3042  129.1305  156.3644 F   0  0  0  0  0  0  0  0  0  0  0  0
  150.6177  130.4313  154.1473 C   0  0  0  0  0  0  0  0  0  0  0  0
  145.4404  130.8115  148.3365 H   0  0  0  0  0  0  0  0  0  0  0  0
  146.0216  130.2490  149.9041 H   0  0  0  0  0  0  0  0  0  0  0  0
  147.0286  131.3162  148.9150 H   0  0  0  0  0  0  0  0  0  0  0  0
  143.7710  132.5837  148.4211 H   0  0  0  0  0  0  0  0  0  0  0  0
  143.6265  135.3890  151.4461 H   0  0  0  0  0  0  0  0  0  0  0  0
  145.6468  134.4089  152.6064 H   0  0  0  0  0  0  0  0  0  0  0  0
  147.6483  131.7022  151.0053 H   0  0  0  0  0  0  0  0  0  0  0  0
  149.0500  131.0909  152.3092 H   0  0  0  0  0  0  0  0  0  0  0  0
  148.8233  131.1058  155.1489 H   0  0  0  0  0  0  0  0  0  0  0  0
  150.6227  133.2426  153.9355 H   0  0  0  0  0  0  0  0  0  0  0  0
  149.2175  133.5202  154.9372 H   0  0  0  0  0  0  0  0  0  0  0  0
  151.3326  133.6885  156.2528 H   0  0  0  0  0  0  0  0  0  0  0  0
  150.2996  132.4170  156.8593 H   0  0  0  0  0  0  0  0  0  0  0  0
  152.7316  132.0554  155.0438 H   0  0  0  0  0  0  0  0  0  0  0  0
  152.6260  131.6147  156.7300 H   0  0  0  0  0  0  0  0  0  0  0  0
  150.8607  129.9546  156.2225 H   0  0  0  0  0  0  0  0  0  0  0  0
  150.2069  129.4548  153.8913 H   0  0  0  0  0  0  0  0  0  0  0  0
  151.2351  130.7327  153.2997 H   0  0  0  0  0  0  0  0  0  0  0  0
  142.8658  134.4206  149.4874 H   0  0  0  0  0  0  0  0  0  0  0  0
  1  2  1  0  0  0  0
  1 22  1  0  0  0  0
  1 23  1  0  0  0  0
  1 24  1  0  0  0  0
  2  7  1  0  0  0  0
  2  3  2  0  0  0  0
  3  4  1  0  0  0  0
  3 25  1  0  0  0  0
  4  5  2  0  0  0  0
  4 40  1  0  0  0  0
  5  6  1  0  0  0  0
  5 26  1  0  0  0  0
  6  7  2  0  0  0  0
  6 27  1  0  0  0  0
  7  8  1  0  0  0  0
  8  9  1  0  0  0  0
  8 28  1  0  0  0  0
  9 10  2  0  0  0  0
  9 11  1  0  0  0  0
 11 12  1  0  0  0  0
 11 29  1  0  0  0  0
 12 21  1  0  0  0  0
 12 13  1  0  0  0  0
 12 30  1  0  0  0  0
 13 14  1  0  0  0  0
 13 31  1  0  0  0  0
 13 32  1  0  0  0  0
 14 15  1  0  0  0  0
 14 33  1  0  0  0  0
 14 34  1  0  0  0  0
 15 16  1  0  0  0  0
 15 35  1  0  0  0  0
 15 36  1  0  0  0  0
 16 17  1  0  0  0  0
 16 21  1  0  0  0  0
 16 37  1  0  0  0  0
 17 18  1  0  0  0  0
 17 19  1  0  0  0  0
 17 20  1  0  0  0  0
 21 38  1  0  0  0  0
 21 39  1  0  0  0  0
M  CHG  1   4   1
M  END
> <s_m_source_file>
AV-unprocessed.smi

> <i_m_source_file_index>
2446

> <i_lp_mmshare_version>
43012

> <i_f3d_flags>
0

> <s_epik_input>
W0NIM11jMVtjSF1uW2NIXVtjSF1jMVtOSF1DKD1PKVtOSF1bQ0BASF0yW0NIMl1bQ0gyXVtDSDJdW0NAQEhdKEMoRikoRilGKVtDSDJdMg==

> <s_epik_cmdline>
J2VwaWtfcHl0aG9uJywgJy1waCcsICc3LjAnLCAnLXRuJywgJzgnLCAnLW1hJywgJzIwMCcsICctbWV0YWxfYmluZGluZycsICctaW1hZScsICc8aW5maWxlLm1hZT4nLCAnLW9tYWUnLCAnPG91dGZpbGUubWFlPic=

> <r_epik_Ionization_Penalty>
0.736582

> <r_epik_Ionization_Penalty_Charging>
0.736562

> <r_epik_Ionization_Penalty_Neutral>
1.98379e-05

> <r_epik_State_Penalty>
0.762314

> <r_epik_Charging_Adjusted_Penalty>
1.49888

> <i_epik_Tot_Q>
1

> <i_epik_Tot_abs_Q>
1

> <r_epik_Metal_State_Penalty>
0.914579

> <b_epik_Metal_Only>
0

> <s_lp_Force_Field>
OPLS_2005

> <r_lp_Energy>
31.4788

> <b_lp_Chiralities_Consistent>
1

> <s_lp_Variant>
AV-unprocessed.smi:2446-7

> <Gold.Version>
5.8.1

> <Gold.Id.Protein>
6NUR|6NUR_protein|mol2

> <Gold.PLP.Fitness>
45.5108

> <Gold.PLP.PLP>
-35.0359

> <Gold.PLP.part.hbond>
-3.0000

> <Gold.PLP.part.metal>
0.0000

> <Gold.PLP.part.buried>
-2.3410

> <Gold.PLP.part.nonpolar>
-29.4065

> <Gold.PLP.part.repulsive>
0.1335

> <Gold.PLP.ligand.clash>
0.0000

> <Gold.PLP.ligand.torsion>
0.1234

> <Gold.PLP.Chemscore.Hbond>
3.5680

> <Gold.PLP.Chemscore.CHOScore>
0.0000

> <Gold.PLP.Chemscore.Metal>
0.0000

> <Gold.Chemscore.Hbonds>
donor molecule, donor type, donor heavy atom, donor atom, acceptor molecule, acceptor atom, score
      L1  H     4    40       P1 10186  1.73
      L1  H     8    28       P1 10747  1.00
      L1  H    11    29       P1 10747  0.96

> <Gold.PLP.Chemscore.Internal.Correction>
0.0178

> <Gold.Rescore>
     Score         DG    S(hbond)    S(metal)    S(lipo)     H(rot)  DE(clash)    DE(int)     intcor
     17.47     -20.93       2.22        0.00      90.48       1.00       2.23       1.23       ----

> <Gold.Chemscore.Fitness>
17.4709

> <Gold.Chemscore.DG>
-20.9295

> <Gold.Chemscore.ZeroCoef>
-5.4800

> <Gold.Chemscore.Hbond>
2.2227

> <Gold.Chemscore.Metal>
0.0000

> <Gold.Chemscore.Lipo>
90.4768

> <Gold.Chemscore.Internal_Hbond>
0.0000

> <Gold.Chemscore.DEClash>
2.2328

> <Gold.Chemscore.DEInternal>
1.2257

> <Gold.Chemscore.Rot>
1.0000

> <Gold.Chemscore.Internal.Correction>
   9.000000E+99

> <Gold.Chemscore.Hbonds>
donor molecule, donor type, donor heavy atom, donor atom, acceptor molecule, acceptor atom, score
      L1  H     4    40       P1 10186  0.84
      L1  H     8    28       P1 10747  1.00
      L1  H    11    29       P1 10747  0.39

> <Gold.Chemscore.Hbond.Weighted>
-7.4237

> <Gold.Chemscore.Metal.Weighted>
-0.0000

> <Gold.Chemscore.Lipo.Weighted>
-10.5858

> <Gold.Chemscore.Internal_Hbond.Weighted>
0.0000

> <Gold.Chemscore.DEClash.Weighted>
2.2328

> <Gold.Chemscore.DEInternal.Weighted>
1.2257

> <Gold.Chemscore.Rot.Weighted>
2.5600

> <Gold.Chemscore.Internal.Correction.Weighted>
   9.000000E+99

> <Gold.Protein.RotatedTorsions>
[ 6907 6896 6895 6894 ] final  111.42 input  -60.11 | X-H torsion
[ 7974 7965 7964 7962 ] final  140.05 input  175.53 | X-H torsion
[ 8008 7997 7996 7995 ] final  114.06 input   59.86 | X-H torsion
[ 10167 10162 10161 10158 ] final  -14.84 input  -65.29 | X-H torsion
[ 10718 10713 10712 10709 ] final  -31.83 input   66.30 | X-H torsion
[ 10763 10752 10751 10750 ] final -154.33 input  -60.55 | X-H torsion
[ 11005 11000 10999 10996 ] final  -17.13 input  -57.11 | X-H torsion

> <Gold.Protein.ActiveResidues>
 VAL166  LYS551  ARG553  GLY616  TRP617  ASP618  TYR619  PRO620  LYS621  CYS622 
 ASP623  PHE694  ASN695  SER759  ASP760  ASP761  ALA762  ILE779  LEU786  VAL792 
 PHE793  MET794  SER795  GLU796  ALA797  LYS798  CYS799  TRP800  GLU811  SER814 

> <Gold.Protein.RotatedAtoms>
  152.4970  133.8660  159.7274 H   0  0  0  0  0  0  0  0  0  0  0  0  # atno 6907 bound_to 6896
  150.9159  133.6930  159.2850 H   0  0  0  0  0  0  0  0  0  0  0  0  # atno 6908 bound_to 6896
  151.4324  135.1015  159.9698 H   0  0  0  0  0  0  0  0  0  0  0  0  # atno 6909 bound_to 6896
  144.9223  139.5152  143.5657 H   0  0  0  0  0  0  0  0  0  0  0  0  # atno 7974 bound_to 7965
  156.2298  140.2967  156.0158 H   0  0  0  0  0  0  0  0  0  0  0  0  # atno 8008 bound_to 7997
  155.2257  140.0417  157.2972 H   0  0  0  0  0  0  0  0  0  0  0  0  # atno 8009 bound_to 7997
  154.5976  140.2418  155.7843 H   0  0  0  0  0  0  0  0  0  0  0  0  # atno 8010 bound_to 7997
  140.7208  143.5280  150.9554 H   0  0  0  0  0  0  0  0  0  0  0  0  # atno 10167 bound_to 10162
  156.3824  130.4358  149.7458 H   0  0  0  0  0  0  0  0  0  0  0  0  # atno 10718 bound_to 10713
  154.7866  135.3192  154.7872 H   0  0  0  0  0  0  0  0  0  0  0  0  # atno 10763 bound_to 10752
  153.8570  135.6857  153.4791 H   0  0  0  0  0  0  0  0  0  0  0  0  # atno 10764 bound_to 10752
  153.1520  135.4695  154.9590 H   0  0  0  0  0  0  0  0  0  0  0  0  # atno 10765 bound_to 10752
  140.8137  133.8121  155.9589 H   0  0  0  0  0  0  0  0  0  0  0  0  # atno 11005 bound_to 11000
  146.3210  139.8111  142.8945 LP  0  0  0  0  0  0  0  0  0  0  0  0  # atno 17320 bound_to 7965
  145.3277  141.0259  143.3464 LP  0  0  0  0  0  0  0  0  0  0  0  0  # atno 17321 bound_to 7965
  139.8999  143.6848  152.3133 LP  0  0  0  0  0  0  0  0  0  0  0  0  # atno 17342 bound_to 10162
  139.7194  144.7605  151.0980 LP  0  0  0  0  0  0  0  0  0  0  0  0  # atno 17343 bound_to 10162
  156.4543  130.7922  151.2943 LP  0  0  0  0  0  0  0  0  0  0  0  0  # atno 17370 bound_to 10713
  157.7493  131.0085  150.3233 LP  0  0  0  0  0  0  0  0  0  0  0  0  # atno 17371 bound_to 10713
  140.9171  134.2188  157.4950 LP  0  0  0  0  0  0  0  0  0  0  0  0  # atno 17394 bound_to 11000
  139.8712  134.9776  156.4965 LP  0  0  0  0  0  0  0  0  0  0  0  0  # atno 17395 bound_to 11000

$$$$
