AV-unprocessed.smi:1980|AV-procd|sdf|8017|dock1
  -GOLD-   2272010213D 1   1.00000     0.00000
 Structure written by MMmdl.
 44 45  0  0  0  0  0  0  0  0  1 V2000
  151.0054  140.4090  158.1398 C   0  0  0  0  0  0  0  0  0  0  0  0
  151.0995  141.4735  157.0361 C   0  0  2  0  0  0  0  0  0  0  0  0
  150.6685  142.7123  157.5946 O   0  0  0  0  0  0  0  0  0  0  0  0
  151.6882  143.6874  157.7899 C   0  0  0  0  0  0  0  0  0  0  0  0
  151.6438  144.1881  159.2385 C   0  0  0  0  0  0  0  0  0  0  0  0
  152.3126  143.3379  160.0162 F   0  0  0  0  0  0  0  0  0  0  0  0
  152.2137  145.3893  159.3288 F   0  0  0  0  0  0  0  0  0  0  0  0
  150.3827  144.2564  159.6643 F   0  0  0  0  0  0  0  0  0  0  0  0
  150.2353  141.1014  155.8200 C   0  0  0  0  0  0  0  0  0  0  0  0
  150.6955  140.3940  154.9235 O   0  0  0  0  0  0  0  0  0  0  0  0
  148.9807  141.5785  155.8135 N   0  0  0  0  0  0  0  0  0  0  0  0
  147.9912  141.3553  154.7653 C   0  0  0  0  0  0  0  0  0  0  0  0
  146.8384  142.3410  154.8306 C   0  0  0  0  0  0  0  0  0  0  0  0
  146.4486  143.0738  153.6930 C   0  0  0  0  0  0  0  0  0  0  0  0
  145.3727  143.9758  153.7972 C   0  0  0  0  0  0  0  0  0  0  0  0
  144.7143  144.1268  155.0414 C   0  0  0  0  0  0  0  0  0  0  0  0
  143.6344  145.0282  155.1709 N   0  0  0  0  0  0  0  0  0  0  0  0
  143.8364  146.4083  154.7326 C   0  0  0  0  0  0  0  0  0  0  0  0
  142.6781  147.2994  155.2123 C   0  0  0  0  0  0  0  0  0  0  0  0
  141.4391  146.7571  154.7680 O   0  0  0  0  0  0  0  0  0  0  0  0
  141.2113  145.4562  155.2992 C   0  0  0  0  0  0  0  0  0  0  0  0
  142.3175  144.4985  154.8240 C   0  0  0  0  0  0  0  0  0  0  0  0
  145.0909  143.4136  156.1322 N   0  0  0  0  0  0  0  0  0  0  0  0
  146.1229  142.5502  156.0271 C   0  0  0  0  0  0  0  0  0  0  0  0
  151.3021  139.4265  157.7704 H   0  0  0  0  0  0  0  0  0  0  0  0
  149.9915  140.3273  158.5338 H   0  0  0  0  0  0  0  0  0  0  0  0
  151.6615  140.6586  158.9738 H   0  0  0  0  0  0  0  0  0  0  0  0
  152.1452  141.5565  156.7331 H   0  0  0  0  0  0  0  0  0  0  0  0
  152.6662  143.2510  157.5816 H   0  0  0  0  0  0  0  0  0  0  0  0
  151.5565  144.5310  157.1115 H   0  0  0  0  0  0  0  0  0  0  0  0
  148.6900  142.1470  156.5957 H   0  0  0  0  0  0  0  0  0  0  0  0
  148.4454  141.4041  153.7742 H   0  0  0  0  0  0  0  0  0  0  0  0
  147.6109  140.3391  154.8728 H   0  0  0  0  0  0  0  0  0  0  0  0
  146.9604  142.9458  152.7504 H   0  0  0  0  0  0  0  0  0  0  0  0
  145.0590  144.5257  152.9227 H   0  0  0  0  0  0  0  0  0  0  0  0
  144.7763  146.7975  155.1263 H   0  0  0  0  0  0  0  0  0  0  0  0
  143.9018  146.4352  153.6440 H   0  0  0  0  0  0  0  0  0  0  0  0
  142.6797  147.3880  156.3001 H   0  0  0  0  0  0  0  0  0  0  0  0
  142.7889  148.3065  154.8108 H   0  0  0  0  0  0  0  0  0  0  0  0
  141.1741  145.4977  156.3892 H   0  0  0  0  0  0  0  0  0  0  0  0
  140.2377  145.1010  154.9616 H   0  0  0  0  0  0  0  0  0  0  0  0
  142.2635  144.3747  153.7416 H   0  0  0  0  0  0  0  0  0  0  0  0
  142.1452  143.5174  155.2634 H   0  0  0  0  0  0  0  0  0  0  0  0
  146.3835  142.0118  156.9262 H   0  0  0  0  0  0  0  0  0  0  0  0
  1  2  1  0  0  0  0
  1 25  1  0  0  0  0
  1 26  1  0  0  0  0
  1 27  1  0  0  0  0
  2  3  1  0  0  0  0
  2  9  1  0  0  0  0
  2 28  1  0  0  0  0
  3  4  1  0  0  0  0
  4  5  1  0  0  0  0
  4 29  1  0  0  0  0
  4 30  1  0  0  0  0
  5  6  1  0  0  0  0
  5  7  1  0  0  0  0
  5  8  1  0  0  0  0
  9 10  2  0  0  0  0
  9 11  1  0  0  0  0
 11 12  1  0  0  0  0
 11 31  1  0  0  0  0
 12 13  1  0  0  0  0
 12 32  1  0  0  0  0
 12 33  1  0  0  0  0
 13 24  1  0  0  0  0
 13 14  2  0  0  0  0
 14 15  1  0  0  0  0
 14 34  1  0  0  0  0
 15 16  2  0  0  0  0
 15 35  1  0  0  0  0
 16 17  1  0  0  0  0
 16 23  1  0  0  0  0
 17 22  1  0  0  0  0
 17 18  1  0  0  0  0
 18 19  1  0  0  0  0
 18 36  1  0  0  0  0
 18 37  1  0  0  0  0
 19 20  1  0  0  0  0
 19 38  1  0  0  0  0
 19 39  1  0  0  0  0
 20 21  1  0  0  0  0
 21 22  1  0  0  0  0
 21 40  1  0  0  0  0
 21 41  1  0  0  0  0
 22 42  1  0  0  0  0
 22 43  1  0  0  0  0
 23 24  2  0  0  0  0
 24 44  1  0  0  0  0
M  END
> <s_m_source_file>
AV-unprocessed.smi

> <i_m_source_file_index>
1980

> <i_lp_mmshare_version>
43012

> <i_f3d_flags>
0

> <s_epik_input>
RkMoRikoRilbQ0gyXU9bQ0BASF0oW0NIM10pQyg9TylbTkhdW0NIMl1jMVtjSF1bY0hdYyhuW2NIXTEpTjJbQ0gyXVtDSDJdT1tDSDJdW0NIMl0y

> <s_epik_cmdline>
J2VwaWtfcHl0aG9uJywgJy1waCcsICc3LjAnLCAnLXRuJywgJzgnLCAnLW1hJywgJzIwMCcsICctbWV0YWxfYmluZGluZycsICctaW1hZScsICc8aW5maWxlLm1hZT4nLCAnLW9tYWUnLCAnPG91dGZpbGUubWFlPic=

> <r_lp_tautomer_probability>
1

> <r_epik_Ionization_Penalty>
0.00436425

> <r_epik_Ionization_Penalty_Charging>
0

> <r_epik_Ionization_Penalty_Neutral>
0.00436425

> <r_epik_State_Penalty>
0.00314317

> <r_epik_Charging_Adjusted_Penalty>
0.00314317

> <i_epik_Tot_Q>
0

> <i_epik_Tot_abs_Q>
0

> <r_epik_Metal_State_Penalty>
-0

> <b_epik_Metal_Only>
0

> <s_lp_Force_Field>
OPLS_2005

> <r_lp_Energy>
19.3234

> <b_lp_Chiralities_Consistent>
1

> <s_lp_Variant>
AV-unprocessed.smi:1980-1

> <Gold.Version>
5.8.1

> <Gold.Id.Protein>
6NUR|6NUR_protein|mol2

> <Gold.PLP.Fitness>
47.8270

> <Gold.PLP.PLP>
-49.6506

> <Gold.PLP.part.hbond>
-1.7487

> <Gold.PLP.part.metal>
0.0000

> <Gold.PLP.part.buried>
-7.4835

> <Gold.PLP.part.nonpolar>
-40.1382

> <Gold.PLP.part.repulsive>
0.4715

> <Gold.PLP.ligand.clash>
0.0000

> <Gold.PLP.ligand.torsion>
2.7660

> <Gold.PLP.Chemscore.Hbond>
1.0000

> <Gold.PLP.Chemscore.CHOScore>
0.0000

> <Gold.PLP.Chemscore.Metal>
0.0000

> <Gold.Chemscore.Hbonds>
donor molecule, donor type, donor heavy atom, donor atom, acceptor molecule, acceptor atom, score
      P1  H  7989  7998       L1    10  1.00

> <Gold.PLP.Chemscore.Internal.Correction>
0.7083

> <Gold.Rescore>
     Score         DG    S(hbond)    S(metal)    S(lipo)     H(rot)  DE(clash)    DE(int)     intcor
     10.48     -12.93       0.98        0.00      90.03       2.49       0.04       2.41       ----

> <Gold.Chemscore.Fitness>
10.4810

> <Gold.Chemscore.DG>
-12.9266

> <Gold.Chemscore.ZeroCoef>
-5.4800

> <Gold.Chemscore.Hbond>
0.9841

> <Gold.Chemscore.Metal>
0.0000

> <Gold.Chemscore.Lipo>
90.0335

> <Gold.Chemscore.Internal_Hbond>
0.0000

> <Gold.Chemscore.DEClash>
0.0364

> <Gold.Chemscore.DEInternal>
2.4092

> <Gold.Chemscore.Rot>
2.4899

> <Gold.Chemscore.Internal.Correction>
   9.000000E+99

> <Gold.Chemscore.Hbonds>
donor molecule, donor type, donor heavy atom, donor atom, acceptor molecule, acceptor atom, score
      P1  H  7989  7998       L1    10  0.98

> <Gold.Chemscore.Hbond.Weighted>
-3.2868

> <Gold.Chemscore.Metal.Weighted>
-0.0000

> <Gold.Chemscore.Lipo.Weighted>
-10.5339

> <Gold.Chemscore.Internal_Hbond.Weighted>
0.0000

> <Gold.Chemscore.DEClash.Weighted>
0.0364

> <Gold.Chemscore.DEInternal.Weighted>
2.4092

> <Gold.Chemscore.Rot.Weighted>
6.3741

> <Gold.Chemscore.Internal.Correction.Weighted>
   9.000000E+99

> <Gold.Protein.RotatedTorsions>
[ 6907 6896 6895 6894 ] final   12.34 input  -60.11 | X-H torsion
[ 7974 7965 7964 7962 ] final   91.42 input  175.53 | X-H torsion
[ 8008 7997 7996 7995 ] final -115.56 input   59.86 | X-H torsion
[ 10167 10162 10161 10158 ] final   14.89 input  -65.29 | X-H torsion
[ 10718 10713 10712 10709 ] final  -51.63 input   66.30 | X-H torsion
[ 10763 10752 10751 10750 ] final -174.22 input  -60.55 | X-H torsion
[ 11005 11000 10999 10996 ] final  175.22 input  -57.11 | X-H torsion

> <Gold.Protein.ActiveResidues>
 VAL166  LYS551  ARG553  GLY616  TRP617  ASP618  TYR619  PRO620  LYS621  CYS622 
 ASP623  PHE694  ASN695  SER759  ASP760  ASP761  ALA762  ILE779  LEU786  VAL792 
 PHE793  MET794  SER795  GLU796  ALA797  LYS798  CYS799  TRP800  GLU811  SER814 

> <Gold.Protein.RotatedAtoms>
  151.7688  135.0791  160.0356 H   0  0  0  0  0  0  0  0  0  0  0  0  # atno 6907 bound_to 6896
  152.3303  133.5946  159.5813 H   0  0  0  0  0  0  0  0  0  0  0  0  # atno 6908 bound_to 6896
  150.7419  133.9794  159.3613 H   0  0  0  0  0  0  0  0  0  0  0  0  # atno 6909 bound_to 6896
  145.5059  139.2276  143.2751 H   0  0  0  0  0  0  0  0  0  0  0  0  # atno 7974 bound_to 7965
  155.0539  140.0393  157.2553 H   0  0  0  0  0  0  0  0  0  0  0  0  # atno 8008 bound_to 7997
  154.7114  140.2693  155.6601 H   0  0  0  0  0  0  0  0  0  0  0  0  # atno 8009 bound_to 7997
  156.2791  140.2721  156.1757 H   0  0  0  0  0  0  0  0  0  0  0  0  # atno 8010 bound_to 7997
  140.5905  143.8805  150.6869 H   0  0  0  0  0  0  0  0  0  0  0  0  # atno 10167 bound_to 10162
  156.1693  130.4149  149.9672 H   0  0  0  0  0  0  0  0  0  0  0  0  # atno 10718 bound_to 10713
  154.5988  135.2852  155.0558 H   0  0  0  0  0  0  0  0  0  0  0  0  # atno 10763 bound_to 10752
  154.1831  135.6453  153.5043 H   0  0  0  0  0  0  0  0  0  0  0  0  # atno 10764 bound_to 10752
  153.0149  135.5428  154.6699 H   0  0  0  0  0  0  0  0  0  0  0  0  # atno 10765 bound_to 10752
  140.3598  134.7122  157.4324 H   0  0  0  0  0  0  0  0  0  0  0  0  # atno 11005 bound_to 11000
  146.2197  140.5863  142.9023 LP  0  0  0  0  0  0  0  0  0  0  0  0  # atno 17320 bound_to 7965
  144.7754  140.5728  143.6641 LP  0  0  0  0  0  0  0  0  0  0  0  0  # atno 17321 bound_to 7965
  140.2327  143.3723  152.1552 LP  0  0  0  0  0  0  0  0  0  0  0  0  # atno 17342 bound_to 10162
  139.5224  144.7059  151.5357 LP  0  0  0  0  0  0  0  0  0  0  0  0  # atno 17343 bound_to 10162
  156.7477  130.9103  151.3636 LP  0  0  0  0  0  0  0  0  0  0  0  0  # atno 17370 bound_to 10713
  157.6791  130.9122  150.0222 LP  0  0  0  0  0  0  0  0  0  0  0  0  # atno 17371 bound_to 10713
  140.0636  134.5961  155.8721 LP  0  0  0  0  0  0  0  0  0  0  0  0  # atno 17394 bound_to 11000
  141.1987  133.6603  156.5807 LP  0  0  0  0  0  0  0  0  0  0  0  0  # atno 17395 bound_to 11000

$$$$
