AV-unprocessed.smi:2904|AV-procd|sdf|11160|dock7
  -GOLD-   2272016 43D 1   1.00000     0.00000
 Structure written by MMmdl.
 39 40  0  0  0  0  0  0  0  0  1 V2000
  153.8149  142.2536  162.5426 C   0  0  0  0  0  0  0  0  0  0  0  0
  153.1605  142.3632  161.1953 C   0  0  0  0  0  0  0  0  0  0  0  0
  152.6513  143.5227  160.8156 N   0  0  0  0  0  0  0  0  0  0  0  0
  152.1663  143.2995  159.5763 N   0  0  0  0  0  0  0  0  0  0  0  0
  151.4990  144.3765  158.8649 C   0  0  0  0  0  0  0  0  0  0  0  0
  151.5459  145.4937  159.5897 F   0  0  0  0  0  0  0  0  0  0  0  0
  152.0721  144.5807  157.6778 F   0  0  0  0  0  0  0  0  0  0  0  0
  152.3388  141.9840  159.1897 C   0  0  0  0  0  0  0  0  0  0  0  0
  151.8632  141.4738  157.8683 C   0  0  0  0  0  0  0  0  0  0  0  0
  152.9899  141.3457  160.2116 C   0  0  0  0  0  0  0  0  0  0  0  0
  153.4318  139.9040  160.2983 C   0  0  0  0  0  0  0  0  0  0  0  0
  154.9342  139.7502  160.0295 C   0  0  0  0  0  0  0  0  0  0  0  0
  155.3656  139.5667  158.8899 O   0  0  0  0  0  0  0  0  0  0  0  0
  155.7282  139.8280  161.1082 N   0  0  0  0  0  0  0  0  0  0  0  0
  157.1836  139.7132  161.0919 C   0  0  0  0  0  0  0  0  0  0  0  0
  157.7558  140.1183  162.4581 C   0  0  0  0  0  0  0  0  0  0  0  0
  159.2924  140.1427  162.4166 C   0  0  0  0  0  0  0  0  0  0  0  0
  159.7374  141.0214  161.3887 O   0  0  0  0  0  0  0  0  0  0  0  0
  159.3262  140.6091  160.0895 C   0  0  0  0  0  0  0  0  0  0  0  0
  157.7916  140.6075  159.9981 C   0  0  0  0  0  0  0  0  0  0  0  0
  154.6575  141.5622  162.5149 H   0  0  0  0  0  0  0  0  0  0  0  0
  153.1094  141.8884  163.2890 H   0  0  0  0  0  0  0  0  0  0  0  0
  154.1934  143.2177  162.8839 H   0  0  0  0  0  0  0  0  0  0  0  0
  150.4528  144.1285  158.6873 H   0  0  0  0  0  0  0  0  0  0  0  0
  152.0071  140.3970  157.7830 H   0  0  0  0  0  0  0  0  0  0  0  0
  152.4096  141.9477  157.0529 H   0  0  0  0  0  0  0  0  0  0  0  0
  150.8014  141.6803  157.7321 H   0  0  0  0  0  0  0  0  0  0  0  0
  153.2129  139.4909  161.2836 H   0  0  0  0  0  0  0  0  0  0  0  0
  152.8893  139.2811  159.5869 H   0  0  0  0  0  0  0  0  0  0  0  0
  155.2935  139.9799  162.0069 H   0  0  0  0  0  0  0  0  0  0  0  0
  157.4635  138.6753  160.8998 H   0  0  0  0  0  0  0  0  0  0  0  0
  157.3903  141.1080  162.7361 H   0  0  0  0  0  0  0  0  0  0  0  0
  157.4139  139.4293  163.2311 H   0  0  0  0  0  0  0  0  0  0  0  0
  159.6866  140.4898  163.3718 H   0  0  0  0  0  0  0  0  0  0  0  0
  159.6932  139.1413  162.2524 H   0  0  0  0  0  0  0  0  0  0  0  0
  159.7441  141.2966  159.3538 H   0  0  0  0  0  0  0  0  0  0  0  0
  159.7297  139.6205  159.8654 H   0  0  0  0  0  0  0  0  0  0  0  0
  157.4782  140.2691  159.0098 H   0  0  0  0  0  0  0  0  0  0  0  0
  157.4259  141.6294  160.1086 H   0  0  0  0  0  0  0  0  0  0  0  0
  1  2  1  0  0  0  0
  1 21  1  0  0  0  0
  1 22  1  0  0  0  0
  1 23  1  0  0  0  0
  2 10  1  0  0  0  0
  2  3  2  0  0  0  0
  3  4  1  0  0  0  0
  4  5  1  0  0  0  0
  4  8  1  0  0  0  0
  5  6  1  0  0  0  0
  5  7  1  0  0  0  0
  5 24  1  0  0  0  0
  8  9  1  0  0  0  0
  8 10  2  0  0  0  0
  9 25  1  0  0  0  0
  9 26  1  0  0  0  0
  9 27  1  0  0  0  0
 10 11  1  0  0  0  0
 11 12  1  0  0  0  0
 11 28  1  0  0  0  0
 11 29  1  0  0  0  0
 12 13  2  0  0  0  0
 12 14  1  0  0  0  0
 14 15  1  0  0  0  0
 14 30  1  0  0  0  0
 15 20  1  0  0  0  0
 15 16  1  0  0  0  0
 15 31  1  0  0  0  0
 16 17  1  0  0  0  0
 16 32  1  0  0  0  0
 16 33  1  0  0  0  0
 17 18  1  0  0  0  0
 17 34  1  0  0  0  0
 17 35  1  0  0  0  0
 18 19  1  0  0  0  0
 19 20  1  0  0  0  0
 19 36  1  0  0  0  0
 19 37  1  0  0  0  0
 20 38  1  0  0  0  0
 20 39  1  0  0  0  0
M  END
> <s_m_source_file>
AV-unprocessed.smi

> <i_m_source_file_index>
2904

> <i_lp_mmshare_version>
43012

> <i_f3d_flags>
0

> <s_epik_input>
W0NIM11jMW5uKFtDSF0oRilGKWMoW0NIM10pYzFbQ0gyXUMoPU8pW05IXVtDSF0yW0NIMl1bQ0gyXU9bQ0gyXVtDSDJdMg==

> <s_epik_cmdline>
J2VwaWtfcHl0aG9uJywgJy1waCcsICc3LjAnLCAnLXRuJywgJzgnLCAnLW1hJywgJzIwMCcsICctbWV0YWxfYmluZGluZycsICctaW1hZScsICc8aW5maWxlLm1hZT4nLCAnLW9tYWUnLCAnPG91dGZpbGUubWFlPic=

> <r_lp_tautomer_probability>
1

> <r_epik_Ionization_Penalty>
3.9362e-07

> <r_epik_Ionization_Penalty_Charging>
0

> <r_epik_Ionization_Penalty_Neutral>
3.9362e-07

> <r_epik_State_Penalty>
-0

> <r_epik_Charging_Adjusted_Penalty>
0

> <i_epik_Tot_Q>
0

> <i_epik_Tot_abs_Q>
0

> <r_epik_Metal_State_Penalty>
-0

> <b_epik_Metal_Only>
0

> <s_lp_Force_Field>
OPLS_2005

> <r_lp_Energy>
7.93396

> <b_lp_Chiralities_Consistent>
1

> <s_lp_Variant>
AV-unprocessed.smi:2904-1

> <Gold.Version>
5.8.1

> <Gold.Id.Protein>
6NUR|6NUR_protein|mol2

> <Gold.PLP.Fitness>
42.6763

> <Gold.PLP.PLP>
-41.1720

> <Gold.PLP.part.hbond>
-1.0000

> <Gold.PLP.part.metal>
0.0000

> <Gold.PLP.part.buried>
-3.5673

> <Gold.PLP.part.nonpolar>
-36.6698

> <Gold.PLP.part.repulsive>
0.1020

> <Gold.PLP.ligand.clash>
0.0000

> <Gold.PLP.ligand.torsion>
0.7574

> <Gold.PLP.Chemscore.Hbond>
1.0000

> <Gold.PLP.Chemscore.CHOScore>
0.0000

> <Gold.PLP.Chemscore.Metal>
0.0000

> <Gold.Chemscore.Hbonds>
donor molecule, donor type, donor heavy atom, donor atom, acceptor molecule, acceptor atom, score
      P1  H  7997  8010       L1    13  1.00

> <Gold.PLP.Chemscore.Internal.Correction>
0.0192

> <Gold.Rescore>
     Score         DG    S(hbond)    S(metal)    S(lipo)     H(rot)  DE(clash)    DE(int)     intcor
     13.66     -15.41       0.99        0.00      88.11       1.44       0.00       1.75       ----

> <Gold.Chemscore.Fitness>
13.6597

> <Gold.Chemscore.DG>
-15.4093

> <Gold.Chemscore.ZeroCoef>
-5.4800

> <Gold.Chemscore.Hbond>
0.9915

> <Gold.Chemscore.Metal>
0.0000

> <Gold.Chemscore.Lipo>
88.1119

> <Gold.Chemscore.Internal_Hbond>
0.0000

> <Gold.Chemscore.DEClash>
0.0036

> <Gold.Chemscore.DEInternal>
1.7459

> <Gold.Chemscore.Rot>
1.4419

> <Gold.Chemscore.Internal.Correction>
   9.000000E+99

> <Gold.Chemscore.Hbonds>
donor molecule, donor type, donor heavy atom, donor atom, acceptor molecule, acceptor atom, score
      P1  H  7997  8010       L1    13  0.97

> <Gold.Chemscore.Hbond.Weighted>
-3.3115

> <Gold.Chemscore.Metal.Weighted>
-0.0000

> <Gold.Chemscore.Lipo.Weighted>
-10.3091

> <Gold.Chemscore.Internal_Hbond.Weighted>
0.0000

> <Gold.Chemscore.DEClash.Weighted>
0.0036

> <Gold.Chemscore.DEInternal.Weighted>
1.7459

> <Gold.Chemscore.Rot.Weighted>
3.6913

> <Gold.Chemscore.Internal.Correction.Weighted>
   9.000000E+99

> <Gold.Protein.RotatedTorsions>
[ 6907 6896 6895 6894 ] final -130.31 input  -60.11 | X-H torsion
[ 7974 7965 7964 7962 ] final   46.99 input  175.53 | X-H torsion
[ 8008 7997 7996 7995 ] final  -29.72 input   59.86 | X-H torsion
[ 10167 10162 10161 10158 ] final   97.23 input  -65.29 | X-H torsion
[ 10718 10713 10712 10709 ] final   84.35 input   66.30 | X-H torsion
[ 10763 10752 10751 10750 ] final -171.57 input  -60.55 | X-H torsion
[ 11005 11000 10999 10996 ] final   -9.26 input  -57.11 | X-H torsion

> <Gold.Protein.ActiveResidues>
 VAL166  LYS551  ARG553  GLY616  TRP617  ASP618  TYR619  PRO620  LYS621  CYS622 
 ASP623  PHE694  ASN695  SER759  ASP760  ASP761  ALA762  ILE779  LEU786  VAL792 
 PHE793  MET794  SER795  GLU796  ALA797  LYS798  CYS799  TRP800  GLU811  SER814 

> <Gold.Protein.RotatedAtoms>
  150.9383  133.6686  159.2795 H   0  0  0  0  0  0  0  0  0  0  0  0  # atno 6907 bound_to 6896
  151.4084  135.0980  159.9587 H   0  0  0  0  0  0  0  0  0  0  0  0  # atno 6908 bound_to 6896
  152.5058  133.8861  159.7425 H   0  0  0  0  0  0  0  0  0  0  0  0  # atno 6909 bound_to 6896
  146.0339  139.4797  142.9820 H   0  0  0  0  0  0  0  0  0  0  0  0  # atno 7974 bound_to 7965
  154.4279  140.1811  156.1292 H   0  0  0  0  0  0  0  0  0  0  0  0  # atno 8008 bound_to 7997
  156.0081  140.3353  155.6888 H   0  0  0  0  0  0  0  0  0  0  0  0  # atno 8009 bound_to 7997
  155.6149  140.0654  157.2686 H   0  0  0  0  0  0  0  0  0  0  0  0  # atno 8010 bound_to 7997
  139.7820  144.6884  151.0009 H   0  0  0  0  0  0  0  0  0  0  0  0  # atno 10167 bound_to 10162
  157.6896  131.0129  150.2659 H   0  0  0  0  0  0  0  0  0  0  0  0  # atno 10718 bound_to 10713
  154.6290  135.2884  155.0239 H   0  0  0  0  0  0  0  0  0  0  0  0  # atno 10763 bound_to 10752
  154.1406  135.6519  153.4945 H   0  0  0  0  0  0  0  0  0  0  0  0  # atno 10764 bound_to 10752
  153.0271  135.5332  154.7110 H   0  0  0  0  0  0  0  0  0  0  0  0  # atno 10765 bound_to 10752
  140.7323  133.8739  155.8902 H   0  0  0  0  0  0  0  0  0  0  0  0  # atno 11005 bound_to 11000
  145.6996  141.0140  143.1511 LP  0  0  0  0  0  0  0  0  0  0  0  0  # atno 17320 bound_to 7965
  144.7043  139.8628  143.7435 LP  0  0  0  0  0  0  0  0  0  0  0  0  # atno 17321 bound_to 7965
  140.7818  143.4472  151.0465 LP  0  0  0  0  0  0  0  0  0  0  0  0  # atno 17342 bound_to 10162
  139.8152  143.7895  152.3174 LP  0  0  0  0  0  0  0  0  0  0  0  0  # atno 17343 bound_to 10162
  156.3231  130.3789  149.7558 LP  0  0  0  0  0  0  0  0  0  0  0  0  # atno 17370 bound_to 10713
  156.5122  130.8177  151.3173 LP  0  0  0  0  0  0  0  0  0  0  0  0  # atno 17371 bound_to 10713
  140.9910  134.1278  157.4408 LP  0  0  0  0  0  0  0  0  0  0  0  0  # atno 17394 bound_to 11000
  139.8823  135.0040  156.6223 LP  0  0  0  0  0  0  0  0  0  0  0  0  # atno 17395 bound_to 11000

$$$$
