AV-unprocessed.smi:1812|AV-procd|sdf|7336|dock3
  -GOLD-   22720 8593D 1   1.00000     0.00000
 Structure written by MMmdl.
 34 36  0  0  0  0  0  0  0  0  1 V2000
  146.5451  137.1781  153.5218 O   0  0  0  0  0  0  0  0  0  0  0  0
  145.8149  138.0717  153.0921 C   0  0  0  0  0  0  0  0  0  0  0  0
  144.6208  137.8417  152.5278 N   0  0  0  0  0  0  0  0  0  0  0  0
  144.0159  136.5251  152.3603 C   0  0  0  0  0  0  0  0  0  0  0  0
  144.7947  135.6699  151.3472 C   0  0  2  0  0  0  0  0  0  0  0  0
  144.1242  134.3353  151.0260 C   0  0  0  0  0  0  0  0  0  0  0  0
  145.3046  133.5007  150.5849 C   0  0  0  0  0  0  0  0  0  0  0  0
  146.3900  133.9679  151.5497 C   0  0  0  0  0  0  0  0  0  0  0  0
  146.0779  135.3226  151.8646 O   0  0  0  0  0  0  0  0  0  0  0  0
  146.0929  139.3869  153.1242 N   0  0  0  0  0  0  0  0  0  0  0  0
  147.2485  140.0294  153.6427 C   0  0  0  0  0  0  0  0  0  0  0  0
  147.6046  141.2842  153.3350 N   0  0  0  0  0  0  0  0  0  0  0  0
  148.7733  141.6638  153.9798 N   0  0  0  0  0  0  0  0  0  0  0  0
  149.2657  140.6898  154.7547 C   0  0  0  0  0  0  0  0  0  0  0  0
  150.5167  140.8619  155.5503 C   0  0  0  0  0  0  0  0  0  0  0  0
  150.5344  140.6732  157.0517 C   0  0  0  0  0  0  0  0  0  0  0  0
  150.6930  142.0526  156.4647 C   0  0  0  0  0  0  0  0  0  0  0  0
  148.3238  139.2021  154.7563 S   0  0  0  0  0  0  0  0  0  0  0  0
  144.0828  138.6326  152.2054 H   0  0  0  0  0  0  0  0  0  0  0  0
  143.9948  136.0296  153.3313 H   0  0  0  0  0  0  0  0  0  0  0  0
  142.9767  136.6325  152.0448 H   0  0  0  0  0  0  0  0  0  0  0  0
  144.9455  136.2191  150.4162 H   0  0  0  0  0  0  0  0  0  0  0  0
  143.6755  133.9018  151.9211 H   0  0  0  0  0  0  0  0  0  0  0  0
  143.3510  134.4215  150.2621 H   0  0  0  0  0  0  0  0  0  0  0  0
  145.1183  132.4277  150.6374 H   0  0  0  0  0  0  0  0  0  0  0  0
  145.5783  133.7521  149.5593 H   0  0  0  0  0  0  0  0  0  0  0  0
  146.3578  133.3843  152.4706 H   0  0  0  0  0  0  0  0  0  0  0  0
  147.3903  133.8766  151.1261 H   0  0  0  0  0  0  0  0  0  0  0  0
  145.3938  140.0017  152.7347 H   0  0  0  0  0  0  0  0  0  0  0  0
  151.3816  140.5210  154.9847 H   0  0  0  0  0  0  0  0  0  0  0  0
  149.5955  140.4539  157.5559 H   0  0  0  0  0  0  0  0  0  0  0  0
  151.4165  140.2091  157.4881 H   0  0  0  0  0  0  0  0  0  0  0  0
  151.6801  142.5082  156.5100 H   0  0  0  0  0  0  0  0  0  0  0  0
  149.8559  142.7403  156.5667 H   0  0  0  0  0  0  0  0  0  0  0  0
  1  2  2  0  0  0  0
  2  3  1  0  0  0  0
  2 10  1  0  0  0  0
  3  4  1  0  0  0  0
  3 19  1  0  0  0  0
  4  5  1  0  0  0  0
  4 20  1  0  0  0  0
  4 21  1  0  0  0  0
  5  9  1  0  0  0  0
  5  6  1  0  0  0  0
  5 22  1  0  0  0  0
  6  7  1  0  0  0  0
  6 23  1  0  0  0  0
  6 24  1  0  0  0  0
  7  8  1  0  0  0  0
  7 25  1  0  0  0  0
  7 26  1  0  0  0  0
  8  9  1  0  0  0  0
  8 27  1  0  0  0  0
  8 28  1  0  0  0  0
 10 11  1  0  0  0  0
 10 29  1  0  0  0  0
 11 18  1  0  0  0  0
 11 12  2  0  0  0  0
 12 13  1  0  0  0  0
 13 14  2  0  0  0  0
 14 15  1  0  0  0  0
 14 18  1  0  0  0  0
 15 17  1  0  0  0  0
 15 16  1  0  0  0  0
 15 30  1  0  0  0  0
 16 17  1  0  0  0  0
 16 31  1  0  0  0  0
 16 32  1  0  0  0  0
 17 33  1  0  0  0  0
 17 34  1  0  0  0  0
M  END
> <s_m_source_file>
AV-unprocessed.smi

> <i_m_source_file_index>
1812

> <i_lp_mmshare_version>
43012

> <i_f3d_flags>
0

> <s_epik_input>
TzFbQ0gyXVtDSDJdW0NIMl1bQ0BIXTFbQ0gyXVtOSF1DKD1PKVtOSF1jMm5uYyhzMilbQ0hdM1tDSDJdW0NIMl0z

> <s_epik_cmdline>
J2VwaWtfcHl0aG9uJywgJy1waCcsICc3LjAnLCAnLXRuJywgJzgnLCAnLW1hJywgJzIwMCcsICctbWV0YWxfYmluZGluZycsICctaW1hZScsICc8aW5maWxlLm1hZT4nLCAnLW9tYWUnLCAnPG91dGZpbGUubWFlPic=

> <r_lp_tautomer_probability>
1

> <r_epik_Ionization_Penalty>
0.000281817

> <r_epik_Ionization_Penalty_Charging>
0

> <r_epik_Ionization_Penalty_Neutral>
0.000281817

> <r_epik_State_Penalty>
-0

> <r_epik_Charging_Adjusted_Penalty>
0

> <i_epik_Tot_Q>
0

> <i_epik_Tot_abs_Q>
0

> <r_epik_Metal_State_Penalty>
0.157535

> <b_epik_Metal_Only>
0

> <s_lp_Force_Field>
OPLS_2005

> <r_lp_Energy>
14.57

> <b_lp_Chiralities_Consistent>
1

> <s_lp_Variant>
AV-unprocessed.smi:1812-1

> <Gold.Version>
5.8.1

> <Gold.Id.Protein>
6NUR|6NUR_protein|mol2

> <Gold.PLP.Fitness>
35.8838

> <Gold.PLP.PLP>
-28.4077

> <Gold.PLP.part.hbond>
-4.0423

> <Gold.PLP.part.metal>
0.0000

> <Gold.PLP.part.buried>
-4.1224

> <Gold.PLP.part.nonpolar>
-22.0772

> <Gold.PLP.part.repulsive>
2.5991

> <Gold.PLP.ligand.clash>
0.0000

> <Gold.PLP.ligand.torsion>
0.2032

> <Gold.PLP.Chemscore.Hbond>
2.5824

> <Gold.PLP.Chemscore.CHOScore>
0.0000

> <Gold.PLP.Chemscore.Metal>
0.0000

> <Gold.Chemscore.Hbonds>
donor molecule, donor type, donor heavy atom, donor atom, acceptor molecule, acceptor atom, score
      L1  H     3    19       P1 10175  0.94
      L1  H    10    29       P1 10175  1.00
      P1  H  8011  8017       L1    13  0.48

> <Gold.PLP.Chemscore.Internal.Correction>
0.1352

> <Gold.Rescore>
     Score         DG    S(hbond)    S(metal)    S(lipo)     H(rot)  DE(clash)    DE(int)     intcor
     12.79     -15.93       2.32        0.00      55.29       1.47       0.20       2.94       ----

> <Gold.Chemscore.Fitness>
12.7936

> <Gold.Chemscore.DG>
-15.9269

> <Gold.Chemscore.ZeroCoef>
-5.4800

> <Gold.Chemscore.Hbond>
2.3195

> <Gold.Chemscore.Metal>
0.0000

> <Gold.Chemscore.Lipo>
55.2924

> <Gold.Chemscore.Internal_Hbond>
0.0000

> <Gold.Chemscore.DEClash>
0.1973

> <Gold.Chemscore.DEInternal>
2.9360

> <Gold.Chemscore.Rot>
1.4725

> <Gold.Chemscore.Internal.Correction>
   9.000000E+99

> <Gold.Chemscore.Hbonds>
donor molecule, donor type, donor heavy atom, donor atom, acceptor molecule, acceptor atom, score
      L1  H     3    19       P1 10175  0.91
      L1  H    10    29       P1 10175  0.95
      P1  H  8011  8017       L1    13  0.09

> <Gold.Chemscore.Hbond.Weighted>
-7.7472

> <Gold.Chemscore.Metal.Weighted>
-0.0000

> <Gold.Chemscore.Lipo.Weighted>
-6.4692

> <Gold.Chemscore.Internal_Hbond.Weighted>
0.0000

> <Gold.Chemscore.DEClash.Weighted>
0.1973

> <Gold.Chemscore.DEInternal.Weighted>
2.9360

> <Gold.Chemscore.Rot.Weighted>
3.7695

> <Gold.Chemscore.Internal.Correction.Weighted>
   9.000000E+99

> <Gold.Protein.RotatedTorsions>
[ 6907 6896 6895 6894 ] final -100.56 input  -60.11 | X-H torsion
[ 7974 7965 7964 7962 ] final -153.58 input  175.53 | X-H torsion
[ 8008 7997 7996 7995 ] final -175.68 input   59.86 | X-H torsion
[ 10167 10162 10161 10158 ] final -135.51 input  -65.29 | X-H torsion
[ 10718 10713 10712 10709 ] final   40.76 input   66.30 | X-H torsion
[ 10763 10752 10751 10750 ] final -152.59 input  -60.55 | X-H torsion
[ 11005 11000 10999 10996 ] final   58.46 input  -57.11 | X-H torsion

> <Gold.Protein.ActiveResidues>
 VAL166  LYS551  ARG553  GLY616  TRP617  ASP618  TYR619  PRO620  LYS621  CYS622 
 ASP623  PHE694  ASN695  SER759  ASP760  ASP761  ALA762  ILE779  LEU786  VAL792 
 PHE793  MET794  SER795  GLU796  ALA797  LYS798  CYS799  TRP800  GLU811  SER814 

> <Gold.Protein.RotatedAtoms>
  150.7120  134.0869  159.3917 H   0  0  0  0  0  0  0  0  0  0  0  0  # atno 6907 bound_to 6896
  151.8854  135.0435  160.0502 H   0  0  0  0  0  0  0  0  0  0  0  0  # atno 6908 bound_to 6896
  152.2534  133.5199  159.5375 H   0  0  0  0  0  0  0  0  0  0  0  0  # atno 6909 bound_to 6896
  144.7733  140.4506  143.5891 H   0  0  0  0  0  0  0  0  0  0  0  0  # atno 7974 bound_to 7965
  155.9856  140.1190  157.0686 H   0  0  0  0  0  0  0  0  0  0  0  0  # atno 8008 bound_to 7997
  154.4196  140.1136  156.5563 H   0  0  0  0  0  0  0  0  0  0  0  0  # atno 8009 bound_to 7997
  155.6412  140.3473  155.4718 H   0  0  0  0  0  0  0  0  0  0  0  0  # atno 8010 bound_to 7997
  139.8771  143.6885  152.2632 H   0  0  0  0  0  0  0  0  0  0  0  0  # atno 10167 bound_to 10162
  157.3859  130.7779  149.7230 H   0  0  0  0  0  0  0  0  0  0  0  0  # atno 10718 bound_to 10713
  154.7984  135.3232  154.7611 H   0  0  0  0  0  0  0  0  0  0  0  0  # atno 10763 bound_to 10752
  153.8284  135.6881  153.4822 H   0  0  0  0  0  0  0  0  0  0  0  0  # atno 10764 bound_to 10752
  153.1687  135.4632  154.9815 H   0  0  0  0  0  0  0  0  0  0  0  0  # atno 10765 bound_to 10752
  140.0376  134.5921  155.9424 H   0  0  0  0  0  0  0  0  0  0  0  0  # atno 11005 bound_to 11000
  145.6259  139.1530  143.2996 LP  0  0  0  0  0  0  0  0  0  0  0  0  # atno 17320 bound_to 7965
  146.1896  140.6366  142.9152 LP  0  0  0  0  0  0  0  0  0  0  0  0  # atno 17321 bound_to 7965
  139.7230  144.7599  151.0925 LP  0  0  0  0  0  0  0  0  0  0  0  0  # atno 17342 bound_to 10162
  140.7751  143.5184  150.9567 LP  0  0  0  0  0  0  0  0  0  0  0  0  # atno 17343 bound_to 10162
  155.9786  130.4049  150.3636 LP  0  0  0  0  0  0  0  0  0  0  0  0  # atno 17370 bound_to 10713
  157.1746  131.0377  151.2779 LP  0  0  0  0  0  0  0  0  0  0  0  0  # atno 17371 bound_to 10713
  141.1865  133.6557  156.5244 LP  0  0  0  0  0  0  0  0  0  0  0  0  # atno 17394 bound_to 11000
  140.4123  134.7262  157.4843 LP  0  0  0  0  0  0  0  0  0  0  0  0  # atno 17395 bound_to 11000

$$$$
