AV-unprocessed.smi:1821|AV-procd|sdf|7388|dock3
  -GOLD-   22720 9 53D 1   1.00000     0.00000
 Structure written by MMmdl.
 36 38  0  0  0  0  0  0  0  0  2 V2000
  151.7071  137.8801  154.5669 C   0  0  0  0  0  0  0  0  0  0  0  0
  150.5287  138.7745  154.3748 C   0  0  0  0  0  0  0  0  0  0  0  0
  149.4626  138.5341  153.5601 N   0  3  0  0  0  0  0  0  0  0  0  0
  148.5603  139.5965  153.6367 C   0  0  0  0  0  0  0  0  0  0  0  0
  147.3437  139.8089  152.9956 C   0  0  0  0  0  0  0  0  0  0  0  0
  146.6697  141.0102  153.2993 C   0  0  0  0  0  0  0  0  0  0  0  0
  147.2069  141.9444  154.2090 C   0  0  0  0  0  0  0  0  0  0  0  0
  148.4408  141.7178  154.8535 C   0  0  0  0  0  0  0  0  0  0  0  0
  149.1009  140.5287  154.5457 C   0  0  0  0  0  0  0  0  0  0  0  0
  150.3154  139.9816  154.9722 N   0  0  0  0  0  0  0  0  0  0  0  0
  151.1421  140.7294  155.9313 C   0  0  0  0  0  0  0  0  0  0  0  0
  150.7551  140.4535  157.3988 C   0  0  2  0  0  0  0  0  0  0  0  0
  149.4206  140.8615  157.6340 O   0  0  0  0  0  0  0  0  0  0  0  0
  151.7455  141.0938  158.3650 C   0  0  0  0  0  0  0  0  0  0  0  0
  151.9106  142.4992  158.4096 C   0  0  0  0  0  0  0  0  0  0  0  0
  151.1924  143.3046  157.5902 F   0  0  0  0  0  0  0  0  0  0  0  0
  152.8318  143.0779  159.3040 C   0  0  0  0  0  0  0  0  0  0  0  0
  153.5990  142.2623  160.1558 C   0  0  0  0  0  0  0  0  0  0  0  0
  153.4476  140.8642  160.1105 C   0  0  0  0  0  0  0  0  0  0  0  0
  152.5281  140.2802  159.2175 C   0  0  0  0  0  0  0  0  0  0  0  0
  152.4071  138.9309  159.1826 F   0  0  0  0  0  0  0  0  0  0  0  0
  151.6511  137.0217  153.8970 H   0  0  0  0  0  0  0  0  0  0  0  0
  151.7398  137.5175  155.5945 H   0  0  0  0  0  0  0  0  0  0  0  0
  152.6302  138.4218  154.3594 H   0  0  0  0  0  0  0  0  0  0  0  0
  146.9302  139.0953  152.2979 H   0  0  0  0  0  0  0  0  0  0  0  0
  145.7219  141.2196  152.8245 H   0  0  0  0  0  0  0  0  0  0  0  0
  146.6622  142.8539  154.4164 H   0  0  0  0  0  0  0  0  0  0  0  0
  148.8459  142.4399  155.5473 H   0  0  0  0  0  0  0  0  0  0  0  0
  152.1883  140.4791  155.7503 H   0  0  0  0  0  0  0  0  0  0  0  0
  151.0372  141.7903  155.7016 H   0  0  0  0  0  0  0  0  0  0  0  0
  150.7595  139.3761  157.5623 H   0  0  0  0  0  0  0  0  0  0  0  0
  148.8397  140.2399  157.2227 H   0  0  0  0  0  0  0  0  0  0  0  0
  152.9513  144.1509  159.3346 H   0  0  0  0  0  0  0  0  0  0  0  0
  154.3056  142.7083  160.8401 H   0  0  0  0  0  0  0  0  0  0  0  0
  154.0399  140.2375  160.7611 H   0  0  0  0  0  0  0  0  0  0  0  0
  149.3636  137.7032  152.9910 H   0  0  0  0  0  0  0  0  0  0  0  0
  1  2  1  0  0  0  0
  1 22  1  0  0  0  0
  1 23  1  0  0  0  0
  1 24  1  0  0  0  0
  2 10  1  0  0  0  0
  2  3  2  0  0  0  0
  3  4  1  0  0  0  0
  3 36  1  0  0  0  0
  4  9  2  0  0  0  0
  4  5  1  0  0  0  0
  5  6  2  0  0  0  0
  5 25  1  0  0  0  0
  6  7  1  0  0  0  0
  6 26  1  0  0  0  0
  7  8  2  0  0  0  0
  7 27  1  0  0  0  0
  8  9  1  0  0  0  0
  8 28  1  0  0  0  0
  9 10  1  0  0  0  0
 10 11  1  0  0  0  0
 11 12  1  0  0  0  0
 11 29  1  0  0  0  0
 11 30  1  0  0  0  0
 12 13  1  0  0  0  0
 12 14  1  0  0  0  0
 12 31  1  0  0  0  0
 13 32  1  0  0  0  0
 14 20  1  0  0  0  0
 14 15  2  0  0  0  0
 15 16  1  0  0  0  0
 15 17  1  0  0  0  0
 17 18  2  0  0  0  0
 17 33  1  0  0  0  0
 18 19  1  0  0  0  0
 18 34  1  0  0  0  0
 19 20  2  0  0  0  0
 19 35  1  0  0  0  0
 20 21  1  0  0  0  0
M  CHG  1   3   1
M  END
> <s_m_source_file>
AV-unprocessed.smi

> <i_m_source_file_index>
1821

> <i_lp_mmshare_version>
43012

> <i_f3d_flags>
0

> <s_epik_input>
W2NIXTFbY0hdW2NIXVtjSF1jKGMxMiluKGMobjIpW0NIM10pW0NIMl1bQ0BIXShbT0hdKWMzYyhGKVtjSF1bY0hdW2NIXWMzRg==

> <s_epik_cmdline>
J2VwaWtfcHl0aG9uJywgJy1waCcsICc3LjAnLCAnLXRuJywgJzgnLCAnLW1hJywgJzIwMCcsICctbWV0YWxfYmluZGluZycsICctaW1hZScsICc8aW5maWxlLm1hZT4nLCAnLW9tYWUnLCAnPG91dGZpbGUubWFlPic=

> <r_epik_Ionization_Penalty>
0.963869

> <r_epik_Ionization_Penalty_Charging>
0.963868

> <r_epik_Ionization_Penalty_Neutral>
1.34362e-06

> <r_epik_State_Penalty>
1.00924

> <r_epik_Charging_Adjusted_Penalty>
1.9731

> <i_epik_Tot_Q>
1

> <i_epik_Tot_abs_Q>
1

> <r_epik_Metal_State_Penalty>
4.98304

> <b_epik_Metal_Only>
0

> <s_lp_Force_Field>
OPLS_2005

> <r_lp_Energy>
15.8254

> <b_lp_Chiralities_Consistent>
1

> <s_lp_Variant>
AV-unprocessed.smi:1821-3

> <Gold.Version>
5.8.1

> <Gold.Id.Protein>
6NUR|6NUR_protein|mol2

> <Gold.PLP.Fitness>
53.2623

> <Gold.PLP.PLP>
-48.0156

> <Gold.PLP.part.hbond>
-2.0000

> <Gold.PLP.part.metal>
0.0000

> <Gold.PLP.part.buried>
2.4217

> <Gold.PLP.part.nonpolar>
-47.8334

> <Gold.PLP.part.repulsive>
0.0723

> <Gold.PLP.ligand.clash>
0.0000

> <Gold.PLP.ligand.torsion>
0.3911

> <Gold.PLP.Chemscore.Hbond>
2.0000

> <Gold.PLP.Chemscore.CHOScore>
0.0000

> <Gold.PLP.Chemscore.Metal>
0.0000

> <Gold.Chemscore.Hbonds>
donor molecule, donor type, donor heavy atom, donor atom, acceptor molecule, acceptor atom, score
      L1  H     3    36       P1  7948  2.00

> <Gold.PLP.Chemscore.Internal.Correction>
0.0288

> <Gold.Rescore>
     Score         DG    S(hbond)    S(metal)    S(lipo)     H(rot)  DE(clash)    DE(int)     intcor
     15.96     -17.73       0.94        0.00     120.18       1.94       0.26       1.51       ----

> <Gold.Chemscore.Fitness>
15.9598

> <Gold.Chemscore.DG>
-17.7289

> <Gold.Chemscore.ZeroCoef>
-5.4800

> <Gold.Chemscore.Hbond>
0.9423

> <Gold.Chemscore.Metal>
0.0000

> <Gold.Chemscore.Lipo>
120.1834

> <Gold.Chemscore.Internal_Hbond>
0.0000

> <Gold.Chemscore.DEClash>
0.2559

> <Gold.Chemscore.DEInternal>
1.5132

> <Gold.Chemscore.Rot>
1.9375

> <Gold.Chemscore.Internal.Correction>
   9.000000E+99

> <Gold.Chemscore.Hbonds>
donor molecule, donor type, donor heavy atom, donor atom, acceptor molecule, acceptor atom, score
      L1  H     3    36       P1  7948  0.94

> <Gold.Chemscore.Hbond.Weighted>
-3.1474

> <Gold.Chemscore.Metal.Weighted>
-0.0000

> <Gold.Chemscore.Lipo.Weighted>
-14.0615

> <Gold.Chemscore.Internal_Hbond.Weighted>
0.0000

> <Gold.Chemscore.DEClash.Weighted>
0.2559

> <Gold.Chemscore.DEInternal.Weighted>
1.5132

> <Gold.Chemscore.Rot.Weighted>
4.9599

> <Gold.Chemscore.Internal.Correction.Weighted>
   9.000000E+99

> <Gold.Protein.RotatedTorsions>
[ 6907 6896 6895 6894 ] final   91.27 input  -60.11 | X-H torsion
[ 7974 7965 7964 7962 ] final  148.44 input  175.53 | X-H torsion
[ 8008 7997 7996 7995 ] final -147.53 input   59.86 | X-H torsion
[ 10167 10162 10161 10158 ] final -164.80 input  -65.29 | X-H torsion
[ 10718 10713 10712 10709 ] final   18.29 input   66.30 | X-H torsion
[ 10763 10752 10751 10750 ] final -101.46 input  -60.55 | X-H torsion
[ 11005 11000 10999 10996 ] final   96.85 input  -57.11 | X-H torsion

> <Gold.Protein.ActiveResidues>
 VAL166  LYS551  ARG553  GLY616  TRP617  ASP618  TYR619  PRO620  LYS621  CYS622 
 ASP623  PHE694  ASN695  SER759  ASP760  ASP761  ALA762  ILE779  LEU786  VAL792 
 PHE793  MET794  SER795  GLU796  ALA797  LYS798  CYS799  TRP800  GLU811  SER814 

> <Gold.Protein.RotatedAtoms>
  152.5449  134.1682  159.8585 H   0  0  0  0  0  0  0  0  0  0  0  0  # atno 6907 bound_to 6896
  151.1694  133.4786  159.2601 H   0  0  0  0  0  0  0  0  0  0  0  0  # atno 6908 bound_to 6896
  151.1290  135.0131  159.8629 H   0  0  0  0  0  0  0  0  0  0  0  0  # atno 6909 bound_to 6896
  144.8513  139.6155  143.5972 H   0  0  0  0  0  0  0  0  0  0  0  0  # atno 7974 bound_to 7965
  155.5770  140.0639  157.2793 H   0  0  0  0  0  0  0  0  0  0  0  0  # atno 8008 bound_to 7997
  154.4344  140.1859  156.0983 H   0  0  0  0  0  0  0  0  0  0  0  0  # atno 8009 bound_to 7997
  156.0334  140.3304  155.7168 H   0  0  0  0  0  0  0  0  0  0  0  0  # atno 8010 bound_to 7997
  139.6226  144.0595  152.1946 H   0  0  0  0  0  0  0  0  0  0  0  0  # atno 10167 bound_to 10162
  157.0943  130.6441  149.5856 H   0  0  0  0  0  0  0  0  0  0  0  0  # atno 10718 bound_to 10713
  154.7659  135.4897  153.9554 H   0  0  0  0  0  0  0  0  0  0  0  0  # atno 10763 bound_to 10752
  153.1308  135.6752  153.9190 H   0  0  0  0  0  0  0  0  0  0  0  0  # atno 10764 bound_to 10752
  153.8894  135.3122  155.3426 H   0  0  0  0  0  0  0  0  0  0  0  0  # atno 10765 bound_to 10752
  139.8779  134.8971  156.4220 H   0  0  0  0  0  0  0  0  0  0  0  0  # atno 11005 bound_to 11000
  146.2787  139.6820  142.9244 LP  0  0  0  0  0  0  0  0  0  0  0  0  # atno 17320 bound_to 7965
  145.4494  141.0427  143.2813 LP  0  0  0  0  0  0  0  0  0  0  0  0  # atno 17321 bound_to 7965
  140.0240  144.6131  150.7542 LP  0  0  0  0  0  0  0  0  0  0  0  0  # atno 17342 bound_to 10162
  140.7391  143.2787  151.3663 LP  0  0  0  0  0  0  0  0  0  0  0  0  # atno 17343 bound_to 10162
  155.9890  130.4935  150.7194 LP  0  0  0  0  0  0  0  0  0  0  0  0  # atno 17370 bound_to 10713
  157.4695  131.0891  151.0658 LP  0  0  0  0  0  0  0  0  0  0  0  0  # atno 17371 bound_to 10713
  140.9127  133.7700  155.9811 LP  0  0  0  0  0  0  0  0  0  0  0  0  # atno 17394 bound_to 11000
  140.8528  134.2934  157.5268 LP  0  0  0  0  0  0  0  0  0  0  0  0  # atno 17395 bound_to 11000

$$$$
