AV-unprocessed.smi:1088|AV-procd|sdf|4731|dock10
  -GOLD-   22720 3263D 1   1.00000     0.00000
 Structure written by MMmdl.
 48 49  0  0  0  0  0  0  0  0  2 V2000
  145.9514  133.8938  151.7921 C   0  0  0  0  0  0  0  0  0  0  0  0
  145.8019  135.0772  152.5569 O   0  0  0  0  0  0  0  0  0  0  0  0
  146.5507  135.0448  153.7604 C   0  0  0  0  0  0  0  0  0  0  0  0
  146.6174  136.4640  154.3427 C   0  0  0  0  0  0  0  0  0  0  0  0
  147.1179  137.4531  153.3572 N   0  3  1  0  0  0  0  0  0  0  0  0
  146.1719  137.7875  152.2717 C   0  0  0  0  0  0  0  0  0  0  0  0
  146.6155  139.1553  151.7698 C   0  0  0  0  0  0  0  0  0  0  0  0
  147.0635  139.8558  153.0470 C   0  0  0  0  0  0  0  0  0  0  0  0
  147.5895  138.7268  153.9565 C   0  0  2  0  0  0  0  0  0  0  0  0
  149.1263  138.7105  154.0997 C   0  0  0  0  0  0  0  0  0  0  0  0
  149.5561  138.9331  155.4755 N   0  0  0  0  0  0  0  0  0  0  0  0
  150.6652  139.5964  155.8343 C   0  0  0  0  0  0  0  0  0  0  0  0
  151.4222  140.1324  155.0241 O   0  0  0  0  0  0  0  0  0  0  0  0
  150.9553  139.6714  157.3385 C   0  0  0  0  0  0  0  0  0  0  0  0
  151.3754  141.0132  157.7613 N   0  0  0  0  0  0  0  0  0  0  0  0
  150.9470  142.1226  157.0551 C   0  0  0  0  0  0  0  0  0  0  0  0
  151.2914  143.3887  157.3769 C   0  0  0  0  0  0  0  0  0  0  0  0
  152.1599  143.6625  158.5156 C   0  0  0  0  0  0  0  0  0  0  0  0
  152.4812  144.8018  158.8553 O   0  0  0  0  0  0  0  0  0  0  0  0
  152.5967  142.5092  159.2107 N   0  0  0  0  0  0  0  0  0  0  0  0
  153.4525  142.6785  160.3669 C   0  0  0  0  0  0  0  0  0  0  0  0
  152.2198  141.1890  158.8791 C   0  0  0  0  0  0  0  0  0  0  0  0
  152.6047  140.2166  159.5343 O   0  0  0  0  0  0  0  0  0  0  0  0
  145.3601  133.9707  150.8796 H   0  0  0  0  0  0  0  0  0  0  0  0
  145.6037  133.0205  152.3456 H   0  0  0  0  0  0  0  0  0  0  0  0
  146.9921  133.7364  151.5063 H   0  0  0  0  0  0  0  0  0  0  0  0
  146.1092  134.3472  154.4733 H   0  0  0  0  0  0  0  0  0  0  0  0
  147.5615  134.6921  153.5495 H   0  0  0  0  0  0  0  0  0  0  0  0
  145.6340  136.7714  154.7015 H   0  0  0  0  0  0  0  0  0  0  0  0
  147.2773  136.4573  155.2118 H   0  0  0  0  0  0  0  0  0  0  0  0
  146.1795  137.0352  151.4823 H   0  0  0  0  0  0  0  0  0  0  0  0
  145.1572  137.8547  152.6680 H   0  0  0  0  0  0  0  0  0  0  0  0
  147.4615  139.0455  151.0901 H   0  0  0  0  0  0  0  0  0  0  0  0
  145.8257  139.6924  151.2440 H   0  0  0  0  0  0  0  0  0  0  0  0
  147.7946  140.6404  152.8496 H   0  0  0  0  0  0  0  0  0  0  0  0
  146.2026  140.3301  153.5203 H   0  0  0  0  0  0  0  0  0  0  0  0
  147.1360  138.8504  154.9421 H   0  0  0  0  0  0  0  0  0  0  0  0
  149.5328  137.7627  153.7418 H   0  0  0  0  0  0  0  0  0  0  0  0
  149.5676  139.4890  153.4763 H   0  0  0  0  0  0  0  0  0  0  0  0
  148.9846  138.5326  156.2057 H   0  0  0  0  0  0  0  0  0  0  0  0
  150.0530  139.3730  157.8738 H   0  0  0  0  0  0  0  0  0  0  0  0
  151.7183  138.9405  157.6136 H   0  0  0  0  0  0  0  0  0  0  0  0
  150.3036  141.9730  156.2003 H   0  0  0  0  0  0  0  0  0  0  0  0
  150.9183  144.2111  156.7841 H   0  0  0  0  0  0  0  0  0  0  0  0
  154.2257  141.9086  160.3415 H   0  0  0  0  0  0  0  0  0  0  0  0
  152.8172  142.5781  161.2481 H   0  0  0  0  0  0  0  0  0  0  0  0
  153.9413  143.6523  160.3434 H   0  0  0  0  0  0  0  0  0  0  0  0
  147.9276  137.0454  152.9114 H   0  0  0  0  0  0  0  0  0  0  0  0
  1  2  1  0  0  0  0
  1 24  1  0  0  0  0
  1 25  1  0  0  0  0
  1 26  1  0  0  0  0
  2  3  1  0  0  0  0
  3  4  1  0  0  0  0
  3 27  1  0  0  0  0
  3 28  1  0  0  0  0
  4  5  1  0  0  0  0
  4 29  1  0  0  0  0
  4 30  1  0  0  0  0
  5  9  1  0  0  0  0
  5  6  1  0  0  0  0
  5 48  1  0  0  0  0
  6  7  1  0  0  0  0
  6 31  1  0  0  0  0
  6 32  1  0  0  0  0
  7  8  1  0  0  0  0
  7 33  1  0  0  0  0
  7 34  1  0  0  0  0
  8  9  1  0  0  0  0
  8 35  1  0  0  0  0
  8 36  1  0  0  0  0
  9 10  1  0  0  0  0
  9 37  1  0  0  0  0
 10 11  1  0  0  0  0
 10 38  1  0  0  0  0
 10 39  1  0  0  0  0
 11 12  1  0  0  0  0
 11 40  1  0  0  0  0
 12 13  2  0  0  0  0
 12 14  1  0  0  0  0
 14 15  1  0  0  0  0
 14 41  1  0  0  0  0
 14 42  1  0  0  0  0
 15 22  1  0  0  0  0
 15 16  1  0  0  0  0
 16 17  2  0  0  0  0
 16 43  1  0  0  0  0
 17 18  1  0  0  0  0
 17 44  1  0  0  0  0
 18 19  2  0  0  0  0
 18 20  1  0  0  0  0
 20 21  1  0  0  0  0
 20 22  1  0  0  0  0
 21 45  1  0  0  0  0
 21 46  1  0  0  0  0
 21 47  1  0  0  0  0
 22 23  2  0  0  0  0
M  CHG  1   5   1
M  END
> <s_m_source_file>
AV-unprocessed.smi

> <i_m_source_file_index>
1088

> <i_lp_mmshare_version>
43012

> <i_f3d_flags>
0

> <s_epik_input>
W0NIM11PW0NIMl1bQ0gyXU4xW0NIMl1bQ0gyXVtDSDJdW0NASF0xW0NIMl1bTkhdQyg9TylbQ0gyXW4yW2NIXVtjSF1jKD1PKW4oW0NIM10pYzI9Tw==

> <s_epik_cmdline>
J2VwaWtfcHl0aG9uJywgJy1waCcsICc3LjAnLCAnLXRuJywgJzgnLCAnLW1hJywgJzIwMCcsICctbWV0YWxfYmluZGluZycsICctaW1hZScsICc8aW5maWxlLm1hZT4nLCAnLW9tYWUnLCAnPG91dGZpbGUubWFlPic=

> <r_lp_tautomer_probability>
1

> <r_epik_Ionization_Penalty>
0.0127388

> <r_epik_Ionization_Penalty_Charging>
0.0127387

> <r_epik_Ionization_Penalty_Neutral>
8.26414e-08

> <r_epik_State_Penalty>
0.00987716

> <r_epik_Charging_Adjusted_Penalty>
0.0226159

> <i_epik_Tot_Q>
1

> <i_epik_Tot_abs_Q>
1

> <r_epik_Metal_State_Penalty>
0.00987836

> <b_epik_Metal_Only>
0

> <s_lp_Force_Field>
OPLS_2005

> <r_lp_Energy>
36.9775

> <b_lp_Chiralities_Consistent>
1

> <s_lp_Variant>
AV-unprocessed.smi:1088-4

> <Gold.Version>
5.8.1

> <Gold.Id.Protein>
6NUR|6NUR_protein|mol2

> <Gold.PLP.Fitness>
46.6034

> <Gold.PLP.PLP>
-40.9037

> <Gold.PLP.part.hbond>
-2.0000

> <Gold.PLP.part.metal>
0.0000

> <Gold.PLP.part.buried>
-0.3848

> <Gold.PLP.part.nonpolar>
-38.7412

> <Gold.PLP.part.repulsive>
0.2320

> <Gold.PLP.ligand.clash>
0.0000

> <Gold.PLP.ligand.torsion>
1.6779

> <Gold.PLP.Chemscore.Hbond>
3.0000

> <Gold.PLP.Chemscore.CHOScore>
0.0000

> <Gold.PLP.Chemscore.Metal>
0.0000

> <Gold.Chemscore.Hbonds>
donor molecule, donor type, donor heavy atom, donor atom, acceptor molecule, acceptor atom, score
      L1  H     5    48       P1  7948  2.00
      P1  H  7989  7998       L1    13  1.00

> <Gold.PLP.Chemscore.Internal.Correction>
0.0555

> <Gold.Rescore>
     Score         DG    S(hbond)    S(metal)    S(lipo)     H(rot)  DE(clash)    DE(int)     intcor
     12.65     -14.53       1.97        0.00      77.23       2.57       0.17       1.71       ----

> <Gold.Chemscore.Fitness>
12.6548

> <Gold.Chemscore.DG>
-14.5334

> <Gold.Chemscore.ZeroCoef>
-5.4800

> <Gold.Chemscore.Hbond>
1.9746

> <Gold.Chemscore.Metal>
0.0000

> <Gold.Chemscore.Lipo>
77.2260

> <Gold.Chemscore.Internal_Hbond>
0.0000

> <Gold.Chemscore.DEClash>
0.1702

> <Gold.Chemscore.DEInternal>
1.7085

> <Gold.Chemscore.Rot>
2.5692

> <Gold.Chemscore.Internal.Correction>
   9.000000E+99

> <Gold.Chemscore.Hbonds>
donor molecule, donor type, donor heavy atom, donor atom, acceptor molecule, acceptor atom, score
      L1  H     5    48       P1  7948  1.00
      P1  H  7989  7998       L1    13  0.98

> <Gold.Chemscore.Hbond.Weighted>
-6.5951

> <Gold.Chemscore.Metal.Weighted>
-0.0000

> <Gold.Chemscore.Lipo.Weighted>
-9.0354

> <Gold.Chemscore.Internal_Hbond.Weighted>
0.0000

> <Gold.Chemscore.DEClash.Weighted>
0.1702

> <Gold.Chemscore.DEInternal.Weighted>
1.7085

> <Gold.Chemscore.Rot.Weighted>
6.5772

> <Gold.Chemscore.Internal.Correction.Weighted>
   9.000000E+99

> <Gold.Protein.RotatedTorsions>
[ 6907 6896 6895 6894 ] final -111.90 input  -60.11 | X-H torsion
[ 7974 7965 7964 7962 ] final  -96.27 input  175.53 | X-H torsion
[ 8008 7997 7996 7995 ] final  101.82 input   59.86 | X-H torsion
[ 10167 10162 10161 10158 ] final  121.41 input  -65.29 | X-H torsion
[ 10718 10713 10712 10709 ] final  -59.00 input   66.30 | X-H torsion
[ 10763 10752 10751 10750 ] final -129.58 input  -60.55 | X-H torsion
[ 11005 11000 10999 10996 ] final  -65.06 input  -57.11 | X-H torsion

> <Gold.Protein.ActiveResidues>
 VAL166  LYS551  ARG553  GLY616  TRP617  ASP618  TYR619  PRO620  LYS621  CYS622 
 ASP623  PHE694  ASN695  SER759  ASP760  ASP761  ALA762  ILE779  LEU786  VAL792 
 PHE793  MET794  SER795  GLU796  ALA797  LYS798  CYS799  TRP800  GLU811  SER814 

> <Gold.Protein.RotatedAtoms>
  150.7721  133.9168  159.3385 H   0  0  0  0  0  0  0  0  0  0  0  0  # atno 6907 bound_to 6896
  151.7052  135.0921  160.0267 H   0  0  0  0  0  0  0  0  0  0  0  0  # atno 6908 bound_to 6896
  152.3743  133.6422  159.6147 H   0  0  0  0  0  0  0  0  0  0  0  0  # atno 6909 bound_to 6896
  145.3490  140.9473  143.2565 H   0  0  0  0  0  0  0  0  0  0  0  0  # atno 7974 bound_to 7965
  156.1335  140.3191  155.8385 H   0  0  0  0  0  0  0  0  0  0  0  0  # atno 8008 bound_to 7997
  155.4288  140.0517  157.3037 H   0  0  0  0  0  0  0  0  0  0  0  0  # atno 8009 bound_to 7997
  154.4918  140.2095  155.9545 H   0  0  0  0  0  0  0  0  0  0  0  0  # atno 8010 bound_to 7997
  139.5921  144.7029  151.3264 H   0  0  0  0  0  0  0  0  0  0  0  0  # atno 10167 bound_to 10162
  156.1094  130.4177  150.0654 H   0  0  0  0  0  0  0  0  0  0  0  0  # atno 10718 bound_to 10713
  154.8757  135.3890  154.3943 H   0  0  0  0  0  0  0  0  0  0  0  0  # atno 10763 bound_to 10752
  153.4675  135.7029  153.6018 H   0  0  0  0  0  0  0  0  0  0  0  0  # atno 10764 bound_to 10752
  153.4490  135.3838  155.2240 H   0  0  0  0  0  0  0  0  0  0  0  0  # atno 10765 bound_to 10752
  141.1443  133.6675  156.5929 H   0  0  0  0  0  0  0  0  0  0  0  0  # atno 11005 bound_to 11000
  144.8732  139.5009  143.6758 LP  0  0  0  0  0  0  0  0  0  0  0  0  # atno 17320 bound_to 7965
  146.2976  139.7325  142.9115 LP  0  0  0  0  0  0  0  0  0  0  0  0  # atno 17321 bound_to 7965
  140.7182  143.7208  150.7697 LP  0  0  0  0  0  0  0  0  0  0  0  0  # atno 17342 bound_to 10162
  140.0767  143.5009  152.2552 LP  0  0  0  0  0  0  0  0  0  0  0  0  # atno 17343 bound_to 10162
  156.8622  130.9495  151.3617 LP  0  0  0  0  0  0  0  0  0  0  0  0  # atno 17370 bound_to 10713
  157.6273  130.8702  149.9212 LP  0  0  0  0  0  0  0  0  0  0  0  0  # atno 17371 bound_to 10713
  140.3749  134.7574  157.4623 LP  0  0  0  0  0  0  0  0  0  0  0  0  # atno 17394 bound_to 11000
  140.0682  134.5900  155.8671 LP  0  0  0  0  0  0  0  0  0  0  0  0  # atno 17395 bound_to 11000

$$$$
