AV-unprocessed.smi:3185|AV-procd|sdf|12167|dock2
  -GOLD-   2272018 03D 1   1.00000     0.00000
 Structure written by MMmdl.
 38 39  0  0  0  0  0  0  0  0  2 V2000
  150.8774  132.2114  157.6167 N   0  0  0  0  0  0  0  0  0  0  0  0
  150.7287  132.3876  156.4833 C   0  0  0  0  0  0  0  0  0  0  0  0
  150.5392  132.6128  155.0426 C   0  0  0  0  0  0  0  0  0  0  0  0
  149.0631  132.5808  154.6304 C   0  0  0  0  0  0  0  0  0  0  0  0
  148.8745  132.8164  153.1276 C   0  0  0  0  0  0  0  0  0  0  0  0
  147.5716  133.4576  152.8547 N   0  3  0  0  0  0  0  0  0  0  0  0
  146.5817  132.6211  152.1359 C   0  0  2  0  0  0  0  0  0  0  0  0
  146.9227  132.5839  150.6291 C   0  0  0  0  0  0  0  0  0  0  0  0
  145.8975  131.7707  149.8250 C   0  0  0  0  0  0  0  0  0  0  0  0
  144.4704  132.2869  150.0548 C   0  0  0  0  0  0  0  0  0  0  0  0
  144.1130  132.2566  151.5491 C   0  0  0  0  0  0  0  0  0  0  0  0
  145.1093  133.0494  152.4225 C   0  0  2  0  0  0  0  0  0  0  0  0
  144.8622  134.4909  152.3570 N   0  0  0  0  0  0  0  0  0  0  0  0
  145.6196  135.4369  151.6950 C   0  0  0  0  0  0  0  0  0  0  0  0
  145.0451  136.6559  151.9131 C   0  0  0  0  0  0  0  0  0  0  0  0
  143.9345  136.3592  152.7491 C   0  0  0  0  0  0  0  0  0  0  0  0
  143.8321  135.0680  153.0160 N   0  0  0  0  0  0  0  0  0  0  0  0
  150.9855  133.5758  154.7931 H   0  0  0  0  0  0  0  0  0  0  0  0
  151.1017  131.8460  154.5093 H   0  0  0  0  0  0  0  0  0  0  0  0
  148.6348  131.6162  154.9060 H   0  0  0  0  0  0  0  0  0  0  0  0
  148.5140  133.3369  155.1931 H   0  0  0  0  0  0  0  0  0  0  0  0
  149.6774  133.4479  152.7452 H   0  0  0  0  0  0  0  0  0  0  0  0
  148.9348  131.8621  152.6044 H   0  0  0  0  0  0  0  0  0  0  0  0
  147.1610  133.7501  153.7305 H   0  0  0  0  0  0  0  0  0  0  0  0
  146.7014  131.6002  152.5028 H   0  0  0  0  0  0  0  0  0  0  0  0
  146.9845  133.5911  150.2185 H   0  0  0  0  0  0  0  0  0  0  0  0
  147.9130  132.1493  150.4891 H   0  0  0  0  0  0  0  0  0  0  0  0
  146.1414  131.8135  148.7629 H   0  0  0  0  0  0  0  0  0  0  0  0
  145.9569  130.7203  150.1128 H   0  0  0  0  0  0  0  0  0  0  0  0
  144.3727  133.2997  149.6634 H   0  0  0  0  0  0  0  0  0  0  0  0
  143.7632  131.6741  149.4949 H   0  0  0  0  0  0  0  0  0  0  0  0
  143.0992  132.6303  151.6980 H   0  0  0  0  0  0  0  0  0  0  0  0
  144.1005  131.2180  151.8819 H   0  0  0  0  0  0  0  0  0  0  0  0
  144.8899  132.7655  153.4525 H   0  0  0  0  0  0  0  0  0  0  0  0
  146.4966  135.1667  151.1250 H   0  0  0  0  0  0  0  0  0  0  0  0
  145.3733  137.6145  151.5393 H   0  0  0  0  0  0  0  0  0  0  0  0
  143.2066  137.0378  153.1686 H   0  0  0  0  0  0  0  0  0  0  0  0
  147.7451  134.2794  152.2938 H   0  0  0  0  0  0  0  0  0  0  0  0
  1  2  3  0  0  0  0
  2  3  1  0  0  0  0
  3  4  1  0  0  0  0
  3 18  1  0  0  0  0
  3 19  1  0  0  0  0
  4  5  1  0  0  0  0
  4 20  1  0  0  0  0
  4 21  1  0  0  0  0
  5  6  1  0  0  0  0
  5 22  1  0  0  0  0
  5 23  1  0  0  0  0
  6  7  1  0  0  0  0
  6 24  1  0  0  0  0
  6 38  1  0  0  0  0
  7 12  1  0  0  0  0
  7  8  1  0  0  0  0
  7 25  1  0  0  0  0
  8  9  1  0  0  0  0
  8 26  1  0  0  0  0
  8 27  1  0  0  0  0
  9 10  1  0  0  0  0
  9 28  1  0  0  0  0
  9 29  1  0  0  0  0
 10 11  1  0  0  0  0
 10 30  1  0  0  0  0
 10 31  1  0  0  0  0
 11 12  1  0  0  0  0
 11 32  1  0  0  0  0
 11 33  1  0  0  0  0
 12 13  1  0  0  0  0
 12 34  1  0  0  0  0
 13 17  1  0  0  0  0
 13 14  1  0  0  0  0
 14 15  2  0  0  0  0
 14 35  1  0  0  0  0
 15 16  1  0  0  0  0
 15 36  1  0  0  0  0
 16 17  2  0  0  0  0
 16 37  1  0  0  0  0
M  CHG  1   6   1
M  END
> <s_m_source_file>
AV-unprocessed.smi

> <i_m_source_file_index>
3185

> <i_lp_mmshare_version>
43012

> <i_f3d_flags>
0

> <s_epik_input>
TiNDW0NIMl1bQ0gyXVtDSDJdW05IXVtDQEBIXTFbQ0gyXVtDSDJdW0NIMl1bQ0gyXVtDQEhdMW4yW2NIXVtjSF1bY0hdbjI=

> <s_epik_cmdline>
J2VwaWtfcHl0aG9uJywgJy1waCcsICc3LjAnLCAnLXRuJywgJzgnLCAnLW1hJywgJzIwMCcsICctbWV0YWxfYmluZGluZycsICctaW1hZScsICc8aW5maWxlLm1hZT4nLCAnLW9tYWUnLCAnPG91dGZpbGUubWFlPic=

> <r_lp_tautomer_probability>
1

> <r_epik_Ionization_Penalty>
0.0143465

> <r_epik_Ionization_Penalty_Charging>
0.0143338

> <r_epik_Ionization_Penalty_Neutral>
1.27047e-05

> <r_epik_State_Penalty>
0.0112058

> <r_epik_Charging_Adjusted_Penalty>
0.0255397

> <i_epik_Tot_Q>
1

> <i_epik_Tot_abs_Q>
1

> <r_epik_Metal_State_Penalty>
0.0112253

> <b_epik_Metal_Only>
0

> <s_lp_Force_Field>
OPLS_2005

> <r_lp_Energy>
17.7884

> <b_lp_Chiralities_Consistent>
1

> <s_lp_Variant>
AV-unprocessed.smi:3185-3

> <Gold.Version>
5.8.1

> <Gold.Id.Protein>
6NUR|6NUR_protein|mol2

> <Gold.PLP.Fitness>
41.9579

> <Gold.PLP.PLP>
-30.1389

> <Gold.PLP.part.hbond>
-2.0000

> <Gold.PLP.part.metal>
0.0000

> <Gold.PLP.part.buried>
2.1935

> <Gold.PLP.part.nonpolar>
-29.8766

> <Gold.PLP.part.repulsive>
0.1035

> <Gold.PLP.ligand.clash>
0.0000

> <Gold.PLP.ligand.torsion>
1.2675

> <Gold.PLP.Chemscore.Hbond>
2.9840

> <Gold.PLP.Chemscore.CHOScore>
1.7440

> <Gold.PLP.Chemscore.Metal>
0.0000

> <Gold.Chemscore.Hbonds>
donor molecule, donor type, donor heavy atom, donor atom, acceptor molecule, acceptor atom, score
      L1  H     6    38       P1  7948  0.71
      P1  H  6896  6907       L1     1  1.00
      L1  C    14    35       P1  7948  0.41

> <Gold.PLP.Chemscore.Internal.Correction>
0.1700

> <Gold.Rescore>
     Score         DG    S(hbond)    S(metal)    S(lipo)     H(rot)  DE(clash)    DE(int)     intcor
     12.82     -15.91       1.80        0.00      78.87       1.88       1.74       1.35       ----

> <Gold.Chemscore.Fitness>
12.8215

> <Gold.Chemscore.DG>
-15.9108

> <Gold.Chemscore.ZeroCoef>
-5.4800

> <Gold.Chemscore.Hbond>
1.7987

> <Gold.Chemscore.Metal>
0.0000

> <Gold.Chemscore.Lipo>
78.8728

> <Gold.Chemscore.Internal_Hbond>
0.0000

> <Gold.Chemscore.DEClash>
1.7368

> <Gold.Chemscore.DEInternal>
1.3525

> <Gold.Chemscore.Rot>
1.8769

> <Gold.Chemscore.Internal.Correction>
   9.000000E+99

> <Gold.Chemscore.Hbonds>
donor molecule, donor type, donor heavy atom, donor atom, acceptor molecule, acceptor atom, score
      L1  H     6    38       P1  7948  0.13
      P1  H  6896  6907       L1     1  0.93

> <Gold.Chemscore.Hbond.Weighted>
-6.0076

> <Gold.Chemscore.Metal.Weighted>
-0.0000

> <Gold.Chemscore.Lipo.Weighted>
-9.2281

> <Gold.Chemscore.Internal_Hbond.Weighted>
0.0000

> <Gold.Chemscore.DEClash.Weighted>
1.7368

> <Gold.Chemscore.DEInternal.Weighted>
1.3525

> <Gold.Chemscore.Rot.Weighted>
4.8049

> <Gold.Chemscore.Internal.Correction.Weighted>
   9.000000E+99

> <Gold.Protein.RotatedTorsions>
[ 6907 6896 6895 6894 ] final -165.05 input  -60.11 | X-H torsion
[ 7974 7965 7964 7962 ] final   51.43 input  175.53 | X-H torsion
[ 8008 7997 7996 7995 ] final   -6.88 input   59.86 | X-H torsion
[ 10167 10162 10161 10158 ] final   71.56 input  -65.29 | X-H torsion
[ 10718 10713 10712 10709 ] final   56.58 input   66.30 | X-H torsion
[ 10763 10752 10751 10750 ] final  111.41 input  -60.55 | X-H torsion
[ 11005 11000 10999 10996 ] final   51.40 input  -57.11 | X-H torsion

> <Gold.Protein.ActiveResidues>
 VAL166  LYS551  ARG553  GLY616  TRP617  ASP618  TYR619  PRO620  LYS621  CYS622 
 ASP623  PHE694  ASN695  SER759  ASP760  ASP761  ALA762  ILE779  LEU786  VAL792 
 PHE793  MET794  SER795  GLU796  ALA797  LYS798  CYS799  TRP800  GLU811  SER814 

> <Gold.Protein.RotatedAtoms>
  151.4215  133.3697  159.2756 H   0  0  0  0  0  0  0  0  0  0  0  0  # atno 6907 bound_to 6896
  150.9290  134.8707  159.7549 H   0  0  0  0  0  0  0  0  0  0  0  0  # atno 6908 bound_to 6896
  152.5019  134.4159  159.9516 H   0  0  0  0  0  0  0  0  0  0  0  0  # atno 6909 bound_to 6896
  145.9914  139.4343  143.0071 H   0  0  0  0  0  0  0  0  0  0  0  0  # atno 7974 bound_to 7965
  154.5894  140.2421  155.7942 H   0  0  0  0  0  0  0  0  0  0  0  0  # atno 8008 bound_to 7997
  156.2236  140.2990  155.9967 H   0  0  0  0  0  0  0  0  0  0  0  0  # atno 8009 bound_to 7997
  155.2401  140.0407  157.2964 H   0  0  0  0  0  0  0  0  0  0  0  0  # atno 8010 bound_to 7997
  140.0447  144.5360  150.7407 H   0  0  0  0  0  0  0  0  0  0  0  0  # atno 10167 bound_to 10162
  157.5443  130.8720  149.8868 H   0  0  0  0  0  0  0  0  0  0  0  0  # atno 10718 bound_to 10713
  153.4630  135.3718  155.2349 H   0  0  0  0  0  0  0  0  0  0  0  0  # atno 10763 bound_to 10752
  154.8757  135.3913  154.3902 H   0  0  0  0  0  0  0  0  0  0  0  0  # atno 10764 bound_to 10752
  153.4478  135.7085  153.6192 H   0  0  0  0  0  0  0  0  0  0  0  0  # atno 10765 bound_to 10752
  140.0936  134.5176  155.8828 H   0  0  0  0  0  0  0  0  0  0  0  0  # atno 11005 bound_to 11000
  145.7624  140.9930  143.1193 LP  0  0  0  0  0  0  0  0  0  0  0  0  # atno 17320 bound_to 7965
  144.6890  139.9347  143.7473 LP  0  0  0  0  0  0  0  0  0  0  0  0  # atno 17321 bound_to 7965
  140.7244  143.2621  151.4170 LP  0  0  0  0  0  0  0  0  0  0  0  0  # atno 17342 bound_to 10162
  139.5991  144.1334  152.2178 LP  0  0  0  0  0  0  0  0  0  0  0  0  # atno 17343 bound_to 10162
  156.0522  130.3715  150.1173 LP  0  0  0  0  0  0  0  0  0  0  0  0  # atno 17370 bound_to 10713
  156.9351  130.9726  151.3526 LP  0  0  0  0  0  0  0  0  0  0  0  0  # atno 17371 bound_to 10713
  141.2085  133.6674  156.6377 LP  0  0  0  0  0  0  0  0  0  0  0  0  # atno 17394 bound_to 11000
  140.3318  134.7922  157.4332 LP  0  0  0  0  0  0  0  0  0  0  0  0  # atno 17395 bound_to 11000

$$$$
