AV-unprocessed.smi:1976|AV-procd|sdf|7985|dock10
  -GOLD-   2272010163D 1   1.00000     0.00000
 Structure written by MMmdl.
 45 47  0  0  0  0  0  0  0  0  2 V2000
  149.4833  133.8390  158.0721 O   0  0  0  0  0  0  0  0  0  0  0  0
  148.6747  134.7506  157.8934 C   0  0  0  0  0  0  0  0  0  0  0  0
  148.4086  135.7947  158.9866 C   0  0  0  0  0  0  0  0  0  0  0  0
  147.9120  135.2006  160.2387 N   0  0  0  0  0  0  0  0  0  0  0  0
  147.8225  133.7955  160.2793 C   0  0  0  0  0  0  0  0  0  0  0  0
  147.4076  133.1178  161.3662 C   0  0  0  0  0  0  0  0  0  0  0  0
  147.2837  131.6021  161.3583 C   0  0  0  0  0  0  0  0  0  0  0  0
  148.4819  131.0188  161.3193 F   0  0  0  0  0  0  0  0  0  0  0  0
  146.6422  131.1702  162.4447 F   0  0  0  0  0  0  0  0  0  0  0  0
  146.5938  131.2098  160.2882 F   0  0  0  0  0  0  0  0  0  0  0  0
  147.0134  133.9146  162.5114 C   0  0  0  0  0  0  0  0  0  0  0  0
  147.0900  135.2597  162.4883 C   0  0  0  0  0  0  0  0  0  0  0  0
  147.5712  135.9809  161.3078 C   0  0  0  0  0  0  0  0  0  0  0  0
  147.6632  137.2082  161.2822 O   0  0  0  0  0  0  0  0  0  0  0  0
  147.9844  134.9037  156.7530 N   0  0  0  0  0  0  0  0  0  0  0  0
  148.0643  134.0175  155.5955 C   0  0  2  0  0  0  0  0  0  0  0  0
  149.4888  133.8180  155.0911 C   0  0  0  0  0  0  0  0  0  0  0  0
  149.2595  133.3059  153.6676 C   0  0  0  0  0  0  0  0  0  0  0  0
  148.0268  133.9717  153.1861 N   0  3  1  0  0  0  0  0  0  0  0  0
  147.1701  133.1264  152.3190 C   0  0  0  0  0  0  0  0  0  0  0  0
  145.9309  133.9077  151.8427 C   0  0  0  0  0  0  0  0  0  0  0  0
  145.2008  134.6438  152.9852 C   0  0  0  0  0  0  0  0  0  0  0  0
  145.8142  134.3413  154.3602 C   0  0  0  0  0  0  0  0  0  0  0  0
  147.3415  134.5832  154.3602 C   0  0  1  0  0  0  0  0  0  0  0  0
  149.3251  136.3631  159.1536 H   0  0  0  0  0  0  0  0  0  0  0  0
  147.6863  136.5251  158.6182 H   0  0  0  0  0  0  0  0  0  0  0  0
  148.1213  133.3009  159.3662 H   0  0  0  0  0  0  0  0  0  0  0  0
  146.6546  133.4267  163.4056 H   0  0  0  0  0  0  0  0  0  0  0  0
  146.7908  135.8216  163.3611 H   0  0  0  0  0  0  0  0  0  0  0  0
  147.3514  135.6878  156.6864 H   0  0  0  0  0  0  0  0  0  0  0  0
  147.6579  133.0346  155.8446 H   0  0  0  0  0  0  0  0  0  0  0  0
  150.0223  134.7697  155.0637 H   0  0  0  0  0  0  0  0  0  0  0  0
  150.0651  133.1231  155.7029 H   0  0  0  0  0  0  0  0  0  0  0  0
  150.1045  133.5092  153.0094 H   0  0  0  0  0  0  0  0  0  0  0  0
  149.1127  132.2248  153.6955 H   0  0  0  0  0  0  0  0  0  0  0  0
  147.7468  132.7833  151.4593 H   0  0  0  0  0  0  0  0  0  0  0  0
  146.8631  132.2339  152.8668 H   0  0  0  0  0  0  0  0  0  0  0  0
  146.2301  134.6346  151.0868 H   0  0  0  0  0  0  0  0  0  0  0  0
  145.2437  133.2236  151.3440 H   0  0  0  0  0  0  0  0  0  0  0  0
  145.2478  135.7186  152.8055 H   0  0  0  0  0  0  0  0  0  0  0  0
  144.1416  134.3849  152.9845 H   0  0  0  0  0  0  0  0  0  0  0  0
  145.3352  134.9604  155.1191 H   0  0  0  0  0  0  0  0  0  0  0  0
  145.5965  133.3077  154.6324 H   0  0  0  0  0  0  0  0  0  0  0  0
  147.5298  135.6560  154.2912 H   0  0  0  0  0  0  0  0  0  0  0  0
  148.3241  134.7492  152.6141 H   0  0  0  0  0  0  0  0  0  0  0  0
  1  2  2  0  0  0  0
  2  3  1  0  0  0  0
  2 15  1  0  0  0  0
  3  4  1  0  0  0  0
  3 25  1  0  0  0  0
  3 26  1  0  0  0  0
  4 13  1  0  0  0  0
  4  5  1  0  0  0  0
  5  6  2  0  0  0  0
  5 27  1  0  0  0  0
  6  7  1  0  0  0  0
  6 11  1  0  0  0  0
  7  8  1  0  0  0  0
  7  9  1  0  0  0  0
  7 10  1  0  0  0  0
 11 12  2  0  0  0  0
 11 28  1  0  0  0  0
 12 13  1  0  0  0  0
 12 29  1  0  0  0  0
 13 14  2  0  0  0  0
 15 16  1  0  0  0  0
 15 30  1  0  0  0  0
 16 24  1  0  0  0  0
 16 17  1  0  0  0  0
 16 31  1  0  0  0  0
 17 18  1  0  0  0  0
 17 32  1  0  0  0  0
 17 33  1  0  0  0  0
 18 19  1  0  0  0  0
 18 34  1  0  0  0  0
 18 35  1  0  0  0  0
 19 24  1  0  0  0  0
 19 20  1  0  0  0  0
 19 45  1  0  0  0  0
 20 21  1  0  0  0  0
 20 36  1  0  0  0  0
 20 37  1  0  0  0  0
 21 22  1  0  0  0  0
 21 38  1  0  0  0  0
 21 39  1  0  0  0  0
 22 23  1  0  0  0  0
 22 40  1  0  0  0  0
 22 41  1  0  0  0  0
 23 24  1  0  0  0  0
 23 42  1  0  0  0  0
 23 43  1  0  0  0  0
 24 44  1  0  0  0  0
M  CHG  1  19   1
M  END
> <s_m_source_file>
AV-unprocessed.smi

> <i_m_source_file_index>
1976

> <i_lp_mmshare_version>
43012

> <i_f3d_flags>
0

> <s_epik_input>
W0NIMl0xW0NIMl1bQ0gyXVtDSDJdW0NASF0oTjEyKVtDQEBIXShbQ0gyXVtDSDJdMilbTkhdQyg9TylbQ0gyXW4zW2NIXWMoQyhGKShGKUYpW2NIXVtjSF1jMz1P

> <s_epik_cmdline>
J2VwaWtfcHl0aG9uJywgJy1waCcsICc3LjAnLCAnLXRuJywgJzgnLCAnLW1hJywgJzIwMCcsICctbWV0YWxfYmluZGluZycsICctaW1hZScsICc8aW5maWxlLm1hZT4nLCAnLW9tYWUnLCAnPG91dGZpbGUubWFlPic=

> <r_lp_tautomer_probability>
1

> <r_epik_Ionization_Penalty>
0.00171506

> <r_epik_Ionization_Penalty_Charging>
0.00171498

> <r_epik_Ionization_Penalty_Neutral>
7.81737e-08

> <r_epik_State_Penalty>
0.00115937

> <r_epik_Charging_Adjusted_Penalty>
0.00287436

> <i_epik_Tot_Q>
1

> <i_epik_Tot_abs_Q>
1

> <r_epik_Metal_State_Penalty>
-0

> <b_epik_Metal_Only>
0

> <s_lp_Force_Field>
OPLS_2005

> <r_lp_Energy>
51.6

> <b_lp_Chiralities_Consistent>
1

> <s_lp_Variant>
AV-unprocessed.smi:1976-3

> <Gold.Version>
5.8.1

> <Gold.Id.Protein>
6NUR|6NUR_protein|mol2

> <Gold.PLP.Fitness>
47.9213

> <Gold.PLP.PLP>
-35.5236

> <Gold.PLP.part.hbond>
-4.0000

> <Gold.PLP.part.metal>
0.0000

> <Gold.PLP.part.buried>
-4.1823

> <Gold.PLP.part.nonpolar>
-27.4990

> <Gold.PLP.part.repulsive>
0.0079

> <Gold.PLP.ligand.clash>
1.5325

> <Gold.PLP.ligand.torsion>
0.2886

> <Gold.PLP.Chemscore.Hbond>
4.8240

> <Gold.PLP.Chemscore.CHOScore>
0.0000

> <Gold.PLP.Chemscore.Metal>
0.0000

> <Gold.Chemscore.Hbonds>
donor molecule, donor type, donor heavy atom, donor atom, acceptor molecule, acceptor atom, score
      L1  H    19    45       P1  7948  2.00
      P1  H  6896  6909       L1     1  1.00
      P1  H  6931  6943       L1    14  0.94
      P1  H  6934  6947       L1    14  0.85

> <Gold.PLP.Chemscore.Internal.Correction>
0.0355

> <Gold.Rescore>
     Score         DG    S(hbond)    S(metal)    S(lipo)     H(rot)  DE(clash)    DE(int)     intcor
     17.93     -21.44       3.62        0.00      67.65       1.58       0.74       2.78       ----

> <Gold.Chemscore.Fitness>
17.9277

> <Gold.Chemscore.DG>
-21.4428

> <Gold.Chemscore.ZeroCoef>
-5.4800

> <Gold.Chemscore.Hbond>
3.6229

> <Gold.Chemscore.Metal>
0.0000

> <Gold.Chemscore.Lipo>
67.6465

> <Gold.Chemscore.Internal_Hbond>
0.0000

> <Gold.Chemscore.DEClash>
0.7377

> <Gold.Chemscore.DEInternal>
2.7774

> <Gold.Chemscore.Rot>
1.5830

> <Gold.Chemscore.Internal.Correction>
   9.000000E+99

> <Gold.Chemscore.Hbonds>
donor molecule, donor type, donor heavy atom, donor atom, acceptor molecule, acceptor atom, score
      L1  H    19    45       P1  7948  0.40
      P1  H  6896  6909       L1     1  0.95
      P1  H  6931  6943       L1    14  0.91
      P1  H  6934  6947       L1    14  0.83

> <Gold.Chemscore.Hbond.Weighted>
-12.1005

> <Gold.Chemscore.Metal.Weighted>
-0.0000

> <Gold.Chemscore.Lipo.Weighted>
-7.9146

> <Gold.Chemscore.Internal_Hbond.Weighted>
0.0000

> <Gold.Chemscore.DEClash.Weighted>
0.7377

> <Gold.Chemscore.DEInternal.Weighted>
2.7774

> <Gold.Chemscore.Rot.Weighted>
4.0524

> <Gold.Chemscore.Internal.Correction.Weighted>
   9.000000E+99

> <Gold.Protein.RotatedTorsions>
[ 6907 6896 6895 6894 ] final   -8.57 input  -60.11 | X-H torsion
[ 7974 7965 7964 7962 ] final  -56.07 input  175.53 | X-H torsion
[ 8008 7997 7996 7995 ] final  -35.78 input   59.86 | X-H torsion
[ 10167 10162 10161 10158 ] final  -56.55 input  -65.29 | X-H torsion
[ 10718 10713 10712 10709 ] final  140.80 input   66.30 | X-H torsion
[ 10763 10752 10751 10750 ] final   25.15 input  -60.55 | X-H torsion
[ 11005 11000 10999 10996 ] final   43.23 input  -57.11 | X-H torsion

> <Gold.Protein.ActiveResidues>
 VAL166  LYS551  ARG553  GLY616  TRP617  ASP618  TYR619  PRO620  LYS621  CYS622 
 ASP623  PHE694  ASN695  SER759  ASP760  ASP761  ALA762  ILE779  LEU786  VAL792 
 PHE793  MET794  SER795  GLU796  ALA797  LYS798  CYS799  TRP800  GLU811  SER814 

> <Gold.Protein.RotatedAtoms>
  151.4315  135.1010  159.9643 H   0  0  0  0  0  0  0  0  0  0  0  0  # atno 6907 bound_to 6896
  152.4954  133.8613  159.7262 H   0  0  0  0  0  0  0  0  0  0  0  0  # atno 6908 bound_to 6896
  150.9152  133.6890  159.2873 H   0  0  0  0  0  0  0  0  0  0  0  0  # atno 6909 bound_to 6896
  145.8669  140.8244  142.9908 H   0  0  0  0  0  0  0  0  0  0  0  0  # atno 7974 bound_to 7965
  154.4087  140.1648  156.2267 H   0  0  0  0  0  0  0  0  0  0  0  0  # atno 8008 bound_to 7997
  155.9318  140.3414  155.6232 H   0  0  0  0  0  0  0  0  0  0  0  0  # atno 8009 bound_to 7997
  155.7097  140.0755  157.2367 H   0  0  0  0  0  0  0  0  0  0  0  0  # atno 8010 bound_to 7997
  140.6310  143.2459  151.5240 H   0  0  0  0  0  0  0  0  0  0  0  0  # atno 10167 bound_to 10162
  157.3992  131.1014  151.0569 H   0  0  0  0  0  0  0  0  0  0  0  0  # atno 10718 bound_to 10713
  153.0712  135.6589  154.0243 H   0  0  0  0  0  0  0  0  0  0  0  0  # atno 10763 bound_to 10752
  153.9888  135.2948  155.3415 H   0  0  0  0  0  0  0  0  0  0  0  0  # atno 10764 bound_to 10752
  154.7087  135.5214  153.8704 H   0  0  0  0  0  0  0  0  0  0  0  0  # atno 10765 bound_to 10752
  140.1664  134.4276  155.8284 H   0  0  0  0  0  0  0  0  0  0  0  0  # atno 11005 bound_to 11000
  144.6726  140.1181  143.7451 LP  0  0  0  0  0  0  0  0  0  0  0  0  # atno 17320 bound_to 7965
  145.9182  139.2529  143.1397 LP  0  0  0  0  0  0  0  0  0  0  0  0  # atno 17321 bound_to 7965
  139.5524  144.2361  152.1554 LP  0  0  0  0  0  0  0  0  0  0  0  0  # atno 17342 bound_to 10162
  140.1604  144.5031  150.6636 LP  0  0  0  0  0  0  0  0  0  0  0  0  # atno 17343 bound_to 10162
  157.1574  130.6211  149.5600 LP  0  0  0  0  0  0  0  0  0  0  0  0  # atno 17370 bound_to 10713
  155.9818  130.4828  150.6850 LP  0  0  0  0  0  0  0  0  0  0  0  0  # atno 17371 bound_to 10713
  141.2214  133.6936  156.7686 LP  0  0  0  0  0  0  0  0  0  0  0  0  # atno 17394 bound_to 11000
  140.2428  134.8600  157.3590 LP  0  0  0  0  0  0  0  0  0  0  0  0  # atno 17395 bound_to 11000

$$$$
