AV-unprocessed.smi:41|AV-procd|sdf|383|dock3
  -GOLD-   2262016243D 1   1.00000     0.00000
 Structure written by MMmdl.
 26 27  0  0  0  0  0  0  0  0  1 V2000
  148.9640  138.8826  153.2249 N   0  0  0  0  0  0  0  0  0  0  0  0
  149.6638  139.5644  154.1434 C   0  0  0  0  0  0  0  0  0  0  0  0
  150.7966  139.0585  154.5909 N   0  0  0  0  0  0  0  0  0  0  0  0
  151.5795  139.6790  155.5293 C   0  0  0  0  0  0  0  0  0  0  0  0
  152.6375  139.1670  155.8926 O   0  0  0  0  0  0  0  0  0  0  0  0
  151.1182  140.9118  156.0569 N   0  0  0  0  0  0  0  0  0  0  0  0
  151.9224  141.6592  157.0205 C   0  0  2  0  0  0  0  0  0  0  0  0
  152.2034  140.8986  158.3365 C   0  0  0  0  0  0  0  0  0  0  0  0
  152.3642  142.1434  159.6298 S   0  0  0  0  0  0  0  0  0  0  0  0
  151.9864  143.4316  158.4244 C   0  0  2  0  0  0  0  0  0  0  0  0
  151.1287  144.5431  159.0463 C   0  0  0  0  0  0  0  0  0  0  0  0
  151.8488  145.1975  160.0689 O   0  0  0  0  0  0  0  0  0  0  0  0
  151.2788  142.8507  157.3420 O   0  0  0  0  0  0  0  0  0  0  0  0
  149.9442  141.4673  155.5633 C   0  0  0  0  0  0  0  0  0  0  0  0
  149.1933  140.8397  154.6330 C   0  0  0  0  0  0  0  0  0  0  0  0
  148.0535  141.3874  154.1767 F   0  0  0  0  0  0  0  0  0  0  0  0
  152.8776  141.9369  156.5718 H   0  0  0  0  0  0  0  0  0  0  0  0
  152.9379  143.8326  158.0698 H   0  0  0  0  0  0  0  0  0  0  0  0
  148.0980  139.2609  152.8688 H   0  0  0  0  0  0  0  0  0  0  0  0
  149.3036  137.9916  152.8925 H   0  0  0  0  0  0  0  0  0  0  0  0
  151.3912  140.2280  158.6091 H   0  0  0  0  0  0  0  0  0  0  0  0
  153.1128  140.3062  158.2353 H   0  0  0  0  0  0  0  0  0  0  0  0
  150.7979  145.2590  158.2931 H   0  0  0  0  0  0  0  0  0  0  0  0
  150.2345  144.1188  159.5038 H   0  0  0  0  0  0  0  0  0  0  0  0
  151.6189  144.8049  160.8972 H   0  0  0  0  0  0  0  0  0  0  0  0
  149.6087  142.4328  155.9122 H   0  0  0  0  0  0  0  0  0  0  0  0
  1  2  1  0  0  0  0
  1 19  1  0  0  0  0
  1 20  1  0  0  0  0
  2 15  1  0  0  0  0
  2  3  2  0  0  0  0
  3  4  1  0  0  0  0
  4  5  2  0  0  0  0
  4  6  1  0  0  0  0
  6  7  1  0  0  0  0
  6 14  1  0  0  0  0
  7 17  1  0  0  0  0
  7 13  1  0  0  0  0
  7  8  1  0  0  0  0
  8  9  1  0  0  0  0
  8 21  1  0  0  0  0
  8 22  1  0  0  0  0
  9 10  1  0  0  0  0
 10 18  1  0  0  0  0
 10 11  1  0  0  0  0
 10 13  1  0  0  0  0
 11 12  1  0  0  0  0
 11 23  1  0  0  0  0
 11 24  1  0  0  0  0
 12 25  1  0  0  0  0
 14 15  2  0  0  0  0
 14 26  1  0  0  0  0
 15 16  1  0  0  0  0
M  END
> <s_m_source_file>
AV-unprocessed.smi

> <i_m_source_file_index>
41

> <i_lp_mmshare_version>
43012

> <i_f3d_flags>
0

> <s_epik_input>
W05IMl1jMW5jKD1PKW4oW2NIXWMxRilbQ0BASF0yW0NIMl1TW0NAQEhdKE8yKVtDSDJdW09IXQ==

> <s_epik_cmdline>
J2VwaWtfcHl0aG9uJywgJy1waCcsICc3LjAnLCAnLXRuJywgJzgnLCAnLW1hJywgJzIwMCcsICctbWV0YWxfYmluZGluZycsICctaW1hZScsICc8aW5maWxlLm1hZT4nLCAnLW9tYWUnLCAnPG91dGZpbGUubWFlPic=

> <r_lp_tautomer_probability>
1

> <r_epik_Ionization_Penalty>
0.000101883

> <r_epik_Ionization_Penalty_Charging>
1.48607e-08

> <r_epik_Ionization_Penalty_Neutral>
0.000101868

> <r_epik_State_Penalty>
-0

> <r_epik_Charging_Adjusted_Penalty>
1.48607e-08

> <i_epik_Tot_Q>
0

> <i_epik_Tot_abs_Q>
0

> <r_epik_Metal_State_Penalty>
-0

> <b_epik_Metal_Only>
0

> <s_epik_Chemistry_Notes>
This compound contains an acetal/aminal-like group ( X-CH(R)-Y where X, Y are N, S, or O) that may be acid/base labile, releasing an aldehyde.

> <s_lp_Force_Field>
OPLS_2005

> <r_lp_Energy>
14.7883

> <b_lp_Chiralities_Consistent>
1

> <s_lp_Variant>
AV-unprocessed.smi:41-1

> <Gold.Version>
5.8.1

> <Gold.Id.Protein>
6NUR|6NUR_protein|mol2

> <Gold.PLP.Fitness>
41.7199

> <Gold.PLP.PLP>
-32.7408

> <Gold.PLP.part.hbond>
-2.9325

> <Gold.PLP.part.metal>
0.0000

> <Gold.PLP.part.buried>
-5.2319

> <Gold.PLP.part.nonpolar>
-25.4267

> <Gold.PLP.part.repulsive>
0.3307

> <Gold.PLP.ligand.clash>
0.0000

> <Gold.PLP.ligand.torsion>
0.0275

> <Gold.PLP.Chemscore.Hbond>
2.0000

> <Gold.PLP.Chemscore.CHOScore>
1.0000

> <Gold.PLP.Chemscore.Metal>
0.0000

> <Gold.Chemscore.Hbonds>
donor molecule, donor type, donor heavy atom, donor atom, acceptor molecule, acceptor atom, score
      L1  H     1    20       P1  7948  0.98
      P1  H  7997  8008       L1     5  1.00
      L1  C    14    26       P1  8028  1.00

> <Gold.PLP.Chemscore.Internal.Correction>
0.0340

> <Gold.Rescore>
     Score         DG    S(hbond)    S(metal)    S(lipo)     H(rot)  DE(clash)    DE(int)     intcor
     11.31     -12.64       1.92        0.00      54.26       2.19       1.27       0.06       ----

> <Gold.Chemscore.Fitness>
11.3139

> <Gold.Chemscore.DG>
-12.6394

> <Gold.Chemscore.ZeroCoef>
-5.4800

> <Gold.Chemscore.Hbond>
1.9234

> <Gold.Chemscore.Metal>
0.0000

> <Gold.Chemscore.Lipo>
54.2637

> <Gold.Chemscore.Internal_Hbond>
0.0000

> <Gold.Chemscore.DEClash>
1.2668

> <Gold.Chemscore.DEInternal>
0.0586

> <Gold.Chemscore.Rot>
2.1929

> <Gold.Chemscore.Internal.Correction>
   9.000000E+99

> <Gold.Chemscore.Hbonds>
donor molecule, donor type, donor heavy atom, donor atom, acceptor molecule, acceptor atom, score
      L1  H     1    20       P1  7948  0.82
      P1  H  7997  8008       L1     5  0.96

> <Gold.Chemscore.Hbond.Weighted>
-6.4242

> <Gold.Chemscore.Metal.Weighted>
-0.0000

> <Gold.Chemscore.Lipo.Weighted>
-6.3489

> <Gold.Chemscore.Internal_Hbond.Weighted>
0.0000

> <Gold.Chemscore.DEClash.Weighted>
1.2668

> <Gold.Chemscore.DEInternal.Weighted>
0.0586

> <Gold.Chemscore.Rot.Weighted>
5.6137

> <Gold.Chemscore.Internal.Correction.Weighted>
   9.000000E+99

> <Gold.Protein.RotatedTorsions>
[ 6907 6896 6895 6894 ] final  173.20 input  -60.11 | X-H torsion
[ 7974 7965 7964 7962 ] final   24.72 input  175.53 | X-H torsion
[ 8008 7997 7996 7995 ] final  -30.90 input   59.86 | X-H torsion
[ 10167 10162 10161 10158 ] final  -90.87 input  -65.29 | X-H torsion
[ 10718 10713 10712 10709 ] final  111.87 input   66.30 | X-H torsion
[ 10763 10752 10751 10750 ] final  110.02 input  -60.55 | X-H torsion
[ 11005 11000 10999 10996 ] final   59.13 input  -57.11 | X-H torsion

> <Gold.Protein.ActiveResidues>
 VAL166  LYS551  ARG553  GLY616  TRP617  ASP618  TYR619  PRO620  LYS621  CYS622 
 ASP623  PHE694  ASN695  SER759  ASP760  ASP761  ALA762  ILE779  LEU786  VAL792 
 PHE793  MET794  SER795  GLU796  ALA797  LYS798  CYS799  TRP800  GLU811  SER814 

> <Gold.Protein.RotatedAtoms>
  151.7721  133.3342  159.3447 H   0  0  0  0  0  0  0  0  0  0  0  0  # atno 6907 bound_to 6896
  150.7457  134.6008  159.6045 H   0  0  0  0  0  0  0  0  0  0  0  0  # atno 6908 bound_to 6896
  152.3334  134.7232  160.0335 H   0  0  0  0  0  0  0  0  0  0  0  0  # atno 6909 bound_to 6896
  146.1924  139.7566  142.8822 H   0  0  0  0  0  0  0  0  0  0  0  0  # atno 7974 bound_to 7965
  154.4233  140.1779  156.1481 H   0  0  0  0  0  0  0  0  0  0  0  0  # atno 8008 bound_to 7997
  155.9937  140.3366  155.6753 H   0  0  0  0  0  0  0  0  0  0  0  0  # atno 8009 bound_to 7997
  155.6337  140.0672  157.2631 H   0  0  0  0  0  0  0  0  0  0  0  0  # atno 8010 bound_to 7997
  140.3506  143.2893  151.9730 H   0  0  0  0  0  0  0  0  0  0  0  0  # atno 10167 bound_to 10162
  157.6422  131.0958  150.6813 H   0  0  0  0  0  0  0  0  0  0  0  0  # atno 10718 bound_to 10713
  153.4431  135.3761  155.2239 H   0  0  0  0  0  0  0  0  0  0  0  0  # atno 10763 bound_to 10752
  154.8754  135.3867  154.4129 H   0  0  0  0  0  0  0  0  0  0  0  0  # atno 10764 bound_to 10752
  153.4677  135.7087  153.6075 H   0  0  0  0  0  0  0  0  0  0  0  0  # atno 10765 bound_to 10752
  140.0327  134.5989  155.9486 H   0  0  0  0  0  0  0  0  0  0  0  0  # atno 11005 bound_to 11000
  145.3751  141.0349  143.3209 LP  0  0  0  0  0  0  0  0  0  0  0  0  # atno 17320 bound_to 7965
  144.8512  139.5318  143.6855 LP  0  0  0  0  0  0  0  0  0  0  0  0  # atno 17321 bound_to 7965
  139.4827  144.6079  151.7488 LP  0  0  0  0  0  0  0  0  0  0  0  0  # atno 17342 bound_to 10162
  140.5222  144.0861  150.6026 LP  0  0  0  0  0  0  0  0  0  0  0  0  # atno 17343 bound_to 10162
  156.7135  130.4659  149.5541 LP  0  0  0  0  0  0  0  0  0  0  0  0  # atno 17370 bound_to 10713
  156.1714  130.6439  151.0841 LP  0  0  0  0  0  0  0  0  0  0  0  0  # atno 17371 bound_to 10713
  141.1840  133.6552  156.5138 LP  0  0  0  0  0  0  0  0  0  0  0  0  # atno 17394 bound_to 11000
  140.4199  134.7196  157.4884 LP  0  0  0  0  0  0  0  0  0  0  0  0  # atno 17395 bound_to 11000

$$$$
