AV-unprocessed.smi:3218|AV-procd|sdf|12293|dock9
  -GOLD-   2272018133D 1   1.00000     0.00000
 Structure written by MMmdl.
 38 39  0  0  0  0  0  0  0  0  2 V2000
  144.9363  132.0273  150.2724 C   0  0  0  0  0  0  0  0  0  0  0  0
  144.7859  133.3928  150.8793 C   0  0  0  0  0  0  0  0  0  0  0  0
  143.8259  133.8209  151.8397 C   0  0  0  0  0  0  0  0  0  0  0  0
  143.9645  135.0941  152.1732 N   0  0  0  0  0  0  0  0  0  0  0  0
  145.0126  135.5228  151.4383 N   0  0  0  0  0  0  0  0  0  0  0  0
  145.4608  136.8989  151.5519 C   0  0  0  0  0  0  0  0  0  0  0  0
  145.8607  137.2652  152.9901 C   0  0  0  0  0  0  0  0  0  0  0  0
  146.9021  138.3122  153.0183 N   0  3  0  0  0  0  0  0  0  0  0  0
  147.2180  138.8116  154.3698 C   0  0  0  0  0  0  0  0  0  0  0  0
  148.0128  140.1249  154.2986 C   0  0  0  0  0  0  0  0  0  0  0  0
  149.1750  140.0999  155.1828 N   0  0  0  0  0  0  0  0  0  0  0  0
  150.1682  139.0442  155.0778 C   0  0  0  0  0  0  0  0  0  0  0  0
  151.1048  139.2576  156.2757 C   0  0  0  0  0  0  0  0  0  0  0  0
  150.7856  140.6576  156.8115 C   0  0  0  0  0  0  0  0  0  0  0  0
  149.4869  141.0147  156.1087 C   0  0  0  0  0  0  0  0  0  0  0  0
  148.8335  142.0205  156.3809 O   0  0  0  0  0  0  0  0  0  0  0  0
  145.5280  134.5165  150.6491 C   0  0  0  0  0  0  0  0  0  0  0  0
  143.9946  131.4779  150.2742 H   0  0  0  0  0  0  0  0  0  0  0  0
  145.6617  131.4236  150.8179 H   0  0  0  0  0  0  0  0  0  0  0  0
  145.2740  132.0798  149.2372 H   0  0  0  0  0  0  0  0  0  0  0  0
  143.0372  133.2463  152.3028 H   0  0  0  0  0  0  0  0  0  0  0  0
  146.3156  137.0311  150.8876 H   0  0  0  0  0  0  0  0  0  0  0  0
  144.6766  137.5630  151.1851 H   0  0  0  0  0  0  0  0  0  0  0  0
  144.9854  137.6016  153.5477 H   0  0  0  0  0  0  0  0  0  0  0  0
  146.2414  136.3787  153.4986 H   0  0  0  0  0  0  0  0  0  0  0  0
  147.7449  137.9398  152.6049 H   0  0  0  0  0  0  0  0  0  0  0  0
  146.2869  138.9594  154.9184 H   0  0  0  0  0  0  0  0  0  0  0  0
  147.7931  138.0561  154.9065 H   0  0  0  0  0  0  0  0  0  0  0  0
  148.3429  140.3058  153.2747 H   0  0  0  0  0  0  0  0  0  0  0  0
  147.3748  140.9678  154.5694 H   0  0  0  0  0  0  0  0  0  0  0  0
  149.7049  138.0570  155.0981 H   0  0  0  0  0  0  0  0  0  0  0  0
  150.7086  139.1493  154.1361 H   0  0  0  0  0  0  0  0  0  0  0  0
  150.9035  138.5125  157.0464 H   0  0  0  0  0  0  0  0  0  0  0  0
  152.1527  139.1587  155.9905 H   0  0  0  0  0  0  0  0  0  0  0  0
  150.6684  140.6676  157.8956 H   0  0  0  0  0  0  0  0  0  0  0  0
  151.5579  141.3761  156.5348 H   0  0  0  0  0  0  0  0  0  0  0  0
  146.3723  134.6810  149.9957 H   0  0  0  0  0  0  0  0  0  0  0  0
  146.5846  139.0887  152.4546 H   0  0  0  0  0  0  0  0  0  0  0  0
  1  2  1  0  0  0  0
  1 18  1  0  0  0  0
  1 19  1  0  0  0  0
  1 20  1  0  0  0  0
  2 17  2  0  0  0  0
  2  3  1  0  0  0  0
  3  4  2  0  0  0  0
  3 21  1  0  0  0  0
  4  5  1  0  0  0  0
  5  6  1  0  0  0  0
  5 17  1  0  0  0  0
  6  7  1  0  0  0  0
  6 22  1  0  0  0  0
  6 23  1  0  0  0  0
  7  8  1  0  0  0  0
  7 24  1  0  0  0  0
  7 25  1  0  0  0  0
  8  9  1  0  0  0  0
  8 26  1  0  0  0  0
  8 38  1  0  0  0  0
  9 10  1  0  0  0  0
  9 27  1  0  0  0  0
  9 28  1  0  0  0  0
 10 11  1  0  0  0  0
 10 29  1  0  0  0  0
 10 30  1  0  0  0  0
 11 15  1  0  0  0  0
 11 12  1  0  0  0  0
 12 13  1  0  0  0  0
 12 31  1  0  0  0  0
 12 32  1  0  0  0  0
 13 14  1  0  0  0  0
 13 33  1  0  0  0  0
 13 34  1  0  0  0  0
 14 15  1  0  0  0  0
 14 35  1  0  0  0  0
 14 36  1  0  0  0  0
 15 16  2  0  0  0  0
 17 37  1  0  0  0  0
M  CHG  1   8   1
M  END
> <s_m_source_file>
AV-unprocessed.smi

> <i_m_source_file_index>
3218

> <i_lp_mmshare_version>
43012

> <i_f3d_flags>
0

> <s_epik_input>
W0NIM11jMVtjSF1ubihbY0hdMSlbQ0gyXVtDSDJdW05IXVtDSDJdW0NIMl1OMltDSDJdW0NIMl1bQ0gyXUMyPU8=

> <s_epik_cmdline>
J2VwaWtfcHl0aG9uJywgJy1waCcsICc3LjAnLCAnLXRuJywgJzgnLCAnLW1hJywgJzIwMCcsICctbWV0YWxfYmluZGluZycsICctaW1hZScsICc8aW5maWxlLm1hZT4nLCAnLW9tYWUnLCAnPG91dGZpbGUubWFlPic=

> <r_lp_tautomer_probability>
1

> <r_epik_Ionization_Penalty>
0.00826456

> <r_epik_Ionization_Penalty_Charging>
0.00825899

> <r_epik_Ionization_Penalty_Neutral>
5.57245e-06

> <r_epik_State_Penalty>
0.00621436

> <r_epik_Charging_Adjusted_Penalty>
0.0144734

> <i_epik_Tot_Q>
1

> <i_epik_Tot_abs_Q>
1

> <r_epik_Metal_State_Penalty>
0.00623755

> <b_epik_Metal_Only>
0

> <s_lp_Force_Field>
OPLS_2005

> <r_lp_Energy>
17.5309

> <b_lp_Chiralities_Consistent>
1

> <s_lp_Variant>
AV-unprocessed.smi:3218-1

> <Gold.Version>
5.8.1

> <Gold.Id.Protein>
6NUR|6NUR_protein|mol2

> <Gold.PLP.Fitness>
43.1279

> <Gold.PLP.PLP>
-32.3143

> <Gold.PLP.part.hbond>
-1.0000

> <Gold.PLP.part.metal>
0.0000

> <Gold.PLP.part.buried>
-0.3377

> <Gold.PLP.part.nonpolar>
-31.3510

> <Gold.PLP.part.repulsive>
0.2217

> <Gold.PLP.ligand.clash>
0.0000

> <Gold.PLP.ligand.torsion>
0.6187

> <Gold.PLP.Chemscore.Hbond>
2.0000

> <Gold.PLP.Chemscore.CHOScore>
2.0000

> <Gold.PLP.Chemscore.Metal>
0.0000

> <Gold.Chemscore.Hbonds>
donor molecule, donor type, donor heavy atom, donor atom, acceptor molecule, acceptor atom, score
      L1  H     8    26       P1  7948  1.14
      L1  C     3    21       P1 10957  0.09
      L1  C    17    37       P1  7921  0.83

> <Gold.PLP.Chemscore.Internal.Correction>
0.0509

> <Gold.Rescore>
     Score         DG    S(hbond)    S(metal)    S(lipo)     H(rot)  DE(clash)    DE(int)     intcor
     11.08     -11.83       0.98        0.00      70.92       2.03       0.04       0.72       ----

> <Gold.Chemscore.Fitness>
11.0758

> <Gold.Chemscore.DG>
-11.8345

> <Gold.Chemscore.ZeroCoef>
-5.4800

> <Gold.Chemscore.Hbond>
0.9755

> <Gold.Chemscore.Metal>
0.0000

> <Gold.Chemscore.Lipo>
70.9240

> <Gold.Chemscore.Internal_Hbond>
0.0000

> <Gold.Chemscore.DEClash>
0.0359

> <Gold.Chemscore.DEInternal>
0.7228

> <Gold.Chemscore.Rot>
2.0319

> <Gold.Chemscore.Internal.Correction>
   9.000000E+99

> <Gold.Chemscore.Hbonds>
donor molecule, donor type, donor heavy atom, donor atom, acceptor molecule, acceptor atom, score
      L1  H     8    26       P1  7948  0.54

> <Gold.Chemscore.Hbond.Weighted>
-3.2581

> <Gold.Chemscore.Metal.Weighted>
-0.0000

> <Gold.Chemscore.Lipo.Weighted>
-8.2981

> <Gold.Chemscore.Internal_Hbond.Weighted>
0.0000

> <Gold.Chemscore.DEClash.Weighted>
0.0359

> <Gold.Chemscore.DEInternal.Weighted>
0.7228

> <Gold.Chemscore.Rot.Weighted>
5.2017

> <Gold.Chemscore.Internal.Correction.Weighted>
   9.000000E+99

> <Gold.Protein.RotatedTorsions>
[ 6907 6896 6895 6894 ] final   -9.03 input  -60.11 | X-H torsion
[ 7974 7965 7964 7962 ] final  167.48 input  175.53 | X-H torsion
[ 8008 7997 7996 7995 ] final -168.16 input   59.86 | X-H torsion
[ 10167 10162 10161 10158 ] final   51.83 input  -65.29 | X-H torsion
[ 10718 10713 10712 10709 ] final  -20.79 input   66.30 | X-H torsion
[ 10763 10752 10751 10750 ] final -177.12 input  -60.55 | X-H torsion
[ 11005 11000 10999 10996 ] final -153.09 input  -57.11 | X-H torsion

> <Gold.Protein.ActiveResidues>
 VAL166  LYS551  ARG553  GLY616  TRP617  ASP618  TYR619  PRO620  LYS621  CYS622 
 ASP623  PHE694  ASN695  SER759  ASP760  ASP761  ALA762  ILE779  LEU786  VAL792 
 PHE793  MET794  SER795  GLU796  ALA797  LYS798  CYS799  TRP800  GLU811  SER814 

> <Gold.Protein.RotatedAtoms>
  151.4243  135.1002  159.9622 H   0  0  0  0  0  0  0  0  0  0  0  0  # atno 6907 bound_to 6896
  152.4978  133.8678  159.7293 H   0  0  0  0  0  0  0  0  0  0  0  0  # atno 6908 bound_to 6896
  150.9201  133.6833  159.2862 H   0  0  0  0  0  0  0  0  0  0  0  0  # atno 6909 bound_to 6896
  144.7423  139.8767  143.6393 H   0  0  0  0  0  0  0  0  0  0  0  0  # atno 7974 bound_to 7965
  155.8876  140.1019  157.1441 H   0  0  0  0  0  0  0  0  0  0  0  0  # atno 8008 bound_to 7997
  154.4011  140.1317  156.4339 H   0  0  0  0  0  0  0  0  0  0  0  0  # atno 8009 bound_to 7997
  155.7571  140.3464  155.5181 H   0  0  0  0  0  0  0  0  0  0  0  0  # atno 8010 bound_to 7997
  140.2578  144.3407  150.6327 H   0  0  0  0  0  0  0  0  0  0  0  0  # atno 10167 bound_to 10162
  156.5271  130.4646  149.6566 H   0  0  0  0  0  0  0  0  0  0  0  0  # atno 10718 bound_to 10713
  154.5640  135.2822  155.0892 H   0  0  0  0  0  0  0  0  0  0  0  0  # atno 10763 bound_to 10752
  154.2290  135.6377  153.5173 H   0  0  0  0  0  0  0  0  0  0  0  0  # atno 10764 bound_to 10752
  153.0037  135.5532  154.6243 H   0  0  0  0  0  0  0  0  0  0  0  0  # atno 10765 bound_to 10752
  140.7119  134.3823  157.5196 H   0  0  0  0  0  0  0  0  0  0  0  0  # atno 11005 bound_to 11000
  146.1241  139.4264  143.0210 LP  0  0  0  0  0  0  0  0  0  0  0  0  # atno 17320 bound_to 7965
  145.7261  141.0058  143.1376 LP  0  0  0  0  0  0  0  0  0  0  0  0  # atno 17321 bound_to 7965
  140.5990  143.2167  151.7109 LP  0  0  0  0  0  0  0  0  0  0  0  0  # atno 17342 bound_to 10162
  139.5026  144.3822  152.0364 LP  0  0  0  0  0  0  0  0  0  0  0  0  # atno 17343 bound_to 10162
  156.3095  130.7221  151.2110 LP  0  0  0  0  0  0  0  0  0  0  0  0  # atno 17370 bound_to 10713
  157.7428  131.0485  150.4998 LP  0  0  0  0  0  0  0  0  0  0  0  0  # atno 17371 bound_to 10713
  139.8869  134.8896  156.2556 LP  0  0  0  0  0  0  0  0  0  0  0  0  # atno 17394 bound_to 11000
  141.0077  133.7114  156.1061 LP  0  0  0  0  0  0  0  0  0  0  0  0  # atno 17395 bound_to 11000

$$$$
