AV-unprocessed.smi:38|AV-procd|sdf|346|dock5
  -GOLD-   2262016183D 1   1.00000     0.00000
 Structure written by MMmdl.
 27 28  0  0  0  0  0  0  0  0  2 V2000
  152.9031  140.9372  158.7771 O   0  0  0  0  0  0  0  0  0  0  0  0
  152.1365  140.9409  157.8148 C   0  0  0  0  0  0  0  0  0  0  0  0
  152.3036  140.1252  156.7340 N   0  5  0  0  0  0  0  0  0  0  0  0
  151.4529  140.1328  155.6659 C   0  0  0  0  0  0  0  0  0  0  0  0
  151.5955  139.3984  154.6879 O   0  0  0  0  0  0  0  0  0  0  0  0
  150.3479  141.0282  155.6706 N   0  0  0  0  0  0  0  0  0  0  0  0
  149.4074  141.0307  154.4809 C   0  0  2  0  0  0  0  0  0  0  0  0
  148.0859  141.7389  154.8326 C   0  0  0  0  0  0  0  0  0  0  0  0
  147.0263  140.7295  154.4274 C   0  0  1  0  0  0  0  0  0  0  0  0
  146.5791  140.9748  153.1069 O   0  0  0  0  0  0  0  0  0  0  0  0
  147.7737  139.3964  154.5483 C   0  0  1  0  0  0  0  0  0  0  0  0
  147.2088  138.2053  153.7548 C   0  0  0  0  0  0  0  0  0  0  0  0
  147.3594  138.4206  152.3672 O   0  0  0  0  0  0  0  0  0  0  0  0
  149.0920  139.7162  154.1190 O   0  0  0  0  0  0  0  0  0  0  0  0
  150.1502  141.8628  156.7594 C   0  0  0  0  0  0  0  0  0  0  0  0
  150.9925  141.8506  157.8128 C   0  0  0  0  0  0  0  0  0  0  0  0
  150.7738  142.6727  158.8537 F   0  0  0  0  0  0  0  0  0  0  0  0
  149.9618  141.5013  153.6671 H   0  0  0  0  0  0  0  0  0  0  0  0
  146.1620  140.7659  155.0910 H   0  0  0  0  0  0  0  0  0  0  0  0
  147.8298  139.1257  155.6041 H   0  0  0  0  0  0  0  0  0  0  0  0
  148.0375  141.9176  155.9078 H   0  0  0  0  0  0  0  0  0  0  0  0
  148.0046  142.6979  154.3191 H   0  0  0  0  0  0  0  0  0  0  0  0
  145.6475  140.8199  153.0737 H   0  0  0  0  0  0  0  0  0  0  0  0
  147.6929  137.2702  154.0363 H   0  0  0  0  0  0  0  0  0  0  0  0
  146.1464  138.0884  153.9702 H   0  0  0  0  0  0  0  0  0  0  0  0
  147.7268  137.6404  151.9807 H   0  0  0  0  0  0  0  0  0  0  0  0
  149.3117  142.5414  156.7862 H   0  0  0  0  0  0  0  0  0  0  0  0
  1  2  2  0  0  0  0
  2 16  1  0  0  0  0
  2  3  1  0  0  0  0
  3  4  1  0  0  0  0
  4  5  2  0  0  0  0
  4  6  1  0  0  0  0
  6  7  1  0  0  0  0
  6 15  1  0  0  0  0
  7 18  1  0  0  0  0
  7 14  1  0  0  0  0
  7  8  1  0  0  0  0
  8  9  1  0  0  0  0
  8 21  1  0  0  0  0
  8 22  1  0  0  0  0
  9 19  1  0  0  0  0
  9 10  1  0  0  0  0
  9 11  1  0  0  0  0
 10 23  1  0  0  0  0
 11 20  1  0  0  0  0
 11 12  1  0  0  0  0
 11 14  1  0  0  0  0
 12 13  1  0  0  0  0
 12 24  1  0  0  0  0
 12 25  1  0  0  0  0
 13 26  1  0  0  0  0
 15 16  2  0  0  0  0
 15 27  1  0  0  0  0
 16 17  1  0  0  0  0
M  CHG  1   3  -1
M  END
> <s_m_source_file>
AV-unprocessed.smi

> <i_m_source_file_index>
38

> <i_lp_mmshare_version>
43012

> <i_f3d_flags>
0

> <s_epik_input>
Tz1jMVtuSF1jKD1PKW4oW2NIXWMxRilbQ0BIXTJbQ0gyXVtDQEhdKFtPSF0pW0NASF0oTzIpW0NIMl1bT0hd

> <s_epik_cmdline>
J2VwaWtfcHl0aG9uJywgJy1waCcsICc3LjAnLCAnLXRuJywgJzgnLCAnLW1hJywgJzIwMCcsICctbWV0YWxfYmluZGluZycsICctaW1hZScsICc8aW5maWxlLm1hZT4nLCAnLW9tYWUnLCAnPG91dGZpbGUubWFlPic=

> <r_epik_Ionization_Penalty>
1.68146

> <r_epik_Ionization_Penalty_Charging>
3.4211e-08

> <r_epik_Ionization_Penalty_Neutral>
1.68146

> <r_epik_State_Penalty>
1.78593

> <r_epik_Charging_Adjusted_Penalty>
1.78593

> <i_epik_Tot_Q>
-1

> <i_epik_Tot_abs_Q>
1

> <r_epik_Metal_State_Penalty>
0.0113696

> <b_epik_Metal_Only>
0

> <s_epik_Chemistry_Notes>
This compound contains an acetal/aminal-like group ( X-CH(R)-Y where X, Y are N, S, or O) that may be acid/base labile, releasing an aldehyde.

> <s_lp_Force_Field>
OPLS_2005

> <r_lp_Energy>
41.2481

> <b_lp_Chiralities_Consistent>
1

> <s_lp_Variant>
AV-unprocessed.smi:38-12

> <Gold.Version>
5.8.1

> <Gold.Id.Protein>
6NUR|6NUR_protein|mol2

> <Gold.PLP.Fitness>
42.8355

> <Gold.PLP.PLP>
-26.8921

> <Gold.PLP.part.hbond>
-5.0084

> <Gold.PLP.part.metal>
0.0000

> <Gold.PLP.part.buried>
-1.9847

> <Gold.PLP.part.nonpolar>
-19.7838

> <Gold.PLP.part.repulsive>
0.9498

> <Gold.PLP.ligand.clash>
0.0000

> <Gold.PLP.ligand.torsion>
0.4189

> <Gold.PLP.Chemscore.Hbond>
4.5925

> <Gold.PLP.Chemscore.CHOScore>
1.0000

> <Gold.PLP.Chemscore.Metal>
0.0000

> <Gold.Chemscore.Hbonds>
donor molecule, donor type, donor heavy atom, donor atom, acceptor molecule, acceptor atom, score
      L1  H    10    23       P1 10175  0.89
      L1  H    13    26       P1  7948  1.00
      P1  H  7989  7998       L1     5  0.65
      P1  H  7997  8009       L1     3  1.92
      L1  C    15    27       P1  8028  1.00

> <Gold.PLP.Chemscore.Internal.Correction>
0.0037

> <Gold.Rescore>
     Score         DG    S(hbond)    S(metal)    S(lipo)     H(rot)  DE(clash)    DE(int)     intcor
      9.97     -12.09       3.21        0.00      27.86       2.88       0.34       1.78       ----

> <Gold.Chemscore.Fitness>
9.9658

> <Gold.Chemscore.DG>
-12.0916

> <Gold.Chemscore.ZeroCoef>
-5.4800

> <Gold.Chemscore.Hbond>
3.2121

> <Gold.Chemscore.Metal>
0.0000

> <Gold.Chemscore.Lipo>
27.8611

> <Gold.Chemscore.Internal_Hbond>
0.0000

> <Gold.Chemscore.DEClash>
0.3411

> <Gold.Chemscore.DEInternal>
1.7846

> <Gold.Chemscore.Rot>
2.8815

> <Gold.Chemscore.Internal.Correction>
   9.000000E+99

> <Gold.Chemscore.Hbonds>
donor molecule, donor type, donor heavy atom, donor atom, acceptor molecule, acceptor atom, score
      L1  H    10    23       P1 10175  0.48
      L1  H    13    26       P1  7948  0.98
      P1  H  7989  7998       L1     5  0.06
      P1  H  7997  8009       L1     3  0.35

> <Gold.Chemscore.Hbond.Weighted>
-10.7284

> <Gold.Chemscore.Metal.Weighted>
-0.0000

> <Gold.Chemscore.Lipo.Weighted>
-3.2597

> <Gold.Chemscore.Internal_Hbond.Weighted>
0.0000

> <Gold.Chemscore.DEClash.Weighted>
0.3411

> <Gold.Chemscore.DEInternal.Weighted>
1.7846

> <Gold.Chemscore.Rot.Weighted>
7.3765

> <Gold.Chemscore.Internal.Correction.Weighted>
   9.000000E+99

> <Gold.Protein.RotatedTorsions>
[ 6907 6896 6895 6894 ] final   54.89 input  -60.11 | X-H torsion
[ 7974 7965 7964 7962 ] final   -2.20 input  175.53 | X-H torsion
[ 8008 7997 7996 7995 ] final -170.09 input   59.86 | X-H torsion
[ 10167 10162 10161 10158 ] final   40.65 input  -65.29 | X-H torsion
[ 10718 10713 10712 10709 ] final  112.08 input   66.30 | X-H torsion
[ 10763 10752 10751 10750 ] final -124.46 input  -60.55 | X-H torsion
[ 11005 11000 10999 10996 ] final -178.36 input  -57.11 | X-H torsion

> <Gold.Protein.ActiveResidues>
 VAL166  LYS551  ARG553  GLY616  TRP617  ASP618  TYR619  PRO620  LYS621  CYS622 
 ASP623  PHE694  ASN695  SER759  ASP760  ASP761  ALA762  ILE779  LEU786  VAL792 
 PHE793  MET794  SER795  GLU796  ALA797  LYS798  CYS799  TRP800  GLU811  SER814 

> <Gold.Protein.RotatedAtoms>
  152.3485  134.7039  160.0243 H   0  0  0  0  0  0  0  0  0  0  0  0  # atno 6907 bound_to 6896
  151.7400  133.3316  159.3371 H   0  0  0  0  0  0  0  0  0  0  0  0  # atno 6908 bound_to 6896
  150.7524  134.6219  159.6185 H   0  0  0  0  0  0  0  0  0  0  0  0  # atno 6909 bound_to 6896
  146.2407  140.1534  142.8333 H   0  0  0  0  0  0  0  0  0  0  0  0  # atno 7974 bound_to 7965
  155.9137  140.1062  157.1259 H   0  0  0  0  0  0  0  0  0  0  0  0  # atno 8008 bound_to 7997
  154.4043  140.1269  156.4655 H   0  0  0  0  0  0  0  0  0  0  0  0  # atno 8009 bound_to 7997
  155.7279  140.3469  155.5048 H   0  0  0  0  0  0  0  0  0  0  0  0  # atno 8010 bound_to 7997
  140.3721  144.2092  150.6133 H   0  0  0  0  0  0  0  0  0  0  0  0  # atno 10167 bound_to 10162
  157.6411  131.0961  150.6843 H   0  0  0  0  0  0  0  0  0  0  0  0  # atno 10718 bound_to 10713
  154.8723  135.4063  154.3109 H   0  0  0  0  0  0  0  0  0  0  0  0  # atno 10763 bound_to 10752
  153.3953  135.7016  153.6471 H   0  0  0  0  0  0  0  0  0  0  0  0  # atno 10764 bound_to 10752
  153.5236  135.3682  155.2614 H   0  0  0  0  0  0  0  0  0  0  0  0  # atno 10765 bound_to 10752
  140.4306  134.6522  157.4710 H   0  0  0  0  0  0  0  0  0  0  0  0  # atno 11005 bound_to 11000
  145.0148  140.8745  143.5202 LP  0  0  0  0  0  0  0  0  0  0  0  0  # atno 17320 bound_to 7965
  145.1574  139.2479  143.5409 LP  0  0  0  0  0  0  0  0  0  0  0  0  # atno 17321 bound_to 7965
  140.5023  143.2314  151.8660 LP  0  0  0  0  0  0  0  0  0  0  0  0  # atno 17342 bound_to 10162
  139.4803  144.5045  151.9016 LP  0  0  0  0  0  0  0  0  0  0  0  0  # atno 17343 bound_to 10162
  156.7167  130.4668  149.5533 LP  0  0  0  0  0  0  0  0  0  0  0  0  # atno 17370 bound_to 10713
  156.1693  130.6426  151.0818 LP  0  0  0  0  0  0  0  0  0  0  0  0  # atno 17371 bound_to 10713
  140.0137  134.6652  155.9342 LP  0  0  0  0  0  0  0  0  0  0  0  0  # atno 17394 bound_to 11000
  141.1747  133.6539  156.4783 LP  0  0  0  0  0  0  0  0  0  0  0  0  # atno 17395 bound_to 11000

$$$$
