AV-unprocessed.smi:54|AV-procd|sdf|544|dock4
  -GOLD-   2262016433D 1   1.00000     0.00000
 Structure written by MMmdl.
 44 46  0  0  0  0  0  0  0  0  1 V2000
  151.6227  144.7637  160.1689 C   0  0  0  0  0  0  0  0  0  0  0  0
  150.2561  144.8251  159.4686 C   0  0  0  0  0  0  0  0  0  0  0  0
  149.1351  145.1747  160.4611 C   0  0  0  0  0  0  0  0  0  0  0  0
  149.9575  143.5017  158.7549 C   0  0  0  0  0  0  0  0  0  0  0  0
  148.9098  142.8805  158.9397 O   0  0  0  0  0  0  0  0  0  0  0  0
  150.9974  143.0297  157.8585 N   0  0  0  0  0  0  0  0  0  0  0  0
  150.9817  141.9008  157.1131 C   0  0  0  0  0  0  0  0  0  0  0  0
  150.1545  141.7208  156.0929 N   0  0  0  0  0  0  0  0  0  0  0  0
  150.2957  140.5204  155.4535 C   0  0  0  0  0  0  0  0  0  0  0  0
  151.1949  139.5223  155.7648 C   0  0  0  0  0  0  0  0  0  0  0  0
  151.0381  138.4490  154.8947 N   0  0  0  0  0  0  0  0  0  0  0  0
  150.0708  138.8210  154.1029 C   0  0  0  0  0  0  0  0  0  0  0  0
  149.5631  140.0697  154.3771 N   0  0  0  0  0  0  0  0  0  0  0  0
  148.4667  140.8231  153.6956 C   0  0  1  0  0  0  0  0  0  0  0  0
  148.0247  140.0569  152.6110 O   0  0  0  0  0  0  0  0  0  0  0  0
  146.6581  139.6956  152.7876 C   0  0  1  0  0  0  0  0  0  0  0  0
  146.3443  138.3427  152.1225 C   0  0  0  0  0  0  0  0  0  0  0  0
  146.6761  138.3272  150.7495 O   0  0  0  0  0  0  0  0  0  0  0  0
  146.3974  139.8153  154.2904 C   0  0  2  0  0  0  0  0  0  0  0  0
  145.0357  140.0306  154.6084 O   0  0  0  0  0  0  0  0  0  0  0  0
  147.2856  140.9942  154.6651 C   0  0  2  0  0  0  0  0  0  0  0  0
  146.6592  142.2508  154.4783 O   0  0  0  0  0  0  0  0  0  0  0  0
  152.1035  139.7069  156.8595 C   0  0  0  0  0  0  0  0  0  0  0  0
  152.9655  138.9348  157.2737 O   0  0  0  0  0  0  0  0  0  0  0  0
  151.9273  140.9465  157.4884 N   0  0  0  0  0  0  0  0  0  0  0  0
  148.9341  141.7557  153.3761 H   0  0  0  0  0  0  0  0  0  0  0  0
  146.0853  140.4686  152.2719 H   0  0  0  0  0  0  0  0  0  0  0  0
  146.7514  138.9274  154.8153 H   0  0  0  0  0  0  0  0  0  0  0  0
  147.6158  140.9381  155.7035 H   0  0  0  0  0  0  0  0  0  0  0  0
  152.4191  144.5230  159.4634 H   0  0  0  0  0  0  0  0  0  0  0  0
  151.6362  144.0099  160.9573 H   0  0  0  0  0  0  0  0  0  0  0  0
  151.8703  145.7229  160.6244 H   0  0  0  0  0  0  0  0  0  0  0  0
  150.2959  145.6149  158.7170 H   0  0  0  0  0  0  0  0  0  0  0  0
  148.1619  145.1987  159.9693 H   0  0  0  0  0  0  0  0  0  0  0  0
  149.3008  146.1570  160.9045 H   0  0  0  0  0  0  0  0  0  0  0  0
  149.0795  144.4511  161.2755 H   0  0  0  0  0  0  0  0  0  0  0  0
  151.8370  143.5886  157.8207 H   0  0  0  0  0  0  0  0  0  0  0  0
  149.7087  138.1943  153.3015 H   0  0  0  0  0  0  0  0  0  0  0  0
  146.9206  137.5556  152.6090 H   0  0  0  0  0  0  0  0  0  0  0  0
  145.2914  138.0891  152.2471 H   0  0  0  0  0  0  0  0  0  0  0  0
  145.9161  138.5911  150.2535 H   0  0  0  0  0  0  0  0  0  0  0  0
  144.5860  140.2948  153.8200 H   0  0  0  0  0  0  0  0  0  0  0  0
  146.3844  142.5751  155.3228 H   0  0  0  0  0  0  0  0  0  0  0  0
  152.5329  141.1444  158.2711 H   0  0  0  0  0  0  0  0  0  0  0  0
  1  2  1  0  0  0  0
  1 30  1  0  0  0  0
  1 31  1  0  0  0  0
  1 32  1  0  0  0  0
  2  3  1  0  0  0  0
  2  4  1  0  0  0  0
  2 33  1  0  0  0  0
  3 34  1  0  0  0  0
  3 35  1  0  0  0  0
  3 36  1  0  0  0  0
  4  5  2  0  0  0  0
  4  6  1  0  0  0  0
  6 37  1  0  0  0  0
  6  7  1  0  0  0  0
  7 25  1  0  0  0  0
  7  8  2  0  0  0  0
  8  9  1  0  0  0  0
  9 13  1  0  0  0  0
  9 10  2  0  0  0  0
 10 11  1  0  0  0  0
 10 23  1  0  0  0  0
 11 12  2  0  0  0  0
 12 13  1  0  0  0  0
 12 38  1  0  0  0  0
 13 14  1  0  0  0  0
 14 26  1  0  0  0  0
 14 21  1  0  0  0  0
 14 15  1  0  0  0  0
 15 16  1  0  0  0  0
 16 27  1  0  0  0  0
 16 17  1  0  0  0  0
 16 19  1  0  0  0  0
 17 18  1  0  0  0  0
 17 39  1  0  0  0  0
 17 40  1  0  0  0  0
 18 41  1  0  0  0  0
 19 28  1  0  0  0  0
 19 20  1  0  0  0  0
 19 21  1  0  0  0  0
 20 42  1  0  0  0  0
 21 29  1  0  0  0  0
 21 22  1  0  0  0  0
 22 43  1  0  0  0  0
 23 24  2  0  0  0  0
 23 25  1  0  0  0  0
 25 44  1  0  0  0  0
M  END
> <s_m_source_file>
AV-unprocessed.smi

> <i_m_source_file_index>
54

> <i_lp_mmshare_version>
43012

> <i_f3d_flags>
0

> <s_epik_input>
W0NIM11bQ0hdKFtDSDNdKUMoPU8pW05IXWMobjEpW25IXWMoPU8pYyhjMTIpbltjSF1uMltDQEBIXTNPW0NASF0oW0NIMl1bT0hdKVtDQEBIXShbT0hdKVtDQEhdM1tPSF0=

> <s_epik_cmdline>
J2VwaWtfcHl0aG9uJywgJy1waCcsICc3LjAnLCAnLXRuJywgJzgnLCAnLW1hJywgJzIwMCcsICctbWV0YWxfYmluZGluZycsICctaW1hZScsICc8aW5maWxlLm1hZT4nLCAnLW9tYWUnLCAnPG91dGZpbGUubWFlPic=

> <r_lp_tautomer_probability>
0.85571

> <r_epik_Ionization_Penalty>
0.0316551

> <r_epik_Ionization_Penalty_Charging>
0.0316043

> <r_epik_Ionization_Penalty_Neutral>
5.07097e-05

> <r_epik_State_Penalty>
3.15494e-07

> <r_epik_Charging_Adjusted_Penalty>
0.0316047

> <i_epik_Tot_Q>
0

> <i_epik_Tot_abs_Q>
0

> <r_epik_Metal_State_Penalty>
0.421206

> <b_epik_Metal_Only>
0

> <s_epik_Chemistry_Notes>
This compound contains an acetal/aminal-like group ( X-CH(R)-Y where X, Y are N, S, or O) that may be acid/base labile, releasing an aldehyde.

> <s_lp_Force_Field>
OPLS_2005

> <r_lp_Energy>
44.5551

> <b_lp_Chiralities_Consistent>
1

> <s_lp_Variant>
AV-unprocessed.smi:54-16

> <Gold.Version>
5.8.1

> <Gold.Id.Protein>
6NUR|6NUR_protein|mol2

> <Gold.PLP.Fitness>
50.7323

> <Gold.PLP.PLP>
-36.7837

> <Gold.PLP.part.hbond>
-5.4369

> <Gold.PLP.part.metal>
0.0000

> <Gold.PLP.part.buried>
-4.8479

> <Gold.PLP.part.nonpolar>
-32.8376

> <Gold.PLP.part.repulsive>
5.7178

> <Gold.PLP.ligand.clash>
0.0000

> <Gold.PLP.ligand.torsion>
0.7554

> <Gold.PLP.Chemscore.Hbond>
3.9920

> <Gold.PLP.Chemscore.CHOScore>
1.1439

> <Gold.PLP.Chemscore.Metal>
0.0000

> <Gold.Chemscore.Hbonds>
donor molecule, donor type, donor heavy atom, donor atom, acceptor molecule, acceptor atom, score
      L1  H    18    41       P1 10171  0.91
      L1  H    20    42       P1 10175  1.00
      P1  H  7954  7966       L1    18  0.99
      P1  H  7997  8008       L1    24  1.00
      L1  C    12    38       P1  7948  1.00
      L1  C    12    38       P1  7957  0.13

> <Gold.PLP.Chemscore.Internal.Correction>
0.0518

> <Gold.Rescore>
     Score         DG    S(hbond)    S(metal)    S(lipo)     H(rot)  DE(clash)    DE(int)     intcor
      8.18     -11.58       2.90        0.00      57.99       4.05       2.14       1.26       ----

> <Gold.Chemscore.Fitness>
8.1823

> <Gold.Chemscore.DG>
-11.5795

> <Gold.Chemscore.ZeroCoef>
-5.4800

> <Gold.Chemscore.Hbond>
2.8986

> <Gold.Chemscore.Metal>
0.0000

> <Gold.Chemscore.Lipo>
57.9855

> <Gold.Chemscore.Internal_Hbond>
0.0000

> <Gold.Chemscore.DEClash>
2.1404

> <Gold.Chemscore.DEInternal>
1.2567

> <Gold.Chemscore.Rot>
4.0493

> <Gold.Chemscore.Internal.Correction>
   9.000000E+99

> <Gold.Chemscore.Hbonds>
donor molecule, donor type, donor heavy atom, donor atom, acceptor molecule, acceptor atom, score
      L1  H    18    41       P1 10171  0.85
      L1  H    20    42       P1 10175  0.99
      P1  H  7954  7966       L1    18  0.91
      P1  H  7997  8008       L1    24  0.29

> <Gold.Chemscore.Hbond.Weighted>
-9.6814

> <Gold.Chemscore.Metal.Weighted>
-0.0000

> <Gold.Chemscore.Lipo.Weighted>
-6.7843

> <Gold.Chemscore.Internal_Hbond.Weighted>
0.0000

> <Gold.Chemscore.DEClash.Weighted>
2.1404

> <Gold.Chemscore.DEInternal.Weighted>
1.2567

> <Gold.Chemscore.Rot.Weighted>
10.3662

> <Gold.Chemscore.Internal.Correction.Weighted>
   9.000000E+99

> <Gold.Protein.RotatedTorsions>
[ 6907 6896 6895 6894 ] final   41.17 input  -60.11 | X-H torsion
[ 7974 7965 7964 7962 ] final  146.92 input  175.53 | X-H torsion
[ 8008 7997 7996 7995 ] final  -85.65 input   59.86 | X-H torsion
[ 10167 10162 10161 10158 ] final  -42.11 input  -65.29 | X-H torsion
[ 10718 10713 10712 10709 ] final -174.17 input   66.30 | X-H torsion
[ 10763 10752 10751 10750 ] final  170.17 input  -60.55 | X-H torsion
[ 11005 11000 10999 10996 ] final -127.02 input  -57.11 | X-H torsion

> <Gold.Protein.ActiveResidues>
 VAL166  LYS551  ARG553  GLY616  TRP617  ASP618  TYR619  PRO620  LYS621  CYS622 
 ASP623  PHE694  ASN695  SER759  ASP760  ASP761  ALA762  ILE779  LEU786  VAL792 
 PHE793  MET794  SER795  GLU796  ALA797  LYS798  CYS799  TRP800  GLU811  SER814 

> <Gold.Protein.RotatedAtoms>
  152.1918  134.8665  160.0516 H   0  0  0  0  0  0  0  0  0  0  0  0  # atno 6907 bound_to 6896
  151.9551  133.3673  159.4022 H   0  0  0  0  0  0  0  0  0  0  0  0  # atno 6908 bound_to 6896
  150.6937  134.4223  159.5255 H   0  0  0  0  0  0  0  0  0  0  0  0  # atno 6909 bound_to 6896
  144.8633  139.5964  143.5921 H   0  0  0  0  0  0  0  0  0  0  0  0  # atno 7974 bound_to 7965
  154.6431  140.0588  156.9869 H   0  0  0  0  0  0  0  0  0  0  0  0  # atno 8008 bound_to 7997
  155.1486  140.3272  155.4418 H   0  0  0  0  0  0  0  0  0  0  0  0  # atno 8009 bound_to 7997
  156.2541  140.1951  156.6598 H   0  0  0  0  0  0  0  0  0  0  0  0  # atno 8010 bound_to 7997
  140.6980  143.3056  151.3163 H   0  0  0  0  0  0  0  0  0  0  0  0  # atno 10167 bound_to 10162
  156.7811  130.9484  151.3120 H   0  0  0  0  0  0  0  0  0  0  0  0  # atno 10718 bound_to 10713
  154.3938  135.2754  155.2138 H   0  0  0  0  0  0  0  0  0  0  0  0  # atno 10763 bound_to 10752
  154.4193  135.6004  153.6004 H   0  0  0  0  0  0  0  0  0  0  0  0  # atno 10764 bound_to 10752
  152.9831  135.5968  154.4196 H   0  0  0  0  0  0  0  0  0  0  0  0  # atno 10765 bound_to 10752
  140.9633  134.0906  157.3945 H   0  0  0  0  0  0  0  0  0  0  0  0  # atno 11005 bound_to 11000
  146.2876  139.7049  142.9184 LP  0  0  0  0  0  0  0  0  0  0  0  0  # atno 17320 bound_to 7965
  145.4271  141.0412  143.2931 LP  0  0  0  0  0  0  0  0  0  0  0  0  # atno 17321 bound_to 7965
  139.6460  144.0450  152.2591 LP  0  0  0  0  0  0  0  0  0  0  0  0  # atno 17342 bound_to 10162
  139.9971  144.6320  150.7763 LP  0  0  0  0  0  0  0  0  0  0  0  0  # atno 17343 bound_to 10162
  157.6646  130.8996  149.9903 LP  0  0  0  0  0  0  0  0  0  0  0  0  # atno 17370 bound_to 10713
  156.1217  130.3645  149.9876 LP  0  0  0  0  0  0  0  0  0  0  0  0  # atno 17371 bound_to 10713
  139.8886  135.0098  156.6628 LP  0  0  0  0  0  0  0  0  0  0  0  0  # atno 17394 bound_to 11000
  140.7435  133.8957  155.8295 LP  0  0  0  0  0  0  0  0  0  0  0  0  # atno 17395 bound_to 11000

$$$$
