AV-unprocessed.smi:473|AV-procd|sdf|2664|dock5
  -GOLD-   2262023 73D 1   1.00000     0.00000
 Structure written by MMmdl.
 43 45  0  0  0  0  0  0  0  0  2 V2000
  151.8446  144.5522  160.9552 C   0  0  0  0  0  0  0  0  0  0  0  0
  151.6977  143.4937  159.8755 C   0  0  0  0  0  0  0  0  0  0  0  0
  150.7920  143.7308  158.8167 C   0  0  0  0  0  0  0  0  0  0  0  0
  150.6823  142.7454  157.8426 C   0  0  0  0  0  0  0  0  0  0  0  0
  149.8964  142.6808  156.6896 N   0  3  0  0  0  0  0  0  0  0  0  0
  150.1340  141.5060  156.0425 C   0  0  0  0  0  0  0  0  0  0  0  0
  151.0599  140.8199  156.7654 N   0  0  0  0  0  0  0  0  0  0  0  0
  151.6595  139.5008  156.5203 C   0  0  0  0  0  0  0  0  0  0  0  0
  151.9306  139.2288  155.0254 C   0  0  1  0  0  0  0  0  0  0  0  0
  153.2479  139.5790  154.6494 O   0  0  0  0  0  0  0  0  0  0  0  0
  151.6667  137.7717  154.6123 C   0  0  0  0  0  0  0  0  0  0  0  0
  152.3728  136.8987  155.4786 O   0  0  0  0  0  0  0  0  0  0  0  0
  151.5493  136.3037  156.4676 C   0  0  0  0  0  0  0  0  0  0  0  0
  151.1332  134.9572  155.9645 C   0  0  0  0  0  0  0  0  0  0  0  0
  150.4127  134.5547  154.8737 C   0  0  0  0  0  0  0  0  0  0  0  0
  150.3559  133.1344  154.9283 C   0  0  0  0  0  0  0  0  0  0  0  0
  151.0477  132.7726  156.0486 C   0  0  0  0  0  0  0  0  0  0  0  0
  151.5287  133.8708  156.6916 O   0  0  0  0  0  0  0  0  0  0  0  0
  151.4326  141.5550  157.8969 C   0  0  0  0  0  0  0  0  0  0  0  0
  152.3307  141.3063  158.9325 C   0  0  0  0  0  0  0  0  0  0  0  0
  152.4582  142.2971  159.9317 C   0  0  0  0  0  0  0  0  0  0  0  0
  153.4325  142.0533  161.0719 C   0  0  0  0  0  0  0  0  0  0  0  0
  151.1610  145.3860  160.7926 H   0  0  0  0  0  0  0  0  0  0  0  0
  152.8600  144.9490  160.9642 H   0  0  0  0  0  0  0  0  0  0  0  0
  151.6274  144.1319  161.9376 H   0  0  0  0  0  0  0  0  0  0  0  0
  150.2115  144.6403  158.7661 H   0  0  0  0  0  0  0  0  0  0  0  0
  149.6700  141.1773  155.1235 H   0  0  0  0  0  0  0  0  0  0  0  0
  152.5677  139.4143  157.1167 H   0  0  0  0  0  0  0  0  0  0  0  0
  150.9700  138.7523  156.9126 H   0  0  0  0  0  0  0  0  0  0  0  0
  151.2731  139.8691  154.4360 H   0  0  0  0  0  0  0  0  0  0  0  0
  153.2015  140.1928  153.9327 H   0  0  0  0  0  0  0  0  0  0  0  0
  150.5990  137.5607  154.6897 H   0  0  0  0  0  0  0  0  0  0  0  0
  151.9549  137.6055  153.5728 H   0  0  0  0  0  0  0  0  0  0  0  0
  152.0949  136.2017  157.4066 H   0  0  0  0  0  0  0  0  0  0  0  0
  150.6696  136.9212  156.6537 H   0  0  0  0  0  0  0  0  0  0  0  0
  149.9798  135.2041  154.1272 H   0  0  0  0  0  0  0  0  0  0  0  0
  149.8714  132.4624  154.2353 H   0  0  0  0  0  0  0  0  0  0  0  0
  151.2844  131.8261  156.5121 H   0  0  0  0  0  0  0  0  0  0  0  0
  152.9145  140.3982  158.9734 H   0  0  0  0  0  0  0  0  0  0  0  0
  153.9531  141.1020  160.9553 H   0  0  0  0  0  0  0  0  0  0  0  0
  152.9069  142.0299  162.0267 H   0  0  0  0  0  0  0  0  0  0  0  0
  154.1851  142.8412  161.1087 H   0  0  0  0  0  0  0  0  0  0  0  0
  149.2446  143.3844  156.3665 H   0  0  0  0  0  0  0  0  0  0  0  0
  1  2  1  0  0  0  0
  1 23  1  0  0  0  0
  1 24  1  0  0  0  0
  1 25  1  0  0  0  0
  2 21  1  0  0  0  0
  2  3  2  0  0  0  0
  3  4  1  0  0  0  0
  3 26  1  0  0  0  0
  4 19  2  0  0  0  0
  4  5  1  0  0  0  0
  5  6  2  0  0  0  0
  5 43  1  0  0  0  0
  6  7  1  0  0  0  0
  6 27  1  0  0  0  0
  7  8  1  0  0  0  0
  7 19  1  0  0  0  0
  8  9  1  0  0  0  0
  8 28  1  0  0  0  0
  8 29  1  0  0  0  0
  9 10  1  0  0  0  0
  9 11  1  0  0  0  0
  9 30  1  0  0  0  0
 10 31  1  0  0  0  0
 11 12  1  0  0  0  0
 11 32  1  0  0  0  0
 11 33  1  0  0  0  0
 12 13  1  0  0  0  0
 13 14  1  0  0  0  0
 13 34  1  0  0  0  0
 13 35  1  0  0  0  0
 14 18  1  0  0  0  0
 14 15  2  0  0  0  0
 15 16  1  0  0  0  0
 15 36  1  0  0  0  0
 16 17  2  0  0  0  0
 16 37  1  0  0  0  0
 17 18  1  0  0  0  0
 17 38  1  0  0  0  0
 19 20  1  0  0  0  0
 20 21  2  0  0  0  0
 20 39  1  0  0  0  0
 21 22  1  0  0  0  0
 22 40  1  0  0  0  0
 22 41  1  0  0  0  0
 22 42  1  0  0  0  0
M  CHG  1   5   1
M  END
> <s_m_source_file>
AV-unprocessed.smi

> <i_m_source_file_index>
473

> <i_lp_mmshare_version>
43012

> <i_f3d_flags>
0

> <s_epik_input>
W0NIM11jKFtjSF0xKWMoW0NIM10pW2NIXWMoYzEyKW4oW2NIXW4yKVtDSDJdW0NASF0oW09IXSlbQ0gyXU9bQ0gyXWMzW2NIXVtjSF1bY0hdbzM=

> <s_epik_cmdline>
J2VwaWtfcHl0aG9uJywgJy1waCcsICc3LjAnLCAnLXRuJywgJzgnLCAnLW1hJywgJzIwMCcsICctbWV0YWxfYmluZGluZycsICctaW1hZScsICc8aW5maWxlLm1hZT4nLCAnLW9tYWUnLCAnPG91dGZpbGUubWFlPic=

> <r_epik_Ionization_Penalty>
1.03981

> <r_epik_Ionization_Penalty_Charging>
1.03981

> <r_epik_Ionization_Penalty_Neutral>
9.34185e-07

> <r_epik_State_Penalty>
1.09172

> <r_epik_Charging_Adjusted_Penalty>
2.13153

> <i_epik_Tot_Q>
1

> <i_epik_Tot_abs_Q>
1

> <r_epik_Metal_State_Penalty>
5.0824

> <b_epik_Metal_Only>
0

> <s_lp_Force_Field>
OPLS_2005

> <r_lp_Energy>
14.3304

> <b_lp_Chiralities_Consistent>
1

> <s_lp_Variant>
AV-unprocessed.smi:473-4

> <Gold.Version>
5.8.1

> <Gold.Id.Protein>
6NUR|6NUR_protein|mol2

> <Gold.PLP.Fitness>
60.0496

> <Gold.PLP.PLP>
-50.8248

> <Gold.PLP.part.hbond>
-4.0000

> <Gold.PLP.part.metal>
0.0000

> <Gold.PLP.part.buried>
-7.0437

> <Gold.PLP.part.nonpolar>
-41.2090

> <Gold.PLP.part.repulsive>
0.0949

> <Gold.PLP.ligand.clash>
0.0000

> <Gold.PLP.ligand.torsion>
1.4019

> <Gold.PLP.Chemscore.Hbond>
3.9920

> <Gold.PLP.Chemscore.CHOScore>
0.0000

> <Gold.PLP.Chemscore.Metal>
0.0000

> <Gold.Chemscore.Hbonds>
donor molecule, donor type, donor heavy atom, donor atom, acceptor molecule, acceptor atom, score
      L1  H     5    43       P1  8028  2.00
      P1  H  7997  8008       L1    10  1.00
      P1  H 10752 10765       L1    12  0.85

> <Gold.PLP.Chemscore.Internal.Correction>
0.0525

> <Gold.Rescore>
     Score         DG    S(hbond)    S(metal)    S(lipo)     H(rot)  DE(clash)    DE(int)     intcor
     21.06     -22.54       2.69        0.00     123.62       2.49       0.00       1.48       ----

> <Gold.Chemscore.Fitness>
21.0633

> <Gold.Chemscore.DG>
-22.5445

> <Gold.Chemscore.ZeroCoef>
-5.4800

> <Gold.Chemscore.Hbond>
2.6884

> <Gold.Chemscore.Metal>
0.0000

> <Gold.Chemscore.Lipo>
123.6155

> <Gold.Chemscore.Internal_Hbond>
0.0000

> <Gold.Chemscore.DEClash>
0.0000

> <Gold.Chemscore.DEInternal>
1.4812

> <Gold.Chemscore.Rot>
2.4913

> <Gold.Chemscore.Internal.Correction>
   9.000000E+99

> <Gold.Chemscore.Hbonds>
donor molecule, donor type, donor heavy atom, donor atom, acceptor molecule, acceptor atom, score
      L1  H     5    43       P1  8028  0.92
      P1  H  7997  8008       L1    10  0.75
      P1  H 10752 10765       L1    12  0.23

> <Gold.Chemscore.Hbond.Weighted>
-8.9793

> <Gold.Chemscore.Metal.Weighted>
-0.0000

> <Gold.Chemscore.Lipo.Weighted>
-14.4630

> <Gold.Chemscore.Internal_Hbond.Weighted>
0.0000

> <Gold.Chemscore.DEClash.Weighted>
0.0000

> <Gold.Chemscore.DEInternal.Weighted>
1.4812

> <Gold.Chemscore.Rot.Weighted>
6.3778

> <Gold.Chemscore.Internal.Correction.Weighted>
   9.000000E+99

> <Gold.Protein.RotatedTorsions>
[ 6907 6896 6895 6894 ] final  117.57 input  -60.11 | X-H torsion
[ 7974 7965 7964 7962 ] final  -42.62 input  175.53 | X-H torsion
[ 8008 7997 7996 7995 ] final  -27.86 input   59.86 | X-H torsion
[ 10167 10162 10161 10158 ] final -141.80 input  -65.29 | X-H torsion
[ 10718 10713 10712 10709 ] final   63.26 input   66.30 | X-H torsion
[ 10763 10752 10751 10750 ] final -168.39 input  -60.55 | X-H torsion
[ 11005 11000 10999 10996 ] final  -54.10 input  -57.11 | X-H torsion

> <Gold.Protein.ActiveResidues>
 VAL166  LYS551  ARG553  GLY616  TRP617  ASP618  TYR619  PRO620  LYS621  CYS622 
 ASP623  PHE694  ASN695  SER759  ASP760  ASP761  ALA762  ILE779  LEU786  VAL792 
 PHE793  MET794  SER795  GLU796  ALA797  LYS798  CYS799  TRP800  GLU811  SER814 

> <Gold.Protein.RotatedAtoms>
  152.4603  133.7808  159.6849 H   0  0  0  0  0  0  0  0  0  0  0  0  # atno 6907 bound_to 6896
  150.8544  133.7728  159.3020 H   0  0  0  0  0  0  0  0  0  0  0  0  # atno 6908 bound_to 6896
  151.5313  135.1071  159.9955 H   0  0  0  0  0  0  0  0  0  0  0  0  # atno 6909 bound_to 6896
  146.0098  140.6978  142.9230 H   0  0  0  0  0  0  0  0  0  0  0  0  # atno 7974 bound_to 7965
  154.4358  140.1861  156.0998 H   0  0  0  0  0  0  0  0  0  0  0  0  # atno 8008 bound_to 7997
  156.0301  140.3331  155.7104 H   0  0  0  0  0  0  0  0  0  0  0  0  # atno 8009 bound_to 7997
  155.5852  140.0625  157.2764 H   0  0  0  0  0  0  0  0  0  0  0  0  # atno 8010 bound_to 7997
  139.8150  143.7651  152.2665 H   0  0  0  0  0  0  0  0  0  0  0  0  # atno 10167 bound_to 10162
  157.5959  130.9096  149.9693 H   0  0  0  0  0  0  0  0  0  0  0  0  # atno 10718 bound_to 10713
  154.6633  135.2928  154.9838 H   0  0  0  0  0  0  0  0  0  0  0  0  # atno 10763 bound_to 10752
  154.0890  135.6593  153.4853 H   0  0  0  0  0  0  0  0  0  0  0  0  # atno 10764 bound_to 10752
  153.0443  135.5215  154.7594 H   0  0  0  0  0  0  0  0  0  0  0  0  # atno 10765 bound_to 10752
  141.1009  133.6618  156.4270 H   0  0  0  0  0  0  0  0  0  0  0  0  # atno 11005 bound_to 11000
  144.6949  140.3378  143.7204 LP  0  0  0  0  0  0  0  0  0  0  0  0  # atno 17320 bound_to 7965
  145.7360  139.1750  143.2403 LP  0  0  0  0  0  0  0  0  0  0  0  0  # atno 17321 bound_to 7965
  139.7812  144.7444  151.0086 LP  0  0  0  0  0  0  0  0  0  0  0  0  # atno 17342 bound_to 10162
  140.7816  143.4540  151.0372 LP  0  0  0  0  0  0  0  0  0  0  0  0  # atno 17343 bound_to 10162
  156.1021  130.3655  150.0198 LP  0  0  0  0  0  0  0  0  0  0  0  0  # atno 17370 bound_to 10713
  156.8312  130.9393  151.3637 LP  0  0  0  0  0  0  0  0  0  0  0  0  # atno 17371 bound_to 10713
  140.5024  134.6473  157.5253 LP  0  0  0  0  0  0  0  0  0  0  0  0  # atno 17394 bound_to 11000
  139.9860  134.7060  155.9773 LP  0  0  0  0  0  0  0  0  0  0  0  0  # atno 17395 bound_to 11000

$$$$
