AV-unprocessed.smi:1429|AV-procd|sdf|5819|dock6
  -GOLD-   22720 5473D 1   1.00000     0.00000
 Structure written by MMmdl.
 30 31  0  0  0  0  0  0  0  0  1 V2000
  143.0678  143.6578  161.9542 C   0  0  0  0  0  0  0  0  0  0  0  0
  144.4763  143.7491  161.4750 C   0  0  0  0  0  0  0  0  0  0  0  0
  145.4205  142.8657  161.8220 N   0  0  0  0  0  0  0  0  0  0  0  0
  146.6513  143.1608  161.2524 N   0  0  0  0  0  0  0  0  0  0  0  0
  146.5985  144.2621  160.4906 C   0  0  0  0  0  0  0  0  0  0  0  0
  147.7134  144.7898  159.7873 N   0  0  0  0  0  0  0  0  0  0  0  0
  149.0197  144.6588  160.0774 C   0  0  0  0  0  0  0  0  0  0  0  0
  149.4762  144.0509  161.0458 O   0  0  0  0  0  0  0  0  0  0  0  0
  149.7832  145.2758  159.1640 N   0  0  0  0  0  0  0  0  0  0  0  0
  151.2428  145.3035  159.1599 C   0  0  0  0  0  0  0  0  0  0  0  0
  151.8394  143.9112  159.4381 C   0  0  1  0  0  0  0  0  0  0  0  0
  153.1787  143.6717  158.7718 C   0  0  0  0  0  0  0  0  0  0  0  0
  153.7162  142.4785  159.5572 C   0  0  0  0  0  0  0  0  0  0  0  0
  153.1638  142.5893  160.8661 O   0  0  0  0  0  0  0  0  0  0  0  0
  152.1954  143.6328  160.8997 C   0  0  0  0  0  0  0  0  0  0  0  0
  145.0250  145.0356  160.4078 S   0  0  0  0  0  0  0  0  0  0  0  0
  142.9114  142.7388  162.5200 H   0  0  0  0  0  0  0  0  0  0  0  0
  142.3843  143.6650  161.1052 H   0  0  0  0  0  0  0  0  0  0  0  0
  142.8384  144.5077  162.5970 H   0  0  0  0  0  0  0  0  0  0  0  0
  147.4896  145.3189  158.9575 H   0  0  0  0  0  0  0  0  0  0  0  0
  149.3207  145.7524  158.4035 H   0  0  0  0  0  0  0  0  0  0  0  0
  151.5634  145.6448  158.1754 H   0  0  0  0  0  0  0  0  0  0  0  0
  151.6221  146.0370  159.8738 H   0  0  0  0  0  0  0  0  0  0  0  0
  151.1426  143.1445  159.0947 H   0  0  0  0  0  0  0  0  0  0  0  0
  153.0972  143.4729  157.7028 H   0  0  0  0  0  0  0  0  0  0  0  0
  153.8330  144.5339  158.9096 H   0  0  0  0  0  0  0  0  0  0  0  0
  153.3698  141.5439  159.1144 H   0  0  0  0  0  0  0  0  0  0  0  0
  154.8061  142.4565  159.5848 H   0  0  0  0  0  0  0  0  0  0  0  0
  152.6523  144.5103  161.3597 H   0  0  0  0  0  0  0  0  0  0  0  0
  151.3281  143.3509  161.4971 H   0  0  0  0  0  0  0  0  0  0  0  0
  1  2  1  0  0  0  0
  1 17  1  0  0  0  0
  1 18  1  0  0  0  0
  1 19  1  0  0  0  0
  2 16  1  0  0  0  0
  2  3  2  0  0  0  0
  3  4  1  0  0  0  0
  4  5  2  0  0  0  0
  5  6  1  0  0  0  0
  5 16  1  0  0  0  0
  6  7  1  0  0  0  0
  6 20  1  0  0  0  0
  7  8  2  0  0  0  0
  7  9  1  0  0  0  0
  9 10  1  0  0  0  0
  9 21  1  0  0  0  0
 10 11  1  0  0  0  0
 10 22  1  0  0  0  0
 10 23  1  0  0  0  0
 11 15  1  0  0  0  0
 11 12  1  0  0  0  0
 11 24  1  0  0  0  0
 12 13  1  0  0  0  0
 12 25  1  0  0  0  0
 12 26  1  0  0  0  0
 13 14  1  0  0  0  0
 13 27  1  0  0  0  0
 13 28  1  0  0  0  0
 14 15  1  0  0  0  0
 15 29  1  0  0  0  0
 15 30  1  0  0  0  0
M  END
> <s_m_source_file>
AV-unprocessed.smi

> <i_m_source_file_index>
1429

> <i_lp_mmshare_version>
43012

> <i_f3d_flags>
0

> <s_epik_input>
W0NIM11jMW5uYyhzMSlbTkhdQyg9TylbTkhdW0NIMl1bQ0BASF0yW0NIMl1bQ0gyXU9bQ0gyXTI=

> <s_epik_cmdline>
J2VwaWtfcHl0aG9uJywgJy1waCcsICc3LjAnLCAnLXRuJywgJzgnLCAnLW1hJywgJzIwMCcsICctbWV0YWxfYmluZGluZycsICctaW1hZScsICc8aW5maWxlLm1hZT4nLCAnLW9tYWUnLCAnPG91dGZpbGUubWFlPic=

> <r_lp_tautomer_probability>
1

> <r_epik_Ionization_Penalty>
0.000468089

> <r_epik_Ionization_Penalty_Charging>
0

> <r_epik_Ionization_Penalty_Neutral>
0.000468089

> <r_epik_State_Penalty>
-0

> <r_epik_Charging_Adjusted_Penalty>
0

> <i_epik_Tot_Q>
0

> <i_epik_Tot_abs_Q>
0

> <r_epik_Metal_State_Penalty>
0.211262

> <b_epik_Metal_Only>
0

> <s_lp_Force_Field>
OPLS_2005

> <r_lp_Energy>
17.5985

> <b_lp_Chiralities_Consistent>
1

> <s_lp_Variant>
AV-unprocessed.smi:1429-2

> <Gold.Version>
5.8.1

> <Gold.Id.Protein>
6NUR|6NUR_protein|mol2

> <Gold.PLP.Fitness>
44.0462

> <Gold.PLP.PLP>
-36.3844

> <Gold.PLP.part.hbond>
-4.3849

> <Gold.PLP.part.metal>
0.0000

> <Gold.PLP.part.buried>
-7.1619

> <Gold.PLP.part.nonpolar>
-24.6172

> <Gold.PLP.part.repulsive>
0.6539

> <Gold.PLP.ligand.clash>
0.0000

> <Gold.PLP.ligand.torsion>
0.6620

> <Gold.PLP.Chemscore.Hbond>
2.9936

> <Gold.PLP.Chemscore.CHOScore>
0.0000

> <Gold.PLP.Chemscore.Metal>
0.0000

> <Gold.Chemscore.Hbonds>
donor molecule, donor type, donor heavy atom, donor atom, acceptor molecule, acceptor atom, score
      L1  H     6    20       P1  8029  1.00
      L1  H     9    21       P1  8029  1.00
      P1  H  6933  6944       L1     4  0.98
      P1  H  6934  6946       L1     4  0.06

> <Gold.PLP.Chemscore.Internal.Correction>
0.0052

> <Gold.Rescore>
     Score         DG    S(hbond)    S(metal)    S(lipo)     H(rot)  DE(clash)    DE(int)     intcor
     16.81     -21.29       2.79        0.00      84.07       1.31       0.24       4.24       ----

> <Gold.Chemscore.Fitness>
16.8131

> <Gold.Chemscore.DG>
-21.2863

> <Gold.Chemscore.ZeroCoef>
-5.4800

> <Gold.Chemscore.Hbond>
2.7933

> <Gold.Chemscore.Metal>
0.0000

> <Gold.Chemscore.Lipo>
84.0736

> <Gold.Chemscore.Internal_Hbond>
0.0000

> <Gold.Chemscore.DEClash>
0.2376

> <Gold.Chemscore.DEInternal>
4.2356

> <Gold.Chemscore.Rot>
1.3125

> <Gold.Chemscore.Internal.Correction>
   9.000000E+99

> <Gold.Chemscore.Hbonds>
donor molecule, donor type, donor heavy atom, donor atom, acceptor molecule, acceptor atom, score
      L1  H     6    20       P1  8029  0.97
      L1  H     9    21       P1  8029  0.91
      P1  H  6933  6944       L1     4  0.82

> <Gold.Chemscore.Hbond.Weighted>
-9.3296

> <Gold.Chemscore.Metal.Weighted>
-0.0000

> <Gold.Chemscore.Lipo.Weighted>
-9.8366

> <Gold.Chemscore.Internal_Hbond.Weighted>
0.0000

> <Gold.Chemscore.DEClash.Weighted>
0.2376

> <Gold.Chemscore.DEInternal.Weighted>
4.2356

> <Gold.Chemscore.Rot.Weighted>
3.3600

> <Gold.Chemscore.Internal.Correction.Weighted>
   9.000000E+99

> <Gold.Protein.RotatedTorsions>
[ 6907 6896 6895 6894 ] final  -91.38 input  -60.11 | X-H torsion
[ 7974 7965 7964 7962 ] final -169.95 input  175.53 | X-H torsion
[ 8008 7997 7996 7995 ] final  -83.00 input   59.86 | X-H torsion
[ 10167 10162 10161 10158 ] final   70.44 input  -65.29 | X-H torsion
[ 10718 10713 10712 10709 ] final   69.65 input   66.30 | X-H torsion
[ 10763 10752 10751 10750 ] final  -81.82 input  -60.55 | X-H torsion
[ 11005 11000 10999 10996 ] final  102.09 input  -57.11 | X-H torsion

> <Gold.Protein.ActiveResidues>
 VAL166  LYS551  ARG553  GLY616  TRP617  ASP618  TYR619  PRO620  LYS621  CYS622 
 ASP623  PHE694  ASN695  SER759  ASP760  ASP761  ALA762  ILE779  LEU786  VAL792 
 PHE793  MET794  SER795  GLU796  ALA797  LYS798  CYS799  TRP800  GLU811  SER814 

> <Gold.Protein.RotatedAtoms>
  150.6892  134.2286  159.4425 H   0  0  0  0  0  0  0  0  0  0  0  0  # atno 6907 bound_to 6896
  152.0238  134.9805  160.0580 H   0  0  0  0  0  0  0  0  0  0  0  0  # atno 6908 bound_to 6896
  152.1371  133.4407  159.4785 H   0  0  0  0  0  0  0  0  0  0  0  0  # atno 6909 bound_to 6896
  144.7177  140.2144  143.6323 H   0  0  0  0  0  0  0  0  0  0  0  0  # atno 7974 bound_to 7965
  154.6145  140.0625  156.9536 H   0  0  0  0  0  0  0  0  0  0  0  0  # atno 8008 bound_to 7997
  155.1919  140.3308  155.4339 H   0  0  0  0  0  0  0  0  0  0  0  0  # atno 8009 bound_to 7997
  156.2396  140.1879  156.7008 H   0  0  0  0  0  0  0  0  0  0  0  0  # atno 8010 bound_to 7997
  140.0569  144.5265  150.7322 H   0  0  0  0  0  0  0  0  0  0  0  0  # atno 10167 bound_to 10162
  157.6358  130.9437  150.0543 H   0  0  0  0  0  0  0  0  0  0  0  0  # atno 10718 bound_to 10713
  154.5682  135.5613  153.7070 H   0  0  0  0  0  0  0  0  0  0  0  0  # atno 10763 bound_to 10752
  153.0040  135.6290  154.2150 H   0  0  0  0  0  0  0  0  0  0  0  0  # atno 10764 bound_to 10752
  154.2089  135.2874  155.2945 H   0  0  0  0  0  0  0  0  0  0  0  0  # atno 10765 bound_to 10752
  139.8776  134.9210  156.5005 H   0  0  0  0  0  0  0  0  0  0  0  0  # atno 11005 bound_to 11000
  145.8560  139.2199  143.1744 LP  0  0  0  0  0  0  0  0  0  0  0  0  # atno 17320 bound_to 7965
  146.0217  140.8341  142.9920 LP  0  0  0  0  0  0  0  0  0  0  0  0  # atno 17321 bound_to 7965
  140.7190  143.2571  151.4339 LP  0  0  0  0  0  0  0  0  0  0  0  0  # atno 17342 bound_to 10162
  139.5918  144.1483  152.2097 LP  0  0  0  0  0  0  0  0  0  0  0  0  # atno 17343 bound_to 10162
  156.1595  130.3643  149.9319 LP  0  0  0  0  0  0  0  0  0  0  0  0  # atno 17370 bound_to 10713
  156.7321  130.9047  151.3626 LP  0  0  0  0  0  0  0  0  0  0  0  0  # atno 17371 bound_to 10713
  140.8593  133.8072  155.9248 LP  0  0  0  0  0  0  0  0  0  0  0  0  # atno 17394 bound_to 11000
  140.9065  134.2313  157.5011 LP  0  0  0  0  0  0  0  0  0  0  0  0  # atno 17395 bound_to 11000

$$$$
