AV-unprocessed.smi:1302|AV-procd|sdf|5427|dock2
  -GOLD-   22720 4583D 1   1.00000     0.00000
 Structure written by MMmdl.
 43 44  0  0  0  0  0  0  0  0  1 V2000
  145.9321  143.1859  154.8562 C   0  0  0  0  0  0  0  0  0  0  0  0
  146.9026  142.1244  154.3215 C   0  0  0  0  0  0  0  0  0  0  0  0
  146.2012  140.7753  154.0981 C   0  0  0  0  0  0  0  0  0  0  0  0
  148.0165  141.9726  155.2532 N   0  0  0  0  0  0  0  0  0  0  0  0
  149.2216  141.4615  154.9507 C   0  0  0  0  0  0  0  0  0  0  0  0
  149.5176  141.0293  153.8365 O   0  0  0  0  0  0  0  0  0  0  0  0
  150.1954  141.3786  156.0906 C   0  0  0  0  0  0  0  0  0  0  0  0
  151.2840  140.4827  156.0432 C   0  0  0  0  0  0  0  0  0  0  0  0
  152.1905  140.4459  157.1200 C   0  0  0  0  0  0  0  0  0  0  0  0
  151.9921  141.3129  158.2200 C   0  0  0  0  0  0  0  0  0  0  0  0
  152.8867  141.2885  159.3113 N   0  0  0  0  0  0  0  0  0  0  0  0
  153.3714  139.9664  159.6977 C   0  0  0  0  0  0  0  0  0  0  0  0
  154.5706  140.0755  160.6602 C   0  0  1  0  0  0  0  0  0  0  0  0
  155.8821  140.4753  159.9607 C   0  0  0  0  0  0  0  0  0  0  0  0
  154.2532  140.9432  161.7508 O   0  0  0  0  0  0  0  0  0  0  0  0
  153.8332  142.2528  161.3704 C   0  0  2  0  0  0  0  0  0  0  0  0
  153.5312  143.0440  162.6472 C   0  0  0  0  0  0  0  0  0  0  0  0
  152.6016  142.1524  160.4533 C   0  0  0  0  0  0  0  0  0  0  0  0
  150.9559  142.1866  158.2560 N   0  0  0  0  0  0  0  0  0  0  0  0
  150.0894  142.2181  157.2217 C   0  0  0  0  0  0  0  0  0  0  0  0
  145.1027  143.3411  154.1656 H   0  0  0  0  0  0  0  0  0  0  0  0
  146.4332  144.1455  154.9886 H   0  0  0  0  0  0  0  0  0  0  0  0
  145.5123  142.8925  155.8191 H   0  0  0  0  0  0  0  0  0  0  0  0
  147.2869  142.4795  153.3634 H   0  0  0  0  0  0  0  0  0  0  0  0
  145.3690  140.8778  153.4013 H   0  0  0  0  0  0  0  0  0  0  0  0
  145.8056  140.3736  155.0317 H   0  0  0  0  0  0  0  0  0  0  0  0
  146.8865  140.0363  153.6816 H   0  0  0  0  0  0  0  0  0  0  0  0
  147.8577  142.2779  156.2025 H   0  0  0  0  0  0  0  0  0  0  0  0
  151.4290  139.8274  155.1964 H   0  0  0  0  0  0  0  0  0  0  0  0
  153.0302  139.7681  157.0832 H   0  0  0  0  0  0  0  0  0  0  0  0
  152.5549  139.4373  160.1909 H   0  0  0  0  0  0  0  0  0  0  0  0
  153.6543  139.3652  158.8347 H   0  0  0  0  0  0  0  0  0  0  0  0
  154.7352  139.0897  161.0961 H   0  0  0  0  0  0  0  0  0  0  0  0
  156.1713  139.7242  159.2252 H   0  0  0  0  0  0  0  0  0  0  0  0
  156.6962  140.5616  160.6804 H   0  0  0  0  0  0  0  0  0  0  0  0
  155.7975  141.4253  159.4338 H   0  0  0  0  0  0  0  0  0  0  0  0
  154.6414  142.7600  160.8431 H   0  0  0  0  0  0  0  0  0  0  0  0
  153.2143  144.0606  162.4133 H   0  0  0  0  0  0  0  0  0  0  0  0
  154.4145  143.1097  163.2828 H   0  0  0  0  0  0  0  0  0  0  0  0
  152.7380  142.5707  163.2269 H   0  0  0  0  0  0  0  0  0  0  0  0
  152.3243  143.1506  160.1116 H   0  0  0  0  0  0  0  0  0  0  0  0
  151.7518  141.7480  161.0051 H   0  0  0  0  0  0  0  0  0  0  0  0
  149.2916  142.9413  157.3087 H   0  0  0  0  0  0  0  0  0  0  0  0
  1  2  1  0  0  0  0
  1 21  1  0  0  0  0
  1 22  1  0  0  0  0
  1 23  1  0  0  0  0
  2  3  1  0  0  0  0
  2  4  1  0  0  0  0
  2 24  1  0  0  0  0
  3 25  1  0  0  0  0
  3 26  1  0  0  0  0
  3 27  1  0  0  0  0
  4  5  1  0  0  0  0
  4 28  1  0  0  0  0
  5  6  2  0  0  0  0
  5  7  1  0  0  0  0
  7 20  1  0  0  0  0
  7  8  2  0  0  0  0
  8  9  1  0  0  0  0
  8 29  1  0  0  0  0
  9 10  2  0  0  0  0
  9 30  1  0  0  0  0
 10 11  1  0  0  0  0
 10 19  1  0  0  0  0
 11 18  1  0  0  0  0
 11 12  1  0  0  0  0
 12 13  1  0  0  0  0
 12 31  1  0  0  0  0
 12 32  1  0  0  0  0
 13 14  1  0  0  0  0
 13 15  1  0  0  0  0
 13 33  1  0  0  0  0
 14 34  1  0  0  0  0
 14 35  1  0  0  0  0
 14 36  1  0  0  0  0
 15 16  1  0  0  0  0
 16 17  1  0  0  0  0
 16 18  1  0  0  0  0
 16 37  1  0  0  0  0
 17 38  1  0  0  0  0
 17 39  1  0  0  0  0
 17 40  1  0  0  0  0
 18 41  1  0  0  0  0
 18 42  1  0  0  0  0
 19 20  2  0  0  0  0
 20 43  1  0  0  0  0
M  END
> <s_m_source_file>
AV-unprocessed.smi

> <i_m_source_file_index>
1302

> <i_lp_mmshare_version>
43012

> <i_f3d_flags>
0

> <s_epik_input>
W0NIM11bQ0hdKFtDSDNdKVtOSF1DKD1PKWMxW2NIXVtjSF1jKG5bY0hdMSlOMltDSDJdW0NAQEhdKFtDSDNdKU9bQ0BASF0oW0NIM10pW0NIMl0y

> <s_epik_cmdline>
J2VwaWtfcHl0aG9uJywgJy1waCcsICc3LjAnLCAnLXRuJywgJzgnLCAnLW1hJywgJzIwMCcsICctbWV0YWxfYmluZGluZycsICctaW1hZScsICc8aW5maWxlLm1hZT4nLCAnLW9tYWUnLCAnPG91dGZpbGUubWFlPic=

> <r_lp_tautomer_probability>
1

> <r_epik_Ionization_Penalty>
2.23089e-05

> <r_epik_Ionization_Penalty_Charging>
0

> <r_epik_Ionization_Penalty_Neutral>
2.23089e-05

> <r_epik_State_Penalty>
-0

> <r_epik_Charging_Adjusted_Penalty>
0

> <i_epik_Tot_Q>
0

> <i_epik_Tot_abs_Q>
0

> <r_epik_Metal_State_Penalty>
-0

> <b_epik_Metal_Only>
0

> <s_lp_Force_Field>
OPLS_2005

> <r_lp_Energy>
20.4022

> <b_lp_Chiralities_Consistent>
1

> <s_lp_Variant>
AV-unprocessed.smi:1302-3

> <Gold.Version>
5.8.1

> <Gold.Id.Protein>
6NUR|6NUR_protein|mol2

> <Gold.PLP.Fitness>
43.8883

> <Gold.PLP.PLP>
-38.9600

> <Gold.PLP.part.hbond>
-3.0000

> <Gold.PLP.part.metal>
0.0000

> <Gold.PLP.part.buried>
-2.9075

> <Gold.PLP.part.nonpolar>
-33.1137

> <Gold.PLP.part.repulsive>
2.0592

> <Gold.PLP.ligand.clash>
0.0000

> <Gold.PLP.ligand.torsion>
0.7899

> <Gold.PLP.Chemscore.Hbond>
1.2287

> <Gold.PLP.Chemscore.CHOScore>
0.8275

> <Gold.PLP.Chemscore.Metal>
0.0000

> <Gold.Chemscore.Hbonds>
donor molecule, donor type, donor heavy atom, donor atom, acceptor molecule, acceptor atom, score
      P1  H  7989  7998       L1     6  0.29
      P1  H  8011  8017       L1     6  0.86
      L1  C    20    43       P1  8028  0.88

> <Gold.PLP.Chemscore.Internal.Correction>
0.3397

> <Gold.Rescore>
     Score         DG    S(hbond)    S(metal)    S(lipo)     H(rot)  DE(clash)    DE(int)     intcor
     14.81     -16.95       1.16        0.00      90.05       1.15       1.67       0.47       ----

> <Gold.Chemscore.Fitness>
14.8061

> <Gold.Chemscore.DG>
-16.9505

> <Gold.Chemscore.ZeroCoef>
-5.4800

> <Gold.Chemscore.Hbond>
1.1618

> <Gold.Chemscore.Metal>
0.0000

> <Gold.Chemscore.Lipo>
90.0535

> <Gold.Chemscore.Internal_Hbond>
0.0000

> <Gold.Chemscore.DEClash>
1.6725

> <Gold.Chemscore.DEInternal>
0.4718

> <Gold.Chemscore.Rot>
1.1508

> <Gold.Chemscore.Internal.Correction>
   9.000000E+99

> <Gold.Chemscore.Hbonds>
donor molecule, donor type, donor heavy atom, donor atom, acceptor molecule, acceptor atom, score
      P1  H  7989  7998       L1     6  0.26
      P1  H  8011  8017       L1     6  0.76

> <Gold.Chemscore.Hbond.Weighted>
-3.8803

> <Gold.Chemscore.Metal.Weighted>
-0.0000

> <Gold.Chemscore.Lipo.Weighted>
-10.5363

> <Gold.Chemscore.Internal_Hbond.Weighted>
0.0000

> <Gold.Chemscore.DEClash.Weighted>
1.6725

> <Gold.Chemscore.DEInternal.Weighted>
0.4718

> <Gold.Chemscore.Rot.Weighted>
2.9461

> <Gold.Chemscore.Internal.Correction.Weighted>
   9.000000E+99

> <Gold.Protein.RotatedTorsions>
[ 6907 6896 6895 6894 ] final   63.57 input  -60.11 | X-H torsion
[ 7974 7965 7964 7962 ] final  -97.23 input  175.53 | X-H torsion
[ 8008 7997 7996 7995 ] final  -77.76 input   59.86 | X-H torsion
[ 10167 10162 10161 10158 ] final  153.13 input  -65.29 | X-H torsion
[ 10718 10713 10712 10709 ] final  124.19 input   66.30 | X-H torsion
[ 10763 10752 10751 10750 ] final   89.10 input  -60.55 | X-H torsion
[ 11005 11000 10999 10996 ] final    5.04 input  -57.11 | X-H torsion

> <Gold.Protein.ActiveResidues>
 VAL166  LYS551  ARG553  GLY616  TRP617  ASP618  TYR619  PRO620  LYS621  CYS622 
 ASP623  PHE694  ASN695  SER759  ASP760  ASP761  ALA762  ILE779  LEU786  VAL792 
 PHE793  MET794  SER795  GLU796  ALA797  LYS798  CYS799  TRP800  GLU811  SER814 

> <Gold.Protein.RotatedAtoms>
  152.4264  134.5861  159.9960 H   0  0  0  0  0  0  0  0  0  0  0  0  # atno 6907 bound_to 6896
  151.5996  133.3352  159.3052 H   0  0  0  0  0  0  0  0  0  0  0  0  # atno 6908 bound_to 6896
  150.8154  134.7369  159.6790 H   0  0  0  0  0  0  0  0  0  0  0  0  # atno 6909 bound_to 6896
  145.3365  140.9451  143.2632 H   0  0  0  0  0  0  0  0  0  0  0  0  # atno 7974 bound_to 7965
  154.5626  140.0705  156.8842 H   0  0  0  0  0  0  0  0  0  0  0  0  # atno 8008 bound_to 7997
  155.2783  140.3370  155.4242 H   0  0  0  0  0  0  0  0  0  0  0  0  # atno 8009 bound_to 7997
  156.2054  140.1738  156.7796 H   0  0  0  0  0  0  0  0  0  0  0  0  # atno 8010 bound_to 7997
  139.4829  144.5299  151.7740 H   0  0  0  0  0  0  0  0  0  0  0  0  # atno 10167 bound_to 10162
  157.5605  131.1090  150.8547 H   0  0  0  0  0  0  0  0  0  0  0  0  # atno 10718 bound_to 10713
  153.1836  135.4482  155.0060 H   0  0  0  0  0  0  0  0  0  0  0  0  # atno 10763 bound_to 10752
  154.8046  135.3269  154.7467 H   0  0  0  0  0  0  0  0  0  0  0  0  # atno 10764 bound_to 10752
  153.7928  135.6969  153.4923 H   0  0  0  0  0  0  0  0  0  0  0  0  # atno 10765 bound_to 10752
  140.5752  134.0065  155.8025 H   0  0  0  0  0  0  0  0  0  0  0  0  # atno 11005 bound_to 11000
  144.8824  139.4886  143.6717 LP  0  0  0  0  0  0  0  0  0  0  0  0  # atno 17320 bound_to 7965
  146.3025  139.7471  142.9081 LP  0  0  0  0  0  0  0  0  0  0  0  0  # atno 17321 bound_to 7965
  140.4824  144.1430  150.5935 LP  0  0  0  0  0  0  0  0  0  0  0  0  # atno 17342 bound_to 10162
  140.4263  143.2588  151.9652 LP  0  0  0  0  0  0  0  0  0  0  0  0  # atno 17343 bound_to 10162
  156.9046  130.5259  149.5282 LP  0  0  0  0  0  0  0  0  0  0  0  0  # atno 17370 bound_to 10713
  156.0658  130.5701  150.9285 LP  0  0  0  0  0  0  0  0  0  0  0  0  # atno 17371 bound_to 10713
  141.1031  133.9737  157.3044 LP  0  0  0  0  0  0  0  0  0  0  0  0  # atno 17394 bound_to 11000
  139.9343  135.0198  156.8503 LP  0  0  0  0  0  0  0  0  0  0  0  0  # atno 17395 bound_to 11000

$$$$
