AV-unprocessed.smi:1620|AV-procd|sdf|6491|dock3
  -GOLD-   22720 7153D 1   1.00000     0.00000
 Structure written by MMmdl.
 40 40  0  0  0  0  0  0  0  0  1 V2000
  151.3225  145.4645  160.2991 C   0  0  0  0  0  0  0  0  0  0  0  0
  152.3479  144.3853  159.9071 C   0  0  0  0  0  0  0  0  0  0  0  0
  152.5159  144.3712  158.3759 C   0  0  0  0  0  0  0  0  0  0  0  0
  151.9822  142.9877  160.4862 C   0  0  2  0  0  0  0  0  0  0  0  0
  152.0438  142.9006  162.0265 C   0  0  0  0  0  0  0  0  0  0  0  0
  152.7836  141.8983  159.8704 N   0  0  0  0  0  0  0  0  0  0  0  0
  153.8537  141.3414  160.7093 C   0  0  0  0  0  0  0  0  0  0  0  0
  152.5317  141.3097  158.6706 C   0  0  0  0  0  0  0  0  0  0  0  0
  153.3652  140.6139  158.0876 O   0  0  0  0  0  0  0  0  0  0  0  0
  151.3368  141.6230  158.1331 N   0  0  0  0  0  0  0  0  0  0  0  0
  150.7907  141.1767  156.9033 C   0  0  0  0  0  0  0  0  0  0  0  0
  151.4166  140.2483  156.0316 C   0  0  0  0  0  0  0  0  0  0  0  0
  150.6742  140.0224  154.9585 N   0  0  0  0  0  0  0  0  0  0  0  0
  149.5729  140.7981  155.1230 N   0  0  0  0  0  0  0  0  0  0  0  0
  148.5335  140.7971  154.1095 C   0  0  0  0  0  0  0  0  0  0  0  0
  147.9753  139.3897  153.8926 C   0  0  0  0  0  0  0  0  0  0  0  0
  148.0555  138.8860  152.6581 N   0  0  0  0  0  0  0  0  0  0  0  0
  147.4790  138.7655  154.8279 O   0  0  0  0  0  0  0  0  0  0  0  0
  149.6131  141.5182  156.3009 C   0  0  0  0  0  0  0  0  0  0  0  0
  150.3214  145.2054  159.9531 H   0  0  0  0  0  0  0  0  0  0  0  0
  151.5830  146.4293  159.8628 H   0  0  0  0  0  0  0  0  0  0  0  0
  151.2789  145.6093  161.3782 H   0  0  0  0  0  0  0  0  0  0  0  0
  153.3050  144.6928  160.3290 H   0  0  0  0  0  0  0  0  0  0  0  0
  151.6008  144.0463  157.8800 H   0  0  0  0  0  0  0  0  0  0  0  0
  153.3213  143.7077  158.0614 H   0  0  0  0  0  0  0  0  0  0  0  0
  152.7604  145.3649  157.9995 H   0  0  0  0  0  0  0  0  0  0  0  0
  150.9247  142.8414  160.2670 H   0  0  0  0  0  0  0  0  0  0  0  0
  151.2799  143.5231  162.4915 H   0  0  0  0  0  0  0  0  0  0  0  0
  153.0084  143.2216  162.4194 H   0  0  0  0  0  0  0  0  0  0  0  0
  151.8677  141.8799  162.3674 H   0  0  0  0  0  0  0  0  0  0  0  0
  154.7569  141.1535  160.1263 H   0  0  0  0  0  0  0  0  0  0  0  0
  153.5345  140.3981  161.1544 H   0  0  0  0  0  0  0  0  0  0  0  0
  154.1430  142.0101  161.5190 H   0  0  0  0  0  0  0  0  0  0  0  0
  150.7527  142.2454  158.6725 H   0  0  0  0  0  0  0  0  0  0  0  0
  152.3638  139.7406  156.1393 H   0  0  0  0  0  0  0  0  0  0  0  0
  147.7352  141.4819  154.4012 H   0  0  0  0  0  0  0  0  0  0  0  0
  148.9544  141.1760  153.1771 H   0  0  0  0  0  0  0  0  0  0  0  0
  147.7076  137.9569  152.4702 H   0  0  0  0  0  0  0  0  0  0  0  0
  148.4718  139.4333  151.9188 H   0  0  0  0  0  0  0  0  0  0  0  0
  148.8175  142.1899  156.5877 H   0  0  0  0  0  0  0  0  0  0  0  0
  1  2  1  0  0  0  0
  1 20  1  0  0  0  0
  1 21  1  0  0  0  0
  1 22  1  0  0  0  0
  2  3  1  0  0  0  0
  2  4  1  0  0  0  0
  2 23  1  0  0  0  0
  3 24  1  0  0  0  0
  3 25  1  0  0  0  0
  3 26  1  0  0  0  0
  4  5  1  0  0  0  0
  4  6  1  0  0  0  0
  4 27  1  0  0  0  0
  5 28  1  0  0  0  0
  5 29  1  0  0  0  0
  5 30  1  0  0  0  0
  6  7  1  0  0  0  0
  6  8  1  0  0  0  0
  7 31  1  0  0  0  0
  7 32  1  0  0  0  0
  7 33  1  0  0  0  0
  8  9  2  0  0  0  0
  8 10  1  0  0  0  0
 10 11  1  0  0  0  0
 10 34  1  0  0  0  0
 11 19  2  0  0  0  0
 11 12  1  0  0  0  0
 12 13  2  0  0  0  0
 12 35  1  0  0  0  0
 13 14  1  0  0  0  0
 14 15  1  0  0  0  0
 14 19  1  0  0  0  0
 15 16  1  0  0  0  0
 15 36  1  0  0  0  0
 15 37  1  0  0  0  0
 16 17  1  0  0  0  0
 16 18  2  0  0  0  0
 17 38  1  0  0  0  0
 17 39  1  0  0  0  0
 19 40  1  0  0  0  0
M  END
> <s_m_source_file>
AV-unprocessed.smi

> <i_m_source_file_index>
1620

> <i_lp_mmshare_version>
43012

> <i_f3d_flags>
0

> <s_epik_input>
W0NIM11bQ0hdKFtDSDNdKVtDQEhdKFtDSDNdKU4oW0NIM10pQyg9TylbTkhdYzFbY0hdbm4oW2NIXTEpW0NIMl1DKD1PKVtOSDJd

> <s_epik_cmdline>
J2VwaWtfcHl0aG9uJywgJy1waCcsICc3LjAnLCAnLXRuJywgJzgnLCAnLW1hJywgJzIwMCcsICctbWV0YWxfYmluZGluZycsICctaW1hZScsICc8aW5maWxlLm1hZT4nLCAnLW9tYWUnLCAnPG91dGZpbGUubWFlPic=

> <r_lp_tautomer_probability>
1

> <r_epik_Ionization_Penalty>
4.85642e-05

> <r_epik_Ionization_Penalty_Charging>
0

> <r_epik_Ionization_Penalty_Neutral>
4.85642e-05

> <r_epik_State_Penalty>
-0

> <r_epik_Charging_Adjusted_Penalty>
0

> <i_epik_Tot_Q>
0

> <i_epik_Tot_abs_Q>
0

> <r_epik_Metal_State_Penalty>
-0

> <b_epik_Metal_Only>
0

> <s_lp_Force_Field>
OPLS_2005

> <r_lp_Energy>
32.3257

> <b_lp_Chiralities_Consistent>
1

> <s_lp_Variant>
AV-unprocessed.smi:1620-1

> <Gold.Version>
5.8.1

> <Gold.Id.Protein>
6NUR|6NUR_protein|mol2

> <Gold.PLP.Fitness>
52.3094

> <Gold.PLP.PLP>
-43.3690

> <Gold.PLP.part.hbond>
-3.8834

> <Gold.PLP.part.metal>
0.0000

> <Gold.PLP.part.buried>
-0.5157

> <Gold.PLP.part.nonpolar>
-39.9483

> <Gold.PLP.part.repulsive>
0.2630

> <Gold.PLP.ligand.clash>
0.7981

> <Gold.PLP.ligand.torsion>
0.8713

> <Gold.PLP.Chemscore.Hbond>
2.8377

> <Gold.PLP.Chemscore.CHOScore>
0.9096

> <Gold.PLP.Chemscore.Metal>
0.0000

> <Gold.Chemscore.Hbonds>
donor molecule, donor type, donor heavy atom, donor atom, acceptor molecule, acceptor atom, score
      L1  H    17    38       P1  7948  0.29
      L1  H    17    39       P1  7957  0.86
      P1  H  7989  7998       L1    13  1.00
      P1  H  7997  8009       L1     9  0.69
      L1  C    19    40       P1  8028  0.46

> <Gold.PLP.Chemscore.Internal.Correction>
0.2392

> <Gold.Rescore>
     Score         DG    S(hbond)    S(metal)    S(lipo)     H(rot)  DE(clash)    DE(int)     intcor
     15.51     -18.67       2.19        0.00      96.35       2.10       0.52       2.64       ----

> <Gold.Chemscore.Fitness>
15.5116

> <Gold.Chemscore.DG>
-18.6691

> <Gold.Chemscore.ZeroCoef>
-5.4800

> <Gold.Chemscore.Hbond>
2.1863

> <Gold.Chemscore.Metal>
0.0000

> <Gold.Chemscore.Lipo>
96.3494

> <Gold.Chemscore.Internal_Hbond>
0.0000

> <Gold.Chemscore.DEClash>
0.5181

> <Gold.Chemscore.DEInternal>
2.6393

> <Gold.Chemscore.Rot>
2.1039

> <Gold.Chemscore.Internal.Correction>
   9.000000E+99

> <Gold.Chemscore.Hbonds>
donor molecule, donor type, donor heavy atom, donor atom, acceptor molecule, acceptor atom, score
      L1  H    17    38       P1  7948  0.28
      L1  H    17    39       P1  7957  0.83
      P1  H  7989  7998       L1    13  0.22
      P1  H  7997  8009       L1     9  0.68

> <Gold.Chemscore.Hbond.Weighted>
-7.3022

> <Gold.Chemscore.Metal.Weighted>
-0.0000

> <Gold.Chemscore.Lipo.Weighted>
-11.2729

> <Gold.Chemscore.Internal_Hbond.Weighted>
0.0000

> <Gold.Chemscore.DEClash.Weighted>
0.5181

> <Gold.Chemscore.DEInternal.Weighted>
2.6393

> <Gold.Chemscore.Rot.Weighted>
5.3860

> <Gold.Chemscore.Internal.Correction.Weighted>
   9.000000E+99

> <Gold.Protein.RotatedTorsions>
[ 6907 6896 6895 6894 ] final  -91.27 input  -60.11 | X-H torsion
[ 7974 7965 7964 7962 ] final  -33.87 input  175.53 | X-H torsion
[ 8008 7997 7996 7995 ] final  156.38 input   59.86 | X-H torsion
[ 10167 10162 10161 10158 ] final -152.73 input  -65.29 | X-H torsion
[ 10718 10713 10712 10709 ] final   35.65 input   66.30 | X-H torsion
[ 10763 10752 10751 10750 ] final  -15.59 input  -60.55 | X-H torsion
[ 11005 11000 10999 10996 ] final -156.63 input  -57.11 | X-H torsion

> <Gold.Protein.ActiveResidues>
 VAL166  LYS551  ARG553  GLY616  TRP617  ASP618  TYR619  PRO620  LYS621  CYS622 
 ASP623  PHE694  ASN695  SER759  ASP760  ASP761  ALA762  ILE779  LEU786  VAL792 
 PHE793  MET794  SER795  GLU796  ALA797  LYS798  CYS799  TRP800  GLU811  SER814 

> <Gold.Protein.RotatedAtoms>
  150.6890  134.2303  159.4431 H   0  0  0  0  0  0  0  0  0  0  0  0  # atno 6907 bound_to 6896
  152.0254  134.9796  160.0581 H   0  0  0  0  0  0  0  0  0  0  0  0  # atno 6908 bound_to 6896
  152.1356  133.4399  159.4779 H   0  0  0  0  0  0  0  0  0  0  0  0  # atno 6909 bound_to 6896
  146.0876  140.5969  142.8879 H   0  0  0  0  0  0  0  0  0  0  0  0  # atno 7974 bound_to 7965
  156.2426  140.1914  156.6946 H   0  0  0  0  0  0  0  0  0  0  0  0  # atno 8008 bound_to 7997
  154.6226  140.0606  156.9660 H   0  0  0  0  0  0  0  0  0  0  0  0  # atno 8009 bound_to 7997
  155.1837  140.3278  155.4373 H   0  0  0  0  0  0  0  0  0  0  0  0  # atno 8010 bound_to 7997
  139.7157  143.9037  152.2485 H   0  0  0  0  0  0  0  0  0  0  0  0  # atno 10167 bound_to 10162
  157.3253  130.7469  149.6812 H   0  0  0  0  0  0  0  0  0  0  0  0  # atno 10718 bound_to 10713
  153.5456  135.7012  153.5616 H   0  0  0  0  0  0  0  0  0  0  0  0  # atno 10763 bound_to 10752
  153.3562  135.3982  155.1684 H   0  0  0  0  0  0  0  0  0  0  0  0  # atno 10764 bound_to 10752
  154.8668  135.3777  154.4963 H   0  0  0  0  0  0  0  0  0  0  0  0  # atno 10765 bound_to 10752
  140.6734  134.4222  157.5230 H   0  0  0  0  0  0  0  0  0  0  0  0  # atno 11005 bound_to 11000
  144.7336  140.4745  143.6919 LP  0  0  0  0  0  0  0  0  0  0  0  0  # atno 17320 bound_to 7965
  145.6101  139.1512  143.3080 LP  0  0  0  0  0  0  0  0  0  0  0  0  # atno 17321 bound_to 7965
  139.8919  144.6961  150.8761 LP  0  0  0  0  0  0  0  0  0  0  0  0  # atno 17342 bound_to 10162
  140.7743  143.3580  151.1884 LP  0  0  0  0  0  0  0  0  0  0  0  0  # atno 17343 bound_to 10162
  155.9690  130.4211  150.4453 LP  0  0  0  0  0  0  0  0  0  0  0  0  # atno 17370 bound_to 10713
  157.2476  131.0539  151.2399 LP  0  0  0  0  0  0  0  0  0  0  0  0  # atno 17371 bound_to 10713
  139.8974  134.8637  156.2045 LP  0  0  0  0  0  0  0  0  0  0  0  0  # atno 17394 bound_to 11000
  141.0374  133.6956  156.1537 LP  0  0  0  0  0  0  0  0  0  0  0  0  # atno 17395 bound_to 11000

$$$$
