AV-unprocessed.smi:1580|AV-procd|sdf|6358|dock4
  -GOLD-   22720 6583D 1   1.00000     0.00000
 Structure written by MMmdl.
 37 38  0  0  0  0  0  0  0  0  1 V2000
  152.1462  138.1875  159.5467 C   0  0  0  0  0  0  0  0  0  0  0  0
  153.2710  137.2701  158.4176 S   0  0  0  0  0  0  0  0  0  0  0  0
  154.2314  138.2333  157.8568 O   0  0  0  0  0  0  0  0  0  0  0  0
  153.7658  136.0792  159.1258 O   0  0  0  0  0  0  0  0  0  0  0  0
  152.1919  136.7205  157.1006 C   0  0  0  0  0  0  0  0  0  0  0  0
  151.8489  137.5943  156.0499 C   0  0  0  0  0  0  0  0  0  0  0  0
  150.9569  137.1303  155.0644 C   0  0  0  0  0  0  0  0  0  0  0  0
  150.4400  135.8149  155.1711 C   0  0  0  0  0  0  0  0  0  0  0  0
  149.5234  135.2271  154.2557 N   0  0  0  0  0  0  0  0  0  0  0  0
  148.7632  134.1276  154.4005 C   0  0  0  0  0  0  0  0  0  0  0  0
  148.7075  133.4223  155.4072 O   0  0  0  0  0  0  0  0  0  0  0  0
  148.0445  133.8888  153.2949 N   0  0  0  0  0  0  0  0  0  0  0  0
  147.1219  132.7723  153.1229 C   0  0  0  0  0  0  0  0  0  0  0  0
  146.5135  132.7446  151.7107 C   0  0  2  0  0  0  0  0  0  0  0  0
  145.3963  133.7664  151.5068 C   0  0  0  0  0  0  0  0  0  0  0  0
  144.6038  133.1329  150.3869 C   0  0  0  0  0  0  0  0  0  0  0  0
  144.6725  131.6548  150.7584 C   0  0  0  0  0  0  0  0  0  0  0  0
  145.9084  131.4801  151.4475 O   0  0  0  0  0  0  0  0  0  0  0  0
  150.8394  135.0399  156.2816 C   0  0  0  0  0  0  0  0  0  0  0  0
  151.6913  135.4743  157.2339 N   0  0  0  0  0  0  0  0  0  0  0  0
  152.7142  138.5671  160.3955 H   0  0  0  0  0  0  0  0  0  0  0  0
  151.3635  137.5181  159.9033 H   0  0  0  0  0  0  0  0  0  0  0  0
  151.6941  139.0212  159.0100 H   0  0  0  0  0  0  0  0  0  0  0  0
  152.2516  138.5948  155.9967 H   0  0  0  0  0  0  0  0  0  0  0  0
  150.6837  137.7988  154.2641 H   0  0  0  0  0  0  0  0  0  0  0  0
  149.4122  135.7235  153.3837 H   0  0  0  0  0  0  0  0  0  0  0  0
  148.1410  134.5225  152.5151 H   0  0  0  0  0  0  0  0  0  0  0  0
  147.6636  131.8457  153.3152 H   0  0  0  0  0  0  0  0  0  0  0  0
  146.3318  132.8304  153.8735 H   0  0  0  0  0  0  0  0  0  0  0  0
  147.2830  132.9124  150.9552 H   0  0  0  0  0  0  0  0  0  0  0  0
  144.7770  133.8463  152.4015 H   0  0  0  0  0  0  0  0  0  0  0  0
  145.7694  134.7605  151.2589 H   0  0  0  0  0  0  0  0  0  0  0  0
  143.5827  133.5088  150.3152 H   0  0  0  0  0  0  0  0  0  0  0  0
  145.1017  133.3051  149.4318 H   0  0  0  0  0  0  0  0  0  0  0  0
  143.8597  131.3954  151.4378 H   0  0  0  0  0  0  0  0  0  0  0  0
  144.6054  131.0036  149.8866 H   0  0  0  0  0  0  0  0  0  0  0  0
  150.4609  134.0367  156.4133 H   0  0  0  0  0  0  0  0  0  0  0  0
  1  2  1  0  0  0  0
  1 21  1  0  0  0  0
  1 22  1  0  0  0  0
  1 23  1  0  0  0  0
  2  3  2  0  0  0  0
  2  4  2  0  0  0  0
  2  5  1  0  0  0  0
  5 20  1  0  0  0  0
  5  6  2  0  0  0  0
  6  7  1  0  0  0  0
  6 24  1  0  0  0  0
  7  8  2  0  0  0  0
  7 25  1  0  0  0  0
  8  9  1  0  0  0  0
  8 19  1  0  0  0  0
  9 10  1  0  0  0  0
  9 26  1  0  0  0  0
 10 11  2  0  0  0  0
 10 12  1  0  0  0  0
 12 13  1  0  0  0  0
 12 27  1  0  0  0  0
 13 14  1  0  0  0  0
 13 28  1  0  0  0  0
 13 29  1  0  0  0  0
 14 18  1  0  0  0  0
 14 15  1  0  0  0  0
 14 30  1  0  0  0  0
 15 16  1  0  0  0  0
 15 31  1  0  0  0  0
 15 32  1  0  0  0  0
 16 17  1  0  0  0  0
 16 33  1  0  0  0  0
 16 34  1  0  0  0  0
 17 18  1  0  0  0  0
 17 35  1  0  0  0  0
 17 36  1  0  0  0  0
 19 20  2  0  0  0  0
 19 37  1  0  0  0  0
M  END
> <s_m_source_file>
AV-unprocessed.smi

> <i_m_source_file_index>
1580

> <i_lp_mmshare_version>
43012

> <i_f3d_flags>
0

> <s_epik_input>
W0NIM11TKD1PKSg9TyljMVtjSF1bY0hdYyhbY0hdbjEpW05IXUMoPU8pW05IXVtDSDJdW0NAQEhdMltDSDJdW0NIMl1bQ0gyXU8y

> <s_epik_cmdline>
J2VwaWtfcHl0aG9uJywgJy1waCcsICc3LjAnLCAnLXRuJywgJzgnLCAnLW1hJywgJzIwMCcsICctbWV0YWxfYmluZGluZycsICctaW1hZScsICc8aW5maWxlLm1hZT4nLCAnLW9tYWUnLCAnPG91dGZpbGUubWFlPic=

> <r_lp_tautomer_probability>
1

> <r_epik_Ionization_Penalty>
3.28405e-05

> <r_epik_Ionization_Penalty_Charging>
0

> <r_epik_Ionization_Penalty_Neutral>
3.28405e-05

> <r_epik_State_Penalty>
-0

> <r_epik_Charging_Adjusted_Penalty>
0

> <i_epik_Tot_Q>
0

> <i_epik_Tot_abs_Q>
0

> <r_epik_Metal_State_Penalty>
-0

> <b_epik_Metal_Only>
0

> <s_lp_Force_Field>
OPLS_2005

> <r_lp_Energy>
18.5173

> <b_lp_Chiralities_Consistent>
1

> <s_lp_Variant>
AV-unprocessed.smi:1580-1

> <Gold.Version>
5.8.1

> <Gold.Id.Protein>
6NUR|6NUR_protein|mol2

> <Gold.PLP.Fitness>
39.6667

> <Gold.PLP.PLP>
-28.3662

> <Gold.PLP.part.hbond>
-5.2519

> <Gold.PLP.part.metal>
0.0000

> <Gold.PLP.part.buried>
-4.5905

> <Gold.PLP.part.nonpolar>
-18.8740

> <Gold.PLP.part.repulsive>
0.1787

> <Gold.PLP.ligand.clash>
0.0000

> <Gold.PLP.ligand.torsion>
1.1989

> <Gold.PLP.Chemscore.Hbond>
3.8880

> <Gold.PLP.Chemscore.CHOScore>
0.0000

> <Gold.PLP.Chemscore.Metal>
0.0000

> <Gold.Chemscore.Hbonds>
donor molecule, donor type, donor heavy atom, donor atom, acceptor molecule, acceptor atom, score
      L1  H     9    26       P1  7948  1.00
      L1  H    12    27       P1  7948  0.93
      P1  H  6896  6907       L1     4  0.81
      P1  H  7997  8010       L1     3  0.91

> <Gold.PLP.Chemscore.Internal.Correction>
2.0344

> <Gold.Rescore>
     Score         DG    S(hbond)    S(metal)    S(lipo)     H(rot)  DE(clash)    DE(int)     intcor
     18.37     -21.00       3.72        0.00      54.42       1.27       0.01       2.62       ----

> <Gold.Chemscore.Fitness>
18.3696

> <Gold.Chemscore.DG>
-20.9992

> <Gold.Chemscore.ZeroCoef>
-5.4800

> <Gold.Chemscore.Hbond>
3.7154

> <Gold.Chemscore.Metal>
0.0000

> <Gold.Chemscore.Lipo>
54.4231

> <Gold.Chemscore.Internal_Hbond>
0.0000

> <Gold.Chemscore.DEClash>
0.0073

> <Gold.Chemscore.DEInternal>
2.6223

> <Gold.Chemscore.Rot>
1.2725

> <Gold.Chemscore.Internal.Correction>
   9.000000E+99

> <Gold.Chemscore.Hbonds>
donor molecule, donor type, donor heavy atom, donor atom, acceptor molecule, acceptor atom, score
      L1  H     9    26       P1  7948  0.30
      L1  H    12    27       P1  7948  0.31
      P1  H  6896  6907       L1     4  0.69
      P1  H  7997  8010       L1     3  0.88

> <Gold.Chemscore.Hbond.Weighted>
-12.4093

> <Gold.Chemscore.Metal.Weighted>
-0.0000

> <Gold.Chemscore.Lipo.Weighted>
-6.3675

> <Gold.Chemscore.Internal_Hbond.Weighted>
0.0000

> <Gold.Chemscore.DEClash.Weighted>
0.0073

> <Gold.Chemscore.DEInternal.Weighted>
2.6223

> <Gold.Chemscore.Rot.Weighted>
3.2576

> <Gold.Chemscore.Internal.Correction.Weighted>
   9.000000E+99

> <Gold.Protein.RotatedTorsions>
[ 6907 6896 6895 6894 ] final   45.74 input  -60.11 | X-H torsion
[ 7974 7965 7964 7962 ] final   32.89 input  175.53 | X-H torsion
[ 8008 7997 7996 7995 ] final   20.95 input   59.86 | X-H torsion
[ 10167 10162 10161 10158 ] final -176.53 input  -65.29 | X-H torsion
[ 10718 10713 10712 10709 ] final  -56.18 input   66.30 | X-H torsion
[ 10763 10752 10751 10750 ] final -127.30 input  -60.55 | X-H torsion
[ 11005 11000 10999 10996 ] final   24.77 input  -57.11 | X-H torsion

> <Gold.Protein.ActiveResidues>
 VAL166  LYS551  ARG553  GLY616  TRP617  ASP618  TYR619  PRO620  LYS621  CYS622 
 ASP623  PHE694  ASN695  SER759  ASP760  ASP761  ALA762  ILE779  LEU786  VAL792 
 PHE793  MET794  SER795  GLU796  ALA797  LYS798  CYS799  TRP800  GLU811  SER814 

> <Gold.Protein.RotatedAtoms>
  152.2481  134.8160  160.0449 H   0  0  0  0  0  0  0  0  0  0  0  0  # atno 6907 bound_to 6896
  151.8850  133.3498  159.3787 H   0  0  0  0  0  0  0  0  0  0  0  0  # atno 6908 bound_to 6896
  150.7075  134.4907  159.5558 H   0  0  0  0  0  0  0  0  0  0  0  0  # atno 6909 bound_to 6896
  146.1457  139.6467  142.9133 H   0  0  0  0  0  0  0  0  0  0  0  0  # atno 7974 bound_to 7965
  154.9432  140.3056  155.5110 H   0  0  0  0  0  0  0  0  0  0  0  0  # atno 8008 bound_to 7997
  156.2994  140.2332  156.4440 H   0  0  0  0  0  0  0  0  0  0  0  0  # atno 8009 bound_to 7997
  154.8125  140.0428  157.1342 H   0  0  0  0  0  0  0  0  0  0  0  0  # atno 8010 bound_to 7997
  139.5525  144.2072  152.1102 H   0  0  0  0  0  0  0  0  0  0  0  0  # atno 10167 bound_to 10162
  156.1309  130.4159  150.0271 H   0  0  0  0  0  0  0  0  0  0  0  0  # atno 10718 bound_to 10713
  154.8751  135.3966  154.3572 H   0  0  0  0  0  0  0  0  0  0  0  0  # atno 10763 bound_to 10752
  153.4349  135.7026  153.6212 H   0  0  0  0  0  0  0  0  0  0  0  0  # atno 10764 bound_to 10752
  153.4817  135.3767  155.2415 H   0  0  0  0  0  0  0  0  0  0  0  0  # atno 10765 bound_to 10752
  140.3551  134.2187  155.7676 H   0  0  0  0  0  0  0  0  0  0  0  0  # atno 11005 bound_to 11000
  145.4944  141.0438  143.2575 LP  0  0  0  0  0  0  0  0  0  0  0  0  # atno 17320 bound_to 7965
  144.7843  139.6460  143.7141 LP  0  0  0  0  0  0  0  0  0  0  0  0  # atno 17321 bound_to 7965
  140.1570  144.5061  150.6654 LP  0  0  0  0  0  0  0  0  0  0  0  0  # atno 17342 bound_to 10162
  140.6791  143.2318  151.5431 LP  0  0  0  0  0  0  0  0  0  0  0  0  # atno 17343 bound_to 10162
  156.8183  130.9349  151.3642 LP  0  0  0  0  0  0  0  0  0  0  0  0  # atno 17370 bound_to 10713
  157.6487  130.8866  149.9589 LP  0  0  0  0  0  0  0  0  0  0  0  0  # atno 17371 bound_to 10713
  141.2001  133.7996  157.0506 LP  0  0  0  0  0  0  0  0  0  0  0  0  # atno 17394 bound_to 11000
  140.0672  134.9722  157.1406 LP  0  0  0  0  0  0  0  0  0  0  0  0  # atno 17395 bound_to 11000

$$$$
