AV-unprocessed.smi:1762|AV-procd|sdf|7104|dock5
  -GOLD-   22720 8323D 1   1.00000     0.00000
 Structure written by MMmdl.
 52 53  0  0  0  0  0  0  0  0  1 V2000
  143.4214  141.5815  158.6219 C   0  0  0  0  0  0  0  0  0  0  0  0
  144.8673  141.1374  158.9055 C   0  0  1  0  0  0  0  0  0  0  0  0
  145.7505  141.0950  157.6430 C   0  0  0  0  0  0  0  0  0  0  0  0
  146.1371  142.4304  157.1535 N   0  0  0  0  0  0  0  0  0  0  0  0
  146.9757  142.4112  155.9220 C   0  0  1  0  0  0  0  0  0  0  0  0
  148.2185  141.4977  156.0459 C   0  0  0  0  0  0  0  0  0  0  0  0
  148.0880  140.2767  156.1433 O   0  0  0  0  0  0  0  0  0  0  0  0
  149.4145  142.1074  156.0564 N   0  0  0  0  0  0  0  0  0  0  0  0
  150.6999  141.4278  156.1593 C   0  0  0  0  0  0  0  0  0  0  0  0
  151.2244  141.4274  157.6050 C   0  0  0  0  0  0  0  0  0  0  0  0
  151.5169  142.8276  158.1100 C   0  0  0  0  0  0  0  0  0  0  0  0
  152.8172  143.1863  158.5252 C   0  0  0  0  0  0  0  0  0  0  0  0
  153.0344  144.4964  158.9937 C   0  0  0  0  0  0  0  0  0  0  0  0
  151.9485  145.3923  159.0300 C   0  0  0  0  0  0  0  0  0  0  0  0
  150.6883  144.9363  158.5945 C   0  0  0  0  0  0  0  0  0  0  0  0
  150.4690  143.6819  158.1441 N   0  0  0  0  0  0  0  0  0  0  0  0
  146.2003  142.1051  154.5960 C   0  0  0  0  0  0  0  0  0  0  0  0
  147.0287  141.3261  153.5554 C   0  0  0  0  0  0  0  0  0  0  0  0
  145.5668  143.3540  153.9494 C   0  0  0  0  0  0  0  0  0  0  0  0
  146.7552  143.1671  158.2612 C   0  0  0  0  0  0  0  0  0  0  0  0
  145.8465  143.2461  159.5019 C   0  0  2  0  0  0  0  0  0  0  0  0
  146.5365  143.9379  160.6829 C   0  0  0  0  0  0  0  0  0  0  0  0
  145.4826  141.9335  159.9152 O   0  0  0  0  0  0  0  0  0  0  0  0
  142.9292  140.8852  157.9425 H   0  0  0  0  0  0  0  0  0  0  0  0
  143.3771  142.5680  158.1607 H   0  0  0  0  0  0  0  0  0  0  0  0
  142.8365  141.6142  159.5412 H   0  0  0  0  0  0  0  0  0  0  0  0
  144.8126  140.1260  159.3091 H   0  0  0  0  0  0  0  0  0  0  0  0
  146.6508  140.5183  157.8624 H   0  0  0  0  0  0  0  0  0  0  0  0
  145.2025  140.5286  156.8909 H   0  0  0  0  0  0  0  0  0  0  0  0
  147.3697  143.4228  155.8025 H   0  0  0  0  0  0  0  0  0  0  0  0
  149.4342  143.1140  155.9796 H   0  0  0  0  0  0  0  0  0  0  0  0
  150.5677  140.4036  155.8100 H   0  0  0  0  0  0  0  0  0  0  0  0
  151.4249  141.8936  155.4896 H   0  0  0  0  0  0  0  0  0  0  0  0
  150.4995  140.9553  158.2695 H   0  0  0  0  0  0  0  0  0  0  0  0
  152.1342  140.8290  157.6721 H   0  0  0  0  0  0  0  0  0  0  0  0
  153.6295  142.4752  158.4882 H   0  0  0  0  0  0  0  0  0  0  0  0
  154.0158  144.8078  159.3197 H   0  0  0  0  0  0  0  0  0  0  0  0
  152.0781  146.4047  159.3830 H   0  0  0  0  0  0  0  0  0  0  0  0
  149.8336  145.5963  158.6084 H   0  0  0  0  0  0  0  0  0  0  0  0
  145.3435  141.4831  154.8490 H   0  0  0  0  0  0  0  0  0  0  0  0
  147.8603  141.9166  153.1719 H   0  0  0  0  0  0  0  0  0  0  0  0
  146.4114  141.0432  152.7025 H   0  0  0  0  0  0  0  0  0  0  0  0
  147.4383  140.4072  153.9749 H   0  0  0  0  0  0  0  0  0  0  0  0
  146.3162  144.0285  153.5343 H   0  0  0  0  0  0  0  0  0  0  0  0
  144.9741  143.9146  154.6729 H   0  0  0  0  0  0  0  0  0  0  0  0
  144.9016  143.0716  153.1329 H   0  0  0  0  0  0  0  0  0  0  0  0
  147.7076  142.7059  158.5285 H   0  0  0  0  0  0  0  0  0  0  0  0
  146.9734  144.1926  157.9713 H   0  0  0  0  0  0  0  0  0  0  0  0
  144.9472  143.8116  159.2561 H   0  0  0  0  0  0  0  0  0  0  0  0
  146.8258  144.9573  160.4267 H   0  0  0  0  0  0  0  0  0  0  0  0
  147.4354  143.4000  160.9856 H   0  0  0  0  0  0  0  0  0  0  0  0
  145.8719  143.9881  161.5457 H   0  0  0  0  0  0  0  0  0  0  0  0
  1  2  1  0  0  0  0
  1 24  1  0  0  0  0
  1 25  1  0  0  0  0
  1 26  1  0  0  0  0
  2 23  1  0  0  0  0
  2  3  1  0  0  0  0
  2 27  1  0  0  0  0
  3  4  1  0  0  0  0
  3 28  1  0  0  0  0
  3 29  1  0  0  0  0
  4  5  1  0  0  0  0
  4 20  1  0  0  0  0
  5  6  1  0  0  0  0
  5 17  1  0  0  0  0
  5 30  1  0  0  0  0
  6  7  2  0  0  0  0
  6  8  1  0  0  0  0
  8  9  1  0  0  0  0
  8 31  1  0  0  0  0
  9 10  1  0  0  0  0
  9 32  1  0  0  0  0
  9 33  1  0  0  0  0
 10 11  1  0  0  0  0
 10 34  1  0  0  0  0
 10 35  1  0  0  0  0
 11 16  1  0  0  0  0
 11 12  2  0  0  0  0
 12 13  1  0  0  0  0
 12 36  1  0  0  0  0
 13 14  2  0  0  0  0
 13 37  1  0  0  0  0
 14 15  1  0  0  0  0
 14 38  1  0  0  0  0
 15 16  2  0  0  0  0
 15 39  1  0  0  0  0
 17 18  1  0  0  0  0
 17 19  1  0  0  0  0
 17 40  1  0  0  0  0
 18 41  1  0  0  0  0
 18 42  1  0  0  0  0
 18 43  1  0  0  0  0
 19 44  1  0  0  0  0
 19 45  1  0  0  0  0
 19 46  1  0  0  0  0
 20 21  1  0  0  0  0
 20 47  1  0  0  0  0
 20 48  1  0  0  0  0
 21 22  1  0  0  0  0
 21 23  1  0  0  0  0
 21 49  1  0  0  0  0
 22 50  1  0  0  0  0
 22 51  1  0  0  0  0
 22 52  1  0  0  0  0
M  END
> <s_m_source_file>
AV-unprocessed.smi

> <i_m_source_file_index>
1762

> <i_lp_mmshare_version>
43012

> <i_f3d_flags>
0

> <s_epik_input>
W0NIM11bQ0BASF0xW0NIMl1OKFtDSDJdW0NASF0oTzEpW0NIM10pW0NAQEhdKFtDSF0oW0NIM10pW0NIM10pQyg9TylbTkhdW0NIMl1bQ0gyXWMyW2NIXVtjSF1bY0hdW2NIXW4y

> <s_epik_cmdline>
J2VwaWtfcHl0aG9uJywgJy1waCcsICc3LjAnLCAnLXRuJywgJzgnLCAnLW1hJywgJzIwMCcsICctbWV0YWxfYmluZGluZycsICctaW1hZScsICc8aW5maWxlLm1hZT4nLCAnLW9tYWUnLCAnPG91dGZpbGUubWFlPic=

> <r_epik_Ionization_Penalty>
0.0399736

> <r_epik_Ionization_Penalty_Charging>
0

> <r_epik_Ionization_Penalty_Neutral>
0.0399736

> <r_epik_State_Penalty>
0.0317634

> <r_epik_Charging_Adjusted_Penalty>
0.0317634

> <i_epik_Tot_Q>
0

> <i_epik_Tot_abs_Q>
0

> <r_epik_Metal_State_Penalty>
0.0307795

> <b_epik_Metal_Only>
0

> <s_lp_Force_Field>
OPLS_2005

> <r_lp_Energy>
30.2117

> <b_lp_Chiralities_Consistent>
1

> <s_lp_Variant>
AV-unprocessed.smi:1762-6

> <Gold.Version>
5.8.1

> <Gold.Id.Protein>
6NUR|6NUR_protein|mol2

> <Gold.PLP.Fitness>
45.2564

> <Gold.PLP.PLP>
-38.6086

> <Gold.PLP.part.hbond>
-2.0000

> <Gold.PLP.part.metal>
0.0000

> <Gold.PLP.part.buried>
-6.4797

> <Gold.PLP.part.nonpolar>
-30.4747

> <Gold.PLP.part.repulsive>
0.3379

> <Gold.PLP.ligand.clash>
0.0000

> <Gold.PLP.ligand.torsion>
1.3394

> <Gold.PLP.Chemscore.Hbond>
1.9920

> <Gold.PLP.Chemscore.CHOScore>
1.0000

> <Gold.PLP.Chemscore.Metal>
0.0000

> <Gold.Chemscore.Hbonds>
donor molecule, donor type, donor heavy atom, donor atom, acceptor molecule, acceptor atom, score
      L1  H     8    31       P1  8028  1.00
      P1  H  6934  6946       L1    23  1.00
      L1  C    15    39       P1  8029  1.00

> <Gold.PLP.Chemscore.Internal.Correction>
0.3507

> <Gold.Rescore>
     Score         DG    S(hbond)    S(metal)    S(lipo)     H(rot)  DE(clash)    DE(int)     intcor
     12.64     -18.04       1.48        0.00     100.10       1.60       0.11       5.29       ----

> <Gold.Chemscore.Fitness>
12.6381

> <Gold.Chemscore.DG>
-18.0371

> <Gold.Chemscore.ZeroCoef>
-5.4800

> <Gold.Chemscore.Hbond>
1.4788

> <Gold.Chemscore.Metal>
0.0000

> <Gold.Chemscore.Lipo>
100.1042

> <Gold.Chemscore.Internal_Hbond>
0.0000

> <Gold.Chemscore.DEClash>
0.1084

> <Gold.Chemscore.DEInternal>
5.2907

> <Gold.Chemscore.Rot>
1.5993

> <Gold.Chemscore.Internal.Correction>
   9.000000E+99

> <Gold.Chemscore.Hbonds>
donor molecule, donor type, donor heavy atom, donor atom, acceptor molecule, acceptor atom, score
      L1  H     8    31       P1  8028  0.99
      P1  H  6934  6946       L1    23  0.56

> <Gold.Chemscore.Hbond.Weighted>
-4.9390

> <Gold.Chemscore.Metal.Weighted>
-0.0000

> <Gold.Chemscore.Lipo.Weighted>
-11.7122

> <Gold.Chemscore.Internal_Hbond.Weighted>
0.0000

> <Gold.Chemscore.DEClash.Weighted>
0.1084

> <Gold.Chemscore.DEInternal.Weighted>
5.2907

> <Gold.Chemscore.Rot.Weighted>
4.0941

> <Gold.Chemscore.Internal.Correction.Weighted>
   9.000000E+99

> <Gold.Protein.RotatedTorsions>
[ 6907 6896 6895 6894 ] final   -8.71 input  -60.11 | X-H torsion
[ 7974 7965 7964 7962 ] final   74.64 input  175.53 | X-H torsion
[ 8008 7997 7996 7995 ] final  120.26 input   59.86 | X-H torsion
[ 10167 10162 10161 10158 ] final -175.29 input  -65.29 | X-H torsion
[ 10718 10713 10712 10709 ] final  -52.51 input   66.30 | X-H torsion
[ 10763 10752 10751 10750 ] final  -79.99 input  -60.55 | X-H torsion
[ 11005 11000 10999 10996 ] final  -50.02 input  -57.11 | X-H torsion

> <Gold.Protein.ActiveResidues>
 VAL166  LYS551  ARG553  GLY616  TRP617  ASP618  TYR619  PRO620  LYS621  CYS622 
 ASP623  PHE694  ASN695  SER759  ASP760  ASP761  ALA762  ILE779  LEU786  VAL792 
 PHE793  MET794  SER795  GLU796  ALA797  LYS798  CYS799  TRP800  GLU811  SER814 

> <Gold.Protein.RotatedAtoms>
  151.4293  135.1007  159.9637 H   0  0  0  0  0  0  0  0  0  0  0  0  # atno 6907 bound_to 6896
  152.4961  133.8633  159.7271 H   0  0  0  0  0  0  0  0  0  0  0  0  # atno 6908 bound_to 6896
  150.9166  133.6873  159.2869 H   0  0  0  0  0  0  0  0  0  0  0  0  # atno 6909 bound_to 6896
  145.7256  139.2664  143.1570 H   0  0  0  0  0  0  0  0  0  0  0  0  # atno 7974 bound_to 7965
  156.2634  140.2835  156.1121 H   0  0  0  0  0  0  0  0  0  0  0  0  # atno 8008 bound_to 7997
  155.1246  140.0393  157.2776 H   0  0  0  0  0  0  0  0  0  0  0  0  # atno 8009 bound_to 7997
  154.6645  140.2574  155.7079 H   0  0  0  0  0  0  0  0  0  0  0  0  # atno 8010 bound_to 7997
  139.5589  144.1920  152.1206 H   0  0  0  0  0  0  0  0  0  0  0  0  # atno 10167 bound_to 10162
  156.1615  130.4149  149.9786 H   0  0  0  0  0  0  0  0  0  0  0  0  # atno 10718 bound_to 10713
  154.5456  135.5676  153.6877 H   0  0  0  0  0  0  0  0  0  0  0  0  # atno 10763 bound_to 10752
  152.9975  135.6238  154.2443 H   0  0  0  0  0  0  0  0  0  0  0  0  # atno 10764 bound_to 10752
  154.2375  135.2863  155.2846 H   0  0  0  0  0  0  0  0  0  0  0  0  # atno 10765 bound_to 10752
  141.0792  133.6657  156.3671 H   0  0  0  0  0  0  0  0  0  0  0  0  # atno 11005 bound_to 11000
  146.0585  140.7996  142.9746 LP  0  0  0  0  0  0  0  0  0  0  0  0  # atno 17320 bound_to 7965
  144.6905  140.3160  143.7240 LP  0  0  0  0  0  0  0  0  0  0  0  0  # atno 17321 bound_to 7965
  140.1429  144.5185  150.6733 LP  0  0  0  0  0  0  0  0  0  0  0  0  # atno 17342 bound_to 10162
  140.6866  143.2353  151.5244 LP  0  0  0  0  0  0  0  0  0  0  0  0  # atno 17343 bound_to 10162
  156.7614  130.9152  151.3641 LP  0  0  0  0  0  0  0  0  0  0  0  0  # atno 17370 bound_to 10713
  157.6736  130.9073  150.0097 LP  0  0  0  0  0  0  0  0  0  0  0  0  # atno 17371 bound_to 10713
  140.5505  134.6032  157.5406 LP  0  0  0  0  0  0  0  0  0  0  0  0  # atno 17394 bound_to 11000
  139.9606  134.7460  156.0246 LP  0  0  0  0  0  0  0  0  0  0  0  0  # atno 17395 bound_to 11000

$$$$
