AV-unprocessed.smi:3232|AV-procd|sdf|12339|dock1
  -GOLD-   2272018203D 1   1.00000     0.00000
 Structure written by MMmdl.
 40 41  0  0  0  0  0  0  0  0  2 V2000
  145.7592  132.1203  149.3588 C   0  0  0  0  0  0  0  0  0  0  0  0
  145.9994  132.5170  150.8215 C   0  0  0  0  0  0  0  0  0  0  0  0
  146.7935  131.5015  151.5545 N   0  3  2  0  0  0  0  0  0  0  0  0
  146.1573  130.1711  151.6529 C   0  0  0  0  0  0  0  0  0  0  0  0
  146.8177  129.5090  152.8546 C   0  0  0  0  0  0  0  0  0  0  0  0
  147.0072  130.6724  153.8216 C   0  0  0  0  0  0  0  0  0  0  0  0
  147.1955  131.9125  152.9239 C   0  0  1  0  0  0  0  0  0  0  0  0
  148.6395  132.4558  152.9189 C   0  0  0  0  0  0  0  0  0  0  0  0
  149.2957  132.2974  154.2124 N   0  0  0  0  0  0  0  0  0  0  0  0
  149.9391  133.2738  154.8730 C   0  0  0  0  0  0  0  0  0  0  0  0
  150.0246  134.4244  154.4416 O   0  0  0  0  0  0  0  0  0  0  0  0
  150.5632  132.8882  156.2259 C   0  0  2  0  0  0  0  0  0  0  0  0
  151.5877  131.7407  156.1139 C   0  0  0  0  0  0  0  0  0  0  0  0
  149.5260  132.5913  157.2069 N   0  0  0  0  0  0  0  0  0  0  0  0
  148.6319  131.6007  157.2385 C   0  0  0  0  0  0  0  0  0  0  0  0
  147.8526  131.6125  158.3105 N   0  0  0  0  0  0  0  0  0  0  0  0
  148.3572  132.7106  158.9473 C   0  0  0  0  0  0  0  0  0  0  0  0
  149.3669  133.3283  158.3345 N   0  0  0  0  0  0  0  0  0  0  0  0
  145.2244  132.9090  148.8291 H   0  0  0  0  0  0  0  0  0  0  0  0
  145.1613  131.2121  149.2808 H   0  0  0  0  0  0  0  0  0  0  0  0
  146.7010  131.9505  148.8366 H   0  0  0  0  0  0  0  0  0  0  0  0
  146.5402  133.4642  150.8404 H   0  0  0  0  0  0  0  0  0  0  0  0
  145.0497  132.6884  151.3304 H   0  0  0  0  0  0  0  0  0  0  0  0
  145.0877  130.2828  151.8386 H   0  0  0  0  0  0  0  0  0  0  0  0
  146.2839  129.5911  150.7382 H   0  0  0  0  0  0  0  0  0  0  0  0
  146.2219  128.6981  153.2748 H   0  0  0  0  0  0  0  0  0  0  0  0
  147.7885  129.1023  152.5677 H   0  0  0  0  0  0  0  0  0  0  0  0
  146.1050  130.7938  154.4227 H   0  0  0  0  0  0  0  0  0  0  0  0
  147.8339  130.4988  154.5111 H   0  0  0  0  0  0  0  0  0  0  0  0
  146.5186  132.6921  153.2788 H   0  0  0  0  0  0  0  0  0  0  0  0
  149.2341  131.9303  152.1708 H   0  0  0  0  0  0  0  0  0  0  0  0
  148.6508  133.5091  152.6328 H   0  0  0  0  0  0  0  0  0  0  0  0
  149.2706  131.3782  154.6301 H   0  0  0  0  0  0  0  0  0  0  0  0
  151.1013  133.7668  156.5854 H   0  0  0  0  0  0  0  0  0  0  0  0
  152.4001  132.0014  155.4346 H   0  0  0  0  0  0  0  0  0  0  0  0
  151.1319  130.8200  155.7470 H   0  0  0  0  0  0  0  0  0  0  0  0
  152.0334  131.5228  157.0848 H   0  0  0  0  0  0  0  0  0  0  0  0
  148.5518  130.8521  156.4636 H   0  0  0  0  0  0  0  0  0  0  0  0
  147.9733  133.0610  159.8940 H   0  0  0  0  0  0  0  0  0  0  0  0
  147.6547  131.3663  151.0443 H   0  0  0  0  0  0  0  0  0  0  0  0
  1  2  1  0  0  0  0
  1 19  1  0  0  0  0
  1 20  1  0  0  0  0
  1 21  1  0  0  0  0
  2  3  1  0  0  0  0
  2 22  1  0  0  0  0
  2 23  1  0  0  0  0
  3  7  1  0  0  0  0
  3  4  1  0  0  0  0
  3 40  1  0  0  0  0
  4  5  1  0  0  0  0
  4 24  1  0  0  0  0
  4 25  1  0  0  0  0
  5  6  1  0  0  0  0
  5 26  1  0  0  0  0
  5 27  1  0  0  0  0
  6  7  1  0  0  0  0
  6 28  1  0  0  0  0
  6 29  1  0  0  0  0
  7  8  1  0  0  0  0
  7 30  1  0  0  0  0
  8  9  1  0  0  0  0
  8 31  1  0  0  0  0
  8 32  1  0  0  0  0
  9 10  1  0  0  0  0
  9 33  1  0  0  0  0
 10 11  2  0  0  0  0
 10 12  1  0  0  0  0
 12 13  1  0  0  0  0
 12 14  1  0  0  0  0
 12 34  1  0  0  0  0
 13 35  1  0  0  0  0
 13 36  1  0  0  0  0
 13 37  1  0  0  0  0
 14 18  1  0  0  0  0
 14 15  1  0  0  0  0
 15 16  2  0  0  0  0
 15 38  1  0  0  0  0
 16 17  1  0  0  0  0
 17 18  2  0  0  0  0
 17 39  1  0  0  0  0
M  CHG  1   3   1
M  END
> <s_m_source_file>
AV-unprocessed.smi

> <i_m_source_file_index>
3232

> <i_lp_mmshare_version>
43012

> <i_f3d_flags>
0

> <s_epik_input>
W0NIM11bQ0gyXU4xW0NIMl1bQ0gyXVtDSDJdW0NASF0xW0NIMl1bTkhdQyg9TylbQ0BIXShbQ0gzXSluMltjSF1uW2NIXW4y

> <s_epik_cmdline>
J2VwaWtfcHl0aG9uJywgJy1waCcsICc3LjAnLCAnLXRuJywgJzgnLCAnLW1hJywgJzIwMCcsICctbWV0YWxfYmluZGluZycsICctaW1hZScsICc8aW5maWxlLm1hZT4nLCAnLW9tYWUnLCAnPG91dGZpbGUubWFlPic=

> <r_lp_tautomer_probability>
1

> <r_epik_Ionization_Penalty>
0.00177695

> <r_epik_Ionization_Penalty_Charging>
0.00176881

> <r_epik_Ionization_Penalty_Neutral>
8.13528e-06

> <r_epik_State_Penalty>
0.00119827

> <r_epik_Charging_Adjusted_Penalty>
0.00296709

> <i_epik_Tot_Q>
1

> <i_epik_Tot_abs_Q>
1

> <r_epik_Metal_State_Penalty>
-0

> <b_epik_Metal_Only>
0

> <s_lp_Force_Field>
OPLS_2005

> <r_lp_Energy>
33.6963

> <b_lp_Chiralities_Consistent>
1

> <s_lp_Variant>
AV-unprocessed.smi:3232-1

> <Gold.Version>
5.8.1

> <Gold.Id.Protein>
6NUR|6NUR_protein|mol2

> <Gold.PLP.Fitness>
33.0670

> <Gold.PLP.PLP>
-27.8199

> <Gold.PLP.part.hbond>
-2.0000

> <Gold.PLP.part.metal>
0.0000

> <Gold.PLP.part.buried>
-3.1650

> <Gold.PLP.part.nonpolar>
-21.4761

> <Gold.PLP.part.repulsive>
0.9241

> <Gold.PLP.ligand.clash>
0.0000

> <Gold.PLP.ligand.torsion>
0.4577

> <Gold.PLP.Chemscore.Hbond>
2.0000

> <Gold.PLP.Chemscore.CHOScore>
0.0000

> <Gold.PLP.Chemscore.Metal>
0.0000

> <Gold.Chemscore.Hbonds>
donor molecule, donor type, donor heavy atom, donor atom, acceptor molecule, acceptor atom, score
      L1  H     3    40       P1 10747  1.00
      P1  H  6896  6908       L1    18  1.00

> <Gold.PLP.Chemscore.Internal.Correction>
0.1625

> <Gold.Rescore>
     Score         DG    S(hbond)    S(metal)    S(lipo)     H(rot)  DE(clash)    DE(int)     intcor
     12.31     -12.72       1.95        0.00      60.68       2.49       0.01       0.39       ----

> <Gold.Chemscore.Fitness>
12.3093

> <Gold.Chemscore.DG>
-12.7190

> <Gold.Chemscore.ZeroCoef>
-5.4800

> <Gold.Chemscore.Hbond>
1.9489

> <Gold.Chemscore.Metal>
0.0000

> <Gold.Chemscore.Lipo>
60.6789

> <Gold.Chemscore.Internal_Hbond>
0.0000

> <Gold.Chemscore.DEClash>
0.0149

> <Gold.Chemscore.DEInternal>
0.3948

> <Gold.Chemscore.Rot>
2.4882

> <Gold.Chemscore.Internal.Correction>
   9.000000E+99

> <Gold.Chemscore.Hbonds>
donor molecule, donor type, donor heavy atom, donor atom, acceptor molecule, acceptor atom, score
      L1  H     3    40       P1 10747  0.99
      P1  H  6896  6908       L1    18  0.96

> <Gold.Chemscore.Hbond.Weighted>
-6.5093

> <Gold.Chemscore.Metal.Weighted>
-0.0000

> <Gold.Chemscore.Lipo.Weighted>
-7.0994

> <Gold.Chemscore.Internal_Hbond.Weighted>
0.0000

> <Gold.Chemscore.DEClash.Weighted>
0.0149

> <Gold.Chemscore.DEInternal.Weighted>
0.3948

> <Gold.Chemscore.Rot.Weighted>
6.3697

> <Gold.Chemscore.Internal.Correction.Weighted>
   9.000000E+99

> <Gold.Protein.RotatedTorsions>
[ 6907 6896 6895 6894 ] final  126.00 input  -60.11 | X-H torsion
[ 7974 7965 7964 7962 ] final  105.23 input  175.53 | X-H torsion
[ 8008 7997 7996 7995 ] final   46.70 input   59.86 | X-H torsion
[ 10167 10162 10161 10158 ] final  -85.68 input  -65.29 | X-H torsion
[ 10718 10713 10712 10709 ] final   87.77 input   66.30 | X-H torsion
[ 10763 10752 10751 10750 ] final  -43.03 input  -60.55 | X-H torsion
[ 11005 11000 10999 10996 ] final  -20.52 input  -57.11 | X-H torsion

> <Gold.Protein.ActiveResidues>
 VAL166  LYS551  ARG553  GLY616  TRP617  ASP618  TYR619  PRO620  LYS621  CYS622 
 ASP623  PHE694  ASN695  SER759  ASP760  ASP761  ALA762  ILE779  LEU786  VAL792 
 PHE793  MET794  SER795  GLU796  ALA797  LYS798  CYS799  TRP800  GLU811  SER814 

> <Gold.Protein.RotatedAtoms>
  152.3942  133.6723  159.6262 H   0  0  0  0  0  0  0  0  0  0  0  0  # atno 6907 bound_to 6896
  150.7844  133.8902  159.3320 H   0  0  0  0  0  0  0  0  0  0  0  0  # atno 6908 bound_to 6896
  151.6682  135.0981  160.0244 H   0  0  0  0  0  0  0  0  0  0  0  0  # atno 6909 bound_to 6896
  145.3224  139.2509  143.3704 H   0  0  0  0  0  0  0  0  0  0  0  0  # atno 7974 bound_to 7965
  155.3568  140.3416  155.4240 H   0  0  0  0  0  0  0  0  0  0  0  0  # atno 8008 bound_to 7997
  156.1735  140.1639  156.8440 H   0  0  0  0  0  0  0  0  0  0  0  0  # atno 8009 bound_to 7997
  154.5257  140.0756  156.8237 H   0  0  0  0  0  0  0  0  0  0  0  0  # atno 8010 bound_to 7997
  140.4014  143.2661  151.9138 H   0  0  0  0  0  0  0  0  0  0  0  0  # atno 10167 bound_to 10162
  157.6943  131.0269  150.3174 H   0  0  0  0  0  0  0  0  0  0  0  0  # atno 10718 bound_to 10713
  153.9888  135.6708  153.4753 H   0  0  0  0  0  0  0  0  0  0  0  0  # atno 10763 bound_to 10752
  153.0714  135.4972  154.8310 H   0  0  0  0  0  0  0  0  0  0  0  0  # atno 10764 bound_to 10752
  154.7121  135.3099  154.9143 H   0  0  0  0  0  0  0  0  0  0  0  0  # atno 10765 bound_to 10752
  140.8472  133.7883  155.9926 H   0  0  0  0  0  0  0  0  0  0  0  0  # atno 11005 bound_to 11000
  146.3077  140.3785  142.8681 LP  0  0  0  0  0  0  0  0  0  0  0  0  # atno 17320 bound_to 7965
  144.8928  140.7545  143.5916 LP  0  0  0  0  0  0  0  0  0  0  0  0  # atno 17321 bound_to 7965
  139.4784  144.5630  151.8209 LP  0  0  0  0  0  0  0  0  0  0  0  0  # atno 17342 bound_to 10162
  140.4736  144.1551  150.5921 LP  0  0  0  0  0  0  0  0  0  0  0  0  # atno 17343 bound_to 10162
  156.3666  130.3856  149.7208 LP  0  0  0  0  0  0  0  0  0  0  0  0  # atno 17370 bound_to 10713
  156.4637  130.7964  151.2983 LP  0  0  0  0  0  0  0  0  0  0  0  0  # atno 17371 bound_to 10713
  140.8830  134.2588  157.5134 LP  0  0  0  0  0  0  0  0  0  0  0  0  # atno 17394 bound_to 11000
  139.8703  134.9624  156.4428 LP  0  0  0  0  0  0  0  0  0  0  0  0  # atno 17395 bound_to 11000

$$$$
