AV-unprocessed.smi:899|AV-procd|sdf|4087|dock1
  -GOLD-   22720 1573D 1   1.00000     0.00000
 Structure written by MMmdl.
 33 34  0  0  0  0  0  0  0  0  1 V2000
  148.3346  144.2396  160.6918 N   0  0  0  0  0  0  0  0  0  0  0  0
  149.3929  144.5336  160.3284 C   0  0  0  0  0  0  0  0  0  0  0  0
  150.7382  144.9075  159.8661 C   0  0  0  0  0  0  0  0  0  0  0  0
  151.7813  143.8816  160.2583 C   0  0  0  0  0  0  0  0  0  0  0  0
  152.0855  143.6683  161.6169 C   0  0  0  0  0  0  0  0  0  0  0  0
  153.0533  142.7131  161.9821 C   0  0  0  0  0  0  0  0  0  0  0  0
  153.7288  141.9572  161.0019 C   0  0  0  0  0  0  0  0  0  0  0  0
  154.6560  141.0403  161.4487 O   0  0  0  0  0  0  0  0  0  0  0  0
  155.1802  140.1056  160.5163 C   0  0  0  0  0  0  0  0  0  0  0  0
  154.2215  138.9075  160.4352 C   0  0  0  0  0  0  0  0  0  0  0  0
  154.4132  137.9619  161.5066 N   0  0  0  0  0  0  0  0  0  0  0  0
  154.7982  138.3489  162.7810 C   0  0  0  0  0  0  0  0  0  0  0  0
  154.9990  137.4720  163.7944 C   0  0  0  0  0  0  0  0  0  0  0  0
  155.4788  138.0318  165.3566 Cl  0  0  0  0  0  0  0  0  0  0  0  0
  154.8130  136.0388  163.5696 C   0  0  0  0  0  0  0  0  0  0  0  0
  154.9654  135.1594  164.4151 O   0  0  0  0  0  0  0  0  0  0  0  0
  154.4328  135.6946  162.2687 N   0  0  0  0  0  0  0  0  0  0  0  0
  154.2261  136.5903  161.2190 C   0  0  0  0  0  0  0  0  0  0  0  0
  153.8997  136.1704  160.1087 O   0  0  0  0  0  0  0  0  0  0  0  0
  153.4199  142.1797  159.6359 C   0  0  0  0  0  0  0  0  0  0  0  0
  152.4525  143.1356  159.2696 C   0  0  0  0  0  0  0  0  0  0  0  0
  154.2986  134.7135  162.0714 H   0  0  0  0  0  0  0  0  0  0  0  0
  150.7136  145.0135  158.7813 H   0  0  0  0  0  0  0  0  0  0  0  0
  150.9875  145.8824  160.2855 H   0  0  0  0  0  0  0  0  0  0  0  0
  151.5775  144.2372  162.3819 H   0  0  0  0  0  0  0  0  0  0  0  0
  153.2782  142.5576  163.0272 H   0  0  0  0  0  0  0  0  0  0  0  0
  155.2836  140.5728  159.5357 H   0  0  0  0  0  0  0  0  0  0  0  0
  156.1661  139.7668  160.8388 H   0  0  0  0  0  0  0  0  0  0  0  0
  153.1843  139.2392  160.5028 H   0  0  0  0  0  0  0  0  0  0  0  0
  154.3082  138.3637  159.4919 H   0  0  0  0  0  0  0  0  0  0  0  0
  154.9490  139.4005  162.9806 H   0  0  0  0  0  0  0  0  0  0  0  0
  153.9108  141.6291  158.8479 H   0  0  0  0  0  0  0  0  0  0  0  0
  152.2272  143.2936  158.2251 H   0  0  0  0  0  0  0  0  0  0  0  0
  1  2  3  0  0  0  0
  2  3  1  0  0  0  0
  3  4  1  0  0  0  0
  3 23  1  0  0  0  0
  3 24  1  0  0  0  0
  4 21  1  0  0  0  0
  4  5  2  0  0  0  0
  5  6  1  0  0  0  0
  5 25  1  0  0  0  0
  6  7  2  0  0  0  0
  6 26  1  0  0  0  0
  7  8  1  0  0  0  0
  7 20  1  0  0  0  0
  8  9  1  0  0  0  0
  9 10  1  0  0  0  0
  9 27  1  0  0  0  0
  9 28  1  0  0  0  0
 10 11  1  0  0  0  0
 10 29  1  0  0  0  0
 10 30  1  0  0  0  0
 11 18  1  0  0  0  0
 11 12  1  0  0  0  0
 12 13  2  0  0  0  0
 12 31  1  0  0  0  0
 13 14  1  0  0  0  0
 13 15  1  0  0  0  0
 15 16  2  0  0  0  0
 15 17  1  0  0  0  0
 17 22  1  0  0  0  0
 17 18  1  0  0  0  0
 18 19  2  0  0  0  0
 20 21  2  0  0  0  0
 20 32  1  0  0  0  0
 21 33  1  0  0  0  0
M  END
> <s_m_source_file>
AV-unprocessed.smi

> <i_m_source_file_index>
899

> <i_lp_mmshare_version>
43012

> <i_f3d_flags>
0

> <s_epik_input>
TiNDW0NIMl1jMVtjSF1bY0hdYyhbY0hdW2NIXTEpT1tDSDJdW0NIMl1uMltjSF1jKENsKWMoPU8pW25IXWMyPU8=

> <s_epik_cmdline>
J2VwaWtfcHl0aG9uJywgJy1waCcsICc3LjAnLCAnLXRuJywgJzgnLCAnLW1hJywgJzIwMCcsICctbWV0YWxfYmluZGluZycsICctaW1hZScsICc8aW5maWxlLm1hZT4nLCAnLW9tYWUnLCAnPG91dGZpbGUubWFlPic=

> <r_lp_tautomer_probability>
0.999537

> <r_epik_Ionization_Penalty>
0.0457407

> <r_epik_Ionization_Penalty_Charging>
0.0457407

> <r_epik_Ionization_Penalty_Neutral>
1.03254e-10

> <r_epik_State_Penalty>
0.0388483

> <r_epik_Charging_Adjusted_Penalty>
0.0845889

> <i_epik_Tot_Q>
0

> <i_epik_Tot_abs_Q>
0

> <r_epik_Metal_State_Penalty>
2.50663

> <b_epik_Metal_Only>
0

> <s_lp_Force_Field>
OPLS_2005

> <r_lp_Energy>
13.2906

> <b_lp_Chiralities_Consistent>
1

> <s_lp_Variant>
AV-unprocessed.smi:899-1

> <Gold.Version>
5.8.1

> <Gold.Id.Protein>
6NUR|6NUR_protein|mol2

> <Gold.PLP.Fitness>
52.1434

> <Gold.PLP.PLP>
-48.5006

> <Gold.PLP.part.hbond>
-2.8787

> <Gold.PLP.part.metal>
0.0000

> <Gold.PLP.part.buried>
-7.5629

> <Gold.PLP.part.nonpolar>
-39.4622

> <Gold.PLP.part.repulsive>
0.3112

> <Gold.PLP.ligand.clash>
0.0000

> <Gold.PLP.ligand.torsion>
0.7415

> <Gold.PLP.Chemscore.Hbond>
1.6932

> <Gold.PLP.Chemscore.CHOScore>
0.0000

> <Gold.PLP.Chemscore.Metal>
0.0000

> <Gold.Chemscore.Hbonds>
donor molecule, donor type, donor heavy atom, donor atom, acceptor molecule, acceptor atom, score
      P1  H  6896  6909       L1    19  0.91
      P1  H  6933  6944       L1     1  1.00

> <Gold.PLP.Chemscore.Internal.Correction>
0.0463

> <Gold.Rescore>
     Score         DG    S(hbond)    S(metal)    S(lipo)     H(rot)  DE(clash)    DE(int)     intcor
     16.53     -17.57       1.52        0.00     110.61       2.32       0.20       0.84       ----

> <Gold.Chemscore.Fitness>
16.5253

> <Gold.Chemscore.DG>
-17.5741

> <Gold.Chemscore.ZeroCoef>
-5.4800

> <Gold.Chemscore.Hbond>
1.5225

> <Gold.Chemscore.Metal>
0.0000

> <Gold.Chemscore.Lipo>
110.6094

> <Gold.Chemscore.Internal_Hbond>
0.0000

> <Gold.Chemscore.DEClash>
0.2047

> <Gold.Chemscore.DEInternal>
0.8441

> <Gold.Chemscore.Rot>
2.3174

> <Gold.Chemscore.Internal.Correction>
   9.000000E+99

> <Gold.Chemscore.Hbonds>
donor molecule, donor type, donor heavy atom, donor atom, acceptor molecule, acceptor atom, score
      P1  H  6896  6909       L1    19  0.82
      P1  H  6933  6944       L1     1  0.45

> <Gold.Chemscore.Hbond.Weighted>
-5.0852

> <Gold.Chemscore.Metal.Weighted>
-0.0000

> <Gold.Chemscore.Lipo.Weighted>
-12.9413

> <Gold.Chemscore.Internal_Hbond.Weighted>
0.0000

> <Gold.Chemscore.DEClash.Weighted>
0.2047

> <Gold.Chemscore.DEInternal.Weighted>
0.8441

> <Gold.Chemscore.Rot.Weighted>
5.9324

> <Gold.Chemscore.Internal.Correction.Weighted>
   9.000000E+99

> <Gold.Protein.RotatedTorsions>
[ 6907 6896 6895 6894 ] final  174.78 input  -60.11 | X-H torsion
[ 7974 7965 7964 7962 ] final -159.79 input  175.53 | X-H torsion
[ 8008 7997 7996 7995 ] final -105.22 input   59.86 | X-H torsion
[ 10167 10162 10161 10158 ] final  177.45 input  -65.29 | X-H torsion
[ 10718 10713 10712 10709 ] final   13.68 input   66.30 | X-H torsion
[ 10763 10752 10751 10750 ] final   36.42 input  -60.55 | X-H torsion
[ 11005 11000 10999 10996 ] final -120.53 input  -57.11 | X-H torsion

> <Gold.Protein.ActiveResidues>
 VAL166  LYS551  ARG553  GLY616  TRP617  ASP618  TYR619  PRO620  LYS621  CYS622 
 ASP623  PHE694  ASN695  SER759  ASP760  ASP761  ALA762  ILE779  LEU786  VAL792 
 PHE793  MET794  SER795  GLU796  ALA797  LYS798  CYS799  TRP800  GLU811  SER814 

> <Gold.Protein.RotatedAtoms>
  151.7468  133.3325  159.3380 H   0  0  0  0  0  0  0  0  0  0  0  0  # atno 6907 bound_to 6896
  150.7551  134.6228  159.6154 H   0  0  0  0  0  0  0  0  0  0  0  0  # atno 6908 bound_to 6896
  152.3494  134.7028  160.0292 H   0  0  0  0  0  0  0  0  0  0  0  0  # atno 6909 bound_to 6896
  144.7451  140.3634  143.6091 H   0  0  0  0  0  0  0  0  0  0  0  0  # atno 7974 bound_to 7965
  154.8967  140.0414  157.1869 H   0  0  0  0  0  0  0  0  0  0  0  0  # atno 8008 bound_to 7997
  154.8486  140.2925  155.5592 H   0  0  0  0  0  0  0  0  0  0  0  0  # atno 8009 bound_to 7997
  156.2995  140.2469  156.3440 H   0  0  0  0  0  0  0  0  0  0  0  0  # atno 8010 bound_to 7997
  139.5254  144.2796  152.0558 H   0  0  0  0  0  0  0  0  0  0  0  0  # atno 10167 bound_to 10162
  157.0281  130.6182  149.5731 H   0  0  0  0  0  0  0  0  0  0  0  0  # atno 10718 bound_to 10713
  153.0078  135.6306  154.1982 H   0  0  0  0  0  0  0  0  0  0  0  0  # atno 10763 bound_to 10752
  154.1726  135.2817  155.3078 H   0  0  0  0  0  0  0  0  0  0  0  0  # atno 10764 bound_to 10752
  154.5897  135.5621  153.7326 H   0  0  0  0  0  0  0  0  0  0  0  0  # atno 10765 bound_to 10752
  141.0137  134.0227  157.3379 H   0  0  0  0  0  0  0  0  0  0  0  0  # atno 11005 bound_to 11000
  145.7154  139.1695  143.2515 LP  0  0  0  0  0  0  0  0  0  0  0  0  # atno 17320 bound_to 7965
  146.1317  140.7177  142.9409 LP  0  0  0  0  0  0  0  0  0  0  0  0  # atno 17321 bound_to 7965
  140.2252  144.4425  150.6324 LP  0  0  0  0  0  0  0  0  0  0  0  0  # atno 17342 bound_to 10162
  140.6392  143.2200  151.6328 LP  0  0  0  0  0  0  0  0  0  0  0  0  # atno 17343 bound_to 10162
  156.0079  130.5167  150.7891 LP  0  0  0  0  0  0  0  0  0  0  0  0  # atno 17370 bound_to 10713
  157.5198  131.0931  151.0093 LP  0  0  0  0  0  0  0  0  0  0  0  0  # atno 17371 bound_to 10713
  139.9104  135.0189  156.7669 LP  0  0  0  0  0  0  0  0  0  0  0  0  # atno 17394 bound_to 11000
  140.6691  133.9576  155.7846 LP  0  0  0  0  0  0  0  0  0  0  0  0  # atno 17395 bound_to 11000

$$$$
