AV-unprocessed.smi:3042|AV-procd|sdf|11599|dock1
  -GOLD-   2272016573D 1   1.00000     0.00000
 Structure written by MMmdl.
 33 34  0  0  0  0  0  0  0  0  2 V2000
  149.6079  138.8980  153.2348 N   0  3  0  0  0  0  0  0  0  0  0  0
  148.5521  139.4493  154.1039 C   0  0  0  0  0  0  0  0  0  0  0  0
  148.9003  140.8708  154.6163 C   0  0  2  0  0  0  0  0  0  0  0  0
  149.9684  140.7528  155.7029 C   0  0  0  0  0  0  0  0  0  0  0  0
  150.5177  141.8975  156.3222 C   0  0  0  0  0  0  0  0  0  0  0  0
  151.4922  141.7282  157.3239 C   0  0  0  0  0  0  0  0  0  0  0  0
  151.8830  140.4184  157.6649 C   0  0  0  0  0  0  0  0  0  0  0  0
  151.3666  139.3160  157.0807 N   0  0  0  0  0  0  0  0  0  0  0  0
  150.4337  139.4864  156.1202 C   0  0  0  0  0  0  0  0  0  0  0  0
  147.7373  141.6536  155.0845 N   0  0  0  0  0  0  0  0  0  0  0  0
  146.6811  141.7276  154.0678 C   0  0  0  0  0  0  0  0  0  0  0  0
  145.4635  142.5404  154.5393 C   0  0  0  0  0  0  0  0  0  0  0  0
  144.9497  141.9733  155.7374 O   0  0  0  0  0  0  0  0  0  0  0  0
  145.9195  141.9352  156.7759 C   0  0  0  0  0  0  0  0  0  0  0  0
  147.1434  141.1236  156.3154 C   0  0  0  0  0  0  0  0  0  0  0  0
  150.4674  138.8144  153.7584 H   0  0  0  0  0  0  0  0  0  0  0  0
  149.7506  139.5168  152.4491 H   0  0  0  0  0  0  0  0  0  0  0  0
  147.6407  139.4501  153.5080 H   0  0  0  0  0  0  0  0  0  0  0  0
  148.3899  138.7657  154.9380 H   0  0  0  0  0  0  0  0  0  0  0  0
  149.3500  141.4105  153.7810 H   0  0  0  0  0  0  0  0  0  0  0  0
  150.1976  142.8886  156.0356 H   0  0  0  0  0  0  0  0  0  0  0  0
  151.9316  142.5819  157.8185 H   0  0  0  0  0  0  0  0  0  0  0  0
  152.6287  140.2521  158.4281 H   0  0  0  0  0  0  0  0  0  0  0  0
  150.0428  138.5831  155.6754 H   0  0  0  0  0  0  0  0  0  0  0  0
  147.0571  142.1852  153.1531 H   0  0  0  0  0  0  0  0  0  0  0  0
  146.3569  140.7210  153.7992 H   0  0  0  0  0  0  0  0  0  0  0  0
  145.7347  143.5842  154.7059 H   0  0  0  0  0  0  0  0  0  0  0  0
  144.6836  142.5291  153.7779 H   0  0  0  0  0  0  0  0  0  0  0  0
  146.2103  142.9507  157.0501 H   0  0  0  0  0  0  0  0  0  0  0  0
  145.4749  141.4803  157.6610 H   0  0  0  0  0  0  0  0  0  0  0  0
  146.8533  140.0821  156.1686 H   0  0  0  0  0  0  0  0  0  0  0  0
  147.8663  141.1412  157.1289 H   0  0  0  0  0  0  0  0  0  0  0  0
  149.3282  137.9877  152.8988 H   0  0  0  0  0  0  0  0  0  0  0  0
  1  2  1  0  0  0  0
  1 16  1  0  0  0  0
  1 17  1  0  0  0  0
  1 33  1  0  0  0  0
  2  3  1  0  0  0  0
  2 18  1  0  0  0  0
  2 19  1  0  0  0  0
  3  4  1  0  0  0  0
  3 10  1  0  0  0  0
  3 20  1  0  0  0  0
  4  9  1  0  0  0  0
  4  5  2  0  0  0  0
  5  6  1  0  0  0  0
  5 21  1  0  0  0  0
  6  7  2  0  0  0  0
  6 22  1  0  0  0  0
  7  8  1  0  0  0  0
  7 23  1  0  0  0  0
  8  9  2  0  0  0  0
  9 24  1  0  0  0  0
 10 15  1  0  0  0  0
 10 11  1  0  0  0  0
 11 12  1  0  0  0  0
 11 25  1  0  0  0  0
 11 26  1  0  0  0  0
 12 13  1  0  0  0  0
 12 27  1  0  0  0  0
 12 28  1  0  0  0  0
 13 14  1  0  0  0  0
 14 15  1  0  0  0  0
 14 29  1  0  0  0  0
 14 30  1  0  0  0  0
 15 31  1  0  0  0  0
 15 32  1  0  0  0  0
M  CHG  1   1   1
M  END
> <s_m_source_file>
AV-unprocessed.smi

> <i_m_source_file_index>
3042

> <i_lp_mmshare_version>
43012

> <i_f3d_flags>
0

> <s_epik_input>
W0NIMl0xW0NIMl1PW0NIMl1bQ0gyXU4xW0NASF0oW0NIMl1bTkgyXSljMltjSF1bY0hdW2NIXW5bY0hdMg==

> <s_epik_cmdline>
J2VwaWtfcHl0aG9uJywgJy1waCcsICc3LjAnLCAnLXRuJywgJzgnLCAnLW1hJywgJzIwMCcsICctbWV0YWxfYmluZGluZycsICctaW1hZScsICc8aW5maWxlLm1hZT4nLCAnLW9tYWUnLCAnPG91dGZpbGUubWFlPic=

> <r_epik_Ionization_Penalty>
0.0112597

> <r_epik_Ionization_Penalty_Charging>
0.00794922

> <r_epik_Ionization_Penalty_Neutral>
0.00331052

> <r_epik_State_Penalty>
0.00596555

> <r_epik_Charging_Adjusted_Penalty>
0.0139148

> <i_epik_Tot_Q>
1

> <i_epik_Tot_abs_Q>
1

> <r_epik_Metal_State_Penalty>
0.00603286

> <b_epik_Metal_Only>
0

> <s_lp_Force_Field>
OPLS_2005

> <r_lp_Energy>
28.2789

> <b_lp_Chiralities_Consistent>
1

> <s_lp_Variant>
AV-unprocessed.smi:3042-1

> <Gold.Version>
5.8.1

> <Gold.Id.Protein>
6NUR|6NUR_protein|mol2

> <Gold.PLP.Fitness>
34.4823

> <Gold.PLP.PLP>
-25.7887

> <Gold.PLP.part.hbond>
-2.0000

> <Gold.PLP.part.metal>
0.0000

> <Gold.PLP.part.buried>
-5.1982

> <Gold.PLP.part.nonpolar>
-19.4580

> <Gold.PLP.part.repulsive>
0.4584

> <Gold.PLP.ligand.clash>
0.0000

> <Gold.PLP.ligand.torsion>
0.2080

> <Gold.PLP.Chemscore.Hbond>
3.0000

> <Gold.PLP.Chemscore.CHOScore>
0.0000

> <Gold.PLP.Chemscore.Metal>
0.0000

> <Gold.Chemscore.Hbonds>
donor molecule, donor type, donor heavy atom, donor atom, acceptor molecule, acceptor atom, score
      L1  H     1    17       P1  7957  0.65
      L1  H     1    33       P1  7948  1.98

> <Gold.PLP.Chemscore.Internal.Correction>
0.1095

> <Gold.Rescore>
     Score         DG    S(hbond)    S(metal)    S(lipo)     H(rot)  DE(clash)    DE(int)     intcor
     14.87     -15.34       1.93        0.00      61.68       1.48       0.00       0.46       ----

> <Gold.Chemscore.Fitness>
14.8696

> <Gold.Chemscore.DG>
-15.3364

> <Gold.Chemscore.ZeroCoef>
-5.4800

> <Gold.Chemscore.Hbond>
1.9283

> <Gold.Chemscore.Metal>
0.0000

> <Gold.Chemscore.Lipo>
61.6789

> <Gold.Chemscore.Internal_Hbond>
0.0000

> <Gold.Chemscore.DEClash>
0.0038

> <Gold.Chemscore.DEInternal>
0.4629

> <Gold.Chemscore.Rot>
1.4846

> <Gold.Chemscore.Internal.Correction>
   9.000000E+99

> <Gold.Chemscore.Hbonds>
donor molecule, donor type, donor heavy atom, donor atom, acceptor molecule, acceptor atom, score
      L1  H     1    17       P1  7957  0.63
      L1  H     1    33       P1  7948  0.87

> <Gold.Chemscore.Hbond.Weighted>
-6.4404

> <Gold.Chemscore.Metal.Weighted>
-0.0000

> <Gold.Chemscore.Lipo.Weighted>
-7.2164

> <Gold.Chemscore.Internal_Hbond.Weighted>
0.0000

> <Gold.Chemscore.DEClash.Weighted>
0.0038

> <Gold.Chemscore.DEInternal.Weighted>
0.4629

> <Gold.Chemscore.Rot.Weighted>
3.8005

> <Gold.Chemscore.Internal.Correction.Weighted>
   9.000000E+99

> <Gold.Protein.RotatedTorsions>
[ 6907 6896 6895 6894 ] final   52.97 input  -60.11 | X-H torsion
[ 7974 7965 7964 7962 ] final  -46.22 input  175.53 | X-H torsion
[ 8008 7997 7996 7995 ] final  -65.14 input   59.86 | X-H torsion
[ 10167 10162 10161 10158 ] final  158.41 input  -65.29 | X-H torsion
[ 10718 10713 10712 10709 ] final   29.66 input   66.30 | X-H torsion
[ 10763 10752 10751 10750 ] final  157.87 input  -60.55 | X-H torsion
[ 11005 11000 10999 10996 ] final -102.03 input  -57.11 | X-H torsion

> <Gold.Protein.ActiveResidues>
 VAL166  LYS551  ARG553  GLY616  TRP617  ASP618  TYR619  PRO620  LYS621  CYS622 
 ASP623  PHE694  ASN695  SER759  ASP760  ASP761  ALA762  ILE779  LEU786  VAL792 
 PHE793  MET794  SER795  GLU796  ALA797  LYS798  CYS799  TRP800  GLU811  SER814 

> <Gold.Protein.RotatedAtoms>
  152.3288  134.7286  160.0294 H   0  0  0  0  0  0  0  0  0  0  0  0  # atno 6907 bound_to 6896
  151.7710  133.3336  159.3452 H   0  0  0  0  0  0  0  0  0  0  0  0  # atno 6908 bound_to 6896
  150.7411  134.5950  159.6052 H   0  0  0  0  0  0  0  0  0  0  0  0  # atno 6909 bound_to 6896
  145.9741  140.7352  142.9395 H   0  0  0  0  0  0  0  0  0  0  0  0  # atno 7974 bound_to 7965
  154.4654  140.0939  156.7005 H   0  0  0  0  0  0  0  0  0  0  0  0  # atno 8008 bound_to 7997
  155.4874  140.3469  155.4331 H   0  0  0  0  0  0  0  0  0  0  0  0  # atno 8009 bound_to 7997
  156.0946  140.1406  156.9536 H   0  0  0  0  0  0  0  0  0  0  0  0  # atno 8010 bound_to 7997
  139.4827  144.4827  151.8421 H   0  0  0  0  0  0  0  0  0  0  0  0  # atno 10167 bound_to 10162
  157.2495  130.7108  149.6398 H   0  0  0  0  0  0  0  0  0  0  0  0  # atno 10718 bound_to 10713
  154.2071  135.2787  155.2971 H   0  0  0  0  0  0  0  0  0  0  0  0  # atno 10763 bound_to 10752
  154.5808  135.5590  153.7187 H   0  0  0  0  0  0  0  0  0  0  0  0  # atno 10764 bound_to 10752
  153.0073  135.6344  154.2210 H   0  0  0  0  0  0  0  0  0  0  0  0  # atno 10765 bound_to 10752
  141.1206  133.8525  157.1307 H   0  0  0  0  0  0  0  0  0  0  0  0  # atno 11005 bound_to 11000
  144.6844  140.2799  143.7294 LP  0  0  0  0  0  0  0  0  0  0  0  0  # atno 17320 bound_to 7965
  145.7863  139.1910  143.2128 LP  0  0  0  0  0  0  0  0  0  0  0  0  # atno 17321 bound_to 7965
  140.4304  144.2123  150.5888 LP  0  0  0  0  0  0  0  0  0  0  0  0  # atno 17342 bound_to 10162
  140.4785  143.2387  151.8989 LP  0  0  0  0  0  0  0  0  0  0  0  0  # atno 17343 bound_to 10162
  155.9667  130.4432  150.5412 LP  0  0  0  0  0  0  0  0  0  0  0  0  # atno 17370 bound_to 10713
  157.3293  131.0696  151.1873 LP  0  0  0  0  0  0  0  0  0  0  0  0  # atno 17371 bound_to 10713
  140.0161  134.9967  157.0496 LP  0  0  0  0  0  0  0  0  0  0  0  0  # atno 17394 bound_to 11000
  140.4517  134.1575  155.7182 LP  0  0  0  0  0  0  0  0  0  0  0  0  # atno 17395 bound_to 11000

$$$$
