AV-unprocessed.smi:2683|AV-procd|sdf|10377|dock3
  -GOLD-   2272014403D 1   1.00000     0.00000
 Structure written by MMmdl.
 37 38  0  0  0  0  0  0  0  0  2 V2000
  148.3710  141.5949  156.7932 C   0  0  0  0  0  0  0  0  0  0  0  0
  149.8752  141.6954  157.0798 C   0  0  1  0  0  0  0  0  0  0  0  0
  150.6916  141.5405  155.7799 C   0  0  0  0  0  0  0  0  0  0  0  0
  150.7435  140.1686  155.3081 N   0  0  0  0  0  0  0  0  0  0  0  0
  151.8055  139.2897  155.3409 C   0  0  0  0  0  0  0  0  0  0  0  0
  151.3833  138.1225  154.7717 C   0  0  0  0  0  0  0  0  0  0  0  0
  150.0295  138.3863  154.4218 C   0  0  0  0  0  0  0  0  0  0  0  0
  149.6498  139.6126  154.7433 N   0  0  0  0  0  0  0  0  0  0  0  0
  150.1652  142.9884  157.7405 N   0  3  0  0  0  0  0  0  0  0  0  0
  151.5779  143.1894  158.1255 C   0  0  0  0  0  0  0  0  0  0  0  0
  151.8166  142.7857  159.5886 C   0  0  0  0  0  0  0  0  0  0  0  0
  151.7660  143.9546  160.5772 C   0  0  0  0  0  0  0  0  0  0  0  0
  152.4950  143.4480  161.8257 C   0  0  0  0  0  0  0  0  0  0  0  0
  153.4319  142.3274  161.3488 C   0  0  0  0  0  0  0  0  0  0  0  0
  153.2035  142.1887  159.8392 C   0  0  0  0  0  0  0  0  0  0  0  0
  148.1236  140.6428  156.3230 H   0  0  0  0  0  0  0  0  0  0  0  0
  148.0383  142.3912  156.1262 H   0  0  0  0  0  0  0  0  0  0  0  0
  147.7901  141.6657  157.7136 H   0  0  0  0  0  0  0  0  0  0  0  0
  150.1308  140.8782  157.7568 H   0  0  0  0  0  0  0  0  0  0  0  0
  150.2509  142.1475  154.9878 H   0  0  0  0  0  0  0  0  0  0  0  0
  151.7099  141.9080  155.9192 H   0  0  0  0  0  0  0  0  0  0  0  0
  152.7629  139.5653  155.7585 H   0  0  0  0  0  0  0  0  0  0  0  0
  151.9539  137.2167  154.6292 H   0  0  0  0  0  0  0  0  0  0  0  0
  149.3169  137.7287  153.9459 H   0  0  0  0  0  0  0  0  0  0  0  0
  149.8864  143.7331  157.1172 H   0  0  0  0  0  0  0  0  0  0  0  0
  152.2040  142.5843  157.4688 H   0  0  0  0  0  0  0  0  0  0  0  0
  151.8681  144.2289  157.9708 H   0  0  0  0  0  0  0  0  0  0  0  0
  151.0725  142.0440  159.8850 H   0  0  0  0  0  0  0  0  0  0  0  0
  152.3058  144.8105  160.1695 H   0  0  0  0  0  0  0  0  0  0  0  0
  150.7481  144.2802  160.7935 H   0  0  0  0  0  0  0  0  0  0  0  0
  153.0382  144.2514  162.3243 H   0  0  0  0  0  0  0  0  0  0  0  0
  151.7772  143.0466  162.5421 H   0  0  0  0  0  0  0  0  0  0  0  0
  154.4763  142.5472  161.5722 H   0  0  0  0  0  0  0  0  0  0  0  0
  153.1798  141.3952  161.8559 H   0  0  0  0  0  0  0  0  0  0  0  0
  153.2810  141.1549  159.5009 H   0  0  0  0  0  0  0  0  0  0  0  0
  153.9592  142.7671  159.3053 H   0  0  0  0  0  0  0  0  0  0  0  0
  149.6073  143.0479  158.5803 H   0  0  0  0  0  0  0  0  0  0  0  0
  1  2  1  0  0  0  0
  1 16  1  0  0  0  0
  1 17  1  0  0  0  0
  1 18  1  0  0  0  0
  2  3  1  0  0  0  0
  2  9  1  0  0  0  0
  2 19  1  0  0  0  0
  3  4  1  0  0  0  0
  3 20  1  0  0  0  0
  3 21  1  0  0  0  0
  4  8  1  0  0  0  0
  4  5  1  0  0  0  0
  5  6  2  0  0  0  0
  5 22  1  0  0  0  0
  6  7  1  0  0  0  0
  6 23  1  0  0  0  0
  7  8  2  0  0  0  0
  7 24  1  0  0  0  0
  9 10  1  0  0  0  0
  9 25  1  0  0  0  0
  9 37  1  0  0  0  0
 10 11  1  0  0  0  0
 10 26  1  0  0  0  0
 10 27  1  0  0  0  0
 11 15  1  0  0  0  0
 11 12  1  0  0  0  0
 11 28  1  0  0  0  0
 12 13  1  0  0  0  0
 12 29  1  0  0  0  0
 12 30  1  0  0  0  0
 13 14  1  0  0  0  0
 13 31  1  0  0  0  0
 13 32  1  0  0  0  0
 14 15  1  0  0  0  0
 14 33  1  0  0  0  0
 14 34  1  0  0  0  0
 15 35  1  0  0  0  0
 15 36  1  0  0  0  0
M  CHG  1   9   1
M  END
> <s_m_source_file>
AV-unprocessed.smi

> <i_m_source_file_index>
2683

> <i_lp_mmshare_version>
43012

> <i_f3d_flags>
0

> <s_epik_input>
bjFbY0hdW2NIXVtjSF1uMVtDSDJdW0NAQEhdKFtDSDNdKVtOSF1bQ0gyXVtDSF0yW0NIMl1bQ0gyXVtDSDJdW0NIMl0y

> <s_epik_cmdline>
J2VwaWtfcHl0aG9uJywgJy1waCcsICc3LjAnLCAnLXRuJywgJzgnLCAnLW1hJywgJzIwMCcsICctbWV0YWxfYmluZGluZycsICctaW1hZScsICc8aW5maWxlLm1hZT4nLCAnLW9tYWUnLCAnPG91dGZpbGUubWFlPic=

> <r_lp_tautomer_probability>
1

> <r_epik_Ionization_Penalty>
0.00170049

> <r_epik_Ionization_Penalty_Charging>
0.00169627

> <r_epik_Ionization_Penalty_Neutral>
4.21324e-06

> <r_epik_State_Penalty>
0.00114589

> <r_epik_Charging_Adjusted_Penalty>
0.00284216

> <i_epik_Tot_Q>
1

> <i_epik_Tot_abs_Q>
1

> <r_epik_Metal_State_Penalty>
-0

> <b_epik_Metal_Only>
0

> <s_lp_Force_Field>
OPLS_2005

> <r_lp_Energy>
26.2137

> <b_lp_Chiralities_Consistent>
1

> <s_lp_Variant>
AV-unprocessed.smi:2683-2

> <Gold.Version>
5.8.1

> <Gold.Id.Protein>
6NUR|6NUR_protein|mol2

> <Gold.PLP.Fitness>
45.1617

> <Gold.PLP.PLP>
-38.1769

> <Gold.PLP.part.hbond>
-1.0000

> <Gold.PLP.part.metal>
0.0000

> <Gold.PLP.part.buried>
-3.1858

> <Gold.PLP.part.nonpolar>
-33.7770

> <Gold.PLP.part.repulsive>
0.1334

> <Gold.PLP.ligand.clash>
0.0000

> <Gold.PLP.ligand.torsion>
0.9840

> <Gold.PLP.Chemscore.Hbond>
2.0000

> <Gold.PLP.Chemscore.CHOScore>
0.9741

> <Gold.PLP.Chemscore.Metal>
0.0000

> <Gold.Chemscore.Hbonds>
donor molecule, donor type, donor heavy atom, donor atom, acceptor molecule, acceptor atom, score
      L1  H     9    25       P1  8028  2.00
      L1  C     7    24       P1  7948  0.91

> <Gold.PLP.Chemscore.Internal.Correction>
0.0306

> <Gold.Rescore>
     Score         DG    S(hbond)    S(metal)    S(lipo)     H(rot)  DE(clash)    DE(int)     intcor
     16.00     -17.03       1.00        0.00     104.33       1.55       0.01       1.02       ----

> <Gold.Chemscore.Fitness>
16.0028

> <Gold.Chemscore.DG>
-17.0328

> <Gold.Chemscore.ZeroCoef>
-5.4800

> <Gold.Chemscore.Hbond>
0.9954

> <Gold.Chemscore.Metal>
0.0000

> <Gold.Chemscore.Lipo>
104.3341

> <Gold.Chemscore.Internal_Hbond>
0.0000

> <Gold.Chemscore.DEClash>
0.0093

> <Gold.Chemscore.DEInternal>
1.0207

> <Gold.Chemscore.Rot>
1.5543

> <Gold.Chemscore.Internal.Correction>
   9.000000E+99

> <Gold.Chemscore.Hbonds>
donor molecule, donor type, donor heavy atom, donor atom, acceptor molecule, acceptor atom, score
      L1  H     9    25       P1  8028  0.90

> <Gold.Chemscore.Hbond.Weighted>
-3.3247

> <Gold.Chemscore.Metal.Weighted>
-0.0000

> <Gold.Chemscore.Lipo.Weighted>
-12.2071

> <Gold.Chemscore.Internal_Hbond.Weighted>
0.0000

> <Gold.Chemscore.DEClash.Weighted>
0.0093

> <Gold.Chemscore.DEInternal.Weighted>
1.0207

> <Gold.Chemscore.Rot.Weighted>
3.9789

> <Gold.Chemscore.Internal.Correction.Weighted>
   9.000000E+99

> <Gold.Protein.RotatedTorsions>
[ 6907 6896 6895 6894 ] final  -38.72 input  -60.11 | X-H torsion
[ 7974 7965 7964 7962 ] final   14.32 input  175.53 | X-H torsion
[ 8008 7997 7996 7995 ] final -134.48 input   59.86 | X-H torsion
[ 10167 10162 10161 10158 ] final -122.46 input  -65.29 | X-H torsion
[ 10718 10713 10712 10709 ] final  -97.80 input   66.30 | X-H torsion
[ 10763 10752 10751 10750 ] final  162.72 input  -60.55 | X-H torsion
[ 11005 11000 10999 10996 ] final   59.08 input  -57.11 | X-H torsion

> <Gold.Protein.ActiveResidues>
 VAL166  LYS551  ARG553  GLY616  TRP617  ASP618  TYR619  PRO620  LYS621  CYS622 
 ASP623  PHE694  ASN695  SER759  ASP760  ASP761  ALA762  ILE779  LEU786  VAL792 
 PHE793  MET794  SER795  GLU796  ALA797  LYS798  CYS799  TRP800  GLU811  SER814 

> <Gold.Protein.RotatedAtoms>
  150.9990  134.9306  159.7942 H   0  0  0  0  0  0  0  0  0  0  0  0  # atno 6907 bound_to 6896
  152.5272  134.3180  159.9148 H   0  0  0  0  0  0  0  0  0  0  0  0  # atno 6908 bound_to 6896
  151.3186  133.4008  159.2687 H   0  0  0  0  0  0  0  0  0  0  0  0  # atno 6909 bound_to 6896
  146.2308  139.9059  142.8532 H   0  0  0  0  0  0  0  0  0  0  0  0  # atno 7974 bound_to 7965
  155.3628  140.0484  157.3046 H   0  0  0  0  0  0  0  0  0  0  0  0  # atno 8008 bound_to 7997
  154.5169  140.2211  155.9012 H   0  0  0  0  0  0  0  0  0  0  0  0  # atno 8009 bound_to 7997
  156.1647  140.3109  155.8873 H   0  0  0  0  0  0  0  0  0  0  0  0  # atno 8010 bound_to 7997
  140.0140  143.5412  152.2250 H   0  0  0  0  0  0  0  0  0  0  0  0  # atno 10167 bound_to 10162
  156.0092  130.5210  150.6428 H   0  0  0  0  0  0  0  0  0  0  0  0  # atno 10718 bound_to 10713
  154.2826  135.2763  155.2690 H   0  0  0  0  0  0  0  0  0  0  0  0  # atno 10763 bound_to 10752
  154.5204  135.5758  153.6680 H   0  0  0  0  0  0  0  0  0  0  0  0  # atno 10764 bound_to 10752
  152.9926  135.6203  154.2987 H   0  0  0  0  0  0  0  0  0  0  0  0  # atno 10765 bound_to 10752
  140.0330  134.5984  155.9481 H   0  0  0  0  0  0  0  0  0  0  0  0  # atno 11005 bound_to 11000
  145.2278  140.9961  143.4008 LP  0  0  0  0  0  0  0  0  0  0  0  0  # atno 17320 bound_to 7965
  144.9556  139.4035  143.6381 LP  0  0  0  0  0  0  0  0  0  0  0  0  # atno 17321 bound_to 7965
  139.6185  144.7624  151.2793 LP  0  0  0  0  0  0  0  0  0  0  0  0  # atno 17342 bound_to 10162
  140.7370  143.6692  150.8096 LP  0  0  0  0  0  0  0  0  0  0  0  0  # atno 17343 bound_to 10162
  157.4205  131.0836  151.1135 LP  0  0  0  0  0  0  0  0  0  0  0  0  # atno 17370 bound_to 10713
  157.1739  130.6279  149.5649 LP  0  0  0  0  0  0  0  0  0  0  0  0  # atno 17371 bound_to 10713
  141.1842  133.6552  156.5146 LP  0  0  0  0  0  0  0  0  0  0  0  0  # atno 17394 bound_to 11000
  140.4194  134.7201  157.4881 LP  0  0  0  0  0  0  0  0  0  0  0  0  # atno 17395 bound_to 11000

$$$$
