AV-unprocessed.smi:1982|AV-procd|sdf|8025|dock2
  -GOLD-   2272010223D 1   1.00000     0.00000
 Structure written by MMmdl.
 36 37  0  0  0  0  0  0  0  0  1 V2000
  151.9058  144.5705  159.9244 C   0  0  0  0  0  0  0  0  0  0  0  0
  152.5182  143.2376  159.4554 C   0  0  1  0  0  0  0  0  0  0  0  0
  152.8671  142.3723  160.6827 C   0  0  0  0  0  0  0  0  0  0  0  0
  153.5194  141.0464  160.2779 C   0  0  0  0  0  0  0  0  0  0  0  0
  152.6044  140.2633  159.3319 C   0  0  0  0  0  0  0  0  0  0  0  0
  152.2402  141.0910  158.0864 C   0  0  1  0  0  0  0  0  0  0  0  0
  151.3267  140.3003  157.2605 N   0  0  0  0  0  0  0  0  0  0  0  0
  151.6521  139.6221  156.1486 C   0  0  0  0  0  0  0  0  0  0  0  0
  152.7902  139.5994  155.6774 O   0  0  0  0  0  0  0  0  0  0  0  0
  150.5009  138.8621  155.4786 C   0  0  0  0  0  0  0  0  0  0  0  0
  149.6183  139.7297  154.7176 N   0  0  0  0  0  0  0  0  0  0  0  0
  148.4536  139.4847  154.1134 C   0  0  0  0  0  0  0  0  0  0  0  0
  147.9699  140.5688  153.5262 N   0  0  0  0  0  0  0  0  0  0  0  0
  148.9259  141.5309  153.8059 N   0  0  0  0  0  0  0  0  0  0  0  0
  149.9068  141.0387  154.5117 N   0  0  0  0  0  0  0  0  0  0  0  0
  151.6082  142.4601  158.4617 C   0  0  2  0  0  0  0  0  0  0  0  0
  151.2920  143.2901  157.1981 C   0  0  0  0  0  0  0  0  0  0  0  0
  150.9207  144.4205  160.3670 H   0  0  0  0  0  0  0  0  0  0  0  0
  151.8044  145.2829  159.1064 H   0  0  0  0  0  0  0  0  0  0  0  0
  152.5364  145.0471  160.6756 H   0  0  0  0  0  0  0  0  0  0  0  0
  153.4532  143.4712  158.9434 H   0  0  0  0  0  0  0  0  0  0  0  0
  153.5422  142.9165  161.3440 H   0  0  0  0  0  0  0  0  0  0  0  0
  151.9650  142.1721  161.2627 H   0  0  0  0  0  0  0  0  0  0  0  0
  154.4773  141.2378  159.7926 H   0  0  0  0  0  0  0  0  0  0  0  0
  153.7335  140.4507  161.1657 H   0  0  0  0  0  0  0  0  0  0  0  0
  153.0966  139.3370  159.0332 H   0  0  0  0  0  0  0  0  0  0  0  0
  151.6975  139.9732  159.8648 H   0  0  0  0  0  0  0  0  0  0  0  0
  153.1652  141.2882  157.5414 H   0  0  0  0  0  0  0  0  0  0  0  0
  150.3657  140.2604  157.5680 H   0  0  0  0  0  0  0  0  0  0  0  0
  150.9076  138.0959  154.8166 H   0  0  0  0  0  0  0  0  0  0  0  0
  149.9091  138.3519  156.2397 H   0  0  0  0  0  0  0  0  0  0  0  0
  147.9645  138.5219  154.1059 H   0  0  0  0  0  0  0  0  0  0  0  0
  150.6617  142.2619  158.9674 H   0  0  0  0  0  0  0  0  0  0  0  0
  152.2042  143.5559  156.6633 H   0  0  0  0  0  0  0  0  0  0  0  0
  150.7631  144.2114  157.4374 H   0  0  0  0  0  0  0  0  0  0  0  0
  150.6511  142.7466  156.5044 H   0  0  0  0  0  0  0  0  0  0  0  0
  1  2  1  0  0  0  0
  1 18  1  0  0  0  0
  1 19  1  0  0  0  0
  1 20  1  0  0  0  0
  2 16  1  0  0  0  0
  2  3  1  0  0  0  0
  2 21  1  0  0  0  0
  3  4  1  0  0  0  0
  3 22  1  0  0  0  0
  3 23  1  0  0  0  0
  4  5  1  0  0  0  0
  4 24  1  0  0  0  0
  4 25  1  0  0  0  0
  5  6  1  0  0  0  0
  5 26  1  0  0  0  0
  5 27  1  0  0  0  0
  6  7  1  0  0  0  0
  6 16  1  0  0  0  0
  6 28  1  0  0  0  0
  7  8  1  0  0  0  0
  7 29  1  0  0  0  0
  8  9  2  0  0  0  0
  8 10  1  0  0  0  0
 10 11  1  0  0  0  0
 10 30  1  0  0  0  0
 10 31  1  0  0  0  0
 11 15  1  0  0  0  0
 11 12  1  0  0  0  0
 12 13  2  0  0  0  0
 12 32  1  0  0  0  0
 13 14  1  0  0  0  0
 14 15  2  0  0  0  0
 16 17  1  0  0  0  0
 16 33  1  0  0  0  0
 17 34  1  0  0  0  0
 17 35  1  0  0  0  0
 17 36  1  0  0  0  0
M  END
> <s_m_source_file>
AV-unprocessed.smi

> <i_m_source_file_index>
1982

> <i_lp_mmshare_version>
43012

> <i_f3d_flags>
0

> <s_epik_input>
W0NIM11bQ0BASF0xW0NIMl1bQ0gyXVtDSDJdW0NASF0oW0NASF0xW0NIM10pW05IXUMoPU8pW0NIMl1uMltjSF1ubm4y

> <s_epik_cmdline>
J2VwaWtfcHl0aG9uJywgJy1waCcsICc3LjAnLCAnLXRuJywgJzgnLCAnLW1hJywgJzIwMCcsICctbWV0YWxfYmluZGluZycsICctaW1hZScsICc8aW5maWxlLm1hZT4nLCAnLW9tYWUnLCAnPG91dGZpbGUubWFlPic=

> <r_lp_tautomer_probability>
1

> <r_epik_Ionization_Penalty>
5.03816e-07

> <r_epik_Ionization_Penalty_Charging>
0

> <r_epik_Ionization_Penalty_Neutral>
5.03816e-07

> <r_epik_State_Penalty>
-0

> <r_epik_Charging_Adjusted_Penalty>
0

> <i_epik_Tot_Q>
0

> <i_epik_Tot_abs_Q>
0

> <r_epik_Metal_State_Penalty>
-0

> <b_epik_Metal_Only>
0

> <s_lp_Force_Field>
OPLS_2005

> <r_lp_Energy>
14.7566

> <b_lp_Chiralities_Consistent>
1

> <s_lp_Variant>
AV-unprocessed.smi:1982-6

> <Gold.Version>
5.8.1

> <Gold.Id.Protein>
6NUR|6NUR_protein|mol2

> <Gold.PLP.Fitness>
41.1789

> <Gold.PLP.PLP>
-35.2463

> <Gold.PLP.part.hbond>
-3.3195

> <Gold.PLP.part.metal>
0.0000

> <Gold.PLP.part.buried>
-4.5934

> <Gold.PLP.part.nonpolar>
-28.2306

> <Gold.PLP.part.repulsive>
2.0373

> <Gold.PLP.ligand.clash>
0.0000

> <Gold.PLP.ligand.torsion>
0.5049

> <Gold.PLP.Chemscore.Hbond>
2.3120

> <Gold.PLP.Chemscore.CHOScore>
0.0000

> <Gold.PLP.Chemscore.Metal>
0.0000

> <Gold.Chemscore.Hbonds>
donor molecule, donor type, donor heavy atom, donor atom, acceptor molecule, acceptor atom, score
      P1  H  7989  7998       L1    15  0.59
      P1  H  7997  8010       L1     9  1.00
      P1  H  8011  8017       L1    14  0.72

> <Gold.PLP.Chemscore.Internal.Correction>
0.0064

> <Gold.Rescore>
     Score         DG    S(hbond)    S(metal)    S(lipo)     H(rot)  DE(clash)    DE(int)     intcor
     16.28     -16.99       1.84        0.00      87.45       1.91       0.16       0.55       ----

> <Gold.Chemscore.Fitness>
16.2810

> <Gold.Chemscore.DG>
-16.9911

> <Gold.Chemscore.ZeroCoef>
-5.4800

> <Gold.Chemscore.Hbond>
1.8437

> <Gold.Chemscore.Metal>
0.0000

> <Gold.Chemscore.Lipo>
87.4529

> <Gold.Chemscore.Internal_Hbond>
0.0000

> <Gold.Chemscore.DEClash>
0.1650

> <Gold.Chemscore.DEInternal>
0.5452

> <Gold.Chemscore.Rot>
1.9058

> <Gold.Chemscore.Internal.Correction>
   9.000000E+99

> <Gold.Chemscore.Hbonds>
donor molecule, donor type, donor heavy atom, donor atom, acceptor molecule, acceptor atom, score
      P1  H  7989  7998       L1    15  0.14
      P1  H  7997  8010       L1     9  1.00
      P1  H  8011  8017       L1    14  0.35

> <Gold.Chemscore.Hbond.Weighted>
-6.1579

> <Gold.Chemscore.Metal.Weighted>
-0.0000

> <Gold.Chemscore.Lipo.Weighted>
-10.2320

> <Gold.Chemscore.Internal_Hbond.Weighted>
0.0000

> <Gold.Chemscore.DEClash.Weighted>
0.1650

> <Gold.Chemscore.DEInternal.Weighted>
0.5452

> <Gold.Chemscore.Rot.Weighted>
4.8788

> <Gold.Chemscore.Internal.Correction.Weighted>
   9.000000E+99

> <Gold.Protein.RotatedTorsions>
[ 6907 6896 6895 6894 ] final  -79.71 input  -60.11 | X-H torsion
[ 7974 7965 7964 7962 ] final -152.16 input  175.53 | X-H torsion
[ 8008 7997 7996 7995 ] final   92.00 input   59.86 | X-H torsion
[ 10167 10162 10161 10158 ] final -133.21 input  -65.29 | X-H torsion
[ 10718 10713 10712 10709 ] final  112.23 input   66.30 | X-H torsion
[ 10763 10752 10751 10750 ] final  -38.34 input  -60.55 | X-H torsion
[ 11005 11000 10999 10996 ] final    5.67 input  -57.11 | X-H torsion

> <Gold.Protein.ActiveResidues>
 VAL166  LYS551  ARG553  GLY616  TRP617  ASP618  TYR619  PRO620  LYS621  CYS622 
 ASP623  PHE694  ASN695  SER759  ASP760  ASP761  ALA762  ILE779  LEU786  VAL792 
 PHE793  MET794  SER795  GLU796  ALA797  LYS798  CYS799  TRP800  GLU811  SER814 

> <Gold.Protein.RotatedAtoms>
  150.6944  134.4080  159.5148 H   0  0  0  0  0  0  0  0  0  0  0  0  # atno 6907 bound_to 6896
  152.1843  134.8724  160.0532 H   0  0  0  0  0  0  0  0  0  0  0  0  # atno 6908 bound_to 6896
  151.9703  133.3689  159.4105 H   0  0  0  0  0  0  0  0  0  0  0  0  # atno 6909 bound_to 6896
  144.7809  140.4700  143.5840 H   0  0  0  0  0  0  0  0  0  0  0  0  # atno 7974 bound_to 7965
  156.0303  140.3331  155.7132 H   0  0  0  0  0  0  0  0  0  0  0  0  # atno 8008 bound_to 7997
  155.5894  140.0645  157.2780 H   0  0  0  0  0  0  0  0  0  0  0  0  # atno 8009 bound_to 7997
  154.4350  140.1830  156.1047 H   0  0  0  0  0  0  0  0  0  0  0  0  # atno 8010 bound_to 7997
  139.9006  143.6612  152.2595 H   0  0  0  0  0  0  0  0  0  0  0  0  # atno 10167 bound_to 10162
  157.6404  131.0964  150.6864 H   0  0  0  0  0  0  0  0  0  0  0  0  # atno 10718 bound_to 10713
  153.9113  135.6792  153.4751 H   0  0  0  0  0  0  0  0  0  0  0  0  # atno 10763 bound_to 10752
  153.1077  135.4798  154.8978 H   0  0  0  0  0  0  0  0  0  0  0  0  # atno 10764 bound_to 10752
  154.7525  135.3189  154.8485 H   0  0  0  0  0  0  0  0  0  0  0  0  # atno 10765 bound_to 10752
  140.5681  134.0128  155.7998 H   0  0  0  0  0  0  0  0  0  0  0  0  # atno 11005 bound_to 11000
  145.6052  139.1507  143.3106 LP  0  0  0  0  0  0  0  0  0  0  0  0  # atno 17320 bound_to 7965
  146.2017  140.6171  142.9099 LP  0  0  0  0  0  0  0  0  0  0  0  0  # atno 17321 bound_to 7965
  139.7029  144.7632  151.1243 LP  0  0  0  0  0  0  0  0  0  0  0  0  # atno 17342 bound_to 10162
  140.7707  143.5434  150.9286 LP  0  0  0  0  0  0  0  0  0  0  0  0  # atno 17343 bound_to 10162
  156.7189  130.4674  149.5528 LP  0  0  0  0  0  0  0  0  0  0  0  0  # atno 17370 bound_to 10713
  156.1679  130.6417  151.0801 LP  0  0  0  0  0  0  0  0  0  0  0  0  # atno 17371 bound_to 10713
  141.1073  133.9673  157.2974 LP  0  0  0  0  0  0  0  0  0  0  0  0  # atno 17394 bound_to 11000
  139.9375  135.0195  156.8603 LP  0  0  0  0  0  0  0  0  0  0  0  0  # atno 17395 bound_to 11000

$$$$
