AV-unprocessed.smi:1326|AV-procd|sdf|5474|dock8
  -GOLD-   22720 5 43D 1   1.00000     0.00000
 Structure written by MMmdl.
 39 39  0  0  0  0  0  0  0  0  1 V2000
  146.3690  138.0866  152.2084 C   0  0  0  0  0  0  0  0  0  0  0  0
  147.1341  139.1843  152.9173 C   0  0  0  0  0  0  0  0  0  0  0  0
  146.6250  140.3289  153.2352 N   0  0  0  0  0  0  0  0  0  0  0  0
  147.4334  141.2693  153.8890 C   0  0  0  0  0  0  0  0  0  0  0  0
  146.7552  142.5851  154.2318 C   0  0  0  0  0  0  0  0  0  0  0  0
  148.7377  141.0017  154.1942 C   0  0  0  0  0  0  0  0  0  0  0  0
  149.6602  141.9996  154.8949 C   0  0  0  0  0  0  0  0  0  0  0  0
  150.1040  141.6306  156.3138 C   0  0  0  0  0  0  0  0  0  0  0  0
  150.3394  140.4560  156.5953 O   0  0  0  0  0  0  0  0  0  0  0  0
  150.2060  142.6311  157.2010 N   0  0  0  0  0  0  0  0  0  0  0  0
  150.6075  142.4686  158.5905 C   0  0  0  0  0  0  0  0  0  0  0  0
  152.1384  142.3784  158.6978 C   0  0  0  0  0  0  0  0  0  0  0  0
  152.6539  142.0727  160.1190 C   0  0  0  0  0  0  0  0  0  0  0  0
  152.4308  143.2436  161.0913 C   0  0  0  0  0  0  0  0  0  0  0  0
  154.1395  141.6825  160.0855 C   0  0  0  0  0  0  0  0  0  0  0  0
  149.3079  139.6910  153.8270 C   0  0  0  0  0  0  0  0  0  0  0  0
  150.4681  139.3497  154.0507 O   0  0  0  0  0  0  0  0  0  0  0  0
  148.4564  138.8482  153.2012 N   0  0  0  0  0  0  0  0  0  0  0  0
  148.8001  137.9386  152.9297 H   0  0  0  0  0  0  0  0  0  0  0  0
  146.9926  137.2088  152.0332 H   0  0  0  0  0  0  0  0  0  0  0  0
  146.0059  138.4446  151.2446 H   0  0  0  0  0  0  0  0  0  0  0  0
  145.5105  137.7813  152.8071 H   0  0  0  0  0  0  0  0  0  0  0  0
  146.6949  142.7109  155.3130 H   0  0  0  0  0  0  0  0  0  0  0  0
  145.7399  142.6225  153.8349 H   0  0  0  0  0  0  0  0  0  0  0  0
  147.3041  143.4286  153.8147 H   0  0  0  0  0  0  0  0  0  0  0  0
  150.5606  142.1502  154.3004 H   0  0  0  0  0  0  0  0  0  0  0  0
  149.1802  142.9793  154.9174 H   0  0  0  0  0  0  0  0  0  0  0  0
  149.9919  143.5680  156.8908 H   0  0  0  0  0  0  0  0  0  0  0  0
  150.2310  143.3124  159.1697 H   0  0  0  0  0  0  0  0  0  0  0  0
  150.1466  141.5655  158.9929 H   0  0  0  0  0  0  0  0  0  0  0  0
  152.4827  141.5935  158.0225 H   0  0  0  0  0  0  0  0  0  0  0  0
  152.5878  143.3044  158.3359 H   0  0  0  0  0  0  0  0  0  0  0  0
  152.1032  141.2115  160.4998 H   0  0  0  0  0  0  0  0  0  0  0  0
  152.9199  144.1518  160.7375 H   0  0  0  0  0  0  0  0  0  0  0  0
  152.8338  143.0142  162.0782 H   0  0  0  0  0  0  0  0  0  0  0  0
  151.3716  143.4631  161.2227 H   0  0  0  0  0  0  0  0  0  0  0  0
  154.7552  142.4997  159.7081 H   0  0  0  0  0  0  0  0  0  0  0  0
  154.3063  140.8165  159.4442 H   0  0  0  0  0  0  0  0  0  0  0  0
  154.5022  141.4253  161.0812 H   0  0  0  0  0  0  0  0  0  0  0  0
  1  2  1  0  0  0  0
  1 20  1  0  0  0  0
  1 21  1  0  0  0  0
  1 22  1  0  0  0  0
  2 18  1  0  0  0  0
  2  3  2  0  0  0  0
  3  4  1  0  0  0  0
  4  5  1  0  0  0  0
  4  6  2  0  0  0  0
  5 23  1  0  0  0  0
  5 24  1  0  0  0  0
  5 25  1  0  0  0  0
  6  7  1  0  0  0  0
  6 16  1  0  0  0  0
  7  8  1  0  0  0  0
  7 26  1  0  0  0  0
  7 27  1  0  0  0  0
  8  9  2  0  0  0  0
  8 10  1  0  0  0  0
 10 11  1  0  0  0  0
 10 28  1  0  0  0  0
 11 12  1  0  0  0  0
 11 29  1  0  0  0  0
 11 30  1  0  0  0  0
 12 13  1  0  0  0  0
 12 31  1  0  0  0  0
 12 32  1  0  0  0  0
 13 14  1  0  0  0  0
 13 15  1  0  0  0  0
 13 33  1  0  0  0  0
 14 34  1  0  0  0  0
 14 35  1  0  0  0  0
 14 36  1  0  0  0  0
 15 37  1  0  0  0  0
 15 38  1  0  0  0  0
 15 39  1  0  0  0  0
 16 17  2  0  0  0  0
 16 18  1  0  0  0  0
 18 19  1  0  0  0  0
M  END
> <s_m_source_file>
AV-unprocessed.smi

> <i_m_source_file_index>
1326

> <i_lp_mmshare_version>
43012

> <i_f3d_flags>
0

> <s_epik_input>
W0NIM11jMW5jKFtDSDNdKWMoYyg9TylbbkhdMSlbQ0gyXUMoPU8pW05IXVtDSDJdW0NIMl1bQ0hdKFtDSDNdKVtDSDNd

> <s_epik_cmdline>
J2VwaWtfcHl0aG9uJywgJy1waCcsICc3LjAnLCAnLXRuJywgJzgnLCAnLW1hJywgJzIwMCcsICctbWV0YWxfYmluZGluZycsICctaW1hZScsICc8aW5maWxlLm1hZT4nLCAnLW9tYWUnLCAnPG91dGZpbGUubWFlPic=

> <r_lp_tautomer_probability>
0.839158

> <r_epik_Ionization_Penalty>
0.000369141

> <r_epik_Ionization_Penalty_Charging>
0.00033405

> <r_epik_Ionization_Penalty_Neutral>
3.5091e-05

> <r_epik_State_Penalty>
0.09125

> <r_epik_Charging_Adjusted_Penalty>
0.0915841

> <i_epik_Tot_Q>
0

> <i_epik_Tot_abs_Q>
0

> <r_epik_Metal_State_Penalty>
0.250923

> <b_epik_Metal_Only>
0

> <s_lp_Force_Field>
OPLS_2005

> <r_lp_Energy>
6.99246

> <b_lp_Chiralities_Consistent>
1

> <s_lp_Variant>
AV-unprocessed.smi:1326-1

> <Gold.Version>
5.8.1

> <Gold.Id.Protein>
6NUR|6NUR_protein|mol2

> <Gold.PLP.Fitness>
44.2741

> <Gold.PLP.PLP>
-36.6102

> <Gold.PLP.part.hbond>
-4.0000

> <Gold.PLP.part.metal>
0.0000

> <Gold.PLP.part.buried>
3.0155

> <Gold.PLP.part.nonpolar>
-35.8802

> <Gold.PLP.part.repulsive>
1.1039

> <Gold.PLP.ligand.clash>
0.0000

> <Gold.PLP.ligand.torsion>
0.6013

> <Gold.PLP.Chemscore.Hbond>
2.9513

> <Gold.PLP.Chemscore.CHOScore>
0.0000

> <Gold.PLP.Chemscore.Metal>
0.0000

> <Gold.Chemscore.Hbonds>
donor molecule, donor type, donor heavy atom, donor atom, acceptor molecule, acceptor atom, score
      L1  H    10    28       P1  8028  0.94
      L1  H    18    19       P1  7948  1.00
      P1  H  7989  7998       L1    17  1.00

> <Gold.PLP.Chemscore.Internal.Correction>
0.0128

> <Gold.Rescore>
     Score         DG    S(hbond)    S(metal)    S(lipo)     H(rot)  DE(clash)    DE(int)     intcor
     15.71     -20.11       2.85        0.00      85.01       1.89       3.61       0.80       ----

> <Gold.Chemscore.Fitness>
15.7088

> <Gold.Chemscore.DG>
-20.1139

> <Gold.Chemscore.ZeroCoef>
-5.4800

> <Gold.Chemscore.Hbond>
2.8532

> <Gold.Chemscore.Metal>
0.0000

> <Gold.Chemscore.Lipo>
85.0124

> <Gold.Chemscore.Internal_Hbond>
0.0000

> <Gold.Chemscore.DEClash>
3.6077

> <Gold.Chemscore.DEInternal>
0.7974

> <Gold.Chemscore.Rot>
1.8916

> <Gold.Chemscore.Internal.Correction>
   9.000000E+99

> <Gold.Chemscore.Hbonds>
donor molecule, donor type, donor heavy atom, donor atom, acceptor molecule, acceptor atom, score
      L1  H    10    28       P1  8028  0.86
      L1  H    18    19       P1  7948  0.96
      P1  H  7989  7998       L1    17  0.58

> <Gold.Chemscore.Hbond.Weighted>
-9.5298

> <Gold.Chemscore.Metal.Weighted>
-0.0000

> <Gold.Chemscore.Lipo.Weighted>
-9.9465

> <Gold.Chemscore.Internal_Hbond.Weighted>
0.0000

> <Gold.Chemscore.DEClash.Weighted>
3.6077

> <Gold.Chemscore.DEInternal.Weighted>
0.7974

> <Gold.Chemscore.Rot.Weighted>
4.8424

> <Gold.Chemscore.Internal.Correction.Weighted>
   9.000000E+99

> <Gold.Protein.RotatedTorsions>
[ 6907 6896 6895 6894 ] final  178.17 input  -60.11 | X-H torsion
[ 7974 7965 7964 7962 ] final  172.87 input  175.53 | X-H torsion
[ 8008 7997 7996 7995 ] final -103.81 input   59.86 | X-H torsion
[ 10167 10162 10161 10158 ] final   59.06 input  -65.29 | X-H torsion
[ 10718 10713 10712 10709 ] final   72.79 input   66.30 | X-H torsion
[ 10763 10752 10751 10750 ] final  101.66 input  -60.55 | X-H torsion
[ 11005 11000 10999 10996 ] final -151.71 input  -57.11 | X-H torsion

> <Gold.Protein.ActiveResidues>
 VAL166  LYS551  ARG553  GLY616  TRP617  ASP618  TYR619  PRO620  LYS621  CYS622 
 ASP623  PHE694  ASN695  SER759  ASP760  ASP761  ALA762  ILE779  LEU786  VAL792 
 PHE793  MET794  SER795  GLU796  ALA797  LYS798  CYS799  TRP800  GLU811  SER814 

> <Gold.Protein.RotatedAtoms>
  151.6922  133.3311  159.3245 H   0  0  0  0  0  0  0  0  0  0  0  0  # atno 6907 bound_to 6896
  150.7774  134.6689  159.6390 H   0  0  0  0  0  0  0  0  0  0  0  0  # atno 6908 bound_to 6896
  152.3820  134.6578  160.0191 H   0  0  0  0  0  0  0  0  0  0  0  0  # atno 6909 bound_to 6896
  144.7257  139.9563  143.6433 H   0  0  0  0  0  0  0  0  0  0  0  0  # atno 7974 bound_to 7965
  154.8763  140.0421  157.1755 H   0  0  0  0  0  0  0  0  0  0  0  0  # atno 8008 bound_to 7997
  154.8686  140.2955  155.5474 H   0  0  0  0  0  0  0  0  0  0  0  0  # atno 8009 bound_to 7997
  156.2999  140.2433  156.3671 H   0  0  0  0  0  0  0  0  0  0  0  0  # atno 8010 bound_to 7997
  140.1805  144.4186  150.6617 H   0  0  0  0  0  0  0  0  0  0  0  0  # atno 10167 bound_to 10162
  157.6518  130.9596  150.0978 H   0  0  0  0  0  0  0  0  0  0  0  0  # atno 10718 bound_to 10713
  153.3296  135.4037  155.1484 H   0  0  0  0  0  0  0  0  0  0  0  0  # atno 10763 bound_to 10752
  154.8620  135.3607  154.5488 H   0  0  0  0  0  0  0  0  0  0  0  0  # atno 10764 bound_to 10752
  153.5926  135.7073  153.5476 H   0  0  0  0  0  0  0  0  0  0  0  0  # atno 10765 bound_to 10752
  140.7267  134.3667  157.5174 H   0  0  0  0  0  0  0  0  0  0  0  0  # atno 11005 bound_to 11000
  146.0672  139.3663  143.0545 LP  0  0  0  0  0  0  0  0  0  0  0  0  # atno 17320 bound_to 7965
  145.8015  140.9768  143.0996 LP  0  0  0  0  0  0  0  0  0  0  0  0  # atno 17321 bound_to 7965
  140.6522  143.2228  151.6050 LP  0  0  0  0  0  0  0  0  0  0  0  0  # atno 17342 bound_to 10162
  139.5298  144.2950  152.1121 LP  0  0  0  0  0  0  0  0  0  0  0  0  # atno 17343 bound_to 10162
  156.1909  130.3654  149.8911 LP  0  0  0  0  0  0  0  0  0  0  0  0  # atno 17370 bound_to 10713
  156.6839  130.8869  151.3579 LP  0  0  0  0  0  0  0  0  0  0  0  0  # atno 17371 bound_to 10713
  139.8835  134.8991  156.2759 LP  0  0  0  0  0  0  0  0  0  0  0  0  # atno 17394 bound_to 11000
  140.9957  133.7182  156.0882 LP  0  0  0  0  0  0  0  0  0  0  0  0  # atno 17395 bound_to 11000

$$$$
