AV-unprocessed.smi:1492|AV-procd|sdf|6040|dock4
  -GOLD-   22720 6153D 1   1.00000     0.00000
 Structure written by MMmdl.
 52 53  0  0  0  0  0  0  0  0  1 V2000
  145.9616  136.8236  158.4400 C   0  0  0  0  0  0  0  0  0  0  0  0
  147.2100  137.3840  159.1461 C   0  0  0  0  0  0  0  0  0  0  0  0
  148.3111  136.3515  159.5469 C   0  0  1  0  0  0  0  0  0  0  0  0
  148.5886  135.4215  158.3349 C   0  0  0  0  0  0  0  0  0  0  0  0
  149.6441  137.1134  159.8252 C   0  0  0  0  0  0  0  0  0  0  0  0
  149.9777  138.0225  158.7318 N   0  0  0  0  0  0  0  0  0  0  0  0
  151.0458  137.9329  157.9269 C   0  0  0  0  0  0  0  0  0  0  0  0
  151.9831  137.1572  158.1115 O   0  0  0  0  0  0  0  0  0  0  0  0
  151.0204  138.8336  156.6933 C   0  0  0  0  0  0  0  0  0  0  0  0
  151.0875  140.3274  157.0070 C   0  0  0  0  0  0  0  0  0  0  0  0
  150.1698  141.2186  156.5534 C   0  0  0  0  0  0  0  0  0  0  0  0
  148.9820  140.8566  155.6797 C   0  0  0  0  0  0  0  0  0  0  0  0
  150.2499  142.5598  156.8839 N   0  0  0  0  0  0  0  0  0  0  0  0
  151.2859  142.9634  157.7093 C   0  0  0  0  0  0  0  0  0  0  0  0
  151.2628  144.4406  158.0351 C   0  0  0  0  0  0  0  0  0  0  0  0
  152.2093  142.1899  158.1930 N   0  0  0  0  0  0  0  0  0  0  0  0
  152.1812  140.8224  157.8770 C   0  0  0  0  0  0  0  0  0  0  0  0
  153.0398  140.0639  158.3256 O   0  0  0  0  0  0  0  0  0  0  0  0
  147.9140  135.5373  160.7340 N   0  0  0  0  0  0  0  0  0  0  0  0
  147.6988  136.2978  161.9709 C   0  0  0  0  0  0  0  0  0  0  0  0
  147.4622  135.3754  163.1778 C   0  0  0  0  0  0  0  0  0  0  0  0
  146.3532  134.5230  162.9193 O   0  0  0  0  0  0  0  0  0  0  0  0
  146.5357  133.7300  161.7524 C   0  0  0  0  0  0  0  0  0  0  0  0
  146.7705  134.6396  160.5340 C   0  0  0  0  0  0  0  0  0  0  0  0
  149.5418  143.1874  156.5309 H   0  0  0  0  0  0  0  0  0  0  0  0
  145.2606  137.6290  158.2204 H   0  0  0  0  0  0  0  0  0  0  0  0
  145.4312  136.1001  159.0583 H   0  0  0  0  0  0  0  0  0  0  0  0
  146.2061  136.3483  157.4908 H   0  0  0  0  0  0  0  0  0  0  0  0
  147.6355  138.1429  158.4901 H   0  0  0  0  0  0  0  0  0  0  0  0
  146.8648  137.9185  160.0305 H   0  0  0  0  0  0  0  0  0  0  0  0
  149.1179  135.9381  157.5341 H   0  0  0  0  0  0  0  0  0  0  0  0
  147.6683  135.0342  157.8970 H   0  0  0  0  0  0  0  0  0  0  0  0
  149.2033  134.5659  158.6178 H   0  0  0  0  0  0  0  0  0  0  0  0
  149.5631  137.7248  160.7237 H   0  0  0  0  0  0  0  0  0  0  0  0
  150.4576  136.4160  160.0290 H   0  0  0  0  0  0  0  0  0  0  0  0
  149.2721  138.7031  158.4901 H   0  0  0  0  0  0  0  0  0  0  0  0
  151.8316  138.5466  156.0229 H   0  0  0  0  0  0  0  0  0  0  0  0
  150.1102  138.6230  156.1317 H   0  0  0  0  0  0  0  0  0  0  0  0
  148.3500  140.1243  156.1822 H   0  0  0  0  0  0  0  0  0  0  0  0
  149.3184  140.4335  154.7330 H   0  0  0  0  0  0  0  0  0  0  0  0
  148.3672  141.7292  155.4556 H   0  0  0  0  0  0  0  0  0  0  0  0
  152.1189  144.7171  158.6516 H   0  0  0  0  0  0  0  0  0  0  0  0
  150.3536  144.6933  158.5814 H   0  0  0  0  0  0  0  0  0  0  0  0
  151.2956  145.0334  157.1204 H   0  0  0  0  0  0  0  0  0  0  0  0
  148.5531  136.9322  162.1968 H   0  0  0  0  0  0  0  0  0  0  0  0
  146.8371  136.9568  161.8638 H   0  0  0  0  0  0  0  0  0  0  0  0
  148.3493  134.7774  163.3849 H   0  0  0  0  0  0  0  0  0  0  0  0
  147.2582  135.9647  164.0718 H   0  0  0  0  0  0  0  0  0  0  0  0
  147.3776  133.0515  161.8933 H   0  0  0  0  0  0  0  0  0  0  0  0
  145.6505  133.1127  161.5998 H   0  0  0  0  0  0  0  0  0  0  0  0
  145.8646  135.2154  160.3456 H   0  0  0  0  0  0  0  0  0  0  0  0
  146.9240  133.9974  159.6686 H   0  0  0  0  0  0  0  0  0  0  0  0
  1  2  1  0  0  0  0
  1 26  1  0  0  0  0
  1 27  1  0  0  0  0
  1 28  1  0  0  0  0
  2  3  1  0  0  0  0
  2 29  1  0  0  0  0
  2 30  1  0  0  0  0
  3  4  1  0  0  0  0
  3  5  1  0  0  0  0
  3 19  1  0  0  0  0
  4 31  1  0  0  0  0
  4 32  1  0  0  0  0
  4 33  1  0  0  0  0
  5  6  1  0  0  0  0
  5 34  1  0  0  0  0
  5 35  1  0  0  0  0
  6  7  1  0  0  0  0
  6 36  1  0  0  0  0
  7  8  2  0  0  0  0
  7  9  1  0  0  0  0
  9 37  1  0  0  0  0
  9 38  1  0  0  0  0
  9 10  1  0  0  0  0
 10 17  1  0  0  0  0
 10 11  2  0  0  0  0
 11 12  1  0  0  0  0
 11 13  1  0  0  0  0
 12 39  1  0  0  0  0
 12 40  1  0  0  0  0
 12 41  1  0  0  0  0
 13 25  1  0  0  0  0
 13 14  1  0  0  0  0
 14 15  1  0  0  0  0
 14 16  2  0  0  0  0
 15 42  1  0  0  0  0
 15 43  1  0  0  0  0
 15 44  1  0  0  0  0
 16 17  1  0  0  0  0
 17 18  2  0  0  0  0
 19 24  1  0  0  0  0
 19 20  1  0  0  0  0
 20 21  1  0  0  0  0
 20 45  1  0  0  0  0
 20 46  1  0  0  0  0
 21 22  1  0  0  0  0
 21 47  1  0  0  0  0
 21 48  1  0  0  0  0
 22 23  1  0  0  0  0
 23 24  1  0  0  0  0
 23 49  1  0  0  0  0
 23 50  1  0  0  0  0
 24 51  1  0  0  0  0
 24 52  1  0  0  0  0
M  END
> <s_m_source_file>
AV-unprocessed.smi

> <i_m_source_file_index>
1492

> <i_lp_mmshare_version>
43012

> <i_f3d_flags>
0

> <s_epik_input>
W0NIMl0xW0NIMl1PW0NIMl1bQ0gyXU4xW0NAQF0oW0NIM10pKFtDSDJdW0NIM10pW0NIMl1bTkhdQyg9TylbQ0gyXWMyYyhbQ0gzXSluYyhbQ0gzXSlbbkhdYzI9Tw==

> <s_epik_cmdline>
J2VwaWtfcHl0aG9uJywgJy1waCcsICc3LjAnLCAnLXRuJywgJzgnLCAnLW1hJywgJzIwMCcsICctbWV0YWxfYmluZGluZycsICctaW1hZScsICc8aW5maWxlLm1hZT4nLCAnLW9tYWUnLCAnPG91dGZpbGUubWFlPic=

> <r_lp_tautomer_probability>
0.156392

> <r_epik_Ionization_Penalty>
0.342516

> <r_epik_Ionization_Penalty_Charging>
0.0141408

> <r_epik_Ionization_Penalty_Neutral>
0.328375

> <r_epik_State_Penalty>
1.47662

> <r_epik_Charging_Adjusted_Penalty>
1.49076

> <i_epik_Tot_Q>
0

> <i_epik_Tot_abs_Q>
0

> <r_epik_Metal_State_Penalty>
1.65506

> <b_epik_Metal_Only>
0

> <s_lp_Force_Field>
OPLS_2005

> <r_lp_Energy>
46.8903

> <b_lp_Chiralities_Consistent>
1

> <s_lp_Variant>
AV-unprocessed.smi:1492-5

> <Gold.Version>
5.8.1

> <Gold.Id.Protein>
6NUR|6NUR_protein|mol2

> <Gold.PLP.Fitness>
38.3963

> <Gold.PLP.PLP>
-32.8994

> <Gold.PLP.part.hbond>
-2.2997

> <Gold.PLP.part.metal>
0.0000

> <Gold.PLP.part.buried>
-4.0194

> <Gold.PLP.part.nonpolar>
-27.0067

> <Gold.PLP.part.repulsive>
0.2104

> <Gold.PLP.ligand.clash>
0.0000

> <Gold.PLP.ligand.torsion>
0.3204

> <Gold.PLP.Chemscore.Hbond>
2.0000

> <Gold.PLP.Chemscore.CHOScore>
0.0000

> <Gold.PLP.Chemscore.Metal>
0.0000

> <Gold.Chemscore.Hbonds>
donor molecule, donor type, donor heavy atom, donor atom, acceptor molecule, acceptor atom, score
      L1  H    13    25       P1  8028  1.00
      P1  H  7997  8009       L1    18  1.00

> <Gold.PLP.Chemscore.Internal.Correction>
0.1376

> <Gold.Rescore>
     Score         DG    S(hbond)    S(metal)    S(lipo)     H(rot)  DE(clash)    DE(int)     intcor
     13.65     -14.15       1.69        0.00      72.10       2.12       0.12       0.39       ----

> <Gold.Chemscore.Fitness>
13.6470

> <Gold.Chemscore.DG>
-14.1536

> <Gold.Chemscore.ZeroCoef>
-5.4800

> <Gold.Chemscore.Hbond>
1.6927

> <Gold.Chemscore.Metal>
0.0000

> <Gold.Chemscore.Lipo>
72.1003

> <Gold.Chemscore.Internal_Hbond>
0.0000

> <Gold.Chemscore.DEClash>
0.1151

> <Gold.Chemscore.DEInternal>
0.3915

> <Gold.Chemscore.Rot>
2.1155

> <Gold.Chemscore.Internal.Correction>
   9.000000E+99

> <Gold.Chemscore.Hbonds>
donor molecule, donor type, donor heavy atom, donor atom, acceptor molecule, acceptor atom, score
      L1  H    13    25       P1  8028  0.98
      P1  H  7997  8009       L1    18  0.45

> <Gold.Chemscore.Hbond.Weighted>
-5.6536

> <Gold.Chemscore.Metal.Weighted>
-0.0000

> <Gold.Chemscore.Lipo.Weighted>
-8.4357

> <Gold.Chemscore.Internal_Hbond.Weighted>
0.0000

> <Gold.Chemscore.DEClash.Weighted>
0.1151

> <Gold.Chemscore.DEInternal.Weighted>
0.3915

> <Gold.Chemscore.Rot.Weighted>
5.4157

> <Gold.Chemscore.Internal.Correction.Weighted>
   9.000000E+99

> <Gold.Protein.RotatedTorsions>
[ 6907 6896 6895 6894 ] final  166.23 input  -60.11 | X-H torsion
[ 7974 7965 7964 7962 ] final  -41.75 input  175.53 | X-H torsion
[ 8008 7997 7996 7995 ] final  160.81 input   59.86 | X-H torsion
[ 10167 10162 10161 10158 ] final   29.47 input  -65.29 | X-H torsion
[ 10718 10713 10712 10709 ] final  -70.14 input   66.30 | X-H torsion
[ 10763 10752 10751 10750 ] final   90.23 input  -60.55 | X-H torsion
[ 11005 11000 10999 10996 ] final -158.47 input  -57.11 | X-H torsion

> <Gold.Protein.ActiveResidues>
 VAL166  LYS551  ARG553  GLY616  TRP617  ASP618  TYR619  PRO620  LYS621  CYS622 
 ASP623  PHE694  ASN695  SER759  ASP760  ASP761  ALA762  ILE779  LEU786  VAL792 
 PHE793  MET794  SER795  GLU796  ALA797  LYS798  CYS799  TRP800  GLU811  SER814 

> <Gold.Protein.RotatedAtoms>
  151.8822  133.3498  159.3769 H   0  0  0  0  0  0  0  0  0  0  0  0  # atno 6907 bound_to 6896
  150.7124  134.5007  159.5569 H   0  0  0  0  0  0  0  0  0  0  0  0  # atno 6908 bound_to 6896
  152.2561  134.8083  160.0489 H   0  0  0  0  0  0  0  0  0  0  0  0  # atno 6909 bound_to 6896
  146.0181  140.6883  142.9191 H   0  0  0  0  0  0  0  0  0  0  0  0  # atno 7974 bound_to 7965
  156.2146  140.1794  156.7617 H   0  0  0  0  0  0  0  0  0  0  0  0  # atno 8008 bound_to 7997
  154.5773  140.0672  156.9082 H   0  0  0  0  0  0  0  0  0  0  0  0  # atno 8009 bound_to 7997
  155.2565  140.3332  155.4279 H   0  0  0  0  0  0  0  0  0  0  0  0  # atno 8010 bound_to 7997
  140.4762  144.0686  150.6251 H   0  0  0  0  0  0  0  0  0  0  0  0  # atno 10167 bound_to 10162
  156.0422  130.4326  150.2251 H   0  0  0  0  0  0  0  0  0  0  0  0  # atno 10718 bound_to 10713
  153.1954  135.4441  155.0201 H   0  0  0  0  0  0  0  0  0  0  0  0  # atno 10763 bound_to 10752
  154.8115  135.3296  154.7294 H   0  0  0  0  0  0  0  0  0  0  0  0  # atno 10764 bound_to 10752
  153.7744  135.6982  153.4955 H   0  0  0  0  0  0  0  0  0  0  0  0  # atno 10765 bound_to 10752
  140.6533  134.4427  157.5235 H   0  0  0  0  0  0  0  0  0  0  0  0  # atno 11005 bound_to 11000
  144.6979  140.3518  143.7180 LP  0  0  0  0  0  0  0  0  0  0  0  0  # atno 17320 bound_to 7965
  145.7236  139.1716  143.2470 LP  0  0  0  0  0  0  0  0  0  0  0  0  # atno 17321 bound_to 7965
  140.3915  143.2750  152.0055 LP  0  0  0  0  0  0  0  0  0  0  0  0  # atno 17342 bound_to 10162
  139.4826  144.6073  151.7497 LP  0  0  0  0  0  0  0  0  0  0  0  0  # atno 17343 bound_to 10162
  157.0344  131.0017  151.3302 LP  0  0  0  0  0  0  0  0  0  0  0  0  # atno 17370 bound_to 10713
  157.5254  130.8024  149.7856 LP  0  0  0  0  0  0  0  0  0  0  0  0  # atno 17371 bound_to 10713
  139.9038  134.8495  156.1787 LP  0  0  0  0  0  0  0  0  0  0  0  0  # atno 17394 bound_to 11000
  141.0520  133.6884  156.1790 LP  0  0  0  0  0  0  0  0  0  0  0  0  # atno 17395 bound_to 11000

$$$$
