#       Name:                AV-unprocessed.smi:565
#       Creating user name   scv26
#       Creation time:       Thu Mar 26 23:45:41 2020


#       File generated by GOLD software.
#

@<TRIPOS>MOLECULE
AV-unprocessed.smi:565
    53    54     1
SMALL
NO_CHARGES


@<TRIPOS>ATOM
      1 ****        -1.4693   2.8090  -3.8051 C.3            1 S1                 0.0000
      2 ****        -2.2215   2.7349  -2.5070 C.2            1 S1                 0.0000
      3 ****        -2.3749   3.8313  -1.7835 N.2            1 S1                 0.0000
      4 ****        -3.0767   3.4362  -0.7028 N.pl3          1 S1                 0.0000
      5 ****        -3.4214   4.4096   0.3151 C.3            1 S1                 0.0000
      6 ****        -3.3717   2.0874  -0.7454 C.2            1 S1                 0.0000
      7 ****        -4.1401   1.4062   0.3411 C.3            1 S1                 0.0000
      8 ****        -2.8278   1.5947  -1.9023 C.2            1 S1                 0.0000
      9 ****        -2.8443   0.1816  -2.4291 C.3            1 S1                 0.0000
     10 ****        -1.6210  -0.5691  -1.9040 C.2            1 S1                 0.0000
     11 ****        -0.6404  -0.7368  -2.6288 O.2            1 S1                 0.0000
     12 ****        -1.6820  -0.9993  -0.6340 N.am           1 S1                 0.0000
     13 ****        -0.5960  -1.6641   0.0741 C.3            1 S1                 0.0000
     14 ****         0.4681  -0.6502   0.5368 C.3            1 S1                 0.0000
     15 ****         1.5675  -1.2903   1.3014 N.4            1 S1                 1.0000
     16 ****         2.2551  -0.3306   2.2031 C.3            1 S1                 0.0000
     17 ****         3.2931  -1.0443   3.0833 C.3            1 S1                 0.0000
     18 ****         4.3099  -1.8058   2.2240 C.3            1 S1                 0.0000
     19 ****         3.5855  -2.7738   1.2732 C.3            1 S1                 0.0000
     20 ****         4.5793  -3.5295   0.3798 C.3            1 S1                 0.0000
     21 ****         2.5368  -2.0146   0.4352 C.3            1 S1                 0.0000
     22 ****        -0.8191   1.9434  -3.9316 H              1 S1                 0.0000
     23 ****        -0.8429   3.7003  -3.8582 H              1 S1                 0.0000
     24 ****        -2.1564   2.8345  -4.6509 H              1 S1                 0.0000
     25 ****        -3.1523   4.0250   1.2991 H              1 S1                 0.0000
     26 ****        -4.4943   4.6017   0.2881 H              1 S1                 0.0000
     27 ****        -2.8890   5.3470   0.1476 H              1 S1                 0.0000
     28 ****        -4.4587   0.4096   0.0365 H              1 S1                 0.0000
     29 ****        -5.0334   1.9737   0.6032 H              1 S1                 0.0000
     30 ****        -3.5289   1.3033   1.2377 H              1 S1                 0.0000
     31 ****        -3.7489  -0.3502  -2.1335 H              1 S1                 0.0000
     32 ****        -2.8305   0.1656  -3.5195 H              1 S1                 0.0000
     33 ****        -2.5298  -0.8226  -0.1144 H              1 S1                 0.0000
     34 ****        -1.0195  -2.1782   0.9372 H              1 S1                 0.0000
     35 ****        -0.1679  -2.4346  -0.5675 H              1 S1                 0.0000
     36 ****         0.8848  -0.1006  -0.3086 H              1 S1                 0.0000
     37 ****        -0.0275   0.0900   1.1668 H              1 S1                 0.0000
     38 ****         2.7349   0.4492   1.6094 H              1 S1                 0.0000
     39 ****         1.5244   0.1632   2.8451 H              1 S1                 0.0000
     40 ****         3.8077  -0.3195   3.7149 H              1 S1                 0.0000
     41 ****         2.7885  -1.7385   3.7568 H              1 S1                 0.0000
     42 ****         4.9086  -1.0969   1.6501 H              1 S1                 0.0000
     43 ****         5.0028  -2.3515   2.8655 H              1 S1                 0.0000
     44 ****         3.0608  -3.5144   1.8792 H              1 S1                 0.0000
     45 ****         5.1404  -2.8449  -0.2572 H              1 S1                 0.0000
     46 ****         4.0650  -4.2406  -0.2673 H              1 S1                 0.0000
     47 ****         5.2975  -4.0906   0.9785 H              1 S1                 0.0000
     48 ****         2.0110  -2.7258  -0.2009 H              1 S1                 0.0000
     49 ****         3.0293  -1.3039  -0.2309 H              1 S1                 0.0000
     50 ****         1.1357  -1.9782   1.9017 H              1 S1                 0.0000
     51 ****        -2.0431   4.7513  -1.9924 LP             1 S1                 0.0000
     52 ****        -0.6430  -0.3815  -3.5636 LP             1 S1                 0.0000
     53 ****         0.1588  -1.2283  -2.2829 LP             1 S1                 0.0000
@<TRIPOS>BOND
    1    1    2 1     
    2    1   22 1     
    3    1   23 1     
    4    1   24 1     
    5    2    8 1     
    6    2    3 2     
    7    3    4 1     
    8    4    5 1     
    9    4    6 1     
   10    5   25 1     
   11    5   26 1     
   12    5   27 1     
   13    6    7 1     
   14    6    8 2     
   15    7   28 1     
   16    7   29 1     
   17    7   30 1     
   18    8    9 1     
   19    9   10 1     
   20    9   31 1     
   21    9   32 1     
   22   10   11 2     
   23   10   12 am    
   24   12   13 1     
   25   12   33 1     
   26   13   14 1     
   27   13   34 1     
   28   13   35 1     
   29   14   15 1     
   30   14   36 1     
   31   14   37 1     
   32   15   21 1     
   33   15   16 1     
   34   15   50 1     
   35   16   17 1     
   36   16   38 1     
   37   16   39 1     
   38   17   18 1     
   39   17   40 1     
   40   17   41 1     
   41   18   19 1     
   42   18   42 1     
   43   18   43 1     
   44   19   20 1     
   45   19   21 1     
   46   19   44 1     
   47   20   45 1     
   48   20   46 1     
   49   20   47 1     
   50   21   48 1     
   51   21   49 1     
   52    3   51 1     
   53   11   52 1     
   54   11   53 1     
@<TRIPOS>SUBSTRUCTURE
      1 S1             1
@<TRIPOS>SET
LONE_PAIRS      STATIC     ATOMS    <user>   **** ""
3 51 52 53
DONOR_HYDROGENS      STATIC     ATOMS    <user>   **** ""
2 33 50
ATOM$BLUE        STATIC     ATOMS    COLORGROUP SYSTEM
3 51 52 53
ATOM$RED        STATIC     ATOMS    COLORGROUP SYSTEM
2 33 50
