#       Name:                AV-unprocessed.smi:2368
#       Creating user name   scv26
#       Creation time:       Fri Mar 27 13:06:11 2020


#       File generated by GOLD software.
#

@<TRIPOS>MOLECULE
AV-unprocessed.smi:2368
    40    41     1
SMALL
NO_CHARGES


@<TRIPOS>ATOM
      1 ****        -6.0151   0.8735  -1.7095 C.3            1 S1                 0.0000
      2 ****        -4.6734   1.3982  -1.2331 C.ar           1 S1                 0.0000
      3 ****        -4.6464   2.7031  -0.8846 N.ar           1 S1                 0.0000
      4 ****        -3.4797   3.2191  -0.4475 C.ar           1 S1                 0.0000
      5 ****        -2.2921   2.4700  -0.3426 C.ar           1 S1                 0.0000
      6 ****        -2.3120   1.1067  -0.7233 C.ar           1 S1                 0.0000
      7 ****        -1.1751   0.2549  -0.6414 N.am           1 S1                 0.0000
      8 ****         0.1270   0.5868  -0.6635 C.2            1 S1                 0.0000
      9 ****         0.5712   1.7303  -0.7666 O.2            1 S1                 0.0000
     10 ****         0.9055  -0.5008  -0.5752 N.am           1 S1                 0.0000
     11 ****         2.3641  -0.4836  -0.5831 C.3            1 S1                 0.0000
     12 ****         2.9069  -1.8777  -0.7384 C.2            1 S1                 0.0000
     13 ****         3.7450  -2.2145   0.2390 C.2            1 S1                 0.0000
     14 ****         3.9295  -1.1174   1.2565 C.3            1 S1                 0.0000
     15 ****         3.6324  -1.5788   2.6938 C.3            1 S1                 0.0000
     16 ****         4.5665  -2.5539   3.1074 O.3            1 S1                 0.0000
     17 ****         2.9683  -0.0055   0.7639 C.3            1 S1                 0.0000
     18 ****        -3.5382   0.5564  -1.1656 C.ar           1 S1                 0.0000
     19 ****        -3.6474  -1.1112  -1.6217 Cl             1 S1                 0.0000
     20 ****         2.7316   0.1226  -1.4128 H              1 S1                 0.0000
     21 ****         4.9599  -0.7651   1.1882 H              1 S1                 0.0000
     22 ****        -5.9337   0.4976  -2.7296 H              1 S1                 0.0000
     23 ****        -6.7784   1.6527  -1.6980 H              1 S1                 0.0000
     24 ****        -6.3540   0.0603  -1.0672 H              1 S1                 0.0000
     25 ****        -3.4940   4.2613  -0.1650 H              1 S1                 0.0000
     26 ****        -1.4025   2.9490   0.0358 H              1 S1                 0.0000
     27 ****        -1.3798  -0.7336  -0.6397 H              1 S1                 0.0000
     28 ****         0.4606  -1.4038  -0.4978 H              1 S1                 0.0000
     29 ****         2.6408  -2.5099  -1.5729 H              1 S1                 0.0000
     30 ****         4.2591  -3.1613   0.3152 H              1 S1                 0.0000
     31 ****         3.6884  -0.7339   3.3810 H              1 S1                 0.0000
     32 ****         2.6257  -1.9917   2.7698 H              1 S1                 0.0000
     33 ****         4.3563  -2.8157   3.9909 H              1 S1                 0.0000
     34 ****         3.4994   0.9383   0.6352 H              1 S1                 0.0000
     35 ****         2.1848   0.1779   1.5010 H              1 S1                 0.0000
     36 ****        -5.4678   3.2699  -0.9489 LP             1 S1                 0.0000
     37 ****        -0.0561   2.5054  -0.8426 LP             1 S1                 0.0000
     38 ****         1.5592   1.8841  -0.7742 LP             1 S1                 0.0000
     39 ****         5.4893  -2.1698   3.0801 LP             1 S1                 0.0000
     40 ****         4.5174  -3.3468   2.5001 LP             1 S1                 0.0000
@<TRIPOS>BOND
    1    1    2 1     
    2    1   22 1     
    3    1   23 1     
    4    1   24 1     
    5    2   18 ar    
    6    2    3 ar    
    7    3    4 ar    
    8    4    5 ar    
    9    4   25 1     
   10    5    6 ar    
   11    5   26 1     
   12    6    7 1     
   13    6   18 ar    
   14    7    8 am    
   15    7   27 1     
   16    8    9 2     
   17    8   10 am    
   18   10   11 1     
   19   10   28 1     
   20   11   20 1     
   21   11   17 1     
   22   11   12 1     
   23   12   13 2     
   24   12   29 1     
   25   13   14 1     
   26   13   30 1     
   27   14   21 1     
   28   14   15 1     
   29   14   17 1     
   30   15   16 1     
   31   15   31 1     
   32   15   32 1     
   33   16   33 1     
   34   17   34 1     
   35   17   35 1     
   36   18   19 1     
   37    3   36 1     
   38    9   37 1     
   39    9   38 1     
   40   16   39 1     
   41   16   40 1     
@<TRIPOS>SUBSTRUCTURE
      1 S1             1
@<TRIPOS>SET
LONE_PAIRS      STATIC     ATOMS    <user>   **** ""
5 36 37 38 39 40
DONOR_HYDROGENS      STATIC     ATOMS    <user>   **** ""
3 27 28 33
ATOM$BLUE        STATIC     ATOMS    COLORGROUP SYSTEM
5 36 37 38 39 40
ATOM$RED        STATIC     ATOMS    COLORGROUP SYSTEM
3 27 28 33
