AV-unprocessed.smi:3280|AV-procd|sdf|12554|dock9
  -GOLD-   2272018473D 1   1.00000     0.00000
 Structure written by MMmdl.
 38 39  0  0  0  0  0  0  0  0  1 V2000
  145.5856  144.6471  154.0610 C   0  0  0  0  0  0  0  0  0  0  0  0
  145.6539  143.1856  154.5280 C   0  0  0  0  0  0  0  0  0  0  0  0
  145.0124  142.9666  155.9064 C   0  0  0  0  0  0  0  0  0  0  0  0
  147.0534  142.6537  154.4746 C   0  0  0  0  0  0  0  0  0  0  0  0
  147.8915  143.0159  153.5099 N   0  0  0  0  0  0  0  0  0  0  0  0
  149.0728  142.3325  153.8312 O   0  0  0  0  0  0  0  0  0  0  0  0
  148.7955  141.6210  154.9502 C   0  0  0  0  0  0  0  0  0  0  0  0
  149.8823  140.8176  155.5817 C   0  0  0  0  0  0  0  0  0  0  0  0
  150.9309  141.7018  156.2683 C   0  0  0  0  0  0  0  0  0  0  0  0
  150.2802  142.5711  157.2391 N   0  0  0  0  0  0  0  0  0  0  0  0
  151.2126  143.0564  158.2507 C   0  0  2  0  0  0  0  0  0  0  0  0
  151.6101  141.9204  159.2212 C   0  0  0  0  0  0  0  0  0  0  0  0
  152.5970  142.3880  160.3032 C   0  0  0  0  0  0  0  0  0  0  0  0
  152.0197  143.5037  161.1847 C   0  0  0  0  0  0  0  0  0  0  0  0
  151.6414  144.9809  160.2047 S   0  0  0  0  0  0  0  0  0  0  0  0
  150.5272  144.2177  158.9944 C   0  0  0  0  0  0  0  0  0  0  0  0
  147.5576  141.7951  155.4053 N   0  0  0  0  0  0  0  0  0  0  0  0
  145.9852  144.7551  153.0521 H   0  0  0  0  0  0  0  0  0  0  0  0
  146.1593  145.3014  154.7184 H   0  0  0  0  0  0  0  0  0  0  0  0
  144.5570  145.0078  154.0491 H   0  0  0  0  0  0  0  0  0  0  0  0
  145.0599  142.6080  153.8176 H   0  0  0  0  0  0  0  0  0  0  0  0
  145.0149  141.9101  156.1767 H   0  0  0  0  0  0  0  0  0  0  0  0
  143.9768  143.3072  155.9152 H   0  0  0  0  0  0  0  0  0  0  0  0
  145.5473  143.5115  156.6850 H   0  0  0  0  0  0  0  0  0  0  0  0
  149.4338  140.1319  156.3018 H   0  0  0  0  0  0  0  0  0  0  0  0
  150.3513  140.2032  154.8119 H   0  0  0  0  0  0  0  0  0  0  0  0
  151.6755  141.0734  156.7561 H   0  0  0  0  0  0  0  0  0  0  0  0
  151.4485  142.3060  155.5221 H   0  0  0  0  0  0  0  0  0  0  0  0
  149.8879  143.3629  156.7495 H   0  0  0  0  0  0  0  0  0  0  0  0
  152.1020  143.4478  157.7544 H   0  0  0  0  0  0  0  0  0  0  0  0
  150.7187  141.5075  159.6955 H   0  0  0  0  0  0  0  0  0  0  0  0
  152.0733  141.0974  158.6780 H   0  0  0  0  0  0  0  0  0  0  0  0
  152.8679  141.5390  160.9315 H   0  0  0  0  0  0  0  0  0  0  0  0
  153.5218  142.7286  159.8360 H   0  0  0  0  0  0  0  0  0  0  0  0
  151.1109  143.1637  161.6825 H   0  0  0  0  0  0  0  0  0  0  0  0
  152.7308  143.7745  161.9654 H   0  0  0  0  0  0  0  0  0  0  0  0
  150.2117  144.9903  158.2922 H   0  0  0  0  0  0  0  0  0  0  0  0
  149.6316  143.8710  159.5119 H   0  0  0  0  0  0  0  0  0  0  0  0
  1  2  1  0  0  0  0
  1 18  1  0  0  0  0
  1 19  1  0  0  0  0
  1 20  1  0  0  0  0
  2  3  1  0  0  0  0
  2  4  1  0  0  0  0
  2 21  1  0  0  0  0
  3 22  1  0  0  0  0
  3 23  1  0  0  0  0
  3 24  1  0  0  0  0
  4 17  1  0  0  0  0
  4  5  2  0  0  0  0
  5  6  1  0  0  0  0
  6  7  1  0  0  0  0
  7  8  1  0  0  0  0
  7 17  2  0  0  0  0
  8  9  1  0  0  0  0
  8 25  1  0  0  0  0
  8 26  1  0  0  0  0
  9 10  1  0  0  0  0
  9 27  1  0  0  0  0
  9 28  1  0  0  0  0
 10 11  1  0  0  0  0
 10 29  1  0  0  0  0
 11 16  1  0  0  0  0
 11 12  1  0  0  0  0
 11 30  1  0  0  0  0
 12 13  1  0  0  0  0
 12 31  1  0  0  0  0
 12 32  1  0  0  0  0
 13 14  1  0  0  0  0
 13 33  1  0  0  0  0
 13 34  1  0  0  0  0
 14 15  1  0  0  0  0
 14 35  1  0  0  0  0
 14 36  1  0  0  0  0
 15 16  1  0  0  0  0
 16 37  1  0  0  0  0
 16 38  1  0  0  0  0
M  END
> <s_m_source_file>
AV-unprocessed.smi

> <i_m_source_file_index>
3280

> <i_lp_mmshare_version>
43012

> <i_f3d_flags>
0

> <s_epik_input>
W0NIM11bQ0hdKFtDSDNdKWMxbm9jKG4xKVtDSDJdW0NIMl1bTkhdW0NAQEhdMltDSDJdW0NIMl1bQ0gyXVNbQ0gyXTI=

> <s_epik_cmdline>
J2VwaWtfcHl0aG9uJywgJy1waCcsICc3LjAnLCAnLXRuJywgJzgnLCAnLW1hJywgJzIwMCcsICctbWV0YWxfYmluZGluZycsICctaW1hZScsICc8aW5maWxlLm1hZT4nLCAnLW9tYWUnLCAnPG91dGZpbGUubWFlPic=

> <r_lp_tautomer_probability>
1

> <r_epik_Ionization_Penalty>
2.40576

> <r_epik_Ionization_Penalty_Charging>
0

> <r_epik_Ionization_Penalty_Neutral>
2.40576

> <r_epik_State_Penalty>
2.56401

> <r_epik_Charging_Adjusted_Penalty>
2.56401

> <i_epik_Tot_Q>
0

> <i_epik_Tot_abs_Q>
0

> <r_epik_Metal_State_Penalty>
2.56401

> <b_epik_Metal_Only>
0

> <s_lp_Force_Field>
OPLS_2005

> <r_lp_Energy>
1.17925

> <b_lp_Chiralities_Consistent>
1

> <s_lp_Variant>
AV-unprocessed.smi:3280-3

> <Gold.Version>
5.8.1

> <Gold.Id.Protein>
6NUR|6NUR_protein|mol2

> <Gold.PLP.Fitness>
39.1237

> <Gold.PLP.PLP>
-36.3836

> <Gold.PLP.part.hbond>
-3.3288

> <Gold.PLP.part.metal>
0.0000

> <Gold.PLP.part.buried>
-3.6153

> <Gold.PLP.part.nonpolar>
-30.4747

> <Gold.PLP.part.repulsive>
0.4675

> <Gold.PLP.ligand.clash>
0.0000

> <Gold.PLP.ligand.torsion>
0.8996

> <Gold.PLP.Chemscore.Hbond>
1.4800

> <Gold.PLP.Chemscore.CHOScore>
0.0000

> <Gold.PLP.Chemscore.Metal>
0.0000

> <Gold.Chemscore.Hbonds>
donor molecule, donor type, donor heavy atom, donor atom, acceptor molecule, acceptor atom, score
      L1  H    10    29       P1  8028  1.00
      P1  H  8011  8017       L1     6  0.20
      P1  H  8022  8030       L1     5  0.55

> <Gold.PLP.Chemscore.Internal.Correction>
0.0993

> <Gold.Rescore>
     Score         DG    S(hbond)    S(metal)    S(lipo)     H(rot)  DE(clash)    DE(int)     intcor
     15.30     -15.63       1.28        0.00      87.13       1.68       0.02       0.31       ----

> <Gold.Chemscore.Fitness>
15.3010

> <Gold.Chemscore.DG>
-15.6268

> <Gold.Chemscore.ZeroCoef>
-5.4800

> <Gold.Chemscore.Hbond>
1.2760

> <Gold.Chemscore.Metal>
0.0000

> <Gold.Chemscore.Lipo>
87.1282

> <Gold.Chemscore.Internal_Hbond>
0.0000

> <Gold.Chemscore.DEClash>
0.0201

> <Gold.Chemscore.DEInternal>
0.3057

> <Gold.Chemscore.Rot>
1.6833

> <Gold.Chemscore.Internal.Correction>
   9.000000E+99

> <Gold.Chemscore.Hbonds>
donor molecule, donor type, donor heavy atom, donor atom, acceptor molecule, acceptor atom, score
      L1  H    10    29       P1  8028  0.96
      P1  H  8011  8017       L1     6  0.04
      P1  H  8022  8030       L1     5  0.10

> <Gold.Chemscore.Hbond.Weighted>
-4.2620

> <Gold.Chemscore.Metal.Weighted>
-0.0000

> <Gold.Chemscore.Lipo.Weighted>
-10.1940

> <Gold.Chemscore.Internal_Hbond.Weighted>
0.0000

> <Gold.Chemscore.DEClash.Weighted>
0.0201

> <Gold.Chemscore.DEInternal.Weighted>
0.3057

> <Gold.Chemscore.Rot.Weighted>
4.3092

> <Gold.Chemscore.Internal.Correction.Weighted>
   9.000000E+99

> <Gold.Protein.RotatedTorsions>
[ 6907 6896 6895 6894 ] final  -33.69 input  -60.11 | X-H torsion
[ 7974 7965 7964 7962 ] final   19.09 input  175.53 | X-H torsion
[ 8008 7997 7996 7995 ] final  176.40 input   59.86 | X-H torsion
[ 10167 10162 10161 10158 ] final  -20.53 input  -65.29 | X-H torsion
[ 10718 10713 10712 10709 ] final   93.11 input   66.30 | X-H torsion
[ 10763 10752 10751 10750 ] final  121.47 input  -60.55 | X-H torsion
[ 11005 11000 10999 10996 ] final  -33.20 input  -57.11 | X-H torsion

> <Gold.Protein.ActiveResidues>
 VAL166  LYS551  ARG553  GLY616  TRP617  ASP618  TYR619  PRO620  LYS621  CYS622 
 ASP623  PHE694  ASN695  SER759  ASP760  ASP761  ALA762  ILE779  LEU786  VAL792 
 PHE793  MET794  SER795  GLU796  ALA797  LYS798  CYS799  TRP800  GLU811  SER814 

> <Gold.Protein.RotatedAtoms>
  151.0623  134.9744  159.8266 H   0  0  0  0  0  0  0  0  0  0  0  0  # atno 6907 bound_to 6896
  152.5397  134.2403  159.8869 H   0  0  0  0  0  0  0  0  0  0  0  0  # atno 6908 bound_to 6896
  151.2423  133.4350  159.2641 H   0  0  0  0  0  0  0  0  0  0  0  0  # atno 6909 bound_to 6896
  146.2162  139.8363  142.8650 H   0  0  0  0  0  0  0  0  0  0  0  0  # atno 7974 bound_to 7965
  156.0768  140.1384  156.9761 H   0  0  0  0  0  0  0  0  0  0  0  0  # atno 8008 bound_to 7997
  154.4562  140.0960  156.6814 H   0  0  0  0  0  0  0  0  0  0  0  0  # atno 8009 bound_to 7997
  155.5140  140.3454  155.4396 H   0  0  0  0  0  0  0  0  0  0  0  0  # atno 8010 bound_to 7997
  140.7276  143.4714  151.0242 H   0  0  0  0  0  0  0  0  0  0  0  0  # atno 10167 bound_to 10162
  157.6956  131.0467  150.3984 H   0  0  0  0  0  0  0  0  0  0  0  0  # atno 10718 bound_to 10713
  153.6146  135.3424  155.2990 H   0  0  0  0  0  0  0  0  0  0  0  0  # atno 10763 bound_to 10752
  154.8612  135.4258  154.2273 H   0  0  0  0  0  0  0  0  0  0  0  0  # atno 10764 bound_to 10752
  153.3132  135.7033  153.7169 H   0  0  0  0  0  0  0  0  0  0  0  0  # atno 10765 bound_to 10752
  140.9615  133.7162  156.1376 H   0  0  0  0  0  0  0  0  0  0  0  0  # atno 11005 bound_to 11000
  145.2945  141.0177  143.3644 LP  0  0  0  0  0  0  0  0  0  0  0  0  # atno 17320 bound_to 7965
  144.9052  139.4598  143.6613 LP  0  0  0  0  0  0  0  0  0  0  0  0  # atno 17321 bound_to 7965
  139.8406  143.7569  152.3180 LP  0  0  0  0  0  0  0  0  0  0  0  0  # atno 17342 bound_to 10162
  139.7716  144.7474  151.0216 LP  0  0  0  0  0  0  0  0  0  0  0  0  # atno 17343 bound_to 10162
  156.4380  130.3986  149.6716 LP  0  0  0  0  0  0  0  0  0  0  0  0  # atno 17370 bound_to 10713
  156.3909  130.7627  151.2627 LP  0  0  0  0  0  0  0  0  0  0  0  0  # atno 17371 bound_to 10713
  140.7461  134.4097  157.5548 LP  0  0  0  0  0  0  0  0  0  0  0  0  # atno 17394 bound_to 11000
  139.8879  134.8869  156.2500 LP  0  0  0  0  0  0  0  0  0  0  0  0  # atno 17395 bound_to 11000

$$$$
