AV-unprocessed.smi:3222|AV-procd|sdf|12306|dock6
  -GOLD-   2272018153D 1   1.00000     0.00000
 Structure written by MMmdl.
 41 42  0  0  0  0  0  0  0  0  2 V2000
  147.7472  141.9655  153.8381 C   0  0  0  0  0  0  0  0  0  0  0  0
  148.8883  141.3991  154.6986 C   0  0  1  0  0  0  0  0  0  0  0  0
  148.8621  142.0371  156.0350 N   0  3  0  0  0  0  0  0  0  0  0  0
  149.8523  141.5163  156.9969 C   0  0  0  0  0  0  0  0  0  0  0  0
  150.9102  142.5823  157.3206 C   0  0  0  0  0  0  0  0  0  0  0  0
  151.7073  142.2167  158.4883 N   0  0  0  0  0  0  0  0  0  0  0  0
  151.7825  143.0974  159.6417 C   0  0  0  0  0  0  0  0  0  0  0  0
  152.8343  142.4609  160.5616 C   0  0  0  0  0  0  0  0  0  0  0  0
  153.0569  141.0432  160.0235 C   0  0  0  0  0  0  0  0  0  0  0  0
  152.3764  141.0716  158.6655 C   0  0  0  0  0  0  0  0  0  0  0  0
  152.4512  140.1447  157.8603 O   0  0  0  0  0  0  0  0  0  0  0  0
  148.8450  139.8525  154.8098 C   0  0  1  0  0  0  0  0  0  0  0  0
  147.9039  139.2031  153.7774 C   0  0  0  0  0  0  0  0  0  0  0  0
  150.1706  139.2404  154.7980 N   0  0  0  0  0  0  0  0  0  0  0  0
  150.5088  137.9516  154.4380 C   0  0  0  0  0  0  0  0  0  0  0  0
  151.8574  137.8191  154.6042 C   0  0  0  0  0  0  0  0  0  0  0  0
  152.2663  139.0955  155.0801 C   0  0  0  0  0  0  0  0  0  0  0  0
  151.2559  139.9410  155.2007 N   0  0  0  0  0  0  0  0  0  0  0  0
  147.7372  141.5067  152.8490 H   0  0  0  0  0  0  0  0  0  0  0  0
  147.8608  143.0409  153.6985 H   0  0  0  0  0  0  0  0  0  0  0  0
  146.7716  141.7943  154.2943 H   0  0  0  0  0  0  0  0  0  0  0  0
  149.8233  141.6621  154.2004 H   0  0  0  0  0  0  0  0  0  0  0  0
  149.0121  143.0291  155.9202 H   0  0  0  0  0  0  0  0  0  0  0  0
  149.3340  141.2083  157.9059 H   0  0  0  0  0  0  0  0  0  0  0  0
  150.3285  140.6292  156.5770 H   0  0  0  0  0  0  0  0  0  0  0  0
  151.5702  142.7239  156.4634 H   0  0  0  0  0  0  0  0  0  0  0  0
  150.4311  143.5459  157.5023 H   0  0  0  0  0  0  0  0  0  0  0  0
  152.0602  144.1114  159.3511 H   0  0  0  0  0  0  0  0  0  0  0  0
  150.8080  143.1357  160.1306 H   0  0  0  0  0  0  0  0  0  0  0  0
  153.7659  143.0262  160.5133 H   0  0  0  0  0  0  0  0  0  0  0  0
  152.5081  142.4554  161.6023 H   0  0  0  0  0  0  0  0  0  0  0  0
  154.1155  140.7973  159.9345 H   0  0  0  0  0  0  0  0  0  0  0  0
  152.5749  140.2969  160.6558 H   0  0  0  0  0  0  0  0  0  0  0  0
  148.4175  139.6241  155.7875 H   0  0  0  0  0  0  0  0  0  0  0  0
  146.8956  139.6096  153.8590 H   0  0  0  0  0  0  0  0  0  0  0  0
  147.8360  138.1261  153.9349 H   0  0  0  0  0  0  0  0  0  0  0  0
  148.2425  139.3658  152.7539 H   0  0  0  0  0  0  0  0  0  0  0  0
  149.7689  137.2417  154.0981 H   0  0  0  0  0  0  0  0  0  0  0  0
  152.4605  136.9432  154.4157 H   0  0  0  0  0  0  0  0  0  0  0  0
  153.2592  139.4293  155.3433 H   0  0  0  0  0  0  0  0  0  0  0  0
  147.9393  141.9001  156.4240 H   0  0  0  0  0  0  0  0  0  0  0  0
  1  2  1  0  0  0  0
  1 19  1  0  0  0  0
  1 20  1  0  0  0  0
  1 21  1  0  0  0  0
  2  3  1  0  0  0  0
  2 12  1  0  0  0  0
  2 22  1  0  0  0  0
  3  4  1  0  0  0  0
  3 23  1  0  0  0  0
  3 41  1  0  0  0  0
  4  5  1  0  0  0  0
  4 24  1  0  0  0  0
  4 25  1  0  0  0  0
  5  6  1  0  0  0  0
  5 26  1  0  0  0  0
  5 27  1  0  0  0  0
  6 10  1  0  0  0  0
  6  7  1  0  0  0  0
  7  8  1  0  0  0  0
  7 28  1  0  0  0  0
  7 29  1  0  0  0  0
  8  9  1  0  0  0  0
  8 30  1  0  0  0  0
  8 31  1  0  0  0  0
  9 10  1  0  0  0  0
  9 32  1  0  0  0  0
  9 33  1  0  0  0  0
 10 11  2  0  0  0  0
 12 13  1  0  0  0  0
 12 14  1  0  0  0  0
 12 34  1  0  0  0  0
 13 35  1  0  0  0  0
 13 36  1  0  0  0  0
 13 37  1  0  0  0  0
 14 18  1  0  0  0  0
 14 15  1  0  0  0  0
 15 16  2  0  0  0  0
 15 38  1  0  0  0  0
 16 17  1  0  0  0  0
 16 39  1  0  0  0  0
 17 18  2  0  0  0  0
 17 40  1  0  0  0  0
M  CHG  1   3   1
M  END
> <s_m_source_file>
AV-unprocessed.smi

> <i_m_source_file_index>
3222

> <i_lp_mmshare_version>
43012

> <i_f3d_flags>
0

> <s_epik_input>
bjFbY0hdW2NIXVtjSF1uMVtDQEBIXShbQ0gzXSlbQ0BIXShbQ0gzXSlbTkhdW0NIMl1bQ0gyXU4yW0NIMl1bQ0gyXVtDSDJdQzI9Tw==

> <s_epik_cmdline>
J2VwaWtfcHl0aG9uJywgJy1waCcsICc3LjAnLCAnLXRuJywgJzgnLCAnLW1hJywgJzIwMCcsICctbWV0YWxfYmluZGluZycsICctaW1hZScsICc8aW5maWxlLm1hZT4nLCAnLW9tYWUnLCAnPG91dGZpbGUubWFlPic=

> <r_lp_tautomer_probability>
1

> <r_epik_Ionization_Penalty>
0.0064019

> <r_epik_Ionization_Penalty_Charging>
0.00639164

> <r_epik_Ionization_Penalty_Neutral>
1.02567e-05

> <r_epik_State_Penalty>
0.00472531

> <r_epik_Charging_Adjusted_Penalty>
0.011117

> <i_epik_Tot_Q>
1

> <i_epik_Tot_abs_Q>
1

> <r_epik_Metal_State_Penalty>
-0

> <b_epik_Metal_Only>
0

> <s_lp_Force_Field>
OPLS_2005

> <r_lp_Energy>
25.7217

> <b_lp_Chiralities_Consistent>
1

> <s_lp_Variant>
AV-unprocessed.smi:3222-4

> <Gold.Version>
5.8.1

> <Gold.Id.Protein>
6NUR|6NUR_protein|mol2

> <Gold.PLP.Fitness>
52.0830

> <Gold.PLP.PLP>
-42.6101

> <Gold.PLP.part.hbond>
-3.0000

> <Gold.PLP.part.metal>
0.0000

> <Gold.PLP.part.buried>
-3.6904

> <Gold.PLP.part.nonpolar>
-36.0070

> <Gold.PLP.part.repulsive>
0.1178

> <Gold.PLP.ligand.clash>
0.0000

> <Gold.PLP.ligand.torsion>
2.2791

> <Gold.PLP.Chemscore.Hbond>
3.6016

> <Gold.PLP.Chemscore.CHOScore>
1.0000

> <Gold.PLP.Chemscore.Metal>
0.0000

> <Gold.Chemscore.Hbonds>
donor molecule, donor type, donor heavy atom, donor atom, acceptor molecule, acceptor atom, score
      L1  H     3    23       P1  8028  2.00
      P1  H  7989  7998       L1    18  0.67
      P1  H  7997  8010       L1    11  0.44
      L1  C    15    38       P1  7948  0.94

> <Gold.PLP.Chemscore.Internal.Correction>
0.2263

> <Gold.Rescore>
     Score         DG    S(hbond)    S(metal)    S(lipo)     H(rot)  DE(clash)    DE(int)     intcor
     15.49     -19.22       2.19        0.00      98.63       1.99       0.28       3.45       ----

> <Gold.Chemscore.Fitness>
15.4941

> <Gold.Chemscore.DG>
-19.2227

> <Gold.Chemscore.ZeroCoef>
-5.4800

> <Gold.Chemscore.Hbond>
2.1866

> <Gold.Chemscore.Metal>
0.0000

> <Gold.Chemscore.Lipo>
98.6284

> <Gold.Chemscore.Internal_Hbond>
0.0000

> <Gold.Chemscore.DEClash>
0.2757

> <Gold.Chemscore.DEInternal>
3.4529

> <Gold.Chemscore.Rot>
1.9922

> <Gold.Chemscore.Internal.Correction>
   9.000000E+99

> <Gold.Chemscore.Hbonds>
donor molecule, donor type, donor heavy atom, donor atom, acceptor molecule, acceptor atom, score
      L1  H     3    23       P1  8028  1.00
      P1  H  7989  7998       L1    18  0.02
      P1  H  7997  8010       L1    11  0.33

> <Gold.Chemscore.Hbond.Weighted>
-7.3034

> <Gold.Chemscore.Metal.Weighted>
-0.0000

> <Gold.Chemscore.Lipo.Weighted>
-11.5395

> <Gold.Chemscore.Internal_Hbond.Weighted>
0.0000

> <Gold.Chemscore.DEClash.Weighted>
0.2757

> <Gold.Chemscore.DEInternal.Weighted>
3.4529

> <Gold.Chemscore.Rot.Weighted>
5.1002

> <Gold.Chemscore.Internal.Correction.Weighted>
   9.000000E+99

> <Gold.Protein.RotatedTorsions>
[ 6907 6896 6895 6894 ] final  -76.84 input  -60.11 | X-H torsion
[ 7974 7965 7964 7962 ] final   29.71 input  175.53 | X-H torsion
[ 8008 7997 7996 7995 ] final   42.76 input   59.86 | X-H torsion
[ 10167 10162 10161 10158 ] final    8.74 input  -65.29 | X-H torsion
[ 10718 10713 10712 10709 ] final  145.32 input   66.30 | X-H torsion
[ 10763 10752 10751 10750 ] final -165.95 input  -60.55 | X-H torsion
[ 11005 11000 10999 10996 ] final  -24.38 input  -57.11 | X-H torsion

> <Gold.Protein.ActiveResidues>
 VAL166  LYS551  ARG553  GLY616  TRP617  ASP618  TYR619  PRO620  LYS621  CYS622 
 ASP623  PHE694  ASN695  SER759  ASP760  ASP761  ALA762  ILE779  LEU786  VAL792 
 PHE793  MET794  SER795  GLU796  ALA797  LYS798  CYS799  TRP800  GLU811  SER814 

> <Gold.Protein.RotatedAtoms>
  150.7016  134.4512  159.5337 H   0  0  0  0  0  0  0  0  0  0  0  0  # atno 6907 bound_to 6896
  152.2205  134.8415  160.0495 H   0  0  0  0  0  0  0  0  0  0  0  0  # atno 6908 bound_to 6896
  151.9267  133.3565  159.3953 H   0  0  0  0  0  0  0  0  0  0  0  0  # atno 6909 bound_to 6896
  146.1655  139.6886  142.9004 H   0  0  0  0  0  0  0  0  0  0  0  0  # atno 7974 bound_to 7965
  155.2914  140.3379  155.4252 H   0  0  0  0  0  0  0  0  0  0  0  0  # atno 8008 bound_to 7997
  156.2044  140.1745  156.7871 H   0  0  0  0  0  0  0  0  0  0  0  0  # atno 8009 bound_to 7997
  154.5601  140.0689  156.8790 H   0  0  0  0  0  0  0  0  0  0  0  0  # atno 8010 bound_to 7997
  140.6296  143.8023  150.7278 H   0  0  0  0  0  0  0  0  0  0  0  0  # atno 10167 bound_to 10162
  157.3466  131.0944  151.1036 H   0  0  0  0  0  0  0  0  0  0  0  0  # atno 10718 bound_to 10713
  154.6881  135.2966  154.9518 H   0  0  0  0  0  0  0  0  0  0  0  0  # atno 10763 bound_to 10752
  154.0491  135.6647  153.4802 H   0  0  0  0  0  0  0  0  0  0  0  0  # atno 10764 bound_to 10752
  153.0593  135.5125  154.7959 H   0  0  0  0  0  0  0  0  0  0  0  0  # atno 10765 bound_to 10752
  140.8840  133.7634  156.0337 H   0  0  0  0  0  0  0  0  0  0  0  0  # atno 11005 bound_to 11000
  145.4477  141.0426  143.2822 LP  0  0  0  0  0  0  0  0  0  0  0  0  # atno 17320 bound_to 7965
  144.8087  139.6003  143.7039 LP  0  0  0  0  0  0  0  0  0  0  0  0  # atno 17321 bound_to 7965
  140.1631  143.4258  152.2053 LP  0  0  0  0  0  0  0  0  0  0  0  0  # atno 17342 bound_to 10162
  139.5512  144.7339  151.4430 LP  0  0  0  0  0  0  0  0  0  0  0  0  # atno 17343 bound_to 10162
  157.2228  130.6489  149.5818 LP  0  0  0  0  0  0  0  0  0  0  0  0  # atno 17370 bound_to 10713
  155.9715  130.4624  150.6143 LP  0  0  0  0  0  0  0  0  0  0  0  0  # atno 17371 bound_to 10713
  140.8427  134.3047  157.5307 LP  0  0  0  0  0  0  0  0  0  0  0  0  # atno 17394 bound_to 11000
  139.8722  134.9425  156.3826 LP  0  0  0  0  0  0  0  0  0  0  0  0  # atno 17395 bound_to 11000

$$$$
