AV-unprocessed.smi:518|AV-procd|sdf|2792|dock4
  -GOLD-   2262023263D 1   1.00000     0.00000
 Structure written by MMmdl.
 41 43  0  0  0  0  0  0  0  0  2 V2000
  153.2322  138.9333  156.8196 O   0  0  0  0  0  0  0  0  0  0  0  0
  151.8541  138.9716  156.5238 C   0  0  0  0  0  0  0  0  0  0  0  0
  151.0936  139.6038  157.6977 C   0  0  0  0  0  0  0  0  0  0  0  0
  151.1408  141.0574  157.6523 N   0  0  0  0  0  0  0  0  0  0  0  0
  150.7106  141.8893  156.6687 C   0  0  0  0  0  0  0  0  0  0  0  0
  150.0703  141.3814  155.4023 C   0  0  0  0  0  0  0  0  0  0  0  0
  148.7120  141.9845  155.3755 N   0  3  0  0  0  0  0  0  0  0  0  0
  147.9951  141.6888  154.1088 C   0  0  0  0  0  0  0  0  0  0  0  0
  146.6568  142.4435  154.0386 C   0  0  0  0  0  0  0  0  0  0  0  0
  145.7768  142.1181  155.2527 C   0  0  0  0  0  0  0  0  0  0  0  0
  146.5485  142.3987  156.5488 C   0  0  0  0  0  0  0  0  0  0  0  0
  147.8874  141.6428  156.5670 C   0  0  0  0  0  0  0  0  0  0  0  0
  150.9063  143.1919  156.8913 N   0  0  0  0  0  0  0  0  0  0  0  0
  151.4974  143.2064  158.1390 C   0  0  0  0  0  0  0  0  0  0  0  0
  151.9386  144.2886  158.9332 C   0  0  0  0  0  0  0  0  0  0  0  0
  152.5197  144.0552  160.1968 C   0  0  0  0  0  0  0  0  0  0  0  0
  152.6672  142.7396  160.6827 C   0  0  0  0  0  0  0  0  0  0  0  0
  153.3785  142.4668  162.2304 Cl  0  0  0  0  0  0  0  0  0  0  0  0
  152.2348  141.6475  159.9058 C   0  0  0  0  0  0  0  0  0  0  0  0
  151.6557  141.8857  158.6452 C   0  0  0  0  0  0  0  0  0  0  0  0
  153.5970  138.1373  156.4633 H   0  0  0  0  0  0  0  0  0  0  0  0
  151.7072  139.5427  155.6077 H   0  0  0  0  0  0  0  0  0  0  0  0
  151.5013  137.9567  156.3383 H   0  0  0  0  0  0  0  0  0  0  0  0
  150.0490  139.2911  157.6749 H   0  0  0  0  0  0  0  0  0  0  0  0
  151.4859  139.2584  158.6543 H   0  0  0  0  0  0  0  0  0  0  0  0
  150.6699  141.7186  154.5559 H   0  0  0  0  0  0  0  0  0  0  0  0
  150.0066  140.2947  155.3622 H   0  0  0  0  0  0  0  0  0  0  0  0
  148.6143  141.9799  153.2593 H   0  0  0  0  0  0  0  0  0  0  0  0
  147.8279  140.6135  154.0266 H   0  0  0  0  0  0  0  0  0  0  0  0
  146.8440  143.5175  153.9995 H   0  0  0  0  0  0  0  0  0  0  0  0
  146.1319  142.1874  153.1177 H   0  0  0  0  0  0  0  0  0  0  0  0
  144.8598  142.7075  155.2238 H   0  0  0  0  0  0  0  0  0  0  0  0
  145.4763  141.0699  155.2211 H   0  0  0  0  0  0  0  0  0  0  0  0
  146.7316  143.4701  156.6428 H   0  0  0  0  0  0  0  0  0  0  0  0
  145.9461  142.1107  157.4109 H   0  0  0  0  0  0  0  0  0  0  0  0
  147.7089  140.5665  156.5891 H   0  0  0  0  0  0  0  0  0  0  0  0
  148.4211  141.8928  157.4843 H   0  0  0  0  0  0  0  0  0  0  0  0
  151.8305  145.3003  158.5714 H   0  0  0  0  0  0  0  0  0  0  0  0
  152.8540  144.8902  160.7952 H   0  0  0  0  0  0  0  0  0  0  0  0
  152.3471  140.6391  160.2758 H   0  0  0  0  0  0  0  0  0  0  0  0
  148.8530  142.9849  155.3934 H   0  0  0  0  0  0  0  0  0  0  0  0
  1  2  1  0  0  0  0
  1 21  1  0  0  0  0
  2  3  1  0  0  0  0
  2 22  1  0  0  0  0
  2 23  1  0  0  0  0
  3  4  1  0  0  0  0
  3 24  1  0  0  0  0
  3 25  1  0  0  0  0
  4 20  1  0  0  0  0
  4  5  1  0  0  0  0
  5  6  1  0  0  0  0
  5 13  2  0  0  0  0
  6  7  1  0  0  0  0
  6 26  1  0  0  0  0
  6 27  1  0  0  0  0
  7 12  1  0  0  0  0
  7  8  1  0  0  0  0
  7 41  1  0  0  0  0
  8  9  1  0  0  0  0
  8 28  1  0  0  0  0
  8 29  1  0  0  0  0
  9 10  1  0  0  0  0
  9 30  1  0  0  0  0
  9 31  1  0  0  0  0
 10 11  1  0  0  0  0
 10 32  1  0  0  0  0
 10 33  1  0  0  0  0
 11 12  1  0  0  0  0
 11 34  1  0  0  0  0
 11 35  1  0  0  0  0
 12 36  1  0  0  0  0
 12 37  1  0  0  0  0
 13 14  1  0  0  0  0
 14 20  2  0  0  0  0
 14 15  1  0  0  0  0
 15 16  2  0  0  0  0
 15 38  1  0  0  0  0
 16 17  1  0  0  0  0
 16 39  1  0  0  0  0
 17 18  1  0  0  0  0
 17 19  2  0  0  0  0
 19 20  1  0  0  0  0
 19 40  1  0  0  0  0
M  CHG  1   7   1
M  END
> <s_m_source_file>
AV-unprocessed.smi

> <i_m_source_file_index>
518

> <i_lp_mmshare_version>
43012

> <i_f3d_flags>
0

> <s_epik_input>
W2NIXTFbY0hdYyhDbClbY0hdYyhjMTIpbihbQ0gyXVtDSDJdW09IXSljKG4yKVtDSDJdTjNbQ0gyXVtDSDJdW0NIMl1bQ0gyXVtDSDJdMw==

> <s_epik_cmdline>
J2VwaWtfcHl0aG9uJywgJy1waCcsICc3LjAnLCAnLXRuJywgJzgnLCAnLW1hJywgJzIwMCcsICctbWV0YWxfYmluZGluZycsICctaW1hZScsICc8aW5maWxlLm1hZT4nLCAnLW9tYWUnLCAnPG91dGZpbGUubWFlPic=

> <r_epik_Ionization_Penalty>
0.173682

> <r_epik_Ionization_Penalty_Charging>
0.172202

> <r_epik_Ionization_Penalty_Neutral>
0.00148029

> <r_epik_State_Penalty>
0.185703

> <r_epik_Charging_Adjusted_Penalty>
0.357905

> <i_epik_Tot_Q>
1

> <i_epik_Tot_abs_Q>
1

> <r_epik_Metal_State_Penalty>
0.188036

> <b_epik_Metal_Only>
0

> <s_lp_Force_Field>
OPLS_2005

> <r_lp_Energy>
19.9694

> <b_lp_Chiralities_Consistent>
1

> <s_lp_Variant>
AV-unprocessed.smi:518-1

> <Gold.Version>
5.8.1

> <Gold.Id.Protein>
6NUR|6NUR_protein|mol2

> <Gold.PLP.Fitness>
54.5750

> <Gold.PLP.PLP>
-45.7922

> <Gold.PLP.part.hbond>
-1.9947

> <Gold.PLP.part.metal>
0.0000

> <Gold.PLP.part.buried>
-7.1204

> <Gold.PLP.part.nonpolar>
-38.5469

> <Gold.PLP.part.repulsive>
2.3898

> <Gold.PLP.ligand.clash>
0.0000

> <Gold.PLP.ligand.torsion>
0.1229

> <Gold.PLP.Chemscore.Hbond>
3.0000

> <Gold.PLP.Chemscore.CHOScore>
0.0000

> <Gold.PLP.Chemscore.Metal>
0.0000

> <Gold.Chemscore.Hbonds>
donor molecule, donor type, donor heavy atom, donor atom, acceptor molecule, acceptor atom, score
      L1  H     7    41       P1  8028  2.00
      P1  H  7997  8010       L1     1  1.00

> <Gold.PLP.Chemscore.Internal.Correction>
0.0285

> <Gold.Rescore>
     Score         DG    S(hbond)    S(metal)    S(lipo)     H(rot)  DE(clash)    DE(int)     intcor
     19.04     -20.34       1.97        0.00     116.49       2.09       1.10       0.20       ----

> <Gold.Chemscore.Fitness>
19.0400

> <Gold.Chemscore.DG>
-20.3416

> <Gold.Chemscore.ZeroCoef>
-5.4800

> <Gold.Chemscore.Hbond>
1.9734

> <Gold.Chemscore.Metal>
0.0000

> <Gold.Chemscore.Lipo>
116.4853

> <Gold.Chemscore.Internal_Hbond>
0.0000

> <Gold.Chemscore.DEClash>
1.1037

> <Gold.Chemscore.DEInternal>
0.1979

> <Gold.Chemscore.Rot>
2.0931

> <Gold.Chemscore.Internal.Correction>
   9.000000E+99

> <Gold.Chemscore.Hbonds>
donor molecule, donor type, donor heavy atom, donor atom, acceptor molecule, acceptor atom, score
      L1  H     7    41       P1  8028  1.00
      P1  H  7997  8010       L1     1  0.49

> <Gold.Chemscore.Hbond.Weighted>
-6.5911

> <Gold.Chemscore.Metal.Weighted>
-0.0000

> <Gold.Chemscore.Lipo.Weighted>
-13.6288

> <Gold.Chemscore.Internal_Hbond.Weighted>
0.0000

> <Gold.Chemscore.DEClash.Weighted>
1.1037

> <Gold.Chemscore.DEInternal.Weighted>
0.1979

> <Gold.Chemscore.Rot.Weighted>
5.3583

> <Gold.Chemscore.Internal.Correction.Weighted>
   9.000000E+99

> <Gold.Protein.RotatedTorsions>
[ 6907 6896 6895 6894 ] final  118.70 input  -60.11 | X-H torsion
[ 7974 7965 7964 7962 ] final   57.67 input  175.53 | X-H torsion
[ 8008 7997 7996 7995 ] final   61.80 input   59.86 | X-H torsion
[ 10167 10162 10161 10158 ] final  121.44 input  -65.29 | X-H torsion
[ 10718 10713 10712 10709 ] final -134.35 input   66.30 | X-H torsion
[ 10763 10752 10751 10750 ] final  172.83 input  -60.55 | X-H torsion
[ 11005 11000 10999 10996 ] final  176.21 input  -57.11 | X-H torsion

> <Gold.Protein.ActiveResidues>
 VAL166  LYS551  ARG553  GLY616  TRP617  ASP618  TYR619  PRO620  LYS621  CYS622 
 ASP623  PHE694  ASN695  SER759  ASP760  ASP761  ALA762  ILE779  LEU786  VAL792 
 PHE793  MET794  SER795  GLU796  ALA797  LYS798  CYS799  TRP800  GLU811  SER814 

> <Gold.Protein.RotatedAtoms>
  152.4524  133.7656  159.6770 H   0  0  0  0  0  0  0  0  0  0  0  0  # atno 6907 bound_to 6896
  150.8440  133.7880  159.3056 H   0  0  0  0  0  0  0  0  0  0  0  0  # atno 6908 bound_to 6896
  151.5496  135.1070  159.9998 H   0  0  0  0  0  0  0  0  0  0  0  0  # atno 6909 bound_to 6896
  145.9265  139.3772  143.0447 H   0  0  0  0  0  0  0  0  0  0  0  0  # atno 7974 bound_to 7965
  155.6042  140.3494  155.4603 H   0  0  0  0  0  0  0  0  0  0  0  0  # atno 8008 bound_to 7997
  156.0205  140.1252  157.0387 H   0  0  0  0  0  0  0  0  0  0  0  0  # atno 8009 bound_to 7997
  154.4313  140.1063  156.5943 H   0  0  0  0  0  0  0  0  0  0  0  0  # atno 8010 bound_to 7997
  139.5919  144.7028  151.3269 H   0  0  0  0  0  0  0  0  0  0  0  0  # atno 10167 bound_to 10162
  156.2545  130.7173  151.1084 H   0  0  0  0  0  0  0  0  0  0  0  0  # atno 10718 bound_to 10713
  154.4315  135.2760  155.1909 H   0  0  0  0  0  0  0  0  0  0  0  0  # atno 10763 bound_to 10752
  154.3813  135.6087  153.5796 H   0  0  0  0  0  0  0  0  0  0  0  0  # atno 10764 bound_to 10752
  152.9836  135.5881  154.4628 H   0  0  0  0  0  0  0  0  0  0  0  0  # atno 10765 bound_to 10752
  140.3706  134.7033  157.4390 H   0  0  0  0  0  0  0  0  0  0  0  0  # atno 11005 bound_to 11000
  145.8482  140.9543  143.0763 LP  0  0  0  0  0  0  0  0  0  0  0  0  # atno 17320 bound_to 7965
  144.6759  140.0372  143.7481 LP  0  0  0  0  0  0  0  0  0  0  0  0  # atno 17321 bound_to 7965
  140.7180  143.7213  150.7693 LP  0  0  0  0  0  0  0  0  0  0  0  0  # atno 17342 bound_to 10162
  140.0771  143.5005  152.2550 LP  0  0  0  0  0  0  0  0  0  0  0  0  # atno 17343 bound_to 10162
  157.7227  131.0671  150.6066 LP  0  0  0  0  0  0  0  0  0  0  0  0  # atno 17370 bound_to 10713
  156.6148  130.4390  149.5845 LP  0  0  0  0  0  0  0  0  0  0  0  0  # atno 17371 bound_to 10713
  140.0554  134.6070  155.8811 LP  0  0  0  0  0  0  0  0  0  0  0  0  # atno 17394 bound_to 11000
  141.1955  133.6587  156.5648 LP  0  0  0  0  0  0  0  0  0  0  0  0  # atno 17395 bound_to 11000

$$$$
