#       Name:                AV-unprocessed.smi:193
#       Creating user name   scv26
#       Creation time:       Thu Mar 26 19:33:19 2020


#       File generated by GOLD software.
#

@<TRIPOS>MOLECULE
AV-unprocessed.smi:193
    69    73     1
SMALL
NO_CHARGES


@<TRIPOS>ATOM
      1 ****        -4.1286  -1.7398  -1.6646 C.3            1 S1                 0.0000
      2 ****        -3.2943  -0.5030  -1.3023 C.3            1 S1                 0.0000
      3 ****        -2.2601  -0.2220  -2.4153 C.3            1 S1                 0.0000
      4 ****        -1.4368   0.9607  -2.1620 N.pl3          1 S1                 0.0000
      5 ****        -0.3705   0.9243  -1.3045 C.ar           1 S1                 0.0000
      6 ****         0.2529   2.1004  -1.0205 N.ar           1 S1                 0.0000
      7 ****         1.2871   2.1517  -0.1789 C.ar           1 S1                 0.0000
      8 ****         1.8620   1.1552   0.4907 N.ar           1 S1                 0.0000
      9 ****         1.2584  -0.0345   0.2153 C.ar           1 S1                 0.0000
     10 ****         0.1505  -0.2435  -0.6600 C.ar           1 S1                 0.0000
     11 ****        -0.1720  -1.5977  -0.6640 N.2            1 S1                 0.0000
     12 ****         0.6858  -2.1488   0.1484 C.2            1 S1                 0.0000
     13 ****         1.5869  -1.2814   0.7172 N.pl3          1 S1                 0.0000
     14 ****         2.6499  -1.6188   1.6521 C.3            1 S1                 0.0000
     15 ****         3.9502  -2.1126   0.9704 C.3            1 S1                 0.0000
     16 ****         3.6530  -3.3331   0.3136 O.3            1 S1                 0.0000
     17 ****         4.4909  -1.1134  -0.0764 C.3            1 S1                 0.0000
     18 ****         5.8835  -1.5140  -0.5949 C.3            1 S1                 0.0000
     19 ****         6.7858  -1.6700   0.4936 O.3            1 S1                 0.0000
     20 ****         6.4013  -2.7119   1.3824 C.3            1 S1                 0.0000
     21 ****         5.0425  -2.3815   2.0250 C.3            1 S1                 0.0000
     22 ****        -2.0809   2.2471  -2.4503 C.3            1 S1                 0.0000
     23 ****        -2.9092   2.8158  -1.2758 C.3            1 S1                 0.0000
     24 ****        -3.4334   1.7866  -0.3412 N.4            1 S1                 1.0000
     25 ****        -4.1413   2.3939   0.8085 C.3            1 S1                 0.0000
     26 ****        -4.1980   1.5085   2.0338 C.3            1 S1                 0.0000
     27 ****        -3.2586   2.6937   2.0079 C.3            1 S1                 0.0000
     28 ****        -1.7568   2.4680   2.0222 C.3            1 S1                 0.0000
     29 ****        -4.2051   0.7074  -1.0079 C.3            1 S1                 0.0000
     30 ****        -4.7117  -1.5739  -2.5712 H              1 S1                 0.0000
     31 ****        -4.8230  -1.9964  -0.8642 H              1 S1                 0.0000
     32 ****        -3.4897  -2.6074  -1.8332 H              1 S1                 0.0000
     33 ****        -2.7604  -0.7435  -0.3824 H              1 S1                 0.0000
     34 ****        -1.6323  -1.0914  -2.6024 H              1 S1                 0.0000
     35 ****        -2.7908  -0.0698  -3.3559 H              1 S1                 0.0000
     36 ****         1.7117   3.1314  -0.0161 H              1 S1                 0.0000
     37 ****         0.6888  -3.2099   0.3529 H              1 S1                 0.0000
     38 ****         2.8588  -0.7369   2.2593 H              1 S1                 0.0000
     39 ****         2.2708  -2.3754   2.3409 H              1 S1                 0.0000
     40 ****         4.4406  -3.6496  -0.1020 H              1 S1                 0.0000
     41 ****         3.8021  -1.0180  -0.9166 H              1 S1                 0.0000
     42 ****         4.5623  -0.1230   0.3749 H              1 S1                 0.0000
     43 ****         5.8364  -2.4353  -1.1774 H              1 S1                 0.0000
     44 ****         6.2685  -0.7411  -1.2604 H              1 S1                 0.0000
     45 ****         6.3658  -3.6647   0.8520 H              1 S1                 0.0000
     46 ****         7.1637  -2.8111   2.1554 H              1 S1                 0.0000
     47 ****         5.1647  -1.4964   2.6509 H              1 S1                 0.0000
     48 ****         4.7394  -3.1879   2.6942 H              1 S1                 0.0000
     49 ****        -1.3527   2.9813  -2.7968 H              1 S1                 0.0000
     50 ****        -2.7493   2.1023  -3.2997 H              1 S1                 0.0000
     51 ****        -2.2749   3.4915  -0.7017 H              1 S1                 0.0000
     52 ****        -3.7275   3.4250  -1.6620 H              1 S1                 0.0000
     53 ****        -4.9892   3.0315   0.5645 H              1 S1                 0.0000
     54 ****        -5.0773   1.5863   2.6698 H              1 S1                 0.0000
     55 ****        -3.7601   0.5137   1.9706 H              1 S1                 0.0000
     56 ****        -3.5643   3.5541   2.6001 H              1 S1                 0.0000
     57 ****        -1.4884   1.5367   1.5229 H              1 S1                 0.0000
     58 ****        -1.3999   2.4149   3.0507 H              1 S1                 0.0000
     59 ****        -1.2465   3.2921   1.5238 H              1 S1                 0.0000
     60 ****        -4.6945   1.0728  -1.9121 H              1 S1                 0.0000
     61 ****        -5.0091   0.3793  -0.3475 H              1 S1                 0.0000
     62 ****        -2.6250   1.3309   0.0574 H              1 S1                 0.0000
     63 ****        -0.0706   2.9429  -1.4512 LP             1 S1                 0.0000
     64 ****         2.6358   1.2655   1.1144 LP             1 S1                 0.0000
     65 ****        -0.9019  -2.0489  -1.1776 LP             1 S1                 0.0000
     66 ****         2.9452  -3.1812  -0.3763 LP             1 S1                 0.0000
     67 ****         3.3300  -4.0049   0.9802 LP             1 S1                 0.0000
     68 ****         6.8218  -0.8111   1.0045 LP             1 S1                 0.0000
     69 ****         7.6931  -1.8794   0.1291 LP             1 S1                 0.0000
@<TRIPOS>BOND
    1    1    2 1     
    2    1   30 1     
    3    1   31 1     
    4    1   32 1     
    5    2   29 1     
    6    2    3 1     
    7    2   33 1     
    8    3    4 1     
    9    3   34 1     
   10    3   35 1     
   11    4    5 1     
   12    4   22 1     
   13    5   10 ar    
   14    5    6 ar    
   15    6    7 ar    
   16    7    8 ar    
   17    7   36 1     
   18    8    9 ar    
   19    9   13 1     
   20    9   10 ar    
   21   10   11 1     
   22   11   12 2     
   23   12   13 1     
   24   12   37 1     
   25   13   14 1     
   26   14   15 1     
   27   14   38 1     
   28   14   39 1     
   29   15   21 1     
   30   15   16 1     
   31   15   17 1     
   32   16   40 1     
   33   17   18 1     
   34   17   41 1     
   35   17   42 1     
   36   18   19 1     
   37   18   43 1     
   38   18   44 1     
   39   19   20 1     
   40   20   21 1     
   41   20   45 1     
   42   20   46 1     
   43   21   47 1     
   44   21   48 1     
   45   22   23 1     
   46   22   49 1     
   47   22   50 1     
   48   23   24 1     
   49   23   51 1     
   50   23   52 1     
   51   24   25 1     
   52   24   29 1     
   53   24   62 1     
   54   25   27 1     
   55   25   26 1     
   56   25   53 1     
   57   26   27 1     
   58   26   54 1     
   59   26   55 1     
   60   27   28 1     
   61   27   56 1     
   62   28   57 1     
   63   28   58 1     
   64   28   59 1     
   65   29   60 1     
   66   29   61 1     
   67    6   63 1     
   68    8   64 1     
   69   11   65 1     
   70   16   66 1     
   71   16   67 1     
   72   19   68 1     
   73   19   69 1     
@<TRIPOS>SUBSTRUCTURE
      1 S1             1
@<TRIPOS>SET
LONE_PAIRS      STATIC     ATOMS    <user>   **** ""
7 63 64 65 66 67 68 69
DONOR_HYDROGENS      STATIC     ATOMS    <user>   **** ""
2 40 62
ATOM$BLUE        STATIC     ATOMS    COLORGROUP SYSTEM
7 63 64 65 66 67 68 69
ATOM$RED        STATIC     ATOMS    COLORGROUP SYSTEM
2 40 62
