AV-unprocessed.smi:1382|AV-procd|sdf|5620|dock1
  -GOLD-   22720 5233D 1   1.00000     0.00000
 Structure written by MMmdl.
 44 45  0  0  0  0  0  0  0  0  1 V2000
  148.1286  133.2627  152.7086 C   0  0  0  0  0  0  0  0  0  0  0  0
  148.9622  133.1178  153.9886 C   0  0  0  0  0  0  0  0  0  0  0  0
  149.6722  134.4128  154.4128 C   0  0  0  0  0  0  0  0  0  0  0  0
  150.3934  134.3034  155.7691 C   0  0  0  0  0  0  0  0  0  0  0  0
  150.0894  135.4155  156.6479 N   0  0  0  0  0  0  0  0  0  0  0  0
  148.8008  135.7115  157.1027 C   0  0  0  0  0  0  0  0  0  0  0  0
  147.7620  134.8847  156.6998 N   0  0  0  0  0  0  0  0  0  0  0  0
  148.5561  136.7756  157.9246 C   0  0  0  0  0  0  0  0  0  0  0  0
  147.2524  137.0966  158.3445 N   0  0  0  0  0  0  0  0  0  0  0  0
  146.3281  137.5992  157.3240 C   0  0  0  0  0  0  0  0  0  0  0  0
  146.8200  136.9230  159.6200 C   0  0  0  0  0  0  0  0  0  0  0  0
  145.6946  137.2795  159.9745 O   0  0  0  0  0  0  0  0  0  0  0  0
  147.7380  136.2438  160.6603 C   0  0  2  0  0  0  0  0  0  0  0  0
  147.1951  134.9076  161.2037 C   0  0  0  0  0  0  0  0  0  0  0  0
  146.7320  135.2524  162.6039 C   0  0  0  0  0  0  0  0  0  0  0  0
  147.7135  136.3502  162.9856 C   0  0  0  0  0  0  0  0  0  0  0  0
  147.8359  137.1080  161.7920 O   0  0  0  0  0  0  0  0  0  0  0  0
  149.6452  137.6789  158.3213 C   0  0  0  0  0  0  0  0  0  0  0  0
  149.5282  138.6808  159.0255 O   0  0  0  0  0  0  0  0  0  0  0  0
  150.8990  137.3405  157.8187 N   0  0  0  0  0  0  0  0  0  0  0  0
  151.1753  136.2552  156.9949 C   0  0  0  0  0  0  0  0  0  0  0  0
  152.3278  136.0760  156.5999 O   0  0  0  0  0  0  0  0  0  0  0  0
  151.6720  137.9416  158.0650 H   0  0  0  0  0  0  0  0  0  0  0  0
  147.6981  132.3039  152.4188 H   0  0  0  0  0  0  0  0  0  0  0  0
  148.7404  133.6155  151.8779 H   0  0  0  0  0  0  0  0  0  0  0  0
  147.3050  133.9639  152.8424 H   0  0  0  0  0  0  0  0  0  0  0  0
  148.3314  132.7577  154.8019 H   0  0  0  0  0  0  0  0  0  0  0  0
  149.7141  132.3450  153.8248 H   0  0  0  0  0  0  0  0  0  0  0  0
  150.3998  134.6749  153.6439 H   0  0  0  0  0  0  0  0  0  0  0  0
  148.9529  135.2324  154.4382 H   0  0  0  0  0  0  0  0  0  0  0  0
  150.1186  133.3963  156.3055 H   0  0  0  0  0  0  0  0  0  0  0  0
  151.4770  134.2437  155.6546 H   0  0  0  0  0  0  0  0  0  0  0  0
  147.9182  134.0897  156.0965 H   0  0  0  0  0  0  0  0  0  0  0  0
  146.8126  135.0302  157.0121 H   0  0  0  0  0  0  0  0  0  0  0  0
  145.4789  136.9252  157.2048 H   0  0  0  0  0  0  0  0  0  0  0  0
  146.8132  137.6963  156.3517 H   0  0  0  0  0  0  0  0  0  0  0  0
  145.9497  138.5850  157.5977 H   0  0  0  0  0  0  0  0  0  0  0  0
  148.7345  136.0616  160.2579 H   0  0  0  0  0  0  0  0  0  0  0  0
  146.4007  134.4631  160.6025 H   0  0  0  0  0  0  0  0  0  0  0  0
  148.0049  134.1784  161.2530 H   0  0  0  0  0  0  0  0  0  0  0  0
  145.7162  135.6490  162.5782 H   0  0  0  0  0  0  0  0  0  0  0  0
  146.7532  134.4018  163.2852 H   0  0  0  0  0  0  0  0  0  0  0  0
  147.3621  136.9624  163.8162 H   0  0  0  0  0  0  0  0  0  0  0  0
  148.6845  135.9294  163.2511 H   0  0  0  0  0  0  0  0  0  0  0  0
  1  2  1  0  0  0  0
  1 24  1  0  0  0  0
  1 25  1  0  0  0  0
  1 26  1  0  0  0  0
  2  3  1  0  0  0  0
  2 27  1  0  0  0  0
  2 28  1  0  0  0  0
  3  4  1  0  0  0  0
  3 29  1  0  0  0  0
  3 30  1  0  0  0  0
  4  5  1  0  0  0  0
  4 31  1  0  0  0  0
  4 32  1  0  0  0  0
  5 21  1  0  0  0  0
  5  6  1  0  0  0  0
  6  7  1  0  0  0  0
  6  8  2  0  0  0  0
  7 33  1  0  0  0  0
  7 34  1  0  0  0  0
  8  9  1  0  0  0  0
  8 18  1  0  0  0  0
  9 10  1  0  0  0  0
  9 11  1  0  0  0  0
 10 35  1  0  0  0  0
 10 36  1  0  0  0  0
 10 37  1  0  0  0  0
 11 12  2  0  0  0  0
 11 13  1  0  0  0  0
 13 17  1  0  0  0  0
 13 14  1  0  0  0  0
 13 38  1  0  0  0  0
 14 15  1  0  0  0  0
 14 39  1  0  0  0  0
 14 40  1  0  0  0  0
 15 16  1  0  0  0  0
 15 41  1  0  0  0  0
 15 42  1  0  0  0  0
 16 17  1  0  0  0  0
 16 43  1  0  0  0  0
 16 44  1  0  0  0  0
 18 19  2  0  0  0  0
 18 20  1  0  0  0  0
 20 23  1  0  0  0  0
 20 21  1  0  0  0  0
 21 22  2  0  0  0  0
M  END
> <s_m_source_file>
AV-unprocessed.smi

> <i_m_source_file_index>
1382

> <i_lp_mmshare_version>
43012

> <i_f3d_flags>
0

> <s_epik_input>
W0NIM11bQ0gyXVtDSDJdW0NIMl1uMWMoW05IMl0pYyhjKD1PKVtuSF1jMT1PKU4oW0NIM10pQyg9TylbQ0BASF0yW0NIMl1bQ0gyXVtDSDJdTzI=

> <s_epik_cmdline>
J2VwaWtfcHl0aG9uJywgJy1waCcsICc3LjAnLCAnLXRuJywgJzgnLCAnLW1hJywgJzIwMCcsICctbWV0YWxfYmluZGluZycsICctaW1hZScsICc8aW5maWxlLm1hZT4nLCAnLW9tYWUnLCAnPG91dGZpbGUubWFlPic=

> <r_lp_tautomer_probability>
1

> <r_epik_Ionization_Penalty>
1.19634e-05

> <r_epik_Ionization_Penalty_Charging>
6.01811e-06

> <r_epik_Ionization_Penalty_Neutral>
5.94533e-06

> <r_epik_State_Penalty>
-0

> <r_epik_Charging_Adjusted_Penalty>
6.01811e-06

> <i_epik_Tot_Q>
0

> <i_epik_Tot_abs_Q>
0

> <r_epik_Metal_State_Penalty>
-0

> <b_epik_Metal_Only>
0

> <s_epik_Chemistry_Notes>
This compound has an imine and may undergo hydrolysis.

> <s_lp_Force_Field>
OPLS_2005

> <r_lp_Energy>
42.2822

> <b_lp_Chiralities_Consistent>
1

> <s_lp_Variant>
AV-unprocessed.smi:1382-1

> <Gold.Version>
5.8.1

> <Gold.Id.Protein>
6NUR|6NUR_protein|mol2

> <Gold.PLP.Fitness>
39.1409

> <Gold.PLP.PLP>
-32.5580

> <Gold.PLP.part.hbond>
-4.4144

> <Gold.PLP.part.metal>
0.0000

> <Gold.PLP.part.buried>
-2.9955

> <Gold.PLP.part.nonpolar>
-24.6353

> <Gold.PLP.part.repulsive>
0.0711

> <Gold.PLP.ligand.clash>
0.0000

> <Gold.PLP.ligand.torsion>
1.7698

> <Gold.PLP.Chemscore.Hbond>
2.5863

> <Gold.PLP.Chemscore.CHOScore>
0.0000

> <Gold.PLP.Chemscore.Metal>
0.0000

> <Gold.Chemscore.Hbonds>
donor molecule, donor type, donor heavy atom, donor atom, acceptor molecule, acceptor atom, score
      P1  H  6931  6943       L1    17  1.00
      P1  H  6934  6947       L1    17  0.39
      P1  H 10752 10765       L1    22  1.00

> <Gold.PLP.Chemscore.Internal.Correction>
2.3636

> <Gold.Rescore>
     Score         DG    S(hbond)    S(metal)    S(lipo)     H(rot)  DE(clash)    DE(int)     intcor
     12.05     -14.95       2.16        0.00      56.36       1.69       0.02       2.88       ----

> <Gold.Chemscore.Fitness>
12.0535

> <Gold.Chemscore.DG>
-14.9547

> <Gold.Chemscore.ZeroCoef>
-5.4800

> <Gold.Chemscore.Hbond>
2.1611

> <Gold.Chemscore.Metal>
0.0000

> <Gold.Chemscore.Lipo>
56.3586

> <Gold.Chemscore.Internal_Hbond>
0.0000

> <Gold.Chemscore.DEClash>
0.0234

> <Gold.Chemscore.DEInternal>
2.8777

> <Gold.Chemscore.Rot>
1.6942

> <Gold.Chemscore.Internal.Correction>
   9.000000E+99

> <Gold.Chemscore.Hbonds>
donor molecule, donor type, donor heavy atom, donor atom, acceptor molecule, acceptor atom, score
      P1  H  6931  6943       L1    17  0.76
      P1  H  6934  6947       L1    17  0.14
      P1  H 10752 10765       L1    22  1.00

> <Gold.Chemscore.Hbond.Weighted>
-7.2180

> <Gold.Chemscore.Metal.Weighted>
-0.0000

> <Gold.Chemscore.Lipo.Weighted>
-6.5940

> <Gold.Chemscore.Internal_Hbond.Weighted>
0.0000

> <Gold.Chemscore.DEClash.Weighted>
0.0234

> <Gold.Chemscore.DEInternal.Weighted>
2.8777

> <Gold.Chemscore.Rot.Weighted>
4.3372

> <Gold.Chemscore.Internal.Correction.Weighted>
   9.000000E+99

> <Gold.Protein.RotatedTorsions>
[ 6907 6896 6895 6894 ] final  -83.23 input  -60.11 | X-H torsion
[ 7974 7965 7964 7962 ] final  105.53 input  175.53 | X-H torsion
[ 8008 7997 7996 7995 ] final   62.29 input   59.86 | X-H torsion
[ 10167 10162 10161 10158 ] final  162.44 input  -65.29 | X-H torsion
[ 10718 10713 10712 10709 ] final -113.33 input   66.30 | X-H torsion
[ 10763 10752 10751 10750 ] final -132.57 input  -60.55 | X-H torsion
[ 11005 11000 10999 10996 ] final    9.78 input  -57.11 | X-H torsion

> <Gold.Protein.ActiveResidues>
 VAL166  LYS551  ARG553  GLY616  TRP617  ASP618  TYR619  PRO620  LYS621  CYS622 
 ASP623  PHE694  ASN695  SER759  ASP760  ASP761  ALA762  ILE779  LEU786  VAL792 
 PHE793  MET794  SER795  GLU796  ALA797  LYS798  CYS799  TRP800  GLU811  SER814 

> <Gold.Protein.RotatedAtoms>
  150.6888  134.3544  159.4922 H   0  0  0  0  0  0  0  0  0  0  0  0  # atno 6907 bound_to 6896
  152.1381  134.9081  160.0564 H   0  0  0  0  0  0  0  0  0  0  0  0  # atno 6908 bound_to 6896
  152.0225  133.3870  159.4301 H   0  0  0  0  0  0  0  0  0  0  0  0  # atno 6909 bound_to 6896
  145.3184  139.2520  143.3725 H   0  0  0  0  0  0  0  0  0  0  0  0  # atno 7974 bound_to 7965
  155.6119  140.3495  155.4625 H   0  0  0  0  0  0  0  0  0  0  0  0  # atno 8008 bound_to 7997
  156.0147  140.1241  157.0442 H   0  0  0  0  0  0  0  0  0  0  0  0  # atno 8009 bound_to 7997
  154.4293  140.1074  156.5866 H   0  0  0  0  0  0  0  0  0  0  0  0  # atno 8010 bound_to 7997
  139.4861  144.4437  151.8919 H   0  0  0  0  0  0  0  0  0  0  0  0  # atno 10167 bound_to 10162
  156.0760  130.5967  150.8627 H   0  0  0  0  0  0  0  0  0  0  0  0  # atno 10718 bound_to 10713
  154.8742  135.3793  154.4431 H   0  0  0  0  0  0  0  0  0  0  0  0  # atno 10763 bound_to 10752
  153.5114  135.7029  153.5784 H   0  0  0  0  0  0  0  0  0  0  0  0  # atno 10764 bound_to 10752
  153.4071  135.3934  155.1992 H   0  0  0  0  0  0  0  0  0  0  0  0  # atno 10765 bound_to 10752
  140.5219  134.0551  155.7847 H   0  0  0  0  0  0  0  0  0  0  0  0  # atno 11005 bound_to 11000
  146.3091  140.3736  142.8676 LP  0  0  0  0  0  0  0  0  0  0  0  0  # atno 17320 bound_to 7965
  144.8959  140.7582  143.5897 LP  0  0  0  0  0  0  0  0  0  0  0  0  # atno 17321 bound_to 7965
  140.3890  144.2639  150.5901 LP  0  0  0  0  0  0  0  0  0  0  0  0  # atno 17342 bound_to 10162
  140.5163  143.2277  151.8458 LP  0  0  0  0  0  0  0  0  0  0  0  0  # atno 17343 bound_to 10162
  157.5855  131.0945  150.9203 LP  0  0  0  0  0  0  0  0  0  0  0  0  # atno 17370 bound_to 10713
  156.9390  130.5377  149.5280 LP  0  0  0  0  0  0  0  0  0  0  0  0  # atno 17371 bound_to 10713
  141.1329  133.9270  157.2496 LP  0  0  0  0  0  0  0  0  0  0  0  0  # atno 17394 bound_to 11000
  139.9601  135.0156  156.9238 LP  0  0  0  0  0  0  0  0  0  0  0  0  # atno 17395 bound_to 11000

$$$$
