AV-unprocessed.smi:2883|AV-procd|sdf|11082|dock4
  -GOLD-   2272015553D 1   1.00000     0.00000
 Structure written by MMmdl.
 39 41  0  0  0  0  0  0  0  0  1 V2000
  152.8147  144.9220  158.0874 C   0  0  0  0  0  0  0  0  0  0  0  0
  151.8948  144.2246  159.1060 C   0  0  0  0  0  0  0  0  0  0  0  0
  151.2945  145.2768  160.0684 C   0  0  0  0  0  0  0  0  0  0  0  0
  150.6952  143.5855  158.3675 C   0  0  0  0  0  0  0  0  0  0  0  0
  152.6978  143.1651  159.8798 C   0  0  0  0  0  0  0  0  0  0  0  0
  152.7380  143.2778  161.2141 N   0  0  0  0  0  0  0  0  0  0  0  0
  153.3323  142.2831  161.9065 C   0  0  0  0  0  0  0  0  0  0  0  0
  153.8637  141.1476  161.2654 C   0  0  0  0  0  0  0  0  0  0  0  0
  153.7355  141.1019  159.8631 C   0  0  0  0  0  0  0  0  0  0  0  0
  154.2300  139.9947  159.1604 N   0  0  0  0  0  0  0  0  0  0  0  0
  153.3519  139.1832  158.3242 C   0  0  1  0  0  0  0  0  0  0  0  0
  152.4998  140.0170  157.3586 C   0  0  0  0  0  0  0  0  0  0  0  0
  152.8635  139.4009  156.0023 C   0  0  2  0  0  0  0  0  0  0  0  0
  152.3235  137.9725  155.8474 C   0  0  0  0  0  0  0  0  0  0  0  0
  153.2516  137.1857  156.7725 C   0  0  0  0  0  0  0  0  0  0  0  0
  154.1415  138.2964  157.3467 C   0  0  1  0  0  0  0  0  0  0  0  0
  154.2401  139.1405  156.2108 O   0  0  0  0  0  0  0  0  0  0  0  0
  153.1354  142.1072  159.1849 N   0  0  0  0  0  0  0  0  0  0  0  0
  152.2777  145.6843  157.5222 H   0  0  0  0  0  0  0  0  0  0  0  0
  153.2255  144.2090  157.3718 H   0  0  0  0  0  0  0  0  0  0  0  0
  153.6549  145.4104  158.5825 H   0  0  0  0  0  0  0  0  0  0  0  0
  152.0672  145.8412  160.5919 H   0  0  0  0  0  0  0  0  0  0  0  0
  150.6599  144.8092  160.8224 H   0  0  0  0  0  0  0  0  0  0  0  0
  150.6840  146.0034  159.5313 H   0  0  0  0  0  0  0  0  0  0  0  0
  150.0964  144.3397  157.8555 H   0  0  0  0  0  0  0  0  0  0  0  0
  150.0369  143.0596  159.0600 H   0  0  0  0  0  0  0  0  0  0  0  0
  151.0158  142.8711  157.6085 H   0  0  0  0  0  0  0  0  0  0  0  0
  153.3785  142.3911  162.9800 H   0  0  0  0  0  0  0  0  0  0  0  0
  154.3368  140.3537  161.8241 H   0  0  0  0  0  0  0  0  0  0  0  0
  155.2272  139.8488  159.0970 H   0  0  0  0  0  0  0  0  0  0  0  0
  152.7293  138.5577  158.9656 H   0  0  0  0  0  0  0  0  0  0  0  0
  151.4331  139.9505  157.5755 H   0  0  0  0  0  0  0  0  0  0  0  0
  152.7829  141.0706  157.3783 H   0  0  0  0  0  0  0  0  0  0  0  0
  152.6523  140.0499  155.1521 H   0  0  0  0  0  0  0  0  0  0  0  0
  151.2739  137.8949  156.1332 H   0  0  0  0  0  0  0  0  0  0  0  0
  152.4256  137.6259  154.8185 H   0  0  0  0  0  0  0  0  0  0  0  0
  152.7143  136.6375  157.5472 H   0  0  0  0  0  0  0  0  0  0  0  0
  153.8458  136.4727  156.2000 H   0  0  0  0  0  0  0  0  0  0  0  0
  155.0961  137.9346  157.7311 H   0  0  0  0  0  0  0  0  0  0  0  0
  1  2  1  0  0  0  0
  1 19  1  0  0  0  0
  1 20  1  0  0  0  0
  1 21  1  0  0  0  0
  2  3  1  0  0  0  0
  2  4  1  0  0  0  0
  2  5  1  0  0  0  0
  3 22  1  0  0  0  0
  3 23  1  0  0  0  0
  3 24  1  0  0  0  0
  4 25  1  0  0  0  0
  4 26  1  0  0  0  0
  4 27  1  0  0  0  0
  5 18  1  0  0  0  0
  5  6  2  0  0  0  0
  6  7  1  0  0  0  0
  7  8  2  0  0  0  0
  7 28  1  0  0  0  0
  8  9  1  0  0  0  0
  8 29  1  0  0  0  0
  9 10  1  0  0  0  0
  9 18  2  0  0  0  0
 10 11  1  0  0  0  0
 10 30  1  0  0  0  0
 11 16  1  0  0  0  0
 11 12  1  0  0  0  0
 11 31  1  0  0  0  0
 12 13  1  0  0  0  0
 12 32  1  0  0  0  0
 12 33  1  0  0  0  0
 13 17  1  0  0  0  0
 13 14  1  0  0  0  0
 13 34  1  0  0  0  0
 14 15  1  0  0  0  0
 14 35  1  0  0  0  0
 14 36  1  0  0  0  0
 15 16  1  0  0  0  0
 15 37  1  0  0  0  0
 15 38  1  0  0  0  0
 16 17  1  0  0  0  0
 16 39  1  0  0  0  0
M  END
> <s_m_source_file>
AV-unprocessed.smi

> <i_m_source_file_index>
2883

> <i_lp_mmshare_version>
43012

> <i_f3d_flags>
0

> <s_epik_input>
W0NIM11DKFtDSDNdKShbQ0gzXSljMW5bY0hdW2NIXWMobjEpW05IXVtDQEhdKFtDSDJdW0NAQEhdMjMpW0NAQEhdKE8zKVtDSDJdW0NIMl0y

> <s_epik_cmdline>
J2VwaWtfcHl0aG9uJywgJy1waCcsICc3LjAnLCAnLXRuJywgJzgnLCAnLW1hJywgJzIwMCcsICctbWV0YWxfYmluZGluZycsICctaW1hZScsICc8aW5maWxlLm1hZT4nLCAnLW9tYWUnLCAnPG91dGZpbGUubWFlPic=

> <r_lp_tautomer_probability>
1

> <r_epik_Ionization_Penalty>
0.453006

> <r_epik_Ionization_Penalty_Charging>
0

> <r_epik_Ionization_Penalty_Neutral>
0.453006

> <r_epik_State_Penalty>
0.455155

> <r_epik_Charging_Adjusted_Penalty>
0.455155

> <i_epik_Tot_Q>
0

> <i_epik_Tot_abs_Q>
0

> <r_epik_Metal_State_Penalty>
0.255592

> <b_epik_Metal_Only>
0

> <s_lp_Force_Field>
OPLS_2005

> <r_lp_Energy>
33.3257

> <b_lp_Chiralities_Consistent>
1

> <s_lp_Variant>
AV-unprocessed.smi:2883-8

> <Gold.Version>
5.8.1

> <Gold.Id.Protein>
6NUR|6NUR_protein|mol2

> <Gold.PLP.Fitness>
40.5788

> <Gold.PLP.PLP>
-39.3010

> <Gold.PLP.part.hbond>
-0.6830

> <Gold.PLP.part.metal>
0.0000

> <Gold.PLP.part.buried>
-5.8819

> <Gold.PLP.part.nonpolar>
-32.4594

> <Gold.PLP.part.repulsive>
0.1656

> <Gold.PLP.ligand.clash>
0.0000

> <Gold.PLP.ligand.torsion>
0.7826

> <Gold.PLP.Chemscore.Hbond>
0.8960

> <Gold.PLP.Chemscore.CHOScore>
0.0000

> <Gold.PLP.Chemscore.Metal>
0.0000

> <Gold.PLP.Chemscore.Internal.Correction>
0.1549

> <Gold.Rescore>
     Score         DG    S(hbond)    S(metal)    S(lipo)     H(rot)  DE(clash)    DE(int)     intcor
     14.71     -17.17       0.89        0.00      99.76       1.15       0.01       2.46       ----

> <Gold.Chemscore.Fitness>
14.7089

> <Gold.Chemscore.DG>
-17.1744

> <Gold.Chemscore.ZeroCoef>
-5.4800

> <Gold.Chemscore.Hbond>
0.8868

> <Gold.Chemscore.Metal>
0.0000

> <Gold.Chemscore.Lipo>
99.7575

> <Gold.Chemscore.Internal_Hbond>
0.0000

> <Gold.Chemscore.DEClash>
0.0075

> <Gold.Chemscore.DEInternal>
2.4581

> <Gold.Chemscore.Rot>
1.1482

> <Gold.Chemscore.Internal.Correction>
   9.000000E+99

> <Gold.Chemscore.Hbond.Weighted>
-2.9620

> <Gold.Chemscore.Metal.Weighted>
-0.0000

> <Gold.Chemscore.Lipo.Weighted>
-11.6716

> <Gold.Chemscore.Internal_Hbond.Weighted>
0.0000

> <Gold.Chemscore.DEClash.Weighted>
0.0075

> <Gold.Chemscore.DEInternal.Weighted>
2.4581

> <Gold.Chemscore.Rot.Weighted>
2.9393

> <Gold.Chemscore.Internal.Correction.Weighted>
   9.000000E+99

> <Gold.Protein.RotatedTorsions>
[ 6907 6896 6895 6894 ] final   68.57 input  -60.11 | X-H torsion
[ 7974 7965 7964 7962 ] final   39.60 input  175.53 | X-H torsion
[ 8008 7997 7996 7995 ] final   65.34 input   59.86 | X-H torsion
[ 10167 10162 10161 10158 ] final  -50.88 input  -65.29 | X-H torsion
[ 10718 10713 10712 10709 ] final  -51.46 input   66.30 | X-H torsion
[ 10763 10752 10751 10750 ] final -152.31 input  -60.55 | X-H torsion
[ 11005 11000 10999 10996 ] final   22.72 input  -57.11 | X-H torsion

> <Gold.Protein.ActiveResidues>
 VAL166  LYS551  ARG553  GLY616  TRP617  ASP618  TYR619  PRO620  LYS621  CYS622 
 ASP623  PHE694  ASN695  SER759  ASP760  ASP761  ALA762  ILE779  LEU786  VAL792 
 PHE793  MET794  SER795  GLU796  ALA797  LYS798  CYS799  TRP800  GLU811  SER814 

> <Gold.Protein.RotatedAtoms>
  152.4629  134.5142  159.9762 H   0  0  0  0  0  0  0  0  0  0  0  0  # atno 6907 bound_to 6896
  151.5187  133.3465  159.2905 H   0  0  0  0  0  0  0  0  0  0  0  0  # atno 6908 bound_to 6896
  150.8600  134.7978  159.7137 H   0  0  0  0  0  0  0  0  0  0  0  0  # atno 6909 bound_to 6896
  146.0971  139.5632  142.9438 H   0  0  0  0  0  0  0  0  0  0  0  0  # atno 7974 bound_to 7965
  155.6602  140.3497  155.4780 H   0  0  0  0  0  0  0  0  0  0  0  0  # atno 8008 bound_to 7997
  155.9775  140.1168  157.0780 H   0  0  0  0  0  0  0  0  0  0  0  0  # atno 8009 bound_to 7997
  154.4182  140.1145  156.5376 H   0  0  0  0  0  0  0  0  0  0  0  0  # atno 8010 bound_to 7997
  140.6616  143.2641  151.4423 H   0  0  0  0  0  0  0  0  0  0  0  0  # atno 10167 bound_to 10162
  156.1708  130.4149  149.9650 H   0  0  0  0  0  0  0  0  0  0  0  0  # atno 10718 bound_to 10713
  154.8002  135.3239  154.7569 H   0  0  0  0  0  0  0  0  0  0  0  0  # atno 10763 bound_to 10752
  153.8238  135.6885  153.4828 H   0  0  0  0  0  0  0  0  0  0  0  0  # atno 10764 bound_to 10752
  153.1714  135.4621  154.9851 H   0  0  0  0  0  0  0  0  0  0  0  0  # atno 10765 bound_to 10752
  140.3775  134.1956  155.7664 H   0  0  0  0  0  0  0  0  0  0  0  0  # atno 11005 bound_to 11000
  145.5927  141.0367  143.2061 LP  0  0  0  0  0  0  0  0  0  0  0  0  # atno 17320 bound_to 7965
  144.7404  139.7466  143.7313 LP  0  0  0  0  0  0  0  0  0  0  0  0  # atno 17321 bound_to 7965
  139.5851  144.1622  152.2019 LP  0  0  0  0  0  0  0  0  0  0  0  0  # atno 17342 bound_to 10162
  140.0959  144.5581  150.7022 LP  0  0  0  0  0  0  0  0  0  0  0  0  # atno 17343 bound_to 10162
  156.7451  130.9094  151.3634 LP  0  0  0  0  0  0  0  0  0  0  0  0  # atno 17370 bound_to 10713
  157.6801  130.9132  150.0246 LP  0  0  0  0  0  0  0  0  0  0  0  0  # atno 17371 bound_to 10713
  141.1934  133.8151  157.0799 LP  0  0  0  0  0  0  0  0  0  0  0  0  # atno 17394 bound_to 11000
  140.0504  134.9808  157.1125 LP  0  0  0  0  0  0  0  0  0  0  0  0  # atno 17395 bound_to 11000

$$$$
