AV-unprocessed.smi:953|AV-procd|sdf|4257|dock1
  -GOLD-   22720 2163D 1   1.00000     0.00000
 Structure written by MMmdl.
 24 25  0  0  0  0  0  0  0  0  2 V2000
  149.5579  138.6972  153.3179 N   0  3  0  0  0  0  0  0  0  0  0  0
  150.5879  138.7366  154.3695 C   0  0  0  0  0  0  0  0  0  0  0  0
  150.4484  139.9910  155.2424 C   0  0  0  0  0  0  0  0  0  0  0  0
  151.4024  139.9925  156.3964 C   0  0  0  0  0  0  0  0  0  0  0  0
  152.2809  139.0087  156.6215 N   0  0  0  0  0  0  0  0  0  0  0  0
  152.9277  139.3487  157.7921 N   0  0  0  0  0  0  0  0  0  0  0  0
  152.3702  140.5013  158.1607 C   0  0  0  0  0  0  0  0  0  0  0  0
  151.4250  140.9680  157.3286 N   0  0  0  0  0  0  0  0  0  0  0  0
  150.5965  142.1552  157.4603 C   0  0  0  0  0  0  0  0  0  0  0  0
  151.3740  143.4498  157.5243 C   0  0  0  0  0  0  0  0  0  0  0  0
  150.7299  142.8931  158.7743 C   0  0  0  0  0  0  0  0  0  0  0  0
  149.6898  139.4761  152.6883 H   0  0  0  0  0  0  0  0  0  0  0  0
  148.6424  138.7600  153.7403 H   0  0  0  0  0  0  0  0  0  0  0  0
  150.5003  137.8377  154.9807 H   0  0  0  0  0  0  0  0  0  0  0  0
  151.5701  138.7105  153.8963 H   0  0  0  0  0  0  0  0  0  0  0  0
  150.6362  140.8827  154.6427 H   0  0  0  0  0  0  0  0  0  0  0  0
  149.4268  140.0827  155.6106 H   0  0  0  0  0  0  0  0  0  0  0  0
  152.6578  141.0158  159.0659 H   0  0  0  0  0  0  0  0  0  0  0  0
  149.6440  142.0931  156.9375 H   0  0  0  0  0  0  0  0  0  0  0  0
  152.4597  143.4028  157.4580 H   0  0  0  0  0  0  0  0  0  0  0  0
  150.9186  144.3303  157.0760 H   0  0  0  0  0  0  0  0  0  0  0  0
  149.8478  143.4067  159.1516 H   0  0  0  0  0  0  0  0  0  0  0  0
  151.3944  142.4929  159.5379 H   0  0  0  0  0  0  0  0  0  0  0  0
  149.6321  137.8321  152.8022 H   0  0  0  0  0  0  0  0  0  0  0  0
  1  2  1  0  0  0  0
  1 12  1  0  0  0  0
  1 13  1  0  0  0  0
  1 24  1  0  0  0  0
  2  3  1  0  0  0  0
  2 14  1  0  0  0  0
  2 15  1  0  0  0  0
  3  4  1  0  0  0  0
  3 16  1  0  0  0  0
  3 17  1  0  0  0  0
  4  8  1  0  0  0  0
  4  5  2  0  0  0  0
  5  6  1  0  0  0  0
  6  7  2  0  0  0  0
  7  8  1  0  0  0  0
  7 18  1  0  0  0  0
  8  9  1  0  0  0  0
  9 11  1  0  0  0  0
  9 10  1  0  0  0  0
  9 19  1  0  0  0  0
 10 11  1  0  0  0  0
 10 20  1  0  0  0  0
 10 21  1  0  0  0  0
 11 22  1  0  0  0  0
 11 23  1  0  0  0  0
M  CHG  1   1   1
M  END
> <s_m_source_file>
AV-unprocessed.smi

> <i_m_source_file_index>
953

> <i_lp_mmshare_version>
43012

> <i_f3d_flags>
0

> <s_epik_input>
W05IMl1bQ0gyXVtDSDJdYzFubltjSF1uMVtDSF0yW0NIMl1bQ0gyXTI=

> <s_epik_cmdline>
J2VwaWtfcHl0aG9uJywgJy1waCcsICc3LjAnLCAnLXRuJywgJzgnLCAnLW1hJywgJzIwMCcsICctbWV0YWxfYmluZGluZycsICctaW1hZScsICc8aW5maWxlLm1hZT4nLCAnLW9tYWUnLCAnPG91dGZpbGUubWFlPic=

> <r_lp_tautomer_probability>
1

> <r_epik_Ionization_Penalty>
0.00465942

> <r_epik_Ionization_Penalty_Charging>
0.00465044

> <r_epik_Ionization_Penalty_Neutral>
8.98889e-06

> <r_epik_State_Penalty>
-0

> <r_epik_Charging_Adjusted_Penalty>
0.00465044

> <i_epik_Tot_Q>
1

> <i_epik_Tot_abs_Q>
1

> <r_epik_Metal_State_Penalty>
-0

> <b_epik_Metal_Only>
0

> <s_lp_Force_Field>
OPLS_2005

> <r_lp_Energy>
17.0631

> <b_lp_Chiralities_Consistent>
1

> <s_lp_Variant>
AV-unprocessed.smi:953-1

> <Gold.Version>
5.8.1

> <Gold.Id.Protein>
6NUR|6NUR_protein|mol2

> <Gold.PLP.Fitness>
33.3778

> <Gold.PLP.PLP>
-21.5176

> <Gold.PLP.part.hbond>
-2.9652

> <Gold.PLP.part.metal>
0.0000

> <Gold.PLP.part.buried>
-1.9106

> <Gold.PLP.part.nonpolar>
-16.6095

> <Gold.PLP.part.repulsive>
0.0972

> <Gold.PLP.ligand.clash>
0.0000

> <Gold.PLP.ligand.torsion>
0.0962

> <Gold.PLP.Chemscore.Hbond>
3.9920

> <Gold.PLP.Chemscore.CHOScore>
0.0000

> <Gold.PLP.Chemscore.Metal>
0.0000

> <Gold.Chemscore.Hbonds>
donor molecule, donor type, donor heavy atom, donor atom, acceptor molecule, acceptor atom, score
      L1  H     1    12       P1  7957  0.94
      L1  H     1    24       P1  7948  2.00
      P1  H  7997  8008       L1     6  0.62

> <Gold.PLP.Chemscore.Internal.Correction>
0.0766

> <Gold.Rescore>
     Score         DG    S(hbond)    S(metal)    S(lipo)     H(rot)  DE(clash)    DE(int)     intcor
     12.62     -12.82       2.10        0.00      41.90       1.79       0.07       0.13       ----

> <Gold.Chemscore.Fitness>
12.6222

> <Gold.Chemscore.DG>
-12.8203

> <Gold.Chemscore.ZeroCoef>
-5.4800

> <Gold.Chemscore.Hbond>
2.1041

> <Gold.Chemscore.Metal>
0.0000

> <Gold.Chemscore.Lipo>
41.8953

> <Gold.Chemscore.Internal_Hbond>
0.0000

> <Gold.Chemscore.DEClash>
0.0686

> <Gold.Chemscore.DEInternal>
0.1294

> <Gold.Chemscore.Rot>
1.7926

> <Gold.Chemscore.Internal.Correction>
   9.000000E+99

> <Gold.Chemscore.Hbonds>
donor molecule, donor type, donor heavy atom, donor atom, acceptor molecule, acceptor atom, score
      L1  H     1    12       P1  7957  0.90
      L1  H     1    24       P1  7948  0.64
      P1  H  7997  8008       L1     6  0.01

> <Gold.Chemscore.Hbond.Weighted>
-7.0277

> <Gold.Chemscore.Metal.Weighted>
-0.0000

> <Gold.Chemscore.Lipo.Weighted>
-4.9017

> <Gold.Chemscore.Internal_Hbond.Weighted>
0.0000

> <Gold.Chemscore.DEClash.Weighted>
0.0686

> <Gold.Chemscore.DEInternal.Weighted>
0.1294

> <Gold.Chemscore.Rot.Weighted>
4.5892

> <Gold.Chemscore.Internal.Correction.Weighted>
   9.000000E+99

> <Gold.Protein.RotatedTorsions>
[ 6907 6896 6895 6894 ] final   44.19 input  -60.11 | X-H torsion
[ 7974 7965 7964 7962 ] final  -30.61 input  175.53 | X-H torsion
[ 8008 7997 7996 7995 ] final  -73.77 input   59.86 | X-H torsion
[ 10167 10162 10161 10158 ] final -133.25 input  -65.29 | X-H torsion
[ 10718 10713 10712 10709 ] final -136.28 input   66.30 | X-H torsion
[ 10763 10752 10751 10750 ] final   -4.61 input  -60.55 | X-H torsion
[ 11005 11000 10999 10996 ] final -152.13 input  -57.11 | X-H torsion

> <Gold.Protein.ActiveResidues>
 VAL166  LYS551  ARG553  GLY616  TRP617  ASP618  TYR619  PRO620  LYS621  CYS622 
 ASP623  PHE694  ASN695  SER759  ASP760  ASP761  ALA762  ILE779  LEU786  VAL792 
 PHE793  MET794  SER795  GLU796  ALA797  LYS798  CYS799  TRP800  GLU811  SER814 

> <Gold.Protein.RotatedAtoms>
  152.2295  134.8336  160.0475 H   0  0  0  0  0  0  0  0  0  0  0  0  # atno 6907 bound_to 6896
  151.9090  133.3551  159.3865 H   0  0  0  0  0  0  0  0  0  0  0  0  # atno 6908 bound_to 6896
  150.7021  134.4677  159.5454 H   0  0  0  0  0  0  0  0  0  0  0  0  # atno 6909 bound_to 6896
  146.1130  140.5562  142.8769 H   0  0  0  0  0  0  0  0  0  0  0  0  # atno 7974 bound_to 7965
  154.5274  140.0773  156.8284 H   0  0  0  0  0  0  0  0  0  0  0  0  # atno 8008 bound_to 7997
  155.3446  140.3409  155.4221 H   0  0  0  0  0  0  0  0  0  0  0  0  # atno 8009 bound_to 7997
  156.1746  140.1631  156.8372 H   0  0  0  0  0  0  0  0  0  0  0  0  # atno 8010 bound_to 7997
  139.9002  143.6617  152.2596 H   0  0  0  0  0  0  0  0  0  0  0  0  # atno 10167 bound_to 10162
  156.2753  130.7289  151.1270 H   0  0  0  0  0  0  0  0  0  0  0  0  # atno 10718 bound_to 10713
  153.3872  135.7000  153.6521 H   0  0  0  0  0  0  0  0  0  0  0  0  # atno 10763 bound_to 10752
  153.5108  135.3632  155.2586 H   0  0  0  0  0  0  0  0  0  0  0  0  # atno 10764 bound_to 10752
  154.8699  135.4134  154.3182 H   0  0  0  0  0  0  0  0  0  0  0  0  # atno 10765 bound_to 10752
  140.7222  134.3715  157.5181 H   0  0  0  0  0  0  0  0  0  0  0  0  # atno 11005 bound_to 11000
  144.7528  140.5233  143.6790 LP  0  0  0  0  0  0  0  0  0  0  0  0  # atno 17320 bound_to 7965
  145.5625  139.1480  143.3333 LP  0  0  0  0  0  0  0  0  0  0  0  0  # atno 17321 bound_to 7965
  139.7032  144.7632  151.1237 LP  0  0  0  0  0  0  0  0  0  0  0  0  # atno 17342 bound_to 10162
  140.7708  143.5430  150.9291 LP  0  0  0  0  0  0  0  0  0  0  0  0  # atno 17343 bound_to 10162
  157.7297  131.0622  150.5760 LP  0  0  0  0  0  0  0  0  0  0  0  0  # atno 17370 bound_to 10713
  156.5860  130.4317  149.5957 LP  0  0  0  0  0  0  0  0  0  0  0  0  # atno 17371 bound_to 10713
  139.8845  134.8962  156.2697 LP  0  0  0  0  0  0  0  0  0  0  0  0  # atno 17394 bound_to 11000
  140.9994  133.7161  156.0936 LP  0  0  0  0  0  0  0  0  0  0  0  0  # atno 17395 bound_to 11000

$$$$
