AV-unprocessed.smi:2822|AV-procd|sdf|10874|dock5
  -GOLD-   2272015313D 1   1.00000     0.00000
 Structure written by MMmdl.
 40 42  0  0  0  0  0  0  0  0  2 V2000
  150.2611  137.9789  154.2966 Cl  0  0  0  0  0  0  0  0  0  0  0  0
  149.2016  139.2844  154.7009 C   0  0  0  0  0  0  0  0  0  0  0  0
  149.6433  140.2983  155.5756 C   0  0  0  0  0  0  0  0  0  0  0  0
  148.8787  141.3476  155.9440 N   0  0  0  0  0  0  0  0  0  0  0  0
  147.6288  141.4214  155.4415 C   0  0  0  0  0  0  0  0  0  0  0  0
  147.0886  140.4634  154.5601 C   0  0  0  0  0  0  0  0  0  0  0  0
  147.8907  139.3627  154.1770 C   0  0  0  0  0  0  0  0  0  0  0  0
  147.4329  138.3618  153.3069 N   0  0  0  0  0  0  0  0  0  0  0  0
  146.0140  138.1941  153.0346 C   0  0  0  0  0  0  0  0  0  0  0  0
  145.3955  137.1023  153.9301 C   0  0  2  0  0  0  0  0  0  0  0  0
  146.4039  136.0141  154.3436 C   0  0  0  0  0  0  0  0  0  0  0  0
  146.7516  135.1363  153.2014 N   0  3  1  0  0  0  0  0  0  0  0  0
  147.7517  134.1037  153.5746 C   0  0  0  0  0  0  0  0  0  0  0  0
  148.1617  133.2601  152.3574 C   0  0  0  0  0  0  0  0  0  0  0  0
  146.9331  132.6214  151.6988 C   0  0  0  0  0  0  0  0  0  0  0  0
  145.9064  133.7049  151.3439 C   0  0  0  0  0  0  0  0  0  0  0  0
  145.5331  134.5529  152.5770 C   0  0  2  0  0  0  0  0  0  0  0  0
  144.5461  135.6734  152.1986 C   0  0  0  0  0  0  0  0  0  0  0  0
  144.2554  136.4852  153.3316 O   0  0  0  0  0  0  0  0  0  0  0  0
  150.6389  140.2651  155.9928 H   0  0  0  0  0  0  0  0  0  0  0  0
  147.0388  142.2716  155.7507 H   0  0  0  0  0  0  0  0  0  0  0  0
  146.0807  140.5912  154.1954 H   0  0  0  0  0  0  0  0  0  0  0  0
  148.0698  137.6299  153.0237 H   0  0  0  0  0  0  0  0  0  0  0  0
  145.4947  139.1441  153.1578 H   0  0  0  0  0  0  0  0  0  0  0  0
  145.9001  137.9092  151.9880 H   0  0  0  0  0  0  0  0  0  0  0  0
  145.0451  137.5878  154.8419 H   0  0  0  0  0  0  0  0  0  0  0  0
  147.3066  136.4732  154.7486 H   0  0  0  0  0  0  0  0  0  0  0  0
  145.9747  135.4059  155.1417 H   0  0  0  0  0  0  0  0  0  0  0  0
  148.6337  134.5863  153.9970 H   0  0  0  0  0  0  0  0  0  0  0  0
  147.3393  133.4598  154.3532 H   0  0  0  0  0  0  0  0  0  0  0  0
  148.6839  133.8871  151.6335 H   0  0  0  0  0  0  0  0  0  0  0  0
  148.8661  132.4852  152.6616 H   0  0  0  0  0  0  0  0  0  0  0  0
  147.2276  132.0729  150.8034 H   0  0  0  0  0  0  0  0  0  0  0  0
  146.4845  131.8951  152.3778 H   0  0  0  0  0  0  0  0  0  0  0  0
  146.3160  134.3471  150.5626 H   0  0  0  0  0  0  0  0  0  0  0  0
  145.0132  133.2406  150.9238 H   0  0  0  0  0  0  0  0  0  0  0  0
  145.0532  133.9059  153.3139 H   0  0  0  0  0  0  0  0  0  0  0  0
  144.9322  136.2807  151.3795 H   0  0  0  0  0  0  0  0  0  0  0  0
  143.6115  135.2401  151.8416 H   0  0  0  0  0  0  0  0  0  0  0  0
  147.1844  135.7230  152.5024 H   0  0  0  0  0  0  0  0  0  0  0  0
  1  2  1  0  0  0  0
  2  7  1  0  0  0  0
  2  3  2  0  0  0  0
  3  4  1  0  0  0  0
  3 20  1  0  0  0  0
  4  5  2  0  0  0  0
  5  6  1  0  0  0  0
  5 21  1  0  0  0  0
  6  7  2  0  0  0  0
  6 22  1  0  0  0  0
  7  8  1  0  0  0  0
  8  9  1  0  0  0  0
  8 23  1  0  0  0  0
  9 10  1  0  0  0  0
  9 24  1  0  0  0  0
  9 25  1  0  0  0  0
 10 19  1  0  0  0  0
 10 11  1  0  0  0  0
 10 26  1  0  0  0  0
 11 12  1  0  0  0  0
 11 27  1  0  0  0  0
 11 28  1  0  0  0  0
 12 17  1  0  0  0  0
 12 13  1  0  0  0  0
 12 40  1  0  0  0  0
 13 14  1  0  0  0  0
 13 29  1  0  0  0  0
 13 30  1  0  0  0  0
 14 15  1  0  0  0  0
 14 31  1  0  0  0  0
 14 32  1  0  0  0  0
 15 16  1  0  0  0  0
 15 33  1  0  0  0  0
 15 34  1  0  0  0  0
 16 17  1  0  0  0  0
 16 35  1  0  0  0  0
 16 36  1  0  0  0  0
 17 18  1  0  0  0  0
 17 37  1  0  0  0  0
 18 19  1  0  0  0  0
 18 38  1  0  0  0  0
 18 39  1  0  0  0  0
M  CHG  1  12   1
M  END
> <s_m_source_file>
AV-unprocessed.smi

> <i_m_source_file_index>
2822

> <i_lp_mmshare_version>
43012

> <i_f3d_flags>
0

> <s_epik_input>
Q2xjMVtjSF1uW2NIXVtjSF1jMVtOSF1bQ0gyXVtDQEhdKFtDSDJdMilPW0NIMl1bQ0BASF0oTjIzKVtDSDJdW0NIMl1bQ0gyXVtDSDJdMw==

> <s_epik_cmdline>
J2VwaWtfcHl0aG9uJywgJy1waCcsICc3LjAnLCAnLXRuJywgJzgnLCAnLW1hJywgJzIwMCcsICctbWV0YWxfYmluZGluZycsICctaW1hZScsICc8aW5maWxlLm1hZT4nLCAnLW9tYWUnLCAnPG91dGZpbGUubWFlPic=

> <r_lp_tautomer_probability>
0.999999

> <r_epik_Ionization_Penalty>
0.88937

> <r_epik_Ionization_Penalty_Charging>
0.0803403

> <r_epik_Ionization_Penalty_Neutral>
0.80903

> <r_epik_State_Penalty>
0.931884

> <r_epik_Charging_Adjusted_Penalty>
1.01222

> <i_epik_Tot_Q>
1

> <i_epik_Tot_abs_Q>
1

> <r_epik_Metal_State_Penalty>
0.0782275

> <b_epik_Metal_Only>
0

> <s_lp_Force_Field>
OPLS_2005

> <r_lp_Energy>
31.959

> <b_lp_Chiralities_Consistent>
1

> <s_lp_Variant>
AV-unprocessed.smi:2822-15

> <Gold.Version>
5.8.1

> <Gold.Id.Protein>
6NUR|6NUR_protein|mol2

> <Gold.PLP.Fitness>
42.8542

> <Gold.PLP.PLP>
-32.4787

> <Gold.PLP.part.hbond>
-3.0000

> <Gold.PLP.part.metal>
0.0000

> <Gold.PLP.part.buried>
2.2553

> <Gold.PLP.part.nonpolar>
-32.4439

> <Gold.PLP.part.repulsive>
0.5937

> <Gold.PLP.ligand.clash>
0.0000

> <Gold.PLP.ligand.torsion>
0.5893

> <Gold.PLP.Chemscore.Hbond>
2.9440

> <Gold.PLP.Chemscore.CHOScore>
0.9055

> <Gold.PLP.Chemscore.Metal>
0.0000

> <Gold.Chemscore.Hbonds>
donor molecule, donor type, donor heavy atom, donor atom, acceptor molecule, acceptor atom, score
      L1  H     8    23       P1  7948  1.00
      L1  H    12    40       P1  7948  1.63

> <Gold.PLP.Chemscore.Internal.Correction>
0.0055

> <Gold.Rescore>
     Score         DG    S(hbond)    S(metal)    S(lipo)     H(rot)  DE(clash)    DE(int)     intcor
     17.80     -18.38       1.91        0.00      81.23       1.17       0.14       0.43       ----

> <Gold.Chemscore.Fitness>
17.8038

> <Gold.Chemscore.DG>
-18.3814

> <Gold.Chemscore.ZeroCoef>
-5.4800

> <Gold.Chemscore.Hbond>
1.9135

> <Gold.Chemscore.Metal>
0.0000

> <Gold.Chemscore.Lipo>
81.2275

> <Gold.Chemscore.Internal_Hbond>
0.0000

> <Gold.Chemscore.DEClash>
0.1450

> <Gold.Chemscore.DEInternal>
0.4326

> <Gold.Chemscore.Rot>
1.1693

> <Gold.Chemscore.Internal.Correction>
   9.000000E+99

> <Gold.Chemscore.Hbonds>
donor molecule, donor type, donor heavy atom, donor atom, acceptor molecule, acceptor atom, score
      L1  H     8    23       P1  7948  0.95
      L1  H    12    40       P1  7948  0.79

> <Gold.Chemscore.Hbond.Weighted>
-6.3912

> <Gold.Chemscore.Metal.Weighted>
-0.0000

> <Gold.Chemscore.Lipo.Weighted>
-9.5036

> <Gold.Chemscore.Internal_Hbond.Weighted>
0.0000

> <Gold.Chemscore.DEClash.Weighted>
0.1450

> <Gold.Chemscore.DEInternal.Weighted>
0.4326

> <Gold.Chemscore.Rot.Weighted>
2.9934

> <Gold.Chemscore.Internal.Correction.Weighted>
   9.000000E+99

> <Gold.Protein.RotatedTorsions>
[ 6907 6896 6895 6894 ] final -101.33 input  -60.11 | X-H torsion
[ 7974 7965 7964 7962 ] final -128.34 input  175.53 | X-H torsion
[ 8008 7997 7996 7995 ] final  160.91 input   59.86 | X-H torsion
[ 10167 10162 10161 10158 ] final -109.37 input  -65.29 | X-H torsion
[ 10718 10713 10712 10709 ] final  160.17 input   66.30 | X-H torsion
[ 10763 10752 10751 10750 ] final   -7.75 input  -60.55 | X-H torsion
[ 11005 11000 10999 10996 ] final  168.49 input  -57.11 | X-H torsion

> <Gold.Protein.ActiveResidues>
 VAL166  LYS551  ARG553  GLY616  TRP617  ASP618  TYR619  PRO620  LYS621  CYS622 
 ASP623  PHE694  ASN695  SER759  ASP760  ASP761  ALA762  ILE779  LEU786  VAL792 
 PHE793  MET794  SER795  GLU796  ALA797  LYS798  CYS799  TRP800  GLU811  SER814 

> <Gold.Protein.RotatedAtoms>
  150.7150  134.0750  159.3877 H   0  0  0  0  0  0  0  0  0  0  0  0  # atno 6907 bound_to 6896
  151.8733  135.0479  160.0491 H   0  0  0  0  0  0  0  0  0  0  0  0  # atno 6908 bound_to 6896
  152.2626  133.5275  159.5427 H   0  0  0  0  0  0  0  0  0  0  0  0  # atno 6909 bound_to 6896
  144.9680  140.7516  143.4688 H   0  0  0  0  0  0  0  0  0  0  0  0  # atno 7974 bound_to 7965
  156.2140  140.1791  156.7631 H   0  0  0  0  0  0  0  0  0  0  0  0  # atno 8008 bound_to 7997
  154.5764  140.0673  156.9069 H   0  0  0  0  0  0  0  0  0  0  0  0  # atno 8009 bound_to 7997
  155.2581  140.3334  155.4278 H   0  0  0  0  0  0  0  0  0  0  0  0  # atno 8010 bound_to 7997
  140.1561  143.4159  152.1460 H   0  0  0  0  0  0  0  0  0  0  0  0  # atno 10167 bound_to 10162
  157.1541  131.0571  151.2265 H   0  0  0  0  0  0  0  0  0  0  0  0  # atno 10718 bound_to 10713
  153.4308  135.7012  153.6232 H   0  0  0  0  0  0  0  0  0  0  0  0  # atno 10763 bound_to 10752
  153.4648  135.3728  155.2358 H   0  0  0  0  0  0  0  0  0  0  0  0  # atno 10764 bound_to 10752
  154.8725  135.4028  154.3691 H   0  0  0  0  0  0  0  0  0  0  0  0  # atno 10765 bound_to 10752
  140.2878  134.7698  157.3813 H   0  0  0  0  0  0  0  0  0  0  0  0  # atno 11005 bound_to 11000
  145.2601  139.1996  143.4897 LP  0  0  0  0  0  0  0  0  0  0  0  0  # atno 17320 bound_to 7965
  146.3373  140.2529  142.8599 LP  0  0  0  0  0  0  0  0  0  0  0  0  # atno 17321 bound_to 7965
  139.5403  144.7250  151.4756 LP  0  0  0  0  0  0  0  0  0  0  0  0  # atno 17342 bound_to 10162
  140.6672  143.8372  150.6956 LP  0  0  0  0  0  0  0  0  0  0  0  0  # atno 17343 bound_to 10162
  157.4193  130.7428  149.6900 LP  0  0  0  0  0  0  0  0  0  0  0  0  # atno 17370 bound_to 10713
  155.9765  130.4074  150.3774 LP  0  0  0  0  0  0  0  0  0  0  0  0  # atno 17371 bound_to 10713
  140.1223  134.5203  155.8173 LP  0  0  0  0  0  0  0  0  0  0  0  0  # atno 17394 bound_to 11000
  141.2151  133.6760  156.6889 LP  0  0  0  0  0  0  0  0  0  0  0  0  # atno 17395 bound_to 11000

$$$$
