AV-unprocessed.smi:837|AV-procd|sdf|3904|dock6
  -GOLD-   22720 1363D 1   1.00000     0.00000
 Structure written by MMmdl.
 49 51  0  0  0  0  0  0  0  0  3 V2000
  147.1501  137.2661  154.2161 C   0  0  0  0  0  0  0  0  0  0  0  0
  147.4215  138.7390  154.5929 C   0  0  2  0  0  0  0  0  0  0  0  0
  147.1624  139.6698  153.3881 C   0  0  0  0  0  0  0  0  0  0  0  0
  147.3177  141.1506  153.7660 C   0  0  0  0  0  0  0  0  0  0  0  0
  148.7046  141.4280  154.3608 C   0  0  0  0  0  0  0  0  0  0  0  0
  148.9804  140.5176  155.5697 C   0  0  0  0  0  0  0  0  0  0  0  0
  148.8212  139.0118  155.2343 C   0  0  2  0  0  0  0  0  0  0  0  0
  149.9064  138.5689  154.3722 N   0  5  0  0  0  0  0  0  0  0  0  0
  150.6359  137.6380  155.0283 C   0  0  0  0  0  0  0  0  0  0  0  0
  151.6364  137.0587  154.6058 O   0  0  0  0  0  0  0  0  0  0  0  0
  150.1400  137.4129  156.2601 N   0  0  0  0  0  0  0  0  0  0  0  0
  150.7372  136.5083  157.2495 C   0  0  0  0  0  0  0  0  0  0  0  0
  151.5553  137.2949  158.2770 C   0  0  0  0  0  0  0  0  0  0  0  0
  151.8717  136.7767  159.3475 O   0  0  0  0  0  0  0  0  0  0  0  0
  151.8722  138.5535  157.9397 N   0  0  0  0  0  0  0  0  0  0  0  0
  152.5524  139.5180  158.7981 C   0  0  0  0  0  0  0  0  0  0  0  0
  151.5907  140.3233  159.7016 C   0  0  0  0  0  0  0  0  0  0  0  0
  151.4733  141.7983  159.3442 C   0  0  0  0  0  0  0  0  0  0  0  0
  152.0395  142.7864  160.1814 C   0  0  0  0  0  0  0  0  0  0  0  0
  151.9095  144.1468  159.8342 C   0  0  0  0  0  0  0  0  0  0  0  0
  151.2039  144.4925  158.6648 C   0  0  0  0  0  0  0  0  0  0  0  0
  150.6758  143.5220  157.8879 N   0  3  0  0  0  0  0  0  0  0  0  0
  150.7887  142.2073  158.1788 C   0  0  0  0  0  0  0  0  0  0  0  0
  149.0665  138.1784  156.4843 C   0  0  0  0  0  0  0  0  0  0  0  0
  148.3841  138.2332  157.5081 O   0  0  0  0  0  0  0  0  0  0  0  0
  147.8433  136.9120  153.4527 H   0  0  0  0  0  0  0  0  0  0  0  0
  146.1414  137.1476  153.8201 H   0  0  0  0  0  0  0  0  0  0  0  0
  147.2347  136.6029  155.0767 H   0  0  0  0  0  0  0  0  0  0  0  0
  146.6740  138.9981  155.3447 H   0  0  0  0  0  0  0  0  0  0  0  0
  147.8480  139.4259  152.5755 H   0  0  0  0  0  0  0  0  0  0  0  0
  146.1577  139.5027  152.9992 H   0  0  0  0  0  0  0  0  0  0  0  0
  147.1578  141.7771  152.8881 H   0  0  0  0  0  0  0  0  0  0  0  0
  146.5480  141.4262  154.4881 H   0  0  0  0  0  0  0  0  0  0  0  0
  149.4687  141.2742  153.5979 H   0  0  0  0  0  0  0  0  0  0  0  0
  148.7764  142.4736  154.6609 H   0  0  0  0  0  0  0  0  0  0  0  0
  149.9760  140.7233  155.9653 H   0  0  0  0  0  0  0  0  0  0  0  0
  148.2855  140.7873  156.3666 H   0  0  0  0  0  0  0  0  0  0  0  0
  149.9627  135.9441  157.7715 H   0  0  0  0  0  0  0  0  0  0  0  0
  151.3627  135.7635  156.7538 H   0  0  0  0  0  0  0  0  0  0  0  0
  151.5699  138.8843  157.0346 H   0  0  0  0  0  0  0  0  0  0  0  0
  153.3161  139.0200  159.3970 H   0  0  0  0  0  0  0  0  0  0  0  0
  153.0811  140.2049  158.1372 H   0  0  0  0  0  0  0  0  0  0  0  0
  150.5987  139.8723  159.6572 H   0  0  0  0  0  0  0  0  0  0  0  0
  151.9081  140.2397  160.7412 H   0  0  0  0  0  0  0  0  0  0  0  0
  152.5612  142.5103  161.0861 H   0  0  0  0  0  0  0  0  0  0  0  0
  152.3266  144.9162  160.4672 H   0  0  0  0  0  0  0  0  0  0  0  0
  151.0409  145.5081  158.3355 H   0  0  0  0  0  0  0  0  0  0  0  0
  150.3182  141.5289  157.4827 H   0  0  0  0  0  0  0  0  0  0  0  0
  150.1635  143.7946  157.0488 H   0  0  0  0  0  0  0  0  0  0  0  0
  1  2  1  0  0  0  0
  1 26  1  0  0  0  0
  1 27  1  0  0  0  0
  1 28  1  0  0  0  0
  2  7  1  0  0  0  0
  2  3  1  0  0  0  0
  2 29  1  0  0  0  0
  3  4  1  0  0  0  0
  3 30  1  0  0  0  0
  3 31  1  0  0  0  0
  4  5  1  0  0  0  0
  4 32  1  0  0  0  0
  4 33  1  0  0  0  0
  5  6  1  0  0  0  0
  5 34  1  0  0  0  0
  5 35  1  0  0  0  0
  6  7  1  0  0  0  0
  6 36  1  0  0  0  0
  6 37  1  0  0  0  0
  7 24  1  0  0  0  0
  7  8  1  0  0  0  0
  8  9  1  0  0  0  0
  9 10  2  0  0  0  0
  9 11  1  0  0  0  0
 11 12  1  0  0  0  0
 11 24  1  0  0  0  0
 12 13  1  0  0  0  0
 12 38  1  0  0  0  0
 12 39  1  0  0  0  0
 13 14  2  0  0  0  0
 13 15  1  0  0  0  0
 15 16  1  0  0  0  0
 15 40  1  0  0  0  0
 16 17  1  0  0  0  0
 16 41  1  0  0  0  0
 16 42  1  0  0  0  0
 17 18  1  0  0  0  0
 17 43  1  0  0  0  0
 17 44  1  0  0  0  0
 18 23  1  0  0  0  0
 18 19  2  0  0  0  0
 19 20  1  0  0  0  0
 19 45  1  0  0  0  0
 20 21  2  0  0  0  0
 20 46  1  0  0  0  0
 21 22  1  0  0  0  0
 21 47  1  0  0  0  0
 22 23  2  0  0  0  0
 22 49  1  0  0  0  0
 23 48  1  0  0  0  0
 24 25  2  0  0  0  0
M  CHG  1   8  -1
M  CHG  1  22   1
M  END
> <s_m_source_file>
AV-unprocessed.smi

> <i_m_source_file_index>
837

> <i_lp_mmshare_version>
43012

> <i_f3d_flags>
0

> <s_epik_input>
W0NIMl0xW0NIMl1bQ0gyXVtDSDJdW0NAQEhdKFtDSDNdKVtDQEBdMTJbTkhdQyg9TylOKEMyPU8pW0NIMl1DKD1PKVtOSF1bQ0gyXVtDSDJdYzNbY0hdW2NIXVtjSF1uW2NIXTM=

> <s_epik_cmdline>
J2VwaWtfcHl0aG9uJywgJy1waCcsICc3LjAnLCAnLXRuJywgJzgnLCAnLW1hJywgJzIwMCcsICctbWV0YWxfYmluZGluZycsICctaW1hZScsICc8aW5maWxlLm1hZT4nLCAnLW9tYWUnLCAnPG91dGZpbGUubWFlPic=

> <r_lp_tautomer_probability>
1

> <r_epik_Ionization_Penalty>
8.27169

> <r_epik_Ionization_Penalty_Charging>
8.27169

> <r_epik_Ionization_Penalty_Neutral>
1.56557e-07

> <r_epik_State_Penalty>
8.42098

> <r_epik_Charging_Adjusted_Penalty>
16.6927

> <i_epik_Tot_Q>
0

> <i_epik_Tot_abs_Q>
2

> <r_epik_Metal_State_Penalty>
4.38565

> <b_epik_Metal_Only>
1

> <s_lp_Force_Field>
OPLS_2005

> <r_lp_Energy>
17.0357

> <b_lp_Chiralities_Consistent>
1

> <s_lp_Variant>
AV-unprocessed.smi:837-13

> <Gold.Version>
5.8.1

> <Gold.Id.Protein>
6NUR|6NUR_protein|mol2

> <Gold.PLP.Fitness>
49.4422

> <Gold.PLP.PLP>
-39.6862

> <Gold.PLP.part.hbond>
-3.0000

> <Gold.PLP.part.metal>
0.0000

> <Gold.PLP.part.buried>
-6.2376

> <Gold.PLP.part.nonpolar>
-31.0736

> <Gold.PLP.part.repulsive>
0.4327

> <Gold.PLP.ligand.clash>
0.0000

> <Gold.PLP.ligand.torsion>
1.1340

> <Gold.PLP.Chemscore.Hbond>
4.0000

> <Gold.PLP.Chemscore.CHOScore>
0.0000

> <Gold.PLP.Chemscore.Metal>
0.0000

> <Gold.Chemscore.Hbonds>
donor molecule, donor type, donor heavy atom, donor atom, acceptor molecule, acceptor atom, score
      L1  H    22    49       P1  8028  1.72
      P1  H  6896  6908       L1    14  1.00
      P1  H 10752 10764       L1    10  1.00

> <Gold.PLP.Chemscore.Internal.Correction>
0.0240

> <Gold.Rescore>
     Score         DG    S(hbond)    S(metal)    S(lipo)     H(rot)  DE(clash)    DE(int)     intcor
     20.97     -21.96       2.90        0.00      99.92       1.92       0.11       0.88       ----

> <Gold.Chemscore.Fitness>
20.9670

> <Gold.Chemscore.DG>
-21.9622

> <Gold.Chemscore.ZeroCoef>
-5.4800

> <Gold.Chemscore.Hbond>
2.9043

> <Gold.Chemscore.Metal>
0.0000

> <Gold.Chemscore.Lipo>
99.9201

> <Gold.Chemscore.Internal_Hbond>
0.0000

> <Gold.Chemscore.DEClash>
0.1145

> <Gold.Chemscore.DEInternal>
0.8807

> <Gold.Chemscore.Rot>
1.9175

> <Gold.Chemscore.Internal.Correction>
   9.000000E+99

> <Gold.Chemscore.Hbonds>
donor molecule, donor type, donor heavy atom, donor atom, acceptor molecule, acceptor atom, score
      L1  H    22    49       P1  8028  0.82
      P1  H  6896  6908       L1    14  0.98
      P1  H 10752 10764       L1    10  0.98

> <Gold.Chemscore.Hbond.Weighted>
-9.7003

> <Gold.Chemscore.Metal.Weighted>
-0.0000

> <Gold.Chemscore.Lipo.Weighted>
-11.6907

> <Gold.Chemscore.Internal_Hbond.Weighted>
0.0000

> <Gold.Chemscore.DEClash.Weighted>
0.1145

> <Gold.Chemscore.DEInternal.Weighted>
0.8807

> <Gold.Chemscore.Rot.Weighted>
4.9087

> <Gold.Chemscore.Internal.Correction.Weighted>
   9.000000E+99

> <Gold.Protein.RotatedTorsions>
[ 6907 6896 6895 6894 ] final -113.86 input  -60.11 | X-H torsion
[ 7974 7965 7964 7962 ] final  177.37 input  175.53 | X-H torsion
[ 8008 7997 7996 7995 ] final  111.40 input   59.86 | X-H torsion
[ 10167 10162 10161 10158 ] final   76.77 input  -65.29 | X-H torsion
[ 10718 10713 10712 10709 ] final -112.06 input   66.30 | X-H torsion
[ 10763 10752 10751 10750 ] final  -79.02 input  -60.55 | X-H torsion
[ 11005 11000 10999 10996 ] final  118.60 input  -57.11 | X-H torsion

> <Gold.Protein.ActiveResidues>
 VAL166  LYS551  ARG553  GLY616  TRP617  ASP618  TYR619  PRO620  LYS621  CYS622 
 ASP623  PHE694  ASN695  SER759  ASP760  ASP761  ALA762  ILE779  LEU786  VAL792 
 PHE793  MET794  SER795  GLU796  ALA797  LYS798  CYS799  TRP800  GLU811  SER814 

> <Gold.Protein.RotatedAtoms>
  150.7859  133.8884  159.3306 H   0  0  0  0  0  0  0  0  0  0  0  0  # atno 6907 bound_to 6896
  151.6735  135.0970  160.0212 H   0  0  0  0  0  0  0  0  0  0  0  0  # atno 6908 bound_to 6896
  152.3923  133.6658  159.6283 H   0  0  0  0  0  0  0  0  0  0  0  0  # atno 6909 bound_to 6896
  144.7170  140.0236  143.6440 H   0  0  0  0  0  0  0  0  0  0  0  0  # atno 7974 bound_to 7965
  156.2121  140.3020  155.9756 H   0  0  0  0  0  0  0  0  0  0  0  0  # atno 8008 bound_to 7997
  155.2697  140.0433  157.3023 H   0  0  0  0  0  0  0  0  0  0  0  0  # atno 8009 bound_to 7997
  154.5715  140.2349  155.8194 H   0  0  0  0  0  0  0  0  0  0  0  0  # atno 8010 bound_to 7997
  139.9887  144.5773  150.7837 H   0  0  0  0  0  0  0  0  0  0  0  0  # atno 10167 bound_to 10162
  156.0683  130.5900  150.8457 H   0  0  0  0  0  0  0  0  0  0  0  0  # atno 10718 bound_to 10713
  154.5334  135.5710  153.6778 H   0  0  0  0  0  0  0  0  0  0  0  0  # atno 10763 bound_to 10752
  152.9945  135.6210  154.2599 H   0  0  0  0  0  0  0  0  0  0  0  0  # atno 10764 bound_to 10752
  154.2526  135.2858  155.2790 H   0  0  0  0  0  0  0  0  0  0  0  0  # atno 10765 bound_to 10752
  139.9115  134.9621  156.7528 H   0  0  0  0  0  0  0  0  0  0  0  0  # atno 11005 bound_to 11000
  146.0160  139.3210  143.0841 LP  0  0  0  0  0  0  0  0  0  0  0  0  # atno 17320 bound_to 7965
  145.8625  140.9467  143.0693 LP  0  0  0  0  0  0  0  0  0  0  0  0  # atno 17321 bound_to 7965
  140.7463  143.2888  151.3388 LP  0  0  0  0  0  0  0  0  0  0  0  0  # atno 17342 bound_to 10162
  139.6356  144.0637  152.2513 LP  0  0  0  0  0  0  0  0  0  0  0  0  # atno 17343 bound_to 10162
  157.5739  131.0946  150.9376 LP  0  0  0  0  0  0  0  0  0  0  0  0  # atno 17370 bound_to 10713
  156.9586  130.5447  149.5285 LP  0  0  0  0  0  0  0  0  0  0  0  0  # atno 17371 bound_to 10713
  140.6760  133.9517  155.7883 LP  0  0  0  0  0  0  0  0  0  0  0  0  # atno 17394 bound_to 11000
  141.0544  134.0437  157.3741 LP  0  0  0  0  0  0  0  0  0  0  0  0  # atno 17395 bound_to 11000

$$$$
