#       Name:                AV-unprocessed.smi:1888
#       Creating user name   scv26
#       Creation time:       Fri Mar 27 09:39:14 2020


#       File generated by GOLD software.
#

@<TRIPOS>MOLECULE
AV-unprocessed.smi:1888
    52    54     1
SMALL
NO_CHARGES


@<TRIPOS>ATOM
      1 ****        -5.3341   1.8783  -0.9189 C.3            1 S1                 0.0000
      2 ****        -3.8183   2.0864  -0.9485 C.3            1 S1                 0.0000
      3 ****        -3.1801   0.8282  -0.8107 O.3            1 S1                 0.0000
      4 ****        -1.7666   0.9275  -0.8243 C.3            1 S1                 0.0000
      5 ****        -1.1713  -0.4776  -0.6656 C.3            1 S1                 0.0000
      6 ****         0.2865  -0.4483  -0.6397 N.pl3          1 S1                 0.0000
      7 ****         1.1084  -0.4669   0.4421 C.2            1 S1                 0.0000
      8 ****         0.5973  -0.5118   1.7573 N.pl3          1 S1                 0.0000
      9 ****        -0.1328   0.5183   2.2374 N.2            1 S1                 0.0000
     10 ****        -0.4403   0.1714   3.4759 C.2            1 S1                 0.0000
     11 ****        -1.2699   1.0968   4.3158 C.3            1 S1                 0.0000
     12 ****         0.0981  -1.0978   3.8280 C.2            1 S1                 0.0000
     13 ****         0.7621  -1.5057   2.7053 C.2            1 S1                 0.0000
     14 ****         1.5360  -2.7563   2.4436 C.3            1 S1                 0.0000
     15 ****         2.4142  -0.4532   0.1579 N.2            1 S1                 0.0000
     16 ****         2.4230  -0.4088  -1.2287 C.2            1 S1                 0.0000
     17 ****         1.1600  -0.4040  -1.7251 C.2            1 S1                 0.0000
     18 ****         0.8785  -0.3595  -3.1646 C.2            1 S1                 0.0000
     19 ****        -0.2581  -0.3522  -3.6323 O.2            1 S1                 0.0000
     20 ****         2.0016  -0.3242  -3.9226 N.am           1 S1                 0.0000
     21 ****         3.2999  -0.3251  -3.4890 C.2            1 S1                 0.0000
     22 ****         4.2163  -0.2851  -4.3095 O.2            1 S1                 0.0000
     23 ****         3.5193  -0.3702  -2.1341 N.am           1 S1                 0.0000
     24 ****         4.8694  -0.3710  -1.5674 C.3            1 S1                 0.0000
     25 ****         1.8652  -0.2913  -4.9225 H              1 S1                 0.0000
     26 ****        -5.8602   2.8268  -1.0276 H              1 S1                 0.0000
     27 ****        -5.6479   1.4272   0.0226 H              1 S1                 0.0000
     28 ****        -5.6549   1.2226  -1.7288 H              1 S1                 0.0000
     29 ****        -3.5252   2.5560  -1.8888 H              1 S1                 0.0000
     30 ****        -3.5185   2.7525  -0.1381 H              1 S1                 0.0000
     31 ****        -1.4331   1.3776  -1.7605 H              1 S1                 0.0000
     32 ****        -1.4316   1.5748  -0.0128 H              1 S1                 0.0000
     33 ****        -1.5400  -0.9412   0.2496 H              1 S1                 0.0000
     34 ****        -1.4986  -1.1262  -1.4778 H              1 S1                 0.0000
     35 ****        -1.3902   0.7102   5.3280 H              1 S1                 0.0000
     36 ****        -2.2649   1.2261   3.8893 H              1 S1                 0.0000
     37 ****        -0.8077   2.0816   4.3901 H              1 S1                 0.0000
     38 ****         0.0105  -1.6284   4.7645 H              1 S1                 0.0000
     39 ****         1.4431  -3.4540   3.2761 H              1 S1                 0.0000
     40 ****         2.5950  -2.5354   2.3076 H              1 S1                 0.0000
     41 ****         1.1754  -3.2563   1.5443 H              1 S1                 0.0000
     42 ****         5.6648  -0.4140  -2.3123 H              1 S1                 0.0000
     43 ****         4.9971  -1.2306  -0.9085 H              1 S1                 0.0000
     44 ****         5.0227   0.5314  -0.9747 H              1 S1                 0.0000
     45 ****        -3.4667   0.2396  -1.5667 LP             1 S1                 0.0000
     46 ****        -3.4637   0.4189   0.0565 LP             1 S1                 0.0000
     47 ****        -0.3857   1.3600   1.7602 LP             1 S1                 0.0000
     48 ****         3.1909  -0.4706   0.7874 LP             1 S1                 0.0000
     49 ****        -1.0500  -0.3773  -3.0222 LP             1 S1                 0.0000
     50 ****        -0.3909  -0.3211  -4.6230 LP             1 S1                 0.0000
     51 ****         4.0106  -0.2521  -5.2876 LP             1 S1                 0.0000
     52 ****         5.1666  -0.2855  -3.9982 LP             1 S1                 0.0000
@<TRIPOS>BOND
    1    1    2 1     
    2    1   26 1     
    3    1   27 1     
    4    1   28 1     
    5    2    3 1     
    6    2   29 1     
    7    2   30 1     
    8    3    4 1     
    9    4    5 1     
   10    4   31 1     
   11    4   32 1     
   12    5    6 1     
   13    5   33 1     
   14    5   34 1     
   15    6   17 1     
   16    6    7 1     
   17    7    8 1     
   18    7   15 2     
   19    8   13 1     
   20    8    9 1     
   21    9   10 2     
   22   10   11 1     
   23   10   12 1     
   24   11   35 1     
   25   11   36 1     
   26   11   37 1     
   27   12   13 2     
   28   12   38 1     
   29   13   14 1     
   30   14   39 1     
   31   14   40 1     
   32   14   41 1     
   33   15   16 1     
   34   16   23 1     
   35   16   17 2     
   36   17   18 1     
   37   18   19 2     
   38   18   20 1     
   39   20   25 1     
   40   20   21 1     
   41   21   22 2     
   42   21   23 1     
   43   23   24 1     
   44   24   42 1     
   45   24   43 1     
   46   24   44 1     
   47    3   45 1     
   48    3   46 1     
   49    9   47 1     
   50   15   48 1     
   51   19   49 1     
   52   19   50 1     
   53   22   51 1     
   54   22   52 1     
@<TRIPOS>SUBSTRUCTURE
      1 S1             1
@<TRIPOS>SET
LONE_PAIRS      STATIC     ATOMS    <user>   **** ""
8 45 46 47 48 49 50 51 52
DONOR_HYDROGENS      STATIC     ATOMS    <user>   **** ""
1 25
ATOM$BLUE        STATIC     ATOMS    COLORGROUP SYSTEM
8 45 46 47 48 49 50 51 52
ATOM$RED        STATIC     ATOMS    COLORGROUP SYSTEM
1 25
