AV-unprocessed.smi:720|AV-procd|sdf|3499|dock9
  -GOLD-   22720 0493D 1   1.00000     0.00000
 Structure written by MMmdl.
 46 48  0  0  0  0  0  0  0  0  1 V2000
  145.2420  136.0333  151.3433 C   0  0  0  0  0  0  0  0  0  0  0  0
  145.3524  136.7075  152.6318 N   0  0  0  0  0  0  0  0  0  0  0  0
  144.0104  137.0769  153.0629 C   0  0  0  0  0  0  0  0  0  0  0  0
  146.1732  137.9174  152.5510 C   0  0  0  0  0  0  0  0  0  0  0  0
  146.9257  138.2463  153.8585 C   0  0  0  0  0  0  0  0  0  0  0  0
  147.1853  139.6642  154.0388 N   0  0  0  0  0  0  0  0  0  0  0  0
  146.6963  140.7270  153.3054 C   0  0  0  0  0  0  0  0  0  0  0  0
  147.2016  141.8723  153.8516 C   0  0  0  0  0  0  0  0  0  0  0  0
  147.9917  141.3929  154.9389 C   0  0  0  0  0  0  0  0  0  0  0  0
  148.7402  142.1881  155.8429 N   0  0  0  0  0  0  0  0  0  0  0  0
  149.4708  141.7932  156.9030 C   0  0  0  0  0  0  0  0  0  0  0  0
  149.6429  140.6239  157.2411 O   0  0  0  0  0  0  0  0  0  0  0  0
  150.0149  142.8059  157.6013 N   0  0  0  0  0  0  0  0  0  0  0  0
  150.8578  142.7252  158.7982 C   0  0  2  0  0  0  0  0  0  0  0  0
  150.4754  143.8174  159.8215 C   0  0  0  0  0  0  0  0  0  0  0  0
  151.7920  144.5918  160.0159 C   0  0  2  0  0  0  0  0  0  0  0  0
  152.1007  145.4140  158.7499 C   0  0  0  0  0  0  0  0  0  0  0  0
  152.5377  144.3357  157.7406 C   0  0  0  0  0  0  0  0  0  0  0  0
  152.3579  143.0303  158.5444 C   0  0  1  0  0  0  0  0  0  0  0  0
  152.8225  143.4745  159.9274 C   0  0  0  0  0  0  0  0  0  0  0  0
  147.9645  140.0774  155.0621 N   0  0  0  0  0  0  0  0  0  0  0  0
  146.2004  135.6287  151.0248 H   0  0  0  0  0  0  0  0  0  0  0  0
  144.8771  136.7094  150.5688 H   0  0  0  0  0  0  0  0  0  0  0  0
  144.5529  135.1906  151.4107 H   0  0  0  0  0  0  0  0  0  0  0  0
  144.0373  137.5524  154.0440 H   0  0  0  0  0  0  0  0  0  0  0  0
  143.3762  136.1933  153.1456 H   0  0  0  0  0  0  0  0  0  0  0  0
  143.5432  137.7687  152.3602 H   0  0  0  0  0  0  0  0  0  0  0  0
  146.8517  137.8738  151.6978 H   0  0  0  0  0  0  0  0  0  0  0  0
  145.5020  138.7558  152.3585 H   0  0  0  0  0  0  0  0  0  0  0  0
  146.3205  137.9249  154.7066 H   0  0  0  0  0  0  0  0  0  0  0  0
  147.8597  137.6848  153.9197 H   0  0  0  0  0  0  0  0  0  0  0  0
  146.0388  140.5815  152.4610 H   0  0  0  0  0  0  0  0  0  0  0  0
  147.0221  142.8826  153.5165 H   0  0  0  0  0  0  0  0  0  0  0  0
  148.6732  143.1848  155.6970 H   0  0  0  0  0  0  0  0  0  0  0  0
  149.8180  143.7383  157.2672 H   0  0  0  0  0  0  0  0  0  0  0  0
  150.7450  141.7449  159.2650 H   0  0  0  0  0  0  0  0  0  0  0  0
  149.6682  144.4676  159.4808 H   0  0  0  0  0  0  0  0  0  0  0  0
  150.1549  143.3619  160.7593 H   0  0  0  0  0  0  0  0  0  0  0  0
  151.8225  145.1763  160.9358 H   0  0  0  0  0  0  0  0  0  0  0  0
  151.2341  145.9790  158.4047 H   0  0  0  0  0  0  0  0  0  0  0  0
  152.9116  146.1206  158.9300 H   0  0  0  0  0  0  0  0  0  0  0  0
  151.9606  144.3642  156.8165 H   0  0  0  0  0  0  0  0  0  0  0  0
  153.5856  144.4734  157.4704 H   0  0  0  0  0  0  0  0  0  0  0  0
  152.9128  142.1874  158.1313 H   0  0  0  0  0  0  0  0  0  0  0  0
  153.8535  143.8328  159.9453 H   0  0  0  0  0  0  0  0  0  0  0  0
  152.6972  142.7071  160.6934 H   0  0  0  0  0  0  0  0  0  0  0  0
  1  2  1  0  0  0  0
  1 22  1  0  0  0  0
  1 23  1  0  0  0  0
  1 24  1  0  0  0  0
  2  3  1  0  0  0  0
  2  4  1  0  0  0  0
  3 25  1  0  0  0  0
  3 26  1  0  0  0  0
  3 27  1  0  0  0  0
  4  5  1  0  0  0  0
  4 28  1  0  0  0  0
  4 29  1  0  0  0  0
  5  6  1  0  0  0  0
  5 30  1  0  0  0  0
  5 31  1  0  0  0  0
  6 21  1  0  0  0  0
  6  7  1  0  0  0  0
  7  8  2  0  0  0  0
  7 32  1  0  0  0  0
  8  9  1  0  0  0  0
  8 33  1  0  0  0  0
  9 10  1  0  0  0  0
  9 21  2  0  0  0  0
 10 11  1  0  0  0  0
 10 34  1  0  0  0  0
 11 12  2  0  0  0  0
 11 13  1  0  0  0  0
 13 14  1  0  0  0  0
 13 35  1  0  0  0  0
 14 19  1  0  0  0  0
 14 15  1  0  0  0  0
 14 36  1  0  0  0  0
 15 16  1  0  0  0  0
 15 37  1  0  0  0  0
 15 38  1  0  0  0  0
 16 20  1  0  0  0  0
 16 17  1  0  0  0  0
 16 39  1  0  0  0  0
 17 18  1  0  0  0  0
 17 40  1  0  0  0  0
 17 41  1  0  0  0  0
 18 19  1  0  0  0  0
 18 42  1  0  0  0  0
 18 43  1  0  0  0  0
 19 20  1  0  0  0  0
 19 44  1  0  0  0  0
 20 45  1  0  0  0  0
 20 46  1  0  0  0  0
M  END
> <s_m_source_file>
AV-unprocessed.smi

> <i_m_source_file_index>
720

> <i_lp_mmshare_version>
43012

> <i_f3d_flags>
0

> <s_epik_input>
W0NIM11OKFtDSDNdKVtDSDJdW0NIMl1uMVtjSF1bY0hdYyhuMSlbTkhdQyg9TylbTkhdW0NASF0oW0NIMl1bQ0BIXTIzKVtDQEhdKFtDSDJdMylbQ0gyXVtDSDJdMg==

> <s_epik_cmdline>
J2VwaWtfcHl0aG9uJywgJy1waCcsICc3LjAnLCAnLXRuJywgJzgnLCAnLW1hJywgJzIwMCcsICctbWV0YWxfYmluZGluZycsICctaW1hZScsICc8aW5maWxlLm1hZT4nLCAnLW9tYWUnLCAnPG91dGZpbGUubWFlPic=

> <r_lp_tautomer_probability>
1

> <r_epik_Ionization_Penalty>
1.83819

> <r_epik_Ionization_Penalty_Charging>
0

> <r_epik_Ionization_Penalty_Neutral>
1.83819

> <r_epik_State_Penalty>
1.95467

> <r_epik_Charging_Adjusted_Penalty>
1.95467

> <i_epik_Tot_Q>
0

> <i_epik_Tot_abs_Q>
0

> <r_epik_Metal_State_Penalty>
1.95467

> <b_epik_Metal_Only>
0

> <s_lp_Force_Field>
OPLS_2005

> <r_lp_Energy>
64.6773

> <b_lp_Chiralities_Consistent>
1

> <s_lp_Variant>
AV-unprocessed.smi:720-5

> <Gold.Version>
5.8.1

> <Gold.Id.Protein>
6NUR|6NUR_protein|mol2

> <Gold.PLP.Fitness>
45.9817

> <Gold.PLP.PLP>
-39.6756

> <Gold.PLP.part.hbond>
-1.9621

> <Gold.PLP.part.metal>
0.0000

> <Gold.PLP.part.buried>
-4.1907

> <Gold.PLP.part.nonpolar>
-35.9184

> <Gold.PLP.part.repulsive>
0.4073

> <Gold.PLP.ligand.clash>
0.0000

> <Gold.PLP.ligand.torsion>
0.8445

> <Gold.PLP.Chemscore.Hbond>
1.7484

> <Gold.PLP.Chemscore.CHOScore>
0.9074

> <Gold.PLP.Chemscore.Metal>
0.0000

> <Gold.Chemscore.Hbonds>
donor molecule, donor type, donor heavy atom, donor atom, acceptor molecule, acceptor atom, score
      L1  H    10    34       P1  8028  1.00
      L1  H    13    35       P1  8028  0.72
      L1  C     7    32       P1 10175  0.96

> <Gold.PLP.Chemscore.Internal.Correction>
0.0278

> <Gold.Rescore>
     Score         DG    S(hbond)    S(metal)    S(lipo)     H(rot)  DE(clash)    DE(int)     intcor
     16.99     -19.99       1.40        0.00     117.47       1.53       0.98       2.02       ----

> <Gold.Chemscore.Fitness>
16.9908

> <Gold.Chemscore.DG>
-19.9917

> <Gold.Chemscore.ZeroCoef>
-5.4800

> <Gold.Chemscore.Hbond>
1.4034

> <Gold.Chemscore.Metal>
0.0000

> <Gold.Chemscore.Lipo>
117.4723

> <Gold.Chemscore.Internal_Hbond>
0.0000

> <Gold.Chemscore.DEClash>
0.9843

> <Gold.Chemscore.DEInternal>
2.0166

> <Gold.Chemscore.Rot>
1.5312

> <Gold.Chemscore.Internal.Correction>
   9.000000E+99

> <Gold.Chemscore.Hbonds>
donor molecule, donor type, donor heavy atom, donor atom, acceptor molecule, acceptor atom, score
      L1  H    10    34       P1  8028  0.94
      L1  H    13    35       P1  8028  0.60

> <Gold.Chemscore.Hbond.Weighted>
-4.6873

> <Gold.Chemscore.Metal.Weighted>
-0.0000

> <Gold.Chemscore.Lipo.Weighted>
-13.7443

> <Gold.Chemscore.Internal_Hbond.Weighted>
0.0000

> <Gold.Chemscore.DEClash.Weighted>
0.9843

> <Gold.Chemscore.DEInternal.Weighted>
2.0166

> <Gold.Chemscore.Rot.Weighted>
3.9199

> <Gold.Chemscore.Internal.Correction.Weighted>
   9.000000E+99

> <Gold.Protein.RotatedTorsions>
[ 6907 6896 6895 6894 ] final -150.47 input  -60.11 | X-H torsion
[ 7974 7965 7964 7962 ] final  -14.75 input  175.53 | X-H torsion
[ 8008 7997 7996 7995 ] final  -36.94 input   59.86 | X-H torsion
[ 10167 10162 10161 10158 ] final -139.01 input  -65.29 | X-H torsion
[ 10718 10713 10712 10709 ] final -108.28 input   66.30 | X-H torsion
[ 10763 10752 10751 10750 ] final   66.79 input  -60.55 | X-H torsion
[ 11005 11000 10999 10996 ] final  -11.15 input  -57.11 | X-H torsion

> <Gold.Protein.ActiveResidues>
 VAL166  LYS551  ARG553  GLY616  TRP617  ASP618  TYR619  PRO620  LYS621  CYS622 
 ASP623  PHE694  ASN695  SER759  ASP760  ASP761  ALA762  ILE779  LEU786  VAL792 
 PHE793  MET794  SER795  GLU796  ALA797  LYS798  CYS799  TRP800  GLU811  SER814 

> <Gold.Protein.RotatedAtoms>
  151.1991  133.4621  159.2595 H   0  0  0  0  0  0  0  0  0  0  0  0  # atno 6907 bound_to 6896
  151.1087  135.0014  159.8494 H   0  0  0  0  0  0  0  0  0  0  0  0  # atno 6908 bound_to 6896
  152.5449  134.1912  159.8727 H   0  0  0  0  0  0  0  0  0  0  0  0  # atno 6909 bound_to 6896
  146.2061  140.3394  142.8406 H   0  0  0  0  0  0  0  0  0  0  0  0  # atno 7974 bound_to 7965
  154.4063  140.1617  156.2456 H   0  0  0  0  0  0  0  0  0  0  0  0  # atno 8008 bound_to 7997
  155.9163  140.3424  155.6115 H   0  0  0  0  0  0  0  0  0  0  0  0  # atno 8009 bound_to 7997
  155.7276  140.0776  157.2294 H   0  0  0  0  0  0  0  0  0  0  0  0  # atno 8010 bound_to 7997
  139.8421  143.7308  152.2662 H   0  0  0  0  0  0  0  0  0  0  0  0  # atno 10167 bound_to 10162
  156.0478  130.5705  150.7940 H   0  0  0  0  0  0  0  0  0  0  0  0  # atno 10718 bound_to 10713
  153.0156  135.5307  154.6879 H   0  0  0  0  0  0  0  0  0  0  0  0  # atno 10763 bound_to 10752
  154.6022  135.2869  155.0526 H   0  0  0  0  0  0  0  0  0  0  0  0  # atno 10764 bound_to 10752
  154.1579  135.6552  153.5031 H   0  0  0  0  0  0  0  0  0  0  0  0  # atno 10765 bound_to 10752
  140.7522  133.8583  155.9054 H   0  0  0  0  0  0  0  0  0  0  0  0  # atno 11005 bound_to 11000
  144.8796  140.7383  143.5995 LP  0  0  0  0  0  0  0  0  0  0  0  0  # atno 17320 bound_to 7965
  145.3314  139.1758  143.4535 LP  0  0  0  0  0  0  0  0  0  0  0  0  # atno 17321 bound_to 7965
  139.7548  144.7524  151.0452 LP  0  0  0  0  0  0  0  0  0  0  0  0  # atno 17342 bound_to 10162
  140.7797  143.4818  151.0008 LP  0  0  0  0  0  0  0  0  0  0  0  0  # atno 17343 bound_to 10162
  157.5372  131.0939  150.9876 LP  0  0  0  0  0  0  0  0  0  0  0  0  # atno 17370 bound_to 10713
  157.0168  130.5658  149.5327 LP  0  0  0  0  0  0  0  0  0  0  0  0  # atno 17371 bound_to 10713
  140.9740  134.1493  157.4552 LP  0  0  0  0  0  0  0  0  0  0  0  0  # atno 17394 bound_to 11000
  139.8785  134.9988  156.5921 LP  0  0  0  0  0  0  0  0  0  0  0  0  # atno 17395 bound_to 11000

$$$$
