AV-unprocessed.smi:3348|AV-procd|sdf|12919|dock3
  -GOLD-   2272019333D 1   1.00000     0.00000
 Structure written by MMmdl.
 47 48  0  0  0  0  0  0  0  0  2 V2000
  144.6425  134.8320  153.5902 C   0  0  0  0  0  0  0  0  0  0  0  0
  145.8737  135.2159  152.7515 C   0  0  2  0  0  0  0  0  0  0  0  0
  146.6267  133.9854  152.1942 C   0  0  0  0  0  0  0  0  0  0  0  0
  145.8242  133.2016  151.2717 N   0  0  0  0  0  0  0  0  0  0  0  0
  146.2348  132.5233  150.1434 C   0  0  0  0  0  0  0  0  0  0  0  0
  145.1298  131.9352  149.5979 C   0  0  0  0  0  0  0  0  0  0  0  0
  144.0770  132.3125  150.4776 C   0  0  0  0  0  0  0  0  0  0  0  0
  144.4961  133.0696  151.4790 N   0  0  0  0  0  0  0  0  0  0  0  0
  146.7683  136.0668  153.5677 N   0  3  0  0  0  0  0  0  0  0  0  0
  146.2755  137.4332  153.8445 C   0  0  0  0  0  0  0  0  0  0  0  0
  147.3797  138.2923  154.4680 C   0  0  0  0  0  0  0  0  0  0  0  0
  146.9507  138.7076  155.7554 O   0  0  0  0  0  0  0  0  0  0  0  0
  147.7958  139.6657  156.3837 C   0  0  2  0  0  0  0  0  0  0  0  0
  149.2086  139.0820  156.5970 C   0  0  0  0  0  0  0  0  0  0  0  0
  149.1954  137.9045  157.5855 C   0  0  0  0  0  0  0  0  0  0  0  0
  148.5581  138.3086  158.9235 C   0  0  0  0  0  0  0  0  0  0  0  0
  147.1474  138.8835  158.7191 C   0  0  0  0  0  0  0  0  0  0  0  0
  147.1567  140.0677  157.7317 C   0  0  2  0  0  0  0  0  0  0  0  0
  145.7543  140.6693  157.5475 C   0  0  0  0  0  0  0  0  0  0  0  0
  143.8994  134.2998  152.9958 H   0  0  0  0  0  0  0  0  0  0  0  0
  144.1518  135.7175  153.9960 H   0  0  0  0  0  0  0  0  0  0  0  0
  144.9184  134.1911  154.4287 H   0  0  0  0  0  0  0  0  0  0  0  0
  145.5174  135.8167  151.9133 H   0  0  0  0  0  0  0  0  0  0  0  0
  147.5287  134.2905  151.6639 H   0  0  0  0  0  0  0  0  0  0  0  0
  146.9521  133.3403  153.0125 H   0  0  0  0  0  0  0  0  0  0  0  0
  147.2669  132.5173  149.8248 H   0  0  0  0  0  0  0  0  0  0  0  0
  145.0803  131.3266  148.7073 H   0  0  0  0  0  0  0  0  0  0  0  0
  143.0285  132.0600  150.4184 H   0  0  0  0  0  0  0  0  0  0  0  0
  146.8948  135.6074  154.4581 H   0  0  0  0  0  0  0  0  0  0  0  0
  145.9159  137.9033  152.9292 H   0  0  0  0  0  0  0  0  0  0  0  0
  145.4312  137.3748  154.5324 H   0  0  0  0  0  0  0  0  0  0  0  0
  148.2976  137.7098  154.5452 H   0  0  0  0  0  0  0  0  0  0  0  0
  147.5902  139.1547  153.8335 H   0  0  0  0  0  0  0  0  0  0  0  0
  147.8657  140.5605  155.7620 H   0  0  0  0  0  0  0  0  0  0  0  0
  149.6477  138.7678  155.6506 H   0  0  0  0  0  0  0  0  0  0  0  0
  149.8631  139.8637  156.9843 H   0  0  0  0  0  0  0  0  0  0  0  0
  148.6435  137.0684  157.1543 H   0  0  0  0  0  0  0  0  0  0  0  0
  150.2127  137.5489  157.7517 H   0  0  0  0  0  0  0  0  0  0  0  0
  148.5149  137.4470  159.5905 H   0  0  0  0  0  0  0  0  0  0  0  0
  149.1867  139.0501  159.4181 H   0  0  0  0  0  0  0  0  0  0  0  0
  146.4836  138.0992  158.3530 H   0  0  0  0  0  0  0  0  0  0  0  0
  146.7426  139.2036  159.6799 H   0  0  0  0  0  0  0  0  0  0  0  0
  147.7812  140.8494  158.1673 H   0  0  0  0  0  0  0  0  0  0  0  0
  145.0555  139.9387  157.1392 H   0  0  0  0  0  0  0  0  0  0  0  0
  145.7787  141.5224  156.8689 H   0  0  0  0  0  0  0  0  0  0  0  0
  145.3501  141.0169  158.4984 H   0  0  0  0  0  0  0  0  0  0  0  0
  147.6681  136.1283  153.1121 H   0  0  0  0  0  0  0  0  0  0  0  0
  1  2  1  0  0  0  0
  1 20  1  0  0  0  0
  1 21  1  0  0  0  0
  1 22  1  0  0  0  0
  2  3  1  0  0  0  0
  2  9  1  0  0  0  0
  2 23  1  0  0  0  0
  3  4  1  0  0  0  0
  3 24  1  0  0  0  0
  3 25  1  0  0  0  0
  4  8  1  0  0  0  0
  4  5  1  0  0  0  0
  5  6  2  0  0  0  0
  5 26  1  0  0  0  0
  6  7  1  0  0  0  0
  6 27  1  0  0  0  0
  7  8  2  0  0  0  0
  7 28  1  0  0  0  0
  9 10  1  0  0  0  0
  9 29  1  0  0  0  0
  9 47  1  0  0  0  0
 10 11  1  0  0  0  0
 10 30  1  0  0  0  0
 10 31  1  0  0  0  0
 11 12  1  0  0  0  0
 11 32  1  0  0  0  0
 11 33  1  0  0  0  0
 12 13  1  0  0  0  0
 13 18  1  0  0  0  0
 13 14  1  0  0  0  0
 13 34  1  0  0  0  0
 14 15  1  0  0  0  0
 14 35  1  0  0  0  0
 14 36  1  0  0  0  0
 15 16  1  0  0  0  0
 15 37  1  0  0  0  0
 15 38  1  0  0  0  0
 16 17  1  0  0  0  0
 16 39  1  0  0  0  0
 16 40  1  0  0  0  0
 17 18  1  0  0  0  0
 17 41  1  0  0  0  0
 17 42  1  0  0  0  0
 18 19  1  0  0  0  0
 18 43  1  0  0  0  0
 19 44  1  0  0  0  0
 19 45  1  0  0  0  0
 19 46  1  0  0  0  0
M  CHG  1   9   1
M  END
> <s_m_source_file>
AV-unprocessed.smi

> <i_m_source_file_index>
3348

> <i_lp_mmshare_version>
43012

> <i_f3d_flags>
0

> <s_epik_input>
bjFbY0hdW2NIXVtjSF1uMVtDSDJdW0NAQEhdKFtDSDNdKVtOSF1bQ0gyXVtDSDJdT1tDQEBIXTJbQ0gyXVtDSDJdW0NIMl1bQ0gyXVtDQEhdMltDSDNd

> <s_epik_cmdline>
J2VwaWtfcHl0aG9uJywgJy1waCcsICc3LjAnLCAnLXRuJywgJzgnLCAnLW1hJywgJzIwMCcsICctbWV0YWxfYmluZGluZycsICctaW1hZScsICc8aW5maWxlLm1hZT4nLCAnLW9tYWUnLCAnPG91dGZpbGUubWFlPic=

> <r_lp_tautomer_probability>
1

> <r_epik_Ionization_Penalty>
0.00925088

> <r_epik_Ionization_Penalty_Charging>
0.00924645

> <r_epik_Ionization_Penalty_Neutral>
4.42413e-06

> <r_epik_State_Penalty>
0.0070118

> <r_epik_Charging_Adjusted_Penalty>
0.0162583

> <i_epik_Tot_Q>
1

> <i_epik_Tot_abs_Q>
1

> <r_epik_Metal_State_Penalty>
0.00701222

> <b_epik_Metal_Only>
0

> <s_lp_Force_Field>
OPLS_2005

> <r_lp_Energy>
17.0128

> <b_lp_Chiralities_Consistent>
1

> <s_lp_Variant>
AV-unprocessed.smi:3348-5

> <Gold.Version>
5.8.1

> <Gold.Id.Protein>
6NUR|6NUR_protein|mol2

> <Gold.PLP.Fitness>
47.2616

> <Gold.PLP.PLP>
-36.5552

> <Gold.PLP.part.hbond>
-1.0000

> <Gold.PLP.part.metal>
0.0000

> <Gold.PLP.part.buried>
-0.5835

> <Gold.PLP.part.nonpolar>
-36.2363

> <Gold.PLP.part.repulsive>
0.4014

> <Gold.PLP.ligand.clash>
0.0000

> <Gold.PLP.ligand.torsion>
0.8690

> <Gold.PLP.Chemscore.Hbond>
2.0000

> <Gold.PLP.Chemscore.CHOScore>
2.0836

> <Gold.PLP.Chemscore.Metal>
0.0000

> <Gold.Chemscore.Hbonds>
donor molecule, donor type, donor heavy atom, donor atom, acceptor molecule, acceptor atom, score
      L1  H     9    47       P1  7948  2.00
      L1  C     5    26       P1 10747  0.99
      L1  C     7    28       P1 10952  0.03

> <Gold.PLP.Chemscore.Internal.Correction>
0.1934

> <Gold.Rescore>
     Score         DG    S(hbond)    S(metal)    S(lipo)     H(rot)  DE(clash)    DE(int)     intcor
     12.31     -16.63       1.00        0.00     106.56       1.82       1.85       2.47       ----

> <Gold.Chemscore.Fitness>
12.3130

> <Gold.Chemscore.DG>
-16.6331

> <Gold.Chemscore.ZeroCoef>
-5.4800

> <Gold.Chemscore.Hbond>
0.9987

> <Gold.Chemscore.Metal>
0.0000

> <Gold.Chemscore.Lipo>
106.5581

> <Gold.Chemscore.Internal_Hbond>
0.0000

> <Gold.Chemscore.DEClash>
1.8493

> <Gold.Chemscore.DEInternal>
2.4708

> <Gold.Chemscore.Rot>
1.8163

> <Gold.Chemscore.Internal.Correction>
   9.000000E+99

> <Gold.Chemscore.Hbonds>
donor molecule, donor type, donor heavy atom, donor atom, acceptor molecule, acceptor atom, score
      L1  H     9    47       P1  7948  1.00

> <Gold.Chemscore.Hbond.Weighted>
-3.3356

> <Gold.Chemscore.Metal.Weighted>
-0.0000

> <Gold.Chemscore.Lipo.Weighted>
-12.4673

> <Gold.Chemscore.Internal_Hbond.Weighted>
0.0000

> <Gold.Chemscore.DEClash.Weighted>
1.8493

> <Gold.Chemscore.DEInternal.Weighted>
2.4708

> <Gold.Chemscore.Rot.Weighted>
4.6497

> <Gold.Chemscore.Internal.Correction.Weighted>
   9.000000E+99

> <Gold.Protein.RotatedTorsions>
[ 6907 6896 6895 6894 ] final   64.87 input  -60.11 | X-H torsion
[ 7974 7965 7964 7962 ] final -175.02 input  175.53 | X-H torsion
[ 8008 7997 7996 7995 ] final  -31.38 input   59.86 | X-H torsion
[ 10167 10162 10161 10158 ] final  -38.77 input  -65.29 | X-H torsion
[ 10718 10713 10712 10709 ] final  -58.27 input   66.30 | X-H torsion
[ 10763 10752 10751 10750 ] final -178.59 input  -60.55 | X-H torsion
[ 11005 11000 10999 10996 ] final -117.69 input  -57.11 | X-H torsion

> <Gold.Protein.ActiveResidues>
 VAL166  LYS551  ARG553  GLY616  TRP617  ASP618  TYR619  PRO620  LYS621  CYS622 
 ASP623  PHE694  ASN695  SER759  ASP760  ASP761  ALA762  ILE779  LEU786  VAL792 
 PHE793  MET794  SER795  GLU796  ALA797  LYS798  CYS799  TRP800  GLU811  SER814 

> <Gold.Protein.RotatedAtoms>
  152.4365  134.5677  159.9911 H   0  0  0  0  0  0  0  0  0  0  0  0  # atno 6907 bound_to 6896
  151.5786  133.3375  159.3012 H   0  0  0  0  0  0  0  0  0  0  0  0  # atno 6908 bound_to 6896
  150.8264  134.7531  159.6880 H   0  0  0  0  0  0  0  0  0  0  0  0  # atno 6909 bound_to 6896
  144.7129  140.1384  143.6393 H   0  0  0  0  0  0  0  0  0  0  0  0  # atno 7974 bound_to 7965
  154.4216  140.1766  156.1558 H   0  0  0  0  0  0  0  0  0  0  0  0  # atno 8008 bound_to 7997
  155.9878  140.3371  155.6700 H   0  0  0  0  0  0  0  0  0  0  0  0  # atno 8009 bound_to 7997
  155.6413  140.0680  157.2608 H   0  0  0  0  0  0  0  0  0  0  0  0  # atno 8010 bound_to 7997
  140.7083  143.3256  151.2688 H   0  0  0  0  0  0  0  0  0  0  0  0  # atno 10167 bound_to 10162
  156.1147  130.4171  150.0555 H   0  0  0  0  0  0  0  0  0  0  0  0  # atno 10718 bound_to 10713
  154.5458  135.2809  155.1054 H   0  0  0  0  0  0  0  0  0  0  0  0  # atno 10763 bound_to 10752
  154.2519  135.6338  153.5247 H   0  0  0  0  0  0  0  0  0  0  0  0  # atno 10764 bound_to 10752
  152.9990  135.5585  154.6010 H   0  0  0  0  0  0  0  0  0  0  0  0  # atno 10765 bound_to 10752
  141.0337  133.9941  157.3103 H   0  0  0  0  0  0  0  0  0  0  0  0  # atno 11005 bound_to 11000
  145.9224  139.2554  143.1373 LP  0  0  0  0  0  0  0  0  0  0  0  0  # atno 17320 bound_to 7965
  145.9606  140.8838  143.0212 LP  0  0  0  0  0  0  0  0  0  0  0  0  # atno 17321 bound_to 7965
  139.6723  143.9998  152.2760 LP  0  0  0  0  0  0  0  0  0  0  0  0  # atno 17342 bound_to 10162
  139.9601  144.6563  150.8088 LP  0  0  0  0  0  0  0  0  0  0  0  0  # atno 17343 bound_to 10162
  156.8509  130.9458  151.3625 LP  0  0  0  0  0  0  0  0  0  0  0  0  # atno 17370 bound_to 10713
  157.6330  130.8744  149.9308 LP  0  0  0  0  0  0  0  0  0  0  0  0  # atno 17371 bound_to 10713
  139.9226  135.0201  156.8119 LP  0  0  0  0  0  0  0  0  0  0  0  0  # atno 17394 bound_to 11000
  140.6360  133.9862  155.7684 LP  0  0  0  0  0  0  0  0  0  0  0  0  # atno 17395 bound_to 11000

$$$$
