#       Name:                AV-unprocessed.smi:35
#       Creating user name   scv26
#       Creation time:       Thu Mar 26 16:03:51 2020


#       File generated by GOLD software.
#

@<TRIPOS>MOLECULE
AV-unprocessed.smi:35
    41    42     1
SMALL
NO_CHARGES


@<TRIPOS>ATOM
      1 ****        -4.2209   2.7916   1.8567 O.2            1 S1                 0.0000
      2 ****        -3.2984   2.2913   1.2156 C.2            1 S1                 0.0000
      3 ****        -3.3129   2.1871  -0.1447 N.pl3          1 S1                -1.0000
      4 ****        -2.2860   1.6306  -0.8518 C.2            1 S1                 0.0000
      5 ****        -2.2955   1.5182  -2.0778 O.2            1 S1                 0.0000
      6 ****        -1.1497   1.1424  -0.1495 N.am           1 S1                 0.0000
      7 ****        -0.0069   0.5345  -0.9428 C.3            1 S1                 0.0000
      8 ****         1.1528   0.5120  -0.1595 O.3            1 S1                 0.0000
      9 ****         1.4491  -0.8245   0.2295 C.3            1 S1                 0.0000
     10 ****         2.9231  -0.9708   0.6473 C.3            1 S1                 0.0000
     11 ****         3.1628  -2.2637   1.1618 O.3            1 S1                 0.0000
     12 ****         0.9773  -1.6538  -0.9709 C.3            1 S1                 0.0000
     13 ****         1.9355  -1.6390  -2.0134 O.3            1 S1                 0.0000
     14 ****        -0.2855  -0.9197  -1.4030 C.3            1 S1                 0.0000
     15 ****        -1.4142  -1.5122  -0.7836 O.3            1 S1                 0.0000
     16 ****        -1.1082   1.2329   1.2325 C.2            1 S1                 0.0000
     17 ****        -2.1280   1.7805   1.9240 C.2            1 S1                 0.0000
     18 ****        -1.9343   1.8430   3.8952 Br             1 S1                 0.0000
     19 ****         0.1715   1.2228  -1.7708 H              1 S1                 0.0000
     20 ****         0.8157  -1.0635   1.0855 H              1 S1                 0.0000
     21 ****         3.6012  -0.7722  -0.1829 H              1 S1                 0.0000
     22 ****         3.1586  -0.2464   1.4272 H              1 S1                 0.0000
     23 ****         4.0685  -2.3188   1.4257 H              1 S1                 0.0000
     24 ****         0.7897  -2.6938  -0.7001 H              1 S1                 0.0000
     25 ****         2.1009  -0.7397  -2.2520 H              1 S1                 0.0000
     26 ****        -0.4358  -0.9429  -2.4833 H              1 S1                 0.0000
     27 ****        -2.1744  -0.9903  -0.9933 H              1 S1                 0.0000
     28 ****        -0.2548   0.8645   1.7797 H              1 S1                 0.0000
     29 ****        -4.1653   2.8457   2.8536 LP             1 S1                 0.0000
     30 ****        -5.0268   3.1443   1.3810 LP             1 S1                 0.0000
     31 ****        -4.1077   2.5322  -0.6440 LP             1 S1                 0.0000
     32 ****        -3.0819   1.8426  -2.6036 LP             1 S1                 0.0000
     33 ****        -1.5169   1.1025  -2.5479 LP             1 S1                 0.0000
     34 ****         1.0121   1.0715   0.6572 LP             1 S1                 0.0000
     35 ****         1.9172   0.8806  -0.6884 LP             1 S1                 0.0000
     36 ****         2.9748  -2.9474   0.4566 LP             1 S1                 0.0000
     37 ****         2.5710  -2.4276   1.9510 LP             1 S1                 0.0000
     38 ****         1.5825  -2.1391  -2.8042 LP             1 S1                 0.0000
     39 ****         2.7831  -2.0669  -1.6997 LP             1 S1                 0.0000
     40 ****        -1.2829  -1.5360   0.2074 LP             1 S1                 0.0000
     41 ****        -1.5382  -2.4436  -1.1259 LP             1 S1                 0.0000
@<TRIPOS>BOND
    1    1    2 2     
    2    2   17 1     
    3    2    3 1     
    4    3    4 1     
    5    4    5 2     
    6    4    6 am    
    7    6    7 1     
    8    6   16 1     
    9    7   14 1     
   10    7    8 1     
   11    7   19 1     
   12    8    9 1     
   13    9   10 1     
   14    9   12 1     
   15    9   20 1     
   16   10   11 1     
   17   10   21 1     
   18   10   22 1     
   19   11   23 1     
   20   12   13 1     
   21   12   14 1     
   22   12   24 1     
   23   13   25 1     
   24   14   15 1     
   25   14   26 1     
   26   15   27 1     
   27   16   17 2     
   28   16   28 1     
   29   17   18 1     
   30    1   29 1     
   31    1   30 1     
   32    3   31 1     
   33    5   32 1     
   34    5   33 1     
   35    8   34 1     
   36    8   35 1     
   37   11   36 1     
   38   11   37 1     
   39   13   38 1     
   40   13   39 1     
   41   15   40 1     
   42   15   41 1     
@<TRIPOS>SUBSTRUCTURE
      1 S1             1
@<TRIPOS>SET
LONE_PAIRS      STATIC     ATOMS    <user>   **** ""
13 29 30 31 32 33 34 35 36 37 38 39 40 41
DONOR_HYDROGENS      STATIC     ATOMS    <user>   **** ""
3 23 25 27
ATOM$BLUE        STATIC     ATOMS    COLORGROUP SYSTEM
13 29 30 31 32 33 34 35 36 37 38 39 40 41
ATOM$RED        STATIC     ATOMS    COLORGROUP SYSTEM
3 23 25 27
