AV-unprocessed.smi:1627|AV-procd|sdf|6518|dock10
  -GOLD-   22720 7193D 1   1.00000     0.00000
 Structure written by MMmdl.
 44 45  0  0  0  0  0  0  0  0  2 V2000
  155.2408  134.0686  161.0011 C   0  0  0  0  0  0  0  0  0  0  0  0
  155.6539  135.4567  161.5124 C   0  0  2  0  0  0  0  0  0  0  0  0
  155.6569  135.4053  162.9367 O   0  0  0  0  0  0  0  0  0  0  0  0
  154.4294  135.0066  163.5390 C   0  0  0  0  0  0  0  0  0  0  0  0
  154.6684  133.7616  164.4019 C   0  0  0  0  0  0  0  0  0  0  0  0
  153.6280  133.5852  165.2155 F   0  0  0  0  0  0  0  0  0  0  0  0
  154.7948  132.6838  163.6283 F   0  0  0  0  0  0  0  0  0  0  0  0
  155.7672  133.9159  165.1402 F   0  0  0  0  0  0  0  0  0  0  0  0
  154.6848  136.5435  161.0190 C   0  0  0  0  0  0  0  0  0  0  0  0
  153.6427  136.2142  160.4546 O   0  0  0  0  0  0  0  0  0  0  0  0
  155.0627  137.8136  161.2591 N   0  0  0  0  0  0  0  0  0  0  0  0
  154.3992  139.0316  160.9414 C   0  0  0  0  0  0  0  0  0  0  0  0
  154.5923  140.1221  161.8179 C   0  0  0  0  0  0  0  0  0  0  0  0
  153.9544  141.3528  161.5606 C   0  0  0  0  0  0  0  0  0  0  0  0
  153.1237  141.4765  160.4241 C   0  0  0  0  0  0  0  0  0  0  0  0
  152.4446  142.6549  160.0882 N   0  0  0  0  0  0  0  0  0  0  0  0
  152.8091  143.1655  158.7690 C   0  0  0  0  0  0  0  0  0  0  0  0
  151.9053  144.3450  158.3691 C   0  0  0  0  0  0  0  0  0  0  0  0
  151.9198  145.4398  159.4480 C   0  0  0  0  0  0  0  0  0  0  0  0
  151.5559  144.8408  160.8159 C   0  0  0  0  0  0  0  0  0  0  0  0
  152.4719  143.6524  161.1549 C   0  0  0  0  0  0  0  0  0  0  0  0
  152.9605  140.4123  159.6094 N   0  3  0  0  0  0  0  0  0  0  0  0
  153.5527  139.2164  159.8195 C   0  0  0  0  0  0  0  0  0  0  0  0
  155.2036  134.0425  159.9115 H   0  0  0  0  0  0  0  0  0  0  0  0
  154.2596  133.7759  161.3772 H   0  0  0  0  0  0  0  0  0  0  0  0
  155.9547  133.3105  161.3237 H   0  0  0  0  0  0  0  0  0  0  0  0
  156.6641  135.6656  161.1545 H   0  0  0  0  0  0  0  0  0  0  0  0
  154.0410  135.8149  164.1603 H   0  0  0  0  0  0  0  0  0  0  0  0
  153.6755  134.7848  162.7828 H   0  0  0  0  0  0  0  0  0  0  0  0
  155.9581  137.9186  161.7141 H   0  0  0  0  0  0  0  0  0  0  0  0
  155.2268  140.0201  162.6863 H   0  0  0  0  0  0  0  0  0  0  0  0
  154.1026  142.1878  162.2301 H   0  0  0  0  0  0  0  0  0  0  0  0
  153.8520  143.4854  158.7768 H   0  0  0  0  0  0  0  0  0  0  0  0
  152.7245  142.3681  158.0295 H   0  0  0  0  0  0  0  0  0  0  0  0
  152.2279  144.7563  157.4122 H   0  0  0  0  0  0  0  0  0  0  0  0
  150.8840  143.9895  158.2248 H   0  0  0  0  0  0  0  0  0  0  0  0
  152.9098  145.8947  159.4973 H   0  0  0  0  0  0  0  0  0  0  0  0
  151.2226  146.2368  159.1871 H   0  0  0  0  0  0  0  0  0  0  0  0
  151.6294  145.6034  161.5918 H   0  0  0  0  0  0  0  0  0  0  0  0
  150.5168  144.5093  160.8044 H   0  0  0  0  0  0  0  0  0  0  0  0
  152.1540  143.1958  162.0933 H   0  0  0  0  0  0  0  0  0  0  0  0
  153.4940  144.0047  161.3002 H   0  0  0  0  0  0  0  0  0  0  0  0
  153.3128  138.4670  159.0815 H   0  0  0  0  0  0  0  0  0  0  0  0
  152.3562  140.5156  158.7937 H   0  0  0  0  0  0  0  0  0  0  0  0
  1  2  1  0  0  0  0
  1 24  1  0  0  0  0
  1 25  1  0  0  0  0
  1 26  1  0  0  0  0
  2  3  1  0  0  0  0
  2  9  1  0  0  0  0
  2 27  1  0  0  0  0
  3  4  1  0  0  0  0
  4  5  1  0  0  0  0
  4 28  1  0  0  0  0
  4 29  1  0  0  0  0
  5  6  1  0  0  0  0
  5  7  1  0  0  0  0
  5  8  1  0  0  0  0
  9 10  2  0  0  0  0
  9 11  1  0  0  0  0
 11 12  1  0  0  0  0
 11 30  1  0  0  0  0
 12 23  1  0  0  0  0
 12 13  2  0  0  0  0
 13 14  1  0  0  0  0
 13 31  1  0  0  0  0
 14 15  2  0  0  0  0
 14 32  1  0  0  0  0
 15 16  1  0  0  0  0
 15 22  1  0  0  0  0
 16 21  1  0  0  0  0
 16 17  1  0  0  0  0
 17 18  1  0  0  0  0
 17 33  1  0  0  0  0
 17 34  1  0  0  0  0
 18 19  1  0  0  0  0
 18 35  1  0  0  0  0
 18 36  1  0  0  0  0
 19 20  1  0  0  0  0
 19 37  1  0  0  0  0
 19 38  1  0  0  0  0
 20 21  1  0  0  0  0
 20 39  1  0  0  0  0
 20 40  1  0  0  0  0
 21 41  1  0  0  0  0
 21 42  1  0  0  0  0
 22 23  2  0  0  0  0
 22 44  1  0  0  0  0
 23 43  1  0  0  0  0
M  CHG  1  22   1
M  END
> <s_m_source_file>
AV-unprocessed.smi

> <i_m_source_file_index>
1627

> <i_lp_mmshare_version>
43012

> <i_f3d_flags>
0

> <s_epik_input>
RkMoRikoRilbQ0gyXU9bQ0BASF0oW0NIM10pQyg9TylbTkhdYzFbY0hdW2NIXWMobltjSF0xKU4yW0NIMl1bQ0gyXVtDSDJdW0NIMl1bQ0gyXTI=

> <s_epik_cmdline>
J2VwaWtfcHl0aG9uJywgJy1waCcsICc3LjAnLCAnLXRuJywgJzgnLCAnLW1hJywgJzIwMCcsICctbWV0YWxfYmluZGluZycsICctaW1hZScsICc8aW5maWxlLm1hZT4nLCAnLW9tYWUnLCAnPG91dGZpbGUubWFlPic=

> <r_lp_tautomer_probability>
0.999994

> <r_epik_Ionization_Penalty>
1.93197

> <r_epik_Ionization_Penalty_Charging>
1.93197

> <r_epik_Ionization_Penalty_Neutral>
3.16684e-06

> <r_epik_State_Penalty>
2.05557

> <r_epik_Charging_Adjusted_Penalty>
3.98754

> <i_epik_Tot_Q>
1

> <i_epik_Tot_abs_Q>
1

> <r_epik_Metal_State_Penalty>
2.08108

> <b_epik_Metal_Only>
0

> <s_lp_Force_Field>
OPLS_2005

> <r_lp_Energy>
33.3851

> <b_lp_Chiralities_Consistent>
1

> <s_lp_Variant>
AV-unprocessed.smi:1627-3

> <Gold.Version>
5.8.1

> <Gold.Id.Protein>
6NUR|6NUR_protein|mol2

> <Gold.PLP.Fitness>
48.2828

> <Gold.PLP.PLP>
-47.1612

> <Gold.PLP.part.hbond>
-1.0000

> <Gold.PLP.part.metal>
0.0000

> <Gold.PLP.part.buried>
-5.1428

> <Gold.PLP.part.nonpolar>
-41.6566

> <Gold.PLP.part.repulsive>
0.1110

> <Gold.PLP.ligand.clash>
0.0000

> <Gold.PLP.ligand.torsion>
1.0386

> <Gold.PLP.Chemscore.Hbond>
1.0000

> <Gold.PLP.Chemscore.CHOScore>
0.0000

> <Gold.PLP.Chemscore.Metal>
0.0000

> <Gold.Chemscore.Hbonds>
donor molecule, donor type, donor heavy atom, donor atom, acceptor molecule, acceptor atom, score
      P1  H  6896  6907       L1    10  1.00

> <Gold.PLP.Chemscore.Internal.Correction>
0.1988

> <Gold.Rescore>
     Score         DG    S(hbond)    S(metal)    S(lipo)     H(rot)  DE(clash)    DE(int)     intcor
     15.33     -17.27       1.00        0.00     113.87       1.90       0.15       1.79       ----

> <Gold.Chemscore.Fitness>
15.3325

> <Gold.Chemscore.DG>
-17.2689

> <Gold.Chemscore.ZeroCoef>
-5.4800

> <Gold.Chemscore.Hbond>
0.9975

> <Gold.Chemscore.Metal>
0.0000

> <Gold.Chemscore.Lipo>
113.8701

> <Gold.Chemscore.Internal_Hbond>
0.0000

> <Gold.Chemscore.DEClash>
0.1461

> <Gold.Chemscore.DEInternal>
1.7902

> <Gold.Chemscore.Rot>
1.9007

> <Gold.Chemscore.Internal.Correction>
   9.000000E+99

> <Gold.Chemscore.Hbonds>
donor molecule, donor type, donor heavy atom, donor atom, acceptor molecule, acceptor atom, score
      P1  H  6896  6907       L1    10  0.99

> <Gold.Chemscore.Hbond.Weighted>
-3.3318

> <Gold.Chemscore.Metal.Weighted>
-0.0000

> <Gold.Chemscore.Lipo.Weighted>
-13.3228

> <Gold.Chemscore.Internal_Hbond.Weighted>
0.0000

> <Gold.Chemscore.DEClash.Weighted>
0.1461

> <Gold.Chemscore.DEInternal.Weighted>
1.7902

> <Gold.Chemscore.Rot.Weighted>
4.8657

> <Gold.Chemscore.Internal.Correction.Weighted>
   9.000000E+99

> <Gold.Protein.RotatedTorsions>
[ 6907 6896 6895 6894 ] final   40.11 input  -60.11 | X-H torsion
[ 7974 7965 7964 7962 ] final  -57.50 input  175.53 | X-H torsion
[ 8008 7997 7996 7995 ] final  -16.77 input   59.86 | X-H torsion
[ 10167 10162 10161 10158 ] final   54.92 input  -65.29 | X-H torsion
[ 10718 10713 10712 10709 ] final  109.23 input   66.30 | X-H torsion
[ 10763 10752 10751 10750 ] final -141.32 input  -60.55 | X-H torsion
[ 11005 11000 10999 10996 ] final    3.96 input  -57.11 | X-H torsion

> <Gold.Protein.ActiveResidues>
 VAL166  LYS551  ARG553  GLY616  TRP617  ASP618  TYR619  PRO620  LYS621  CYS622 
 ASP623  PHE694  ASN695  SER759  ASP760  ASP761  ALA762  ILE779  LEU786  VAL792 
 PHE793  MET794  SER795  GLU796  ALA797  LYS798  CYS799  TRP800  GLU811  SER814 

> <Gold.Protein.RotatedAtoms>
  152.1782  134.8776  160.0528 H   0  0  0  0  0  0  0  0  0  0  0  0  # atno 6907 bound_to 6896
  151.9711  133.3721  159.4079 H   0  0  0  0  0  0  0  0  0  0  0  0  # atno 6908 bound_to 6896
  150.6913  134.4062  159.5185 H   0  0  0  0  0  0  0  0  0  0  0  0  # atno 6909 bound_to 6896
  145.8503  140.8357  142.9989 H   0  0  0  0  0  0  0  0  0  0  0  0  # atno 7974 bound_to 7965
  154.5028  140.2160  155.9311 H   0  0  0  0  0  0  0  0  0  0  0  0  # atno 8008 bound_to 7997
  156.1456  140.3171  155.8531 H   0  0  0  0  0  0  0  0  0  0  0  0  # atno 8009 bound_to 7997
  155.4038  140.0486  157.3026 H   0  0  0  0  0  0  0  0  0  0  0  0  # atno 8010 bound_to 7997
  140.2250  144.3748  150.6436 H   0  0  0  0  0  0  0  0  0  0  0  0  # atno 10167 bound_to 10162
  157.6551  131.0909  150.6423 H   0  0  0  0  0  0  0  0  0  0  0  0  # atno 10718 bound_to 10713
  154.8549  135.3527  154.5850 H   0  0  0  0  0  0  0  0  0  0  0  0  # atno 10763 bound_to 10752
  153.6460  135.6996  153.5230 H   0  0  0  0  0  0  0  0  0  0  0  0  # atno 10764 bound_to 10752
  153.2932  135.4228  155.1144 H   0  0  0  0  0  0  0  0  0  0  0  0  # atno 10765 bound_to 10752
  140.5873  133.9957  155.8073 H   0  0  0  0  0  0  0  0  0  0  0  0  # atno 11005 bound_to 11000
  144.6729  140.0943  143.7463 LP  0  0  0  0  0  0  0  0  0  0  0  0  # atno 17320 bound_to 7965
  145.9365  139.2640  143.1294 LP  0  0  0  0  0  0  0  0  0  0  0  0  # atno 17321 bound_to 7965
  140.6227  143.2178  151.6660 LP  0  0  0  0  0  0  0  0  0  0  0  0  # atno 17342 bound_to 10162
  139.5130  144.3456  152.0700 LP  0  0  0  0  0  0  0  0  0  0  0  0  # atno 17343 bound_to 10162
  156.6730  130.4545  149.5651 LP  0  0  0  0  0  0  0  0  0  0  0  0  # atno 17370 bound_to 10713
  156.1984  130.6604  151.1140 LP  0  0  0  0  0  0  0  0  0  0  0  0  # atno 17371 bound_to 10713
  141.0958  133.9846  157.3163 LP  0  0  0  0  0  0  0  0  0  0  0  0  # atno 17394 bound_to 11000
  139.9290  135.0200  156.8334 LP  0  0  0  0  0  0  0  0  0  0  0  0  # atno 17395 bound_to 11000

$$$$
