AV-unprocessed.smi:6|AV-procd|sdf|41|dock3
  -GOLD-   2262015153D 1   1.00000     0.00000
 Structure written by MMmdl.
 36 37  0  0  0  0  0  0  0  0  2 V2000
  153.1448  142.8936  162.4903 C   0  0  0  0  0  0  0  0  0  0  0  0
  152.8243  142.1768  161.1693 C   0  0  0  0  0  0  0  0  0  0  0  0
  154.0233  141.4036  160.5990 C   0  0  0  0  0  0  0  0  0  0  0  0
  152.2141  143.1211  160.1412 C   0  0  0  0  0  0  0  0  0  0  0  0
  152.0464  144.3940  160.5150 N   0  0  0  0  0  0  0  0  0  0  0  0
  151.5032  145.2307  159.6049 C   0  0  0  0  0  0  0  0  0  0  0  0
  151.1281  144.7895  158.3202 C   0  0  0  0  0  0  0  0  0  0  0  0
  151.3464  143.4266  158.0320 C   0  0  0  0  0  0  0  0  0  0  0  0
  151.0016  142.9277  156.7687 N   0  0  0  0  0  0  0  0  0  0  0  0
  151.2065  141.5145  156.4765 C   0  0  0  0  0  0  0  0  0  0  0  0
  150.1133  140.9248  155.5985 C   0  0  0  0  0  0  0  0  0  0  0  0
  149.0648  141.6568  155.1672 C   0  0  0  0  0  0  0  0  0  0  0  0
  148.0672  141.1241  154.3347 N   0  0  0  0  0  0  0  0  0  0  0  0
  146.9634  141.9967  153.9269 C   0  0  0  0  0  0  0  0  0  0  0  0
  148.1391  139.8272  153.9208 C   0  0  0  0  0  0  0  0  0  0  0  0
  147.2509  139.3875  153.1895 O   0  0  0  0  0  0  0  0  0  0  0  0
  149.1970  139.0647  154.3339 N   0  5  0  0  0  0  0  0  0  0  0  0
  150.1928  139.5319  155.1430 C   0  0  0  0  0  0  0  0  0  0  0  0
  151.1383  138.8266  155.4941 O   0  0  0  0  0  0  0  0  0  0  0  0
  151.8942  142.5978  158.9522 N   0  0  0  0  0  0  0  0  0  0  0  0
  152.2544  143.3669  162.9051 H   0  0  0  0  0  0  0  0  0  0  0  0
  153.8998  143.6682  162.3507 H   0  0  0  0  0  0  0  0  0  0  0  0
  153.5236  142.1928  163.2343 H   0  0  0  0  0  0  0  0  0  0  0  0
  152.0664  141.4282  161.4078 H   0  0  0  0  0  0  0  0  0  0  0  0
  153.7406  140.8482  159.7044 H   0  0  0  0  0  0  0  0  0  0  0  0
  154.4093  140.6872  161.3246 H   0  0  0  0  0  0  0  0  0  0  0  0
  154.8395  142.0752  160.3304 H   0  0  0  0  0  0  0  0  0  0  0  0
  151.3679  146.2598  159.9028 H   0  0  0  0  0  0  0  0  0  0  0  0
  150.6954  145.4641  157.5962 H   0  0  0  0  0  0  0  0  0  0  0  0
  150.2559  143.3946  156.2723 H   0  0  0  0  0  0  0  0  0  0  0  0
  152.1651  141.3847  155.9724 H   0  0  0  0  0  0  0  0  0  0  0  0
  151.2592  140.9538  157.4107 H   0  0  0  0  0  0  0  0  0  0  0  0
  148.9288  142.6943  155.4349 H   0  0  0  0  0  0  0  0  0  0  0  0
  146.0089  141.5835  154.2558 H   0  0  0  0  0  0  0  0  0  0  0  0
  146.9357  142.0943  152.8407 H   0  0  0  0  0  0  0  0  0  0  0  0
  147.0456  143.0008  154.3440 H   0  0  0  0  0  0  0  0  0  0  0  0
  1  2  1  0  0  0  0
  1 21  1  0  0  0  0
  1 22  1  0  0  0  0
  1 23  1  0  0  0  0
  2  3  1  0  0  0  0
  2  4  1  0  0  0  0
  2 24  1  0  0  0  0
  3 25  1  0  0  0  0
  3 26  1  0  0  0  0
  3 27  1  0  0  0  0
  4 20  1  0  0  0  0
  4  5  2  0  0  0  0
  5  6  1  0  0  0  0
  6  7  2  0  0  0  0
  6 28  1  0  0  0  0
  7  8  1  0  0  0  0
  7 29  1  0  0  0  0
  8  9  1  0  0  0  0
  8 20  2  0  0  0  0
  9 10  1  0  0  0  0
  9 30  1  0  0  0  0
 10 11  1  0  0  0  0
 10 31  1  0  0  0  0
 10 32  1  0  0  0  0
 11 18  1  0  0  0  0
 11 12  2  0  0  0  0
 12 13  1  0  0  0  0
 12 33  1  0  0  0  0
 13 14  1  0  0  0  0
 13 15  1  0  0  0  0
 14 34  1  0  0  0  0
 14 35  1  0  0  0  0
 14 36  1  0  0  0  0
 15 16  2  0  0  0  0
 15 17  1  0  0  0  0
 17 18  1  0  0  0  0
 18 19  2  0  0  0  0
M  CHG  1  17  -1
M  END
> <s_m_source_file>
AV-unprocessed.smi

> <i_m_source_file_index>
6

> <i_lp_mmshare_version>
43012

> <i_f3d_flags>
0

> <s_epik_input>
W0NIM11bQ0hdKFtDSDNdKWMxbltjSF1bY0hdYyhuMSlbTkhdW0NIMl1jMltjSF1uKFtDSDNdKWMoPU8pW25IXWMyPU8=

> <s_epik_cmdline>
J2VwaWtfcHl0aG9uJywgJy1waCcsICc3LjAnLCAnLXRuJywgJzgnLCAnLW1hJywgJzIwMCcsICctbWV0YWxfYmluZGluZycsICctaW1hZScsICc8aW5maWxlLm1hZT4nLCAnLW9tYWUnLCAnPG91dGZpbGUubWFlPic=

> <r_lp_tautomer_probability>
0.999537

> <r_epik_Ionization_Penalty>
4.10508

> <r_epik_Ionization_Penalty_Charging>
6.01221e-07

> <r_epik_Ionization_Penalty_Neutral>
4.10508

> <r_epik_State_Penalty>
4.24889

> <r_epik_Charging_Adjusted_Penalty>
4.24889

> <i_epik_Tot_Q>
-1

> <i_epik_Tot_abs_Q>
1

> <r_epik_Metal_State_Penalty>
1.04429

> <b_epik_Metal_Only>
1

> <s_lp_Force_Field>
OPLS_2005

> <r_lp_Energy>
13.2658

> <b_lp_Chiralities_Consistent>
1

> <s_lp_Variant>
AV-unprocessed.smi:6-3

> <Gold.Version>
5.8.1

> <Gold.Id.Protein>
6NUR|6NUR_protein|mol2

> <Gold.PLP.Fitness>
51.5683

> <Gold.PLP.PLP>
-45.9557

> <Gold.PLP.part.hbond>
-1.0000

> <Gold.PLP.part.metal>
0.0000

> <Gold.PLP.part.buried>
-6.5043

> <Gold.PLP.part.nonpolar>
-39.6185

> <Gold.PLP.part.repulsive>
1.3783

> <Gold.PLP.ligand.clash>
0.0000

> <Gold.PLP.ligand.torsion>
0.2354

> <Gold.PLP.Chemscore.Hbond>
1.0000

> <Gold.PLP.Chemscore.CHOScore>
1.0000

> <Gold.PLP.Chemscore.Metal>
0.0000

> <Gold.Chemscore.Hbonds>
donor molecule, donor type, donor heavy atom, donor atom, acceptor molecule, acceptor atom, score
      L1  H     9    30       P1  8028  1.00
      L1  C    12    33       P1  8028  1.00

> <Gold.PLP.Chemscore.Internal.Correction>
0.0835

> <Gold.Rescore>
     Score         DG    S(hbond)    S(metal)    S(lipo)     H(rot)  DE(clash)    DE(int)     intcor
     14.42     -14.69       1.00        0.00      85.75       1.62       0.05       0.21       ----

> <Gold.Chemscore.Fitness>
14.4245

> <Gold.Chemscore.DG>
-14.6898

> <Gold.Chemscore.ZeroCoef>
-5.4800

> <Gold.Chemscore.Hbond>
0.9951

> <Gold.Chemscore.Metal>
0.0000

> <Gold.Chemscore.Lipo>
85.7473

> <Gold.Chemscore.Internal_Hbond>
0.0000

> <Gold.Chemscore.DEClash>
0.0509

> <Gold.Chemscore.DEInternal>
0.2144

> <Gold.Chemscore.Rot>
1.6196

> <Gold.Chemscore.Internal.Correction>
   9.000000E+99

> <Gold.Chemscore.Hbonds>
donor molecule, donor type, donor heavy atom, donor atom, acceptor molecule, acceptor atom, score
      L1  H     9    30       P1  8028  0.97

> <Gold.Chemscore.Hbond.Weighted>
-3.3236

> <Gold.Chemscore.Metal.Weighted>
-0.0000

> <Gold.Chemscore.Lipo.Weighted>
-10.0324

> <Gold.Chemscore.Internal_Hbond.Weighted>
0.0000

> <Gold.Chemscore.DEClash.Weighted>
0.0509

> <Gold.Chemscore.DEInternal.Weighted>
0.2144

> <Gold.Chemscore.Rot.Weighted>
4.1463

> <Gold.Chemscore.Internal.Correction.Weighted>
   9.000000E+99

> <Gold.Protein.RotatedTorsions>
[ 6907 6896 6895 6894 ] final  120.21 input  -60.11 | X-H torsion
[ 7974 7965 7964 7962 ] final -153.61 input  175.53 | X-H torsion
[ 8008 7997 7996 7995 ] final  117.21 input   59.86 | X-H torsion
[ 10167 10162 10161 10158 ] final   35.42 input  -65.29 | X-H torsion
[ 10718 10713 10712 10709 ] final  121.93 input   66.30 | X-H torsion
[ 10763 10752 10751 10750 ] final   71.38 input  -60.55 | X-H torsion
[ 11005 11000 10999 10996 ] final   27.55 input  -57.11 | X-H torsion

> <Gold.Protein.ActiveResidues>
 VAL166  LYS551  ARG553  GLY616  TRP617  ASP618  TYR619  PRO620  LYS621  CYS622 
 ASP623  PHE694  ASN695  SER759  ASP760  ASP761  ALA762  ILE779  LEU786  VAL792 
 PHE793  MET794  SER795  GLU796  ALA797  LYS798  CYS799  TRP800  GLU811  SER814 

> <Gold.Protein.RotatedAtoms>
  152.4415  133.7457  159.6665 H   0  0  0  0  0  0  0  0  0  0  0  0  # atno 6907 bound_to 6896
  150.8307  133.8086  159.3106 H   0  0  0  0  0  0  0  0  0  0  0  0  # atno 6908 bound_to 6896
  151.5741  135.1064  160.0054 H   0  0  0  0  0  0  0  0  0  0  0  0  # atno 6909 bound_to 6896
  144.7732  140.4502  143.5892 H   0  0  0  0  0  0  0  0  0  0  0  0  # atno 7974 bound_to 7965
  156.2482  140.2901  156.0644 H   0  0  0  0  0  0  0  0  0  0  0  0  # atno 8008 bound_to 7997
  155.1740  140.0402  157.2886 H   0  0  0  0  0  0  0  0  0  0  0  0  # atno 8009 bound_to 7997
  154.6306  140.2498  155.7446 H   0  0  0  0  0  0  0  0  0  0  0  0  # atno 8010 bound_to 7997
  140.4223  144.1442  150.6149 H   0  0  0  0  0  0  0  0  0  0  0  0  # atno 10167 bound_to 10162
  157.5781  131.1077  150.8240 H   0  0  0  0  0  0  0  0  0  0  0  0  # atno 10718 bound_to 10713
  153.0396  135.5139  154.7585 H   0  0  0  0  0  0  0  0  0  0  0  0  # atno 10763 bound_to 10752
  154.6533  135.2928  154.9961 H   0  0  0  0  0  0  0  0  0  0  0  0  # atno 10764 bound_to 10752
  154.0838  135.6660  153.4894 H   0  0  0  0  0  0  0  0  0  0  0  0  # atno 10765 bound_to 10752
  140.3250  134.2501  155.7711 H   0  0  0  0  0  0  0  0  0  0  0  0  # atno 11005 bound_to 11000
  145.6263  139.1530  143.2994 LP  0  0  0  0  0  0  0  0  0  0  0  0  # atno 17320 bound_to 7965
  146.1893  140.6370  142.9153 LP  0  0  0  0  0  0  0  0  0  0  0  0  # atno 17321 bound_to 7965
  140.4520  143.2483  151.9335 LP  0  0  0  0  0  0  0  0  0  0  0  0  # atno 17342 bound_to 10162
  139.4783  144.5553  151.8323 LP  0  0  0  0  0  0  0  0  0  0  0  0  # atno 17343 bound_to 10162
  156.8694  130.5141  149.5298 LP  0  0  0  0  0  0  0  0  0  0  0  0  # atno 17370 bound_to 10713
  156.0826  130.5832  150.9590 LP  0  0  0  0  0  0  0  0  0  0  0  0  # atno 17371 bound_to 10713
  141.2077  133.7797  157.0101 LP  0  0  0  0  0  0  0  0  0  0  0  0  # atno 17394 bound_to 11000
  140.0909  134.9593  157.1774 LP  0  0  0  0  0  0  0  0  0  0  0  0  # atno 17395 bound_to 11000

$$$$
