AV-unprocessed.smi:1109|AV-procd|sdf|4789|dock4
  -GOLD-   22720 3333D 1   1.00000     0.00000
 Structure written by MMmdl.
 45 46  0  0  0  0  0  0  0  0  1 V2000
  147.0328  135.8451  161.2540 C   0  0  0  0  0  0  0  0  0  0  0  0
  147.4099  136.7624  160.2432 O   0  0  0  0  0  0  0  0  0  0  0  0
  148.2457  136.1749  159.2584 C   0  0  0  0  0  0  0  0  0  0  0  0
  147.9518  136.8121  157.8913 C   0  0  0  0  0  0  0  0  0  0  0  0
  149.1807  137.0341  157.1220 N   0  0  0  0  0  0  0  0  0  0  0  0
  149.9723  138.0511  157.6201 N   0  0  0  0  0  0  0  0  0  0  0  0
  151.0820  138.3674  157.0404 C   0  0  0  0  0  0  0  0  0  0  0  0
  151.9953  139.4336  157.5653 C   0  0  0  0  0  0  0  0  0  0  0  0
  153.1795  139.1401  157.7401 O   0  0  0  0  0  0  0  0  0  0  0  0
  151.5044  140.6678  157.9064 N   0  0  0  0  0  0  0  0  0  0  0  0
  150.2684  141.2613  157.3454 C   0  0  0  0  0  0  0  0  0  0  0  0
  150.3023  141.5501  155.8327 C   0  0  0  0  0  0  0  0  0  0  0  0
  149.6982  142.6498  155.3702 N   0  0  0  0  0  0  0  0  0  0  0  0
  150.8725  140.7648  155.0798 O   0  0  0  0  0  0  0  0  0  0  0  0
  152.2945  141.6274  158.7192 C   0  0  0  0  0  0  0  0  0  0  0  0
  152.8423  141.0297  160.0352 C   0  0  0  0  0  0  0  0  0  0  0  0
  152.2718  141.8900  161.1669 C   0  0  0  0  0  0  0  0  0  0  0  0
  152.0001  143.2489  160.5260 C   0  0  0  0  0  0  0  0  0  0  0  0
  151.5409  142.9214  159.1046 C   0  0  0  0  0  0  0  0  0  0  0  0
  151.5265  137.6429  155.8606 C   0  0  0  0  0  0  0  0  0  0  0  0
  150.7557  136.6356  155.3944 C   0  0  0  0  0  0  0  0  0  0  0  0
  149.4959  136.2622  156.0396 C   0  0  0  0  0  0  0  0  0  0  0  0
  148.7857  135.3371  155.6473 O   0  0  0  0  0  0  0  0  0  0  0  0
  146.3954  136.3451  161.9834 H   0  0  0  0  0  0  0  0  0  0  0  0
  147.9061  135.4572  161.7797 H   0  0  0  0  0  0  0  0  0  0  0  0
  146.4736  135.0068  160.8368 H   0  0  0  0  0  0  0  0  0  0  0  0
  149.2970  136.3007  159.5221 H   0  0  0  0  0  0  0  0  0  0  0  0
  148.0493  135.1030  159.2096 H   0  0  0  0  0  0  0  0  0  0  0  0
  147.2644  136.1770  157.3301 H   0  0  0  0  0  0  0  0  0  0  0  0
  147.4200  137.7551  158.0321 H   0  0  0  0  0  0  0  0  0  0  0  0
  149.4351  140.5815  157.5296 H   0  0  0  0  0  0  0  0  0  0  0  0
  149.9778  142.1689  157.8756 H   0  0  0  0  0  0  0  0  0  0  0  0
  149.7155  142.8572  154.3823 H   0  0  0  0  0  0  0  0  0  0  0  0
  149.2308  143.2727  156.0128 H   0  0  0  0  0  0  0  0  0  0  0  0
  153.1633  141.9515  158.1432 H   0  0  0  0  0  0  0  0  0  0  0  0
  152.5989  139.9752  160.1696 H   0  0  0  0  0  0  0  0  0  0  0  0
  153.9306  141.1017  160.0379 H   0  0  0  0  0  0  0  0  0  0  0  0
  151.3349  141.4601  161.5226 H   0  0  0  0  0  0  0  0  0  0  0  0
  152.9467  141.9580  162.0204 H   0  0  0  0  0  0  0  0  0  0  0  0
  151.2657  143.8347  161.0793 H   0  0  0  0  0  0  0  0  0  0  0  0
  152.9252  143.8253  160.4876 H   0  0  0  0  0  0  0  0  0  0  0  0
  151.7529  143.7370  158.4127 H   0  0  0  0  0  0  0  0  0  0  0  0
  150.4596  142.7875  159.1047 H   0  0  0  0  0  0  0  0  0  0  0  0
  152.4491  137.9019  155.3611 H   0  0  0  0  0  0  0  0  0  0  0  0
  151.0753  136.0906  154.5183 H   0  0  0  0  0  0  0  0  0  0  0  0
  1  2  1  0  0  0  0
  1 24  1  0  0  0  0
  1 25  1  0  0  0  0
  1 26  1  0  0  0  0
  2  3  1  0  0  0  0
  3  4  1  0  0  0  0
  3 27  1  0  0  0  0
  3 28  1  0  0  0  0
  4  5  1  0  0  0  0
  4 29  1  0  0  0  0
  4 30  1  0  0  0  0
  5 22  1  0  0  0  0
  5  6  1  0  0  0  0
  6  7  2  0  0  0  0
  7  8  1  0  0  0  0
  7 20  1  0  0  0  0
  8  9  2  0  0  0  0
  8 10  1  0  0  0  0
 10 11  1  0  0  0  0
 10 15  1  0  0  0  0
 11 12  1  0  0  0  0
 11 31  1  0  0  0  0
 11 32  1  0  0  0  0
 12 13  1  0  0  0  0
 12 14  2  0  0  0  0
 13 33  1  0  0  0  0
 13 34  1  0  0  0  0
 15 19  1  0  0  0  0
 15 16  1  0  0  0  0
 15 35  1  0  0  0  0
 16 17  1  0  0  0  0
 16 36  1  0  0  0  0
 16 37  1  0  0  0  0
 17 18  1  0  0  0  0
 17 38  1  0  0  0  0
 17 39  1  0  0  0  0
 18 19  1  0  0  0  0
 18 40  1  0  0  0  0
 18 41  1  0  0  0  0
 19 42  1  0  0  0  0
 19 43  1  0  0  0  0
 20 21  2  0  0  0  0
 20 44  1  0  0  0  0
 21 22  1  0  0  0  0
 21 45  1  0  0  0  0
 22 23  2  0  0  0  0
M  END
> <s_m_source_file>
AV-unprocessed.smi

> <i_m_source_file_index>
1109

> <i_lp_mmshare_version>
43012

> <i_f3d_flags>
0

> <s_epik_input>
W0NIM11PW0NIMl1bQ0gyXW4xbmMoW2NIXVtjSF1jMT1PKUMoPU8pTihbQ0gyXUMoPU8pW05IMl0pW0NIXTJbQ0gyXVtDSDJdW0NIMl1bQ0gyXTI=

> <s_epik_cmdline>
J2VwaWtfcHl0aG9uJywgJy1waCcsICc3LjAnLCAnLXRuJywgJzgnLCAnLW1hJywgJzIwMCcsICctbWV0YWxfYmluZGluZycsICctaW1hZScsICc8aW5maWxlLm1hZT4nLCAnLW9tYWUnLCAnPG91dGZpbGUubWFlPic=

> <r_lp_tautomer_probability>
1

> <r_epik_Ionization_Penalty>
6.63696e-08

> <r_epik_Ionization_Penalty_Charging>
1.13312e-09

> <r_epik_Ionization_Penalty_Neutral>
6.52365e-08

> <r_epik_State_Penalty>
-0

> <r_epik_Charging_Adjusted_Penalty>
1.13312e-09

> <i_epik_Tot_Q>
0

> <i_epik_Tot_abs_Q>
0

> <r_epik_Metal_State_Penalty>
-0

> <b_epik_Metal_Only>
0

> <s_lp_Force_Field>
OPLS_2005

> <r_lp_Energy>
53.0262

> <b_lp_Chiralities_Consistent>
1

> <s_lp_Variant>
AV-unprocessed.smi:1109-1

> <Gold.Version>
5.8.1

> <Gold.Id.Protein>
6NUR|6NUR_protein|mol2

> <Gold.PLP.Fitness>
49.4902

> <Gold.PLP.PLP>
-40.5204

> <Gold.PLP.part.hbond>
-5.0000

> <Gold.PLP.part.metal>
0.0000

> <Gold.PLP.part.buried>
-5.7604

> <Gold.PLP.part.nonpolar>
-30.1384

> <Gold.PLP.part.repulsive>
0.2295

> <Gold.PLP.ligand.clash>
0.6111

> <Gold.PLP.ligand.torsion>
2.2970

> <Gold.PLP.Chemscore.Hbond>
4.5520

> <Gold.PLP.Chemscore.CHOScore>
0.0000

> <Gold.PLP.Chemscore.Metal>
0.0000

> <Gold.Chemscore.Hbonds>
donor molecule, donor type, donor heavy atom, donor atom, acceptor molecule, acceptor atom, score
      L1  H    13    34       P1  8028  0.46
      P1  H  6934  6947       L1     2  0.15
      P1  H  7989  7998       L1    14  0.85
      P1  H  7997  8009       L1     9  1.00

> <Gold.PLP.Chemscore.Internal.Correction>
0.5189

> <Gold.Rescore>
     Score         DG    S(hbond)    S(metal)    S(lipo)     H(rot)  DE(clash)    DE(int)     intcor
     18.19     -20.02       3.36        0.00      85.22       2.61       0.24       1.59       ----

> <Gold.Chemscore.Fitness>
18.1864

> <Gold.Chemscore.DG>
-20.0159

> <Gold.Chemscore.ZeroCoef>
-5.4800

> <Gold.Chemscore.Hbond>
3.3641

> <Gold.Chemscore.Metal>
0.0000

> <Gold.Chemscore.Lipo>
85.2166

> <Gold.Chemscore.Internal_Hbond>
0.0000

> <Gold.Chemscore.DEClash>
0.2414

> <Gold.Chemscore.DEInternal>
1.5881

> <Gold.Chemscore.Rot>
2.6057

> <Gold.Chemscore.Internal.Correction>
   9.000000E+99

> <Gold.Chemscore.Hbonds>
donor molecule, donor type, donor heavy atom, donor atom, acceptor molecule, acceptor atom, score
      L1  H    13    34       P1  8028  0.43
      P1  H  6934  6947       L1     2  0.15
      P1  H  7989  7998       L1    14  0.85
      P1  H  7997  8009       L1     9  0.97

> <Gold.Chemscore.Hbond.Weighted>
-11.2362

> <Gold.Chemscore.Metal.Weighted>
-0.0000

> <Gold.Chemscore.Lipo.Weighted>
-9.9703

> <Gold.Chemscore.Internal_Hbond.Weighted>
0.0000

> <Gold.Chemscore.DEClash.Weighted>
0.2414

> <Gold.Chemscore.DEInternal.Weighted>
1.5881

> <Gold.Chemscore.Rot.Weighted>
6.6707

> <Gold.Chemscore.Internal.Correction.Weighted>
   9.000000E+99

> <Gold.Protein.RotatedTorsions>
[ 6907 6896 6895 6894 ] final -158.58 input  -60.11 | X-H torsion
[ 7974 7965 7964 7962 ] final   59.66 input  175.53 | X-H torsion
[ 8008 7997 7996 7995 ] final  169.45 input   59.86 | X-H torsion
[ 10167 10162 10161 10158 ] final -138.95 input  -65.29 | X-H torsion
[ 10718 10713 10712 10709 ] final -122.50 input   66.30 | X-H torsion
[ 10763 10752 10751 10750 ] final  -69.87 input  -60.55 | X-H torsion
[ 11005 11000 10999 10996 ] final  111.17 input  -57.11 | X-H torsion

> <Gold.Protein.ActiveResidues>
 VAL166  LYS551  ARG553  GLY616  TRP617  ASP618  TYR619  PRO620  LYS621  CYS622 
 ASP623  PHE694  ASN695  SER759  ASP760  ASP761  ALA762  ILE779  LEU786  VAL792 
 PHE793  MET794  SER795  GLU796  ALA797  LYS798  CYS799  TRP800  GLU811  SER814 

> <Gold.Protein.RotatedAtoms>
  151.3204  133.4042  159.2653 H   0  0  0  0  0  0  0  0  0  0  0  0  # atno 6907 bound_to 6896
  151.0039  134.9344  159.7980 H   0  0  0  0  0  0  0  0  0  0  0  0  # atno 6908 bound_to 6896
  152.5282  134.3169  159.9186 H   0  0  0  0  0  0  0  0  0  0  0  0  # atno 6909 bound_to 6896
  145.9047  139.3608  143.0571 H   0  0  0  0  0  0  0  0  0  0  0  0  # atno 7974 bound_to 7965
  156.1456  140.1564  156.8852 H   0  0  0  0  0  0  0  0  0  0  0  0  # atno 8008 bound_to 7997
  154.5025  140.0821  156.7865 H   0  0  0  0  0  0  0  0  0  0  0  0  # atno 8009 bound_to 7997
  155.3995  140.3413  155.4258 H   0  0  0  0  0  0  0  0  0  0  0  0  # atno 8010 bound_to 7997
  139.8428  143.7300  152.2662 H   0  0  0  0  0  0  0  0  0  0  0  0  # atno 10167 bound_to 10162
  156.1424  130.6475  150.9790 H   0  0  0  0  0  0  0  0  0  0  0  0  # atno 10718 bound_to 10713
  154.4096  135.6012  153.5945 H   0  0  0  0  0  0  0  0  0  0  0  0  # atno 10763 bound_to 10752
  152.9790  135.5926  154.4086 H   0  0  0  0  0  0  0  0  0  0  0  0  # atno 10764 bound_to 10752
  154.3897  135.2842  155.2141 H   0  0  0  0  0  0  0  0  0  0  0  0  # atno 10765 bound_to 10752
  139.8898  134.9502  156.6392 H   0  0  0  0  0  0  0  0  0  0  0  0  # atno 11005 bound_to 11000
  145.8747  140.9399  143.0632 LP  0  0  0  0  0  0  0  0  0  0  0  0  # atno 17320 bound_to 7965
  144.6738  140.0701  143.7473 LP  0  0  0  0  0  0  0  0  0  0  0  0  # atno 17321 bound_to 7965
  139.7542  144.7525  151.0460 LP  0  0  0  0  0  0  0  0  0  0  0  0  # atno 17342 bound_to 10162
  140.7796  143.4824  151.0000 LP  0  0  0  0  0  0  0  0  0  0  0  0  # atno 17343 bound_to 10162
  157.6587  131.0885  150.7889 LP  0  0  0  0  0  0  0  0  0  0  0  0  # atno 17370 bound_to 10713
  156.7963  130.4906  149.5377 LP  0  0  0  0  0  0  0  0  0  0  0  0  # atno 17371 bound_to 10713
  140.7607  133.8820  155.8416 LP  0  0  0  0  0  0  0  0  0  0  0  0  # atno 17394 bound_to 11000
  140.9924  134.1260  157.4395 LP  0  0  0  0  0  0  0  0  0  0  0  0  # atno 17395 bound_to 11000

$$$$
