AV-unprocessed.smi:3029|AV-procd|sdf|11525|dock1
  -GOLD-   2272016463D 1   1.00000     0.00000
 Structure written by MMmdl.
 42 43  0  0  0  0  0  0  0  0  4 V2000
  150.1730  139.8656  153.7434 O   0  0  0  0  0  0  0  0  0  0  0  0
  150.5987  139.0531  154.5638 C   0  0  0  0  0  0  0  0  0  0  0  0
  150.6361  137.6134  154.2879 C   0  0  0  0  0  0  0  0  0  0  0  0
  151.0839  136.7288  155.2005 C   0  0  0  0  0  0  0  0  0  0  0  0
  151.5470  137.1816  156.4976 C   0  0  0  0  0  0  0  0  0  0  0  0
  152.0032  136.2399  157.4957 N   0  3  0  0  0  0  0  0  0  0  0  0
  151.8745  136.5234  158.6829 O   0  0  0  0  0  0  0  0  0  0  0  0
  152.5010  135.1829  157.1230 O   0  5  0  0  0  0  0  0  0  0  0  0
  151.5228  138.5061  156.7443 C   0  0  0  0  0  0  0  0  0  0  0  0
  151.0582  139.4360  155.7934 N   0  0  0  0  0  0  0  0  0  0  0  0
  151.0547  140.8551  156.1850 C   0  0  0  0  0  0  0  0  0  0  0  0
  150.2555  141.1091  157.4784 C   0  0  0  0  0  0  0  0  0  0  0  0
  150.6773  142.3602  158.1451 N   0  3  0  0  0  0  0  0  0  0  0  0
  151.9285  142.2785  158.9314 C   0  0  2  0  0  0  0  0  0  0  0  0
  152.0703  140.8673  159.5443 C   0  0  0  0  0  0  0  0  0  0  0  0
  153.3212  140.7420  160.4223 C   0  0  0  0  0  0  0  0  0  0  0  0
  153.3152  141.8041  161.5259 C   0  0  0  0  0  0  0  0  0  0  0  0
  153.2099  143.2115  160.9245 C   0  0  0  0  0  0  0  0  0  0  0  0
  151.9585  143.3799  160.0307 C   0  0  1  0  0  0  0  0  0  0  0  0
  151.9031  144.8194  159.4563 C   0  0  0  0  0  0  0  0  0  0  0  0
  150.6799  145.0974  159.0051 F   0  0  0  0  0  0  0  0  0  0  0  0
  152.2334  145.7237  160.3782 F   0  0  0  0  0  0  0  0  0  0  0  0
  152.7684  144.9420  158.4500 F   0  0  0  0  0  0  0  0  0  0  0  0
  150.2961  137.2542  153.3276 H   0  0  0  0  0  0  0  0  0  0  0  0
  151.0938  135.6778  154.9510 H   0  0  0  0  0  0  0  0  0  0  0  0
  151.8398  138.9411  157.6811 H   0  0  0  0  0  0  0  0  0  0  0  0
  152.0772  141.2120  156.3174 H   0  0  0  0  0  0  0  0  0  0  0  0
  150.6497  141.4668  155.3768 H   0  0  0  0  0  0  0  0  0  0  0  0
  149.1911  141.1543  157.2481 H   0  0  0  0  0  0  0  0  0  0  0  0
  150.3948  140.2721  158.1636 H   0  0  0  0  0  0  0  0  0  0  0  0
  150.8312  143.0420  157.4154 H   0  0  0  0  0  0  0  0  0  0  0  0
  152.7701  142.4546  158.2596 H   0  0  0  0  0  0  0  0  0  0  0  0
  151.1876  140.6350  160.1420 H   0  0  0  0  0  0  0  0  0  0  0  0
  152.1167  140.1120  158.7597 H   0  0  0  0  0  0  0  0  0  0  0  0
  153.3677  139.7460  160.8641 H   0  0  0  0  0  0  0  0  0  0  0  0
  154.2162  140.8520  159.8085 H   0  0  0  0  0  0  0  0  0  0  0  0
  152.4787  141.6288  162.2039 H   0  0  0  0  0  0  0  0  0  0  0  0
  154.2225  141.7225  162.1252 H   0  0  0  0  0  0  0  0  0  0  0  0
  153.1934  143.9396  161.7357 H   0  0  0  0  0  0  0  0  0  0  0  0
  154.1090  143.4220  160.3438 H   0  0  0  0  0  0  0  0  0  0  0  0
  151.0829  143.2449  160.6682 H   0  0  0  0  0  0  0  0  0  0  0  0
  149.9317  142.6941  158.7392 H   0  0  0  0  0  0  0  0  0  0  0  0
  1  2  2  0  0  0  0
  2 10  1  0  0  0  0
  2  3  1  0  0  0  0
  3  4  2  0  0  0  0
  3 24  1  0  0  0  0
  4  5  1  0  0  0  0
  4 25  1  0  0  0  0
  5  6  1  0  0  0  0
  5  9  2  0  0  0  0
  6  7  2  0  0  0  0
  6  8  1  0  0  0  0
  9 10  1  0  0  0  0
  9 26  1  0  0  0  0
 10 11  1  0  0  0  0
 11 12  1  0  0  0  0
 11 27  1  0  0  0  0
 11 28  1  0  0  0  0
 12 13  1  0  0  0  0
 12 29  1  0  0  0  0
 12 30  1  0  0  0  0
 13 14  1  0  0  0  0
 13 31  1  0  0  0  0
 13 42  1  0  0  0  0
 14 19  1  0  0  0  0
 14 15  1  0  0  0  0
 14 32  1  0  0  0  0
 15 16  1  0  0  0  0
 15 33  1  0  0  0  0
 15 34  1  0  0  0  0
 16 17  1  0  0  0  0
 16 35  1  0  0  0  0
 16 36  1  0  0  0  0
 17 18  1  0  0  0  0
 17 37  1  0  0  0  0
 17 38  1  0  0  0  0
 18 19  1  0  0  0  0
 18 39  1  0  0  0  0
 18 40  1  0  0  0  0
 19 20  1  0  0  0  0
 19 41  1  0  0  0  0
 20 21  1  0  0  0  0
 20 22  1  0  0  0  0
 20 23  1  0  0  0  0
M  CHG  1   6   1
M  CHG  1   8  -1
M  CHG  1  13   1
M  END
> <s_m_source_file>
AV-unprocessed.smi

> <i_m_source_file_index>
3029

> <i_lp_mmshare_version>
43012

> <i_f3d_flags>
0

> <s_epik_input>
Tz1jMVtjSF1bY0hdYyhbTitdKD1PKVtPLV0pW2NIXW4xW0NIMl1bQ0gyXVtOSF1bQ0BASF0yW0NIMl1bQ0gyXVtDSDJdW0NIMl1bQ0BIXTJDKEYpKEYpRg==

> <s_epik_cmdline>
J2VwaWtfcHl0aG9uJywgJy1waCcsICc3LjAnLCAnLXRuJywgJzgnLCAnLW1hJywgJzIwMCcsICctbWV0YWxfYmluZGluZycsICctaW1hZScsICc8aW5maWxlLm1hZT4nLCAnLW9tYWUnLCAnPG91dGZpbGUubWFlPic=

> <r_lp_tautomer_probability>
1

> <r_epik_Ionization_Penalty>
0.037386

> <r_epik_Ionization_Penalty_Charging>
0.037386

> <r_epik_Ionization_Penalty_Neutral>
0

> <r_epik_State_Penalty>
0.0312892

> <r_epik_Charging_Adjusted_Penalty>
0.0686752

> <i_epik_Tot_Q>
1

> <i_epik_Tot_abs_Q>
3

> <r_epik_Metal_State_Penalty>
0.0312892

> <b_epik_Metal_Only>
0

> <s_lp_Force_Field>
OPLS_2005

> <r_lp_Energy>
38.6527

> <b_lp_Chiralities_Consistent>
1

> <s_lp_Variant>
AV-unprocessed.smi:3029-1

> <Gold.Version>
5.8.1

> <Gold.Id.Protein>
6NUR|6NUR_protein|mol2

> <Gold.PLP.Fitness>
50.7169

> <Gold.PLP.PLP>
-45.4547

> <Gold.PLP.part.hbond>
-3.0891

> <Gold.PLP.part.metal>
0.0000

> <Gold.PLP.part.buried>
-5.3187

> <Gold.PLP.part.nonpolar>
-40.0456

> <Gold.PLP.part.repulsive>
2.9652

> <Gold.PLP.ligand.clash>
0.0000

> <Gold.PLP.ligand.torsion>
1.2041

> <Gold.PLP.Chemscore.Hbond>
2.5392

> <Gold.PLP.Chemscore.CHOScore>
0.0000

> <Gold.PLP.Chemscore.Metal>
0.0000

> <Gold.Chemscore.Hbonds>
donor molecule, donor type, donor heavy atom, donor atom, acceptor molecule, acceptor atom, score
      P1  H  6896  6908       L1     7  0.69
      P1  H  7989  7998       L1     1  0.86
      P1  H 10752 10763       L1     8  0.93

> <Gold.PLP.Chemscore.Internal.Correction>
0.0528

> <Gold.Rescore>
     Score         DG    S(hbond)    S(metal)    S(lipo)     H(rot)  DE(clash)    DE(int)     intcor
     13.82     -19.44       1.99        0.00     104.24       1.90       2.58       3.05       ----

> <Gold.Chemscore.Fitness>
13.8167

> <Gold.Chemscore.DG>
-19.4437

> <Gold.Chemscore.ZeroCoef>
-5.4800

> <Gold.Chemscore.Hbond>
1.9883

> <Gold.Chemscore.Metal>
0.0000

> <Gold.Chemscore.Lipo>
104.2419

> <Gold.Chemscore.Internal_Hbond>
0.0000

> <Gold.Chemscore.DEClash>
2.5805

> <Gold.Chemscore.DEInternal>
3.0465

> <Gold.Chemscore.Rot>
1.9037

> <Gold.Chemscore.Internal.Correction>
   9.000000E+99

> <Gold.Chemscore.Hbonds>
donor molecule, donor type, donor heavy atom, donor atom, acceptor molecule, acceptor atom, score
      P1  H  6896  6908       L1     7  0.68
      P1  H  7989  7998       L1     1  0.29
      P1  H 10752 10763       L1     8  0.75

> <Gold.Chemscore.Hbond.Weighted>
-6.6410

> <Gold.Chemscore.Metal.Weighted>
-0.0000

> <Gold.Chemscore.Lipo.Weighted>
-12.1963

> <Gold.Chemscore.Internal_Hbond.Weighted>
0.0000

> <Gold.Chemscore.DEClash.Weighted>
2.5805

> <Gold.Chemscore.DEInternal.Weighted>
3.0465

> <Gold.Chemscore.Rot.Weighted>
4.8736

> <Gold.Chemscore.Internal.Correction.Weighted>
   9.000000E+99

> <Gold.Protein.RotatedTorsions>
[ 6907 6896 6895 6894 ] final -123.88 input  -60.11 | X-H torsion
[ 7974 7965 7964 7962 ] final  151.37 input  175.53 | X-H torsion
[ 8008 7997 7996 7995 ] final   40.79 input   59.86 | X-H torsion
[ 10167 10162 10161 10158 ] final   83.38 input  -65.29 | X-H torsion
[ 10718 10713 10712 10709 ] final -174.41 input   66.30 | X-H torsion
[ 10763 10752 10751 10750 ] final  113.46 input  -60.55 | X-H torsion
[ 11005 11000 10999 10996 ] final -156.39 input  -57.11 | X-H torsion

> <Gold.Protein.ActiveResidues>
 VAL166  LYS551  ARG553  GLY616  TRP617  ASP618  TYR619  PRO620  LYS621  CYS622 
 ASP623  PHE694  ASN695  SER759  ASP760  ASP761  ALA762  ILE779  LEU786  VAL792 
 PHE793  MET794  SER795  GLU796  ALA797  LYS798  CYS799  TRP800  GLU811  SER814 

> <Gold.Protein.RotatedAtoms>
  150.8714  133.7501  159.2960 H   0  0  0  0  0  0  0  0  0  0  0  0  # atno 6907 bound_to 6896
  151.5112  135.1063  159.9864 H   0  0  0  0  0  0  0  0  0  0  0  0  # atno 6908 bound_to 6896
  152.4697  133.7957  159.6982 H   0  0  0  0  0  0  0  0  0  0  0  0  # atno 6909 bound_to 6896
  144.8297  139.6529  143.6064 H   0  0  0  0  0  0  0  0  0  0  0  0  # atno 7974 bound_to 7965
  155.2590  140.3358  155.4275 H   0  0  0  0  0  0  0  0  0  0  0  0  # atno 8008 bound_to 7997
  156.2183  140.1798  156.7580 H   0  0  0  0  0  0  0  0  0  0  0  0  # atno 8009 bound_to 7997
  154.5786  140.0657  156.9056 H   0  0  0  0  0  0  0  0  0  0  0  0  # atno 8010 bound_to 7997
  139.9190  144.6225  150.8460 H   0  0  0  0  0  0  0  0  0  0  0  0  # atno 10167 bound_to 10162
  156.7847  130.9496  151.3120 H   0  0  0  0  0  0  0  0  0  0  0  0  # atno 10718 bound_to 10713
  153.4929  135.3655  155.2501 H   0  0  0  0  0  0  0  0  0  0  0  0  # atno 10763 bound_to 10752
  154.8751  135.3981  154.3568 H   0  0  0  0  0  0  0  0  0  0  0  0  # atno 10764 bound_to 10752
  153.4191  135.7080  153.6372 H   0  0  0  0  0  0  0  0  0  0  0  0  # atno 10765 bound_to 10752
  140.6761  134.4195  157.5229 H   0  0  0  0  0  0  0  0  0  0  0  0  # atno 11005 bound_to 11000
  146.2601  139.6391  142.9368 LP  0  0  0  0  0  0  0  0  0  0  0  0  # atno 17320 bound_to 7965
  145.4922  141.0438  143.2587 LP  0  0  0  0  0  0  0  0  0  0  0  0  # atno 17321 bound_to 7965
  140.7667  143.3311  151.2409 LP  0  0  0  0  0  0  0  0  0  0  0  0  # atno 17342 bound_to 10162
  139.6878  143.9744  152.2843 LP  0  0  0  0  0  0  0  0  0  0  0  0  # atno 17343 bound_to 10162
  157.6629  130.8982  149.9869 LP  0  0  0  0  0  0  0  0  0  0  0  0  # atno 17370 bound_to 10713
  156.1196  130.3646  149.9910 LP  0  0  0  0  0  0  0  0  0  0  0  0  # atno 17371 bound_to 10713
  139.8966  134.8655  156.2079 LP  0  0  0  0  0  0  0  0  0  0  0  0  # atno 17394 bound_to 11000
  141.0354  133.6966  156.1504 LP  0  0  0  0  0  0  0  0  0  0  0  0  # atno 17395 bound_to 11000

$$$$
