AV-unprocessed.smi:2781|AV-procd|sdf|10720|dock1
  -GOLD-   2272015153D 1   1.00000     0.00000
 Structure written by MMmdl.
 35 38  0  0  0  0  0  0  0  0  1 V2000
  145.9807  138.6794  153.8929 O   0  0  0  0  0  0  0  0  0  0  0  0
  146.8011  137.9821  153.2952 C   0  0  0  0  0  0  0  0  0  0  0  0
  148.1371  138.1201  153.3670 N   0  0  0  0  0  0  0  0  0  0  0  0
  148.8838  139.0637  154.1218 C   0  0  0  0  0  0  0  0  0  0  0  0
  148.2971  140.3456  154.2250 C   0  0  0  0  0  0  0  0  0  0  0  0
  148.9580  141.3542  154.9527 C   0  0  0  0  0  0  0  0  0  0  0  0
  150.1903  141.0526  155.5589 C   0  0  0  0  0  0  0  0  0  0  0  0
  150.8621  141.9893  156.2694 F   0  0  0  0  0  0  0  0  0  0  0  0
  150.7066  139.7523  155.4085 C   0  0  0  0  0  0  0  0  0  0  0  0
  150.0741  138.7849  154.7109 N   0  0  0  0  0  0  0  0  0  0  0  0
  146.4643  136.9745  152.4784 N   0  0  0  0  0  0  0  0  0  0  0  0
  145.1331  136.5567  152.1740 C   0  0  2  0  0  0  0  0  0  0  0  0
  144.6491  135.1602  152.5479 C   0  0  2  0  0  0  0  0  0  0  0  0
  145.4671  133.8808  152.7398 C   0  0  1  0  0  0  0  0  0  0  0  0
  144.7170  132.7451  152.0105 C   0  0  0  0  0  0  0  0  0  0  0  0
  144.9471  133.0993  150.5186 C   0  0  0  0  0  0  0  0  0  0  0  0
  145.7954  134.3862  150.6109 C   0  0  2  0  0  0  0  0  0  0  0  0
  146.6713  134.0175  151.8082 C   0  0  0  0  0  0  0  0  0  0  0  0
  144.8720  135.5034  151.1034 C   0  0  2  0  0  0  0  0  0  0  0  0
  148.6837  137.4740  152.8172 H   0  0  0  0  0  0  0  0  0  0  0  0
  147.3491  140.5589  153.7528 H   0  0  0  0  0  0  0  0  0  0  0  0
  148.5263  142.3399  155.0437 H   0  0  0  0  0  0  0  0  0  0  0  0
  151.6498  139.4805  155.8594 H   0  0  0  0  0  0  0  0  0  0  0  0
  147.2085  136.4593  152.0316 H   0  0  0  0  0  0  0  0  0  0  0  0
  144.3714  137.3323  152.2406 H   0  0  0  0  0  0  0  0  0  0  0  0
  143.6213  135.0989  152.9011 H   0  0  0  0  0  0  0  0  0  0  0  0
  145.7001  133.6781  153.7853 H   0  0  0  0  0  0  0  0  0  0  0  0
  145.1502  131.7727  152.2485 H   0  0  0  0  0  0  0  0  0  0  0  0
  143.6585  132.7123  152.2717 H   0  0  0  0  0  0  0  0  0  0  0  0
  145.4948  132.3033  150.0122 H   0  0  0  0  0  0  0  0  0  0  0  0
  144.0121  133.2563  149.9792 H   0  0  0  0  0  0  0  0  0  0  0  0
  146.3304  134.6484  149.6980 H   0  0  0  0  0  0  0  0  0  0  0  0
  147.4014  134.7670  152.0990 H   0  0  0  0  0  0  0  0  0  0  0  0
  147.2178  133.0819  151.6702 H   0  0  0  0  0  0  0  0  0  0  0  0
  143.9945  135.6738  150.4820 H   0  0  0  0  0  0  0  0  0  0  0  0
  1  2  2  0  0  0  0
  2  3  1  0  0  0  0
  2 11  1  0  0  0  0
  3  4  1  0  0  0  0
  3 20  1  0  0  0  0
  4 10  1  0  0  0  0
  4  5  2  0  0  0  0
  5  6  1  0  0  0  0
  5 21  1  0  0  0  0
  6  7  2  0  0  0  0
  6 22  1  0  0  0  0
  7  8  1  0  0  0  0
  7  9  1  0  0  0  0
  9 10  2  0  0  0  0
  9 23  1  0  0  0  0
 11 12  1  0  0  0  0
 11 24  1  0  0  0  0
 12 19  1  0  0  0  0
 12 13  1  0  0  0  0
 12 25  1  0  0  0  0
 13 19  1  0  0  0  0
 13 14  1  0  0  0  0
 13 26  1  0  0  0  0
 14 18  1  0  0  0  0
 14 15  1  0  0  0  0
 14 27  1  0  0  0  0
 15 16  1  0  0  0  0
 15 28  1  0  0  0  0
 15 29  1  0  0  0  0
 16 17  1  0  0  0  0
 16 30  1  0  0  0  0
 16 31  1  0  0  0  0
 17 18  1  0  0  0  0
 17 19  1  0  0  0  0
 17 32  1  0  0  0  0
 18 33  1  0  0  0  0
 18 34  1  0  0  0  0
 19 35  1  0  0  0  0
M  END
> <s_m_source_file>
AV-unprocessed.smi

> <i_m_source_file_index>
2781

> <i_lp_mmshare_version>
43012

> <i_f3d_flags>
0

> <s_epik_input>
bjFbY0hdYyhGKVtjSF1bY0hdYzFbTkhdQyg9TylbTkhdW0NASF0yW0NAQEhdM1tDQEhdKFtDSDJdNClbQ0gyXVtDSDJdW0NASF00W0NASF0yMw==

> <s_epik_cmdline>
J2VwaWtfcHl0aG9uJywgJy1waCcsICc3LjAnLCAnLXRuJywgJzgnLCAnLW1hJywgJzIwMCcsICctbWV0YWxfYmluZGluZycsICctaW1hZScsICc8aW5maWxlLm1hZT4nLCAnLW9tYWUnLCAnPG91dGZpbGUubWFlPic=

> <r_lp_tautomer_probability>
1

> <r_epik_Ionization_Penalty>
4.05776e-05

> <r_epik_Ionization_Penalty_Charging>
0

> <r_epik_Ionization_Penalty_Neutral>
4.05776e-05

> <r_epik_State_Penalty>
-0

> <r_epik_Charging_Adjusted_Penalty>
0

> <i_epik_Tot_Q>
0

> <i_epik_Tot_abs_Q>
0

> <r_epik_Metal_State_Penalty>
-0

> <b_epik_Metal_Only>
0

> <s_lp_Force_Field>
OPLS_2005

> <r_lp_Energy>
83.3371

> <b_lp_Chiralities_Consistent>
1

> <s_lp_Variant>
AV-unprocessed.smi:2781-4

> <Gold.Version>
5.8.1

> <Gold.Id.Protein>
6NUR|6NUR_protein|mol2

> <Gold.PLP.Fitness>
36.9859

> <Gold.PLP.PLP>
-31.6299

> <Gold.PLP.part.hbond>
-2.3141

> <Gold.PLP.part.metal>
0.0000

> <Gold.PLP.part.buried>
-1.6206

> <Gold.PLP.part.nonpolar>
-27.8104

> <Gold.PLP.part.repulsive>
0.3954

> <Gold.PLP.ligand.clash>
0.0000

> <Gold.PLP.ligand.torsion>
0.2869

> <Gold.PLP.Chemscore.Hbond>
1.9600

> <Gold.PLP.Chemscore.CHOScore>
0.0000

> <Gold.PLP.Chemscore.Metal>
0.0000

> <Gold.Chemscore.Hbonds>
donor molecule, donor type, donor heavy atom, donor atom, acceptor molecule, acceptor atom, score
      L1  H     3    20       P1  7948  1.00
      L1  H    11    24       P1  7948  0.96

> <Gold.PLP.Chemscore.Internal.Correction>
0.0498

> <Gold.Rescore>
     Score         DG    S(hbond)    S(metal)    S(lipo)     H(rot)  DE(clash)    DE(int)     intcor
     15.50     -17.10       1.94        0.00      65.93       1.00       0.02       1.58       ----

> <Gold.Chemscore.Fitness>
15.5000

> <Gold.Chemscore.DG>
-17.1016

> <Gold.Chemscore.ZeroCoef>
-5.4800

> <Gold.Chemscore.Hbond>
1.9363

> <Gold.Chemscore.Metal>
0.0000

> <Gold.Chemscore.Lipo>
65.9333

> <Gold.Chemscore.Internal_Hbond>
0.0000

> <Gold.Chemscore.DEClash>
0.0189

> <Gold.Chemscore.DEInternal>
1.5827

> <Gold.Chemscore.Rot>
1.0000

> <Gold.Chemscore.Internal.Correction>
   9.000000E+99

> <Gold.Chemscore.Hbonds>
donor molecule, donor type, donor heavy atom, donor atom, acceptor molecule, acceptor atom, score
      L1  H     3    20       P1  7948  0.97
      L1  H    11    24       P1  7948  0.92

> <Gold.Chemscore.Hbond.Weighted>
-6.4674

> <Gold.Chemscore.Metal.Weighted>
-0.0000

> <Gold.Chemscore.Lipo.Weighted>
-7.7142

> <Gold.Chemscore.Internal_Hbond.Weighted>
0.0000

> <Gold.Chemscore.DEClash.Weighted>
0.0189

> <Gold.Chemscore.DEInternal.Weighted>
1.5827

> <Gold.Chemscore.Rot.Weighted>
2.5600

> <Gold.Chemscore.Internal.Correction.Weighted>
   9.000000E+99

> <Gold.Protein.RotatedTorsions>
[ 6907 6896 6895 6894 ] final   12.21 input  -60.11 | X-H torsion
[ 7974 7965 7964 7962 ] final  -91.81 input  175.53 | X-H torsion
[ 8008 7997 7996 7995 ] final  -79.28 input   59.86 | X-H torsion
[ 10167 10162 10161 10158 ] final  -59.09 input  -65.29 | X-H torsion
[ 10718 10713 10712 10709 ] final  171.22 input   66.30 | X-H torsion
[ 10763 10752 10751 10750 ] final   38.17 input  -60.55 | X-H torsion
[ 11005 11000 10999 10996 ] final -146.46 input  -57.11 | X-H torsion

> <Gold.Protein.ActiveResidues>
 VAL166  LYS551  ARG553  GLY616  TRP617  ASP618  TYR619  PRO620  LYS621  CYS622 
 ASP623  PHE694  ASN695  SER759  ASP760  ASP761  ALA762  ILE779  LEU786  VAL792 
 PHE793  MET794  SER795  GLU796  ALA797  LYS798  CYS799  TRP800  GLU811  SER814 

> <Gold.Protein.RotatedAtoms>
  151.7667  135.0796  160.0353 H   0  0  0  0  0  0  0  0  0  0  0  0  # atno 6907 bound_to 6896
  152.3316  133.5961  159.5822 H   0  0  0  0  0  0  0  0  0  0  0  0  # atno 6908 bound_to 6896
  150.7426  133.9775  159.3607 H   0  0  0  0  0  0  0  0  0  0  0  0  # atno 6909 bound_to 6896
  145.4082  140.9543  143.2249 H   0  0  0  0  0  0  0  0  0  0  0  0  # atno 7974 bound_to 7965
  154.5770  140.0681  156.9048 H   0  0  0  0  0  0  0  0  0  0  0  0  # atno 8008 bound_to 7997
  155.2531  140.3353  155.4262 H   0  0  0  0  0  0  0  0  0  0  0  0  # atno 8009 bound_to 7997
  156.2161  140.1779  156.7570 H   0  0  0  0  0  0  0  0  0  0  0  0  # atno 8010 bound_to 7997
  140.6157  143.2401  151.5604 H   0  0  0  0  0  0  0  0  0  0  0  0  # atno 10167 bound_to 10162
  156.9967  131.0164  151.2842 H   0  0  0  0  0  0  0  0  0  0  0  0  # atno 10718 bound_to 10713
  153.0011  135.6257  154.2261 H   0  0  0  0  0  0  0  0  0  0  0  0  # atno 10763 bound_to 10752
  154.2004  135.2804  155.2994 H   0  0  0  0  0  0  0  0  0  0  0  0  # atno 10764 bound_to 10752
  154.5688  135.5683  153.7135 H   0  0  0  0  0  0  0  0  0  0  0  0  # atno 10765 bound_to 10752
  140.7817  134.3071  157.5043 H   0  0  0  0  0  0  0  0  0  0  0  0  # atno 11005 bound_to 11000
  144.8327  139.5601  143.6936 LP  0  0  0  0  0  0  0  0  0  0  0  0  # atno 17320 bound_to 7965
  146.2718  139.6654  142.9291 LP  0  0  0  0  0  0  0  0  0  0  0  0  # atno 17321 bound_to 7965
  139.5396  144.2684  152.1324 LP  0  0  0  0  0  0  0  0  0  0  0  0  # atno 17342 bound_to 10162
  140.1892  144.4768  150.6487 LP  0  0  0  0  0  0  0  0  0  0  0  0  # atno 17343 bound_to 10162
  157.5420  130.8126  149.8040 LP  0  0  0  0  0  0  0  0  0  0  0  0  # atno 17370 bound_to 10713
  156.0186  130.3804  150.2031 LP  0  0  0  0  0  0  0  0  0  0  0  0  # atno 17371 bound_to 10713
  139.8742  134.9322  156.3549 LP  0  0  0  0  0  0  0  0  0  0  0  0  # atno 17394 bound_to 11000
  140.9476  133.7473  156.0228 LP  0  0  0  0  0  0  0  0  0  0  0  0  # atno 17395 bound_to 11000

$$$$
