#       Name:                AV-unprocessed.smi:1534
#       Creating user name   scv26
#       Creation time:       Fri Mar 27 06:31:53 2020


#       File generated by GOLD software.
#

@<TRIPOS>MOLECULE
AV-unprocessed.smi:1534
    39    40     1
SMALL
NO_CHARGES


@<TRIPOS>ATOM
      1 ****         0.6389   3.2864   0.4341 O.2            1 S1                 0.0000
      2 ****         0.2412   2.1472   0.6672 C.2            1 S1                 0.0000
      3 ****         1.0625   1.1162   0.9254 N.am           1 S1                 0.0000
      4 ****         2.5196   1.1676   0.8692 C.3            1 S1                 0.0000
      5 ****         3.0635   1.0911  -0.5721 C.3            1 S1                 0.0000
      6 ****         2.5148  -0.0806  -1.3699 C.ar           1 S1                 0.0000
      7 ****         3.1552  -1.3386  -1.3903 C.ar           1 S1                 0.0000
      8 ****         2.5807  -2.3925  -2.1313 C.ar           1 S1                 0.0000
      9 ****         1.3781  -2.1681  -2.8332 C.ar           1 S1                 0.0000
     10 ****         0.7808  -0.8923  -2.7792 C.ar           1 S1                 0.0000
     11 ****         1.3634   0.0920  -2.0604 N.pl3          1 S1                 1.0000
     12 ****        -1.0674   1.8379   0.6782 N.am           1 S1                 0.0000
     13 ****        -2.2027   2.7298   0.4367 C.3            1 S1                 0.0000
     14 ****        -2.5220   2.8792  -1.0651 C.3            1 S1                 0.0000
     15 ****        -3.9219   3.4910  -1.2202 C.3            1 S1                 0.0000
     16 ****        -4.8569   3.0409   0.2928 S.o2           1 S1                 0.0000
     17 ****        -5.1836   4.2723   1.0281 O.2            1 S1                 0.0000
     18 ****        -5.8965   2.0538  -0.0351 O.2            1 S1                 0.0000
     19 ****        -3.4633   2.1990   1.1275 C.3            1 S1                 0.0000
     20 ****         0.6471   0.2196   1.1321 H              1 S1                 0.0000
     21 ****         2.8888   2.0646   1.3690 H              1 S1                 0.0000
     22 ****         2.8961   0.3200   1.4424 H              1 S1                 0.0000
     23 ****         2.8286   2.0155  -1.1022 H              1 S1                 0.0000
     24 ****         4.1520   1.0278  -0.5494 H              1 S1                 0.0000
     25 ****         4.0730  -1.4970  -0.8426 H              1 S1                 0.0000
     26 ****         3.0555  -3.3625  -2.1586 H              1 S1                 0.0000
     27 ****         0.9210  -2.9630  -3.4044 H              1 S1                 0.0000
     28 ****        -0.1380  -0.6316  -3.2840 H              1 S1                 0.0000
     29 ****        -1.3020   0.8944   0.9519 H              1 S1                 0.0000
     30 ****        -2.0001   3.7191   0.8518 H              1 S1                 0.0000
     31 ****        -1.7703   3.4731  -1.5860 H              1 S1                 0.0000
     32 ****        -2.5212   1.8920  -1.5296 H              1 S1                 0.0000
     33 ****        -3.8701   4.5787  -1.2720 H              1 S1                 0.0000
     34 ****        -4.4435   3.1264  -2.1054 H              1 S1                 0.0000
     35 ****        -3.5803   1.1262   0.9688 H              1 S1                 0.0000
     36 ****        -3.4884   2.3998   2.1986 H              1 S1                 0.0000
     37 ****         0.9135   1.0075  -2.0332 H              1 S1                 0.0000
     38 ****         1.6194   3.4828   0.4304 LP             1 S1                 0.0000
     39 ****        -0.0180   4.0171   0.2481 LP             1 S1                 0.0000
@<TRIPOS>BOND
    1    1    2 2     
    2    2    3 am    
    3    2   12 am    
    4    3    4 1     
    5    3   20 1     
    6    4    5 1     
    7    4   21 1     
    8    4   22 1     
    9    5    6 1     
   10    5   23 1     
   11    5   24 1     
   12    6   11 ar    
   13    6    7 ar    
   14    7    8 ar    
   15    7   25 1     
   16    8    9 ar    
   17    8   26 1     
   18    9   10 ar    
   19    9   27 1     
   20   10   11 ar    
   21   10   28 1     
   22   11   37 1     
   23   12   13 1     
   24   12   29 1     
   25   13   19 1     
   26   13   14 1     
   27   13   30 1     
   28   14   15 1     
   29   14   31 1     
   30   14   32 1     
   31   15   16 1     
   32   15   33 1     
   33   15   34 1     
   34   16   17 2     
   35   16   18 2     
   36   16   19 1     
   37   19   35 1     
   38   19   36 1     
   39    1   38 1     
   40    1   39 1     
@<TRIPOS>SUBSTRUCTURE
      1 S1             1
@<TRIPOS>SET
LONE_PAIRS      STATIC     ATOMS    <user>   **** ""
4 38 39 17 18
DONOR_HYDROGENS      STATIC     ATOMS    <user>   **** ""
3 20 37 29
ATOM$BLUE        STATIC     ATOMS    COLORGROUP SYSTEM
4 38 39 17 18
ATOM$RED        STATIC     ATOMS    COLORGROUP SYSTEM
3 20 37 29
