AV-unprocessed.smi:2089|AV-procd|sdf|8531|dock10
  -GOLD-   2272011253D 1   1.00000     0.00000
 Structure written by MMmdl.
 40 41  0  0  0  0  0  0  0  0  2 V2000
  147.5873  136.8014  158.7643 C   0  0  0  0  0  0  0  0  0  0  0  0
  147.5340  137.6514  157.1342 S   0  0  0  0  0  0  0  0  0  0  0  0
  146.4265  137.1032  156.3367 O   0  0  0  0  0  0  0  0  0  0  0  0
  147.6184  139.1007  157.3717 O   0  0  0  0  0  0  0  0  0  0  0  0
  149.0173  137.1487  156.3931 N   0  0  0  0  0  0  0  0  0  0  0  0
  149.3297  135.7130  156.3601 C   0  0  0  0  0  0  0  0  0  0  0  0
  149.5960  135.3830  154.8946 C   0  0  0  0  0  0  0  0  0  0  0  0
  150.1768  136.6791  154.3511 C   0  0  0  0  0  0  0  0  0  0  0  0
  149.3995  137.7660  155.1111 C   0  0  2  0  0  0  0  0  0  0  0  0
  150.1945  139.0676  155.2708 C   0  0  0  0  0  0  0  0  0  0  0  0
  150.5406  139.7124  154.2805 O   0  0  0  0  0  0  0  0  0  0  0  0
  150.5028  139.4305  156.5240 N   0  0  0  0  0  0  0  0  0  0  0  0
  151.2972  140.6015  156.8655 C   0  0  0  0  0  0  0  0  0  0  0  0
  150.3943  141.8157  157.1209 C   0  0  0  0  0  0  0  0  0  0  0  0
  150.8957  142.6686  158.2704 C   0  0  0  0  0  0  0  0  0  0  0  0
  151.8085  142.1778  159.2293 C   0  0  0  0  0  0  0  0  0  0  0  0
  152.2260  143.0233  160.2785 C   0  0  0  0  0  0  0  0  0  0  0  0
  151.7214  144.3384  160.3481 C   0  0  0  0  0  0  0  0  0  0  0  0
  150.8106  144.7759  159.3651 C   0  0  0  0  0  0  0  0  0  0  0  0
  150.4351  143.9363  158.3751 N   0  3  0  0  0  0  0  0  0  0  0  0
  146.7001  137.0653  159.3393 H   0  0  0  0  0  0  0  0  0  0  0  0
  148.4773  137.1159  159.3088 H   0  0  0  0  0  0  0  0  0  0  0  0
  147.6135  135.7220  158.6185 H   0  0  0  0  0  0  0  0  0  0  0  0
  150.2204  135.5363  156.9640 H   0  0  0  0  0  0  0  0  0  0  0  0
  148.5180  135.1112  156.7695 H   0  0  0  0  0  0  0  0  0  0  0  0
  150.2641  134.5311  154.7663 H   0  0  0  0  0  0  0  0  0  0  0  0
  148.6566  135.1557  154.3886 H   0  0  0  0  0  0  0  0  0  0  0  0
  151.2454  136.7192  154.5690 H   0  0  0  0  0  0  0  0  0  0  0  0
  150.0542  136.7602  153.2707 H   0  0  0  0  0  0  0  0  0  0  0  0
  148.4814  137.9687  154.5559 H   0  0  0  0  0  0  0  0  0  0  0  0
  150.1912  138.8419  157.2832 H   0  0  0  0  0  0  0  0  0  0  0  0
  151.8917  140.3814  157.7535 H   0  0  0  0  0  0  0  0  0  0  0  0
  151.9946  140.8178  156.0544 H   0  0  0  0  0  0  0  0  0  0  0  0
  150.3302  142.4297  156.2213 H   0  0  0  0  0  0  0  0  0  0  0  0
  149.3778  141.4873  157.3433 H   0  0  0  0  0  0  0  0  0  0  0  0
  152.1839  141.1667  159.1654 H   0  0  0  0  0  0  0  0  0  0  0  0
  152.9242  142.6670  161.0217 H   0  0  0  0  0  0  0  0  0  0  0  0
  152.0279  145.0011  161.1444 H   0  0  0  0  0  0  0  0  0  0  0  0
  150.3741  145.7639  159.3413 H   0  0  0  0  0  0  0  0  0  0  0  0
  149.7738  144.2735  157.6748 H   0  0  0  0  0  0  0  0  0  0  0  0
  1  2  1  0  0  0  0
  1 21  1  0  0  0  0
  1 22  1  0  0  0  0
  1 23  1  0  0  0  0
  2  3  2  0  0  0  0
  2  4  2  0  0  0  0
  2  5  1  0  0  0  0
  5  9  1  0  0  0  0
  5  6  1  0  0  0  0
  6  7  1  0  0  0  0
  6 24  1  0  0  0  0
  6 25  1  0  0  0  0
  7  8  1  0  0  0  0
  7 26  1  0  0  0  0
  7 27  1  0  0  0  0
  8  9  1  0  0  0  0
  8 28  1  0  0  0  0
  8 29  1  0  0  0  0
  9 10  1  0  0  0  0
  9 30  1  0  0  0  0
 10 11  2  0  0  0  0
 10 12  1  0  0  0  0
 12 13  1  0  0  0  0
 12 31  1  0  0  0  0
 13 14  1  0  0  0  0
 13 32  1  0  0  0  0
 13 33  1  0  0  0  0
 14 15  1  0  0  0  0
 14 34  1  0  0  0  0
 14 35  1  0  0  0  0
 15 20  1  0  0  0  0
 15 16  2  0  0  0  0
 16 17  1  0  0  0  0
 16 36  1  0  0  0  0
 17 18  2  0  0  0  0
 17 37  1  0  0  0  0
 18 19  1  0  0  0  0
 18 38  1  0  0  0  0
 19 20  2  0  0  0  0
 19 39  1  0  0  0  0
 20 40  1  0  0  0  0
M  CHG  1  20   1
M  END
> <s_m_source_file>
AV-unprocessed.smi

> <i_m_source_file_index>
2089

> <i_lp_mmshare_version>
43012

> <i_f3d_flags>
0

> <s_epik_input>
W0NIM11TKD1PKSg9TylOMVtDSDJdW0NIMl1bQ0gyXVtDQEhdMUMoPU8pW05IXVtDSDJdW0NIMl1jMltjSF1bY0hdW2NIXVtjSF1uMg==

> <s_epik_cmdline>
J2VwaWtfcHl0aG9uJywgJy1waCcsICc3LjAnLCAnLXRuJywgJzgnLCAnLW1hJywgJzIwMCcsICctbWV0YWxfYmluZGluZycsICctaW1hZScsICc8aW5maWxlLm1hZT4nLCAnLW9tYWUnLCAnPG91dGZpbGUubWFlPic=

> <r_epik_Ionization_Penalty>
1.90116

> <r_epik_Ionization_Penalty_Charging>
1.90116

> <r_epik_Ionization_Penalty_Neutral>
1.4017e-07

> <r_epik_State_Penalty>
2.02245

> <r_epik_Charging_Adjusted_Penalty>
3.9236

> <i_epik_Tot_Q>
1

> <i_epik_Tot_abs_Q>
1

> <r_epik_Metal_State_Penalty>
2.04621

> <b_epik_Metal_Only>
0

> <s_lp_Force_Field>
OPLS_2005

> <r_lp_Energy>
13.4041

> <b_lp_Chiralities_Consistent>
1

> <s_lp_Variant>
AV-unprocessed.smi:2089-4

> <Gold.Version>
5.8.1

> <Gold.Id.Protein>
6NUR|6NUR_protein|mol2

> <Gold.PLP.Fitness>
41.7349

> <Gold.PLP.PLP>
-34.1595

> <Gold.PLP.part.hbond>
-2.3224

> <Gold.PLP.part.metal>
0.0000

> <Gold.PLP.part.buried>
-5.3707

> <Gold.PLP.part.nonpolar>
-26.4316

> <Gold.PLP.part.repulsive>
0.2700

> <Gold.PLP.ligand.clash>
0.0000

> <Gold.PLP.ligand.torsion>
0.9566

> <Gold.PLP.Chemscore.Hbond>
3.0000

> <Gold.PLP.Chemscore.CHOScore>
0.0000

> <Gold.PLP.Chemscore.Metal>
0.0000

> <Gold.Chemscore.Hbonds>
donor molecule, donor type, donor heavy atom, donor atom, acceptor molecule, acceptor atom, score
      L1  H    20    40       P1  8028  0.97
      P1  H  7989  7998       L1    11  1.00

> <Gold.PLP.Chemscore.Internal.Correction>
0.4886

> <Gold.Rescore>
     Score         DG    S(hbond)    S(metal)    S(lipo)     H(rot)  DE(clash)    DE(int)     intcor
     16.70     -17.80       1.94        0.00      93.77       2.00       0.10       1.00       ----

> <Gold.Chemscore.Fitness>
16.6952

> <Gold.Chemscore.DG>
-17.7971

> <Gold.Chemscore.ZeroCoef>
-5.4800

> <Gold.Chemscore.Hbond>
1.9393

> <Gold.Chemscore.Metal>
0.0000

> <Gold.Chemscore.Lipo>
93.7679

> <Gold.Chemscore.Internal_Hbond>
0.0000

> <Gold.Chemscore.DEClash>
0.1031

> <Gold.Chemscore.DEInternal>
0.9987

> <Gold.Chemscore.Rot>
2.0043

> <Gold.Chemscore.Internal.Correction>
   9.000000E+99

> <Gold.Chemscore.Hbonds>
donor molecule, donor type, donor heavy atom, donor atom, acceptor molecule, acceptor atom, score
      L1  H    20    40       P1  8028  0.10
      P1  H  7989  7998       L1    11  1.00

> <Gold.Chemscore.Hbond.Weighted>
-6.4771

> <Gold.Chemscore.Metal.Weighted>
-0.0000

> <Gold.Chemscore.Lipo.Weighted>
-10.9708

> <Gold.Chemscore.Internal_Hbond.Weighted>
0.0000

> <Gold.Chemscore.DEClash.Weighted>
0.1031

> <Gold.Chemscore.DEInternal.Weighted>
0.9987

> <Gold.Chemscore.Rot.Weighted>
5.1309

> <Gold.Chemscore.Internal.Correction.Weighted>
   9.000000E+99

> <Gold.Protein.RotatedTorsions>
[ 6907 6896 6895 6894 ] final   45.58 input  -60.11 | X-H torsion
[ 7974 7965 7964 7962 ] final  -48.46 input  175.53 | X-H torsion
[ 8008 7997 7996 7995 ] final -156.48 input   59.86 | X-H torsion
[ 10167 10162 10161 10158 ] final -150.07 input  -65.29 | X-H torsion
[ 10718 10713 10712 10709 ] final   -6.40 input   66.30 | X-H torsion
[ 10763 10752 10751 10750 ] final   -0.85 input  -60.55 | X-H torsion
[ 11005 11000 10999 10996 ] final  -58.19 input  -57.11 | X-H torsion

> <Gold.Protein.ActiveResidues>
 VAL166  LYS551  ARG553  GLY616  TRP617  ASP618  TYR619  PRO620  LYS621  CYS622 
 ASP623  PHE694  ASN695  SER759  ASP760  ASP761  ALA762  ILE779  LEU786  VAL792 
 PHE793  MET794  SER795  GLU796  ALA797  LYS798  CYS799  TRP800  GLU811  SER814 

> <Gold.Protein.RotatedAtoms>
  152.2462  134.8179  160.0452 H   0  0  0  0  0  0  0  0  0  0  0  0  # atno 6907 bound_to 6896
  151.8876  133.3503  159.3795 H   0  0  0  0  0  0  0  0  0  0  0  0  # atno 6908 bound_to 6896
  150.7069  134.4883  159.5547 H   0  0  0  0  0  0  0  0  0  0  0  0  # atno 6909 bound_to 6896
  145.9510  140.7572  142.9505 H   0  0  0  0  0  0  0  0  0  0  0  0  # atno 7974 bound_to 7965
  155.7178  140.0786  157.2344 H   0  0  0  0  0  0  0  0  0  0  0  0  # atno 8008 bound_to 7997
  154.4049  140.1618  156.2422 H   0  0  0  0  0  0  0  0  0  0  0  0  # atno 8009 bound_to 7997
  155.9224  140.3397  155.6186 H   0  0  0  0  0  0  0  0  0  0  0  0  # atno 8010 bound_to 7997
  139.7387  143.8696  152.2556 H   0  0  0  0  0  0  0  0  0  0  0  0  # atno 10167 bound_to 10162
  156.7324  130.5184  149.5842 H   0  0  0  0  0  0  0  0  0  0  0  0  # atno 10718 bound_to 10713
  153.3372  135.6978  153.6897 H   0  0  0  0  0  0  0  0  0  0  0  0  # atno 10763 bound_to 10752
  153.5676  135.3522  155.2825 H   0  0  0  0  0  0  0  0  0  0  0  0  # atno 10764 bound_to 10752
  154.8630  135.4264  154.2576 H   0  0  0  0  0  0  0  0  0  0  0  0  # atno 10765 bound_to 10752
  141.1197  133.6612  156.4882 H   0  0  0  0  0  0  0  0  0  0  0  0  # atno 11005 bound_to 11000
  144.6796  140.2434  143.7341 LP  0  0  0  0  0  0  0  0  0  0  0  0  # atno 17320 bound_to 7965
  145.8172  139.2028  143.1959 LP  0  0  0  0  0  0  0  0  0  0  0  0  # atno 17321 bound_to 7965
  139.8640  144.7103  150.9066 LP  0  0  0  0  0  0  0  0  0  0  0  0  # atno 17342 bound_to 10162
  140.7782  143.3794  151.1505 LP  0  0  0  0  0  0  0  0  0  0  0  0  # atno 17343 bound_to 10162
  156.1520  130.6316  151.0607 LP  0  0  0  0  0  0  0  0  0  0  0  0  # atno 17370 bound_to 10713
  157.6853  131.0826  150.7259 LP  0  0  0  0  0  0  0  0  0  0  0  0  # atno 17371 bound_to 10713
  140.4545  134.6898  157.5055 LP  0  0  0  0  0  0  0  0  0  0  0  0  # atno 17394 bound_to 11000
  140.0144  134.6641  155.9332 LP  0  0  0  0  0  0  0  0  0  0  0  0  # atno 17395 bound_to 11000

$$$$
