AV-unprocessed.smi:1429|AV-procd|sdf|5818|dock6
  -GOLD-   22720 5473D 1   1.00000     0.00000
 Structure written by MMmdl.
 30 31  0  0  0  0  0  0  0  0  1 V2000
  146.7898  138.8519  152.5877 C   0  0  0  0  0  0  0  0  0  0  0  0
  147.7317  139.6069  153.4620 C   0  0  0  0  0  0  0  0  0  0  0  0
  148.7647  139.0247  154.0828 N   0  0  0  0  0  0  0  0  0  0  0  0
  149.4988  139.9259  154.8409 N   0  0  0  0  0  0  0  0  0  0  0  0
  148.9945  141.1654  154.7709 C   0  0  0  0  0  0  0  0  0  0  0  0
  149.5491  142.2824  155.4503 N   0  0  0  0  0  0  0  0  0  0  0  0
  150.6141  142.3135  156.2707 C   0  0  0  0  0  0  0  0  0  0  0  0
  151.3078  141.3427  156.5747 O   0  0  0  0  0  0  0  0  0  0  0  0
  150.8371  143.5528  156.7310 N   0  0  0  0  0  0  0  0  0  0  0  0
  151.9135  143.9242  157.6436 C   0  0  0  0  0  0  0  0  0  0  0  0
  151.5634  143.6112  159.1109 C   0  0  2  0  0  0  0  0  0  0  0  0
  152.2011  144.5362  160.1291 C   0  0  0  0  0  0  0  0  0  0  0  0
  152.0825  143.7145  161.4078 C   0  0  0  0  0  0  0  0  0  0  0  0
  152.2186  142.3561  161.0026 O   0  0  0  0  0  0  0  0  0  0  0  0
  152.0616  142.2473  159.5900 C   0  0  0  0  0  0  0  0  0  0  0  0
  147.5664  141.3326  153.7637 S   0  0  0  0  0  0  0  0  0  0  0  0
  147.3176  138.0594  152.0562 H   0  0  0  0  0  0  0  0  0  0  0  0
  146.3367  139.5196  151.8548 H   0  0  0  0  0  0  0  0  0  0  0  0
  145.9996  138.4050  153.1910 H   0  0  0  0  0  0  0  0  0  0  0  0
  149.0787  143.1615  155.2933 H   0  0  0  0  0  0  0  0  0  0  0  0
  150.2194  144.2928  156.4305 H   0  0  0  0  0  0  0  0  0  0  0  0
  152.8345  143.4131  157.3584 H   0  0  0  0  0  0  0  0  0  0  0  0
  152.1048  144.9908  157.5224 H   0  0  0  0  0  0  0  0  0  0  0  0
  150.4806  143.6442  159.2446 H   0  0  0  0  0  0  0  0  0  0  0  0
  153.2517  144.7052  159.8878 H   0  0  0  0  0  0  0  0  0  0  0  0
  151.7054  145.5048  160.2013 H   0  0  0  0  0  0  0  0  0  0  0  0
  152.8305  143.9873  162.1526 H   0  0  0  0  0  0  0  0  0  0  0  0
  151.0959  143.8471  161.8535 H   0  0  0  0  0  0  0  0  0  0  0  0
  151.3758  141.4413  159.3282 H   0  0  0  0  0  0  0  0  0  0  0  0
  153.0352  142.0140  159.1564 H   0  0  0  0  0  0  0  0  0  0  0  0
  1  2  1  0  0  0  0
  1 17  1  0  0  0  0
  1 18  1  0  0  0  0
  1 19  1  0  0  0  0
  2 16  1  0  0  0  0
  2  3  2  0  0  0  0
  3  4  1  0  0  0  0
  4  5  2  0  0  0  0
  5  6  1  0  0  0  0
  5 16  1  0  0  0  0
  6  7  1  0  0  0  0
  6 20  1  0  0  0  0
  7  8  2  0  0  0  0
  7  9  1  0  0  0  0
  9 10  1  0  0  0  0
  9 21  1  0  0  0  0
 10 11  1  0  0  0  0
 10 22  1  0  0  0  0
 10 23  1  0  0  0  0
 11 15  1  0  0  0  0
 11 12  1  0  0  0  0
 11 24  1  0  0  0  0
 12 13  1  0  0  0  0
 12 25  1  0  0  0  0
 12 26  1  0  0  0  0
 13 14  1  0  0  0  0
 13 27  1  0  0  0  0
 13 28  1  0  0  0  0
 14 15  1  0  0  0  0
 15 29  1  0  0  0  0
 15 30  1  0  0  0  0
M  END
> <s_m_source_file>
AV-unprocessed.smi

> <i_m_source_file_index>
1429

> <i_lp_mmshare_version>
43012

> <i_f3d_flags>
0

> <s_epik_input>
W0NIM11jMW5uYyhzMSlbTkhdQyg9TylbTkhdW0NIMl1bQ0BASF0yW0NIMl1bQ0gyXU9bQ0gyXTI=

> <s_epik_cmdline>
J2VwaWtfcHl0aG9uJywgJy1waCcsICc3LjAnLCAnLXRuJywgJzgnLCAnLW1hJywgJzIwMCcsICctbWV0YWxfYmluZGluZycsICctaW1hZScsICc8aW5maWxlLm1hZT4nLCAnLW9tYWUnLCAnPG91dGZpbGUubWFlPic=

> <r_lp_tautomer_probability>
1

> <r_epik_Ionization_Penalty>
0.000468089

> <r_epik_Ionization_Penalty_Charging>
0

> <r_epik_Ionization_Penalty_Neutral>
0.000468089

> <r_epik_State_Penalty>
-0

> <r_epik_Charging_Adjusted_Penalty>
0

> <i_epik_Tot_Q>
0

> <i_epik_Tot_abs_Q>
0

> <r_epik_Metal_State_Penalty>
0.211262

> <b_epik_Metal_Only>
0

> <s_lp_Force_Field>
OPLS_2005

> <r_lp_Energy>
16.548

> <b_lp_Chiralities_Consistent>
1

> <s_lp_Variant>
AV-unprocessed.smi:1429-1

> <Gold.Version>
5.8.1

> <Gold.Id.Protein>
6NUR|6NUR_protein|mol2

> <Gold.PLP.Fitness>
38.8147

> <Gold.PLP.PLP>
-33.9643

> <Gold.PLP.part.hbond>
-1.9976

> <Gold.PLP.part.metal>
0.0000

> <Gold.PLP.part.buried>
-3.7104

> <Gold.PLP.part.nonpolar>
-28.9735

> <Gold.PLP.part.repulsive>
0.5706

> <Gold.PLP.ligand.clash>
0.0000

> <Gold.PLP.ligand.torsion>
0.5649

> <Gold.PLP.Chemscore.Hbond>
1.9920

> <Gold.PLP.Chemscore.CHOScore>
0.0000

> <Gold.PLP.Chemscore.Metal>
0.0000

> <Gold.Chemscore.Hbonds>
donor molecule, donor type, donor heavy atom, donor atom, acceptor molecule, acceptor atom, score
      L1  H     6    20       P1  8028  1.00
      L1  H     9    21       P1  8028  1.00

> <Gold.PLP.Chemscore.Internal.Correction>
0.0042

> <Gold.Rescore>
     Score         DG    S(hbond)    S(metal)    S(lipo)     H(rot)  DE(clash)    DE(int)     intcor
     15.79     -17.74       1.91        0.00      79.06       1.31       0.20       1.76       ----

> <Gold.Chemscore.Fitness>
15.7921

> <Gold.Chemscore.DG>
-17.7440

> <Gold.Chemscore.ZeroCoef>
-5.4800

> <Gold.Chemscore.Hbond>
1.9085

> <Gold.Chemscore.Metal>
0.0000

> <Gold.Chemscore.Lipo>
79.0565

> <Gold.Chemscore.Internal_Hbond>
0.0000

> <Gold.Chemscore.DEClash>
0.1963

> <Gold.Chemscore.DEInternal>
1.7556

> <Gold.Chemscore.Rot>
1.3125

> <Gold.Chemscore.Internal.Correction>
   9.000000E+99

> <Gold.Chemscore.Hbonds>
donor molecule, donor type, donor heavy atom, donor atom, acceptor molecule, acceptor atom, score
      L1  H     6    20       P1  8028  0.94
      L1  H     9    21       P1  8028  0.92

> <Gold.Chemscore.Hbond.Weighted>
-6.3744

> <Gold.Chemscore.Metal.Weighted>
-0.0000

> <Gold.Chemscore.Lipo.Weighted>
-9.2496

> <Gold.Chemscore.Internal_Hbond.Weighted>
0.0000

> <Gold.Chemscore.DEClash.Weighted>
0.1963

> <Gold.Chemscore.DEInternal.Weighted>
1.7556

> <Gold.Chemscore.Rot.Weighted>
3.3600

> <Gold.Chemscore.Internal.Correction.Weighted>
   9.000000E+99

> <Gold.Protein.RotatedTorsions>
[ 6907 6896 6895 6894 ] final   81.85 input  -60.11 | X-H torsion
[ 7974 7965 7964 7962 ] final -102.87 input  175.53 | X-H torsion
[ 8008 7997 7996 7995 ] final -159.26 input   59.86 | X-H torsion
[ 10167 10162 10161 10158 ] final    1.60 input  -65.29 | X-H torsion
[ 10718 10713 10712 10709 ] final  169.57 input   66.30 | X-H torsion
[ 10763 10752 10751 10750 ] final  -93.82 input  -60.55 | X-H torsion
[ 11005 11000 10999 10996 ] final  145.41 input  -57.11 | X-H torsion

> <Gold.Protein.ActiveResidues>
 VAL166  LYS551  ARG553  GLY616  TRP617  ASP618  TYR619  PRO620  LYS621  CYS622 
 ASP623  PHE694  ASN695  SER759  ASP760  ASP761  ALA762  ILE779  LEU786  VAL792 
 PHE793  MET794  SER795  GLU796  ALA797  LYS798  CYS799  TRP800  GLU811  SER814 

> <Gold.Protein.RotatedAtoms>
  152.5281  134.3141  159.9123 H   0  0  0  0  0  0  0  0  0  0  0  0  # atno 6907 bound_to 6896
  151.3090  133.4082  159.2653 H   0  0  0  0  0  0  0  0  0  0  0  0  # atno 6908 bound_to 6896
  151.0054  134.9372  159.8035 H   0  0  0  0  0  0  0  0  0  0  0  0  # atno 6909 bound_to 6896
  145.2632  140.9275  143.3029 H   0  0  0  0  0  0  0  0  0  0  0  0  # atno 7974 bound_to 7965
  155.7598  140.0837  157.2160 H   0  0  0  0  0  0  0  0  0  0  0  0  # atno 8008 bound_to 7997
  154.4004  140.1545  156.2876 H   0  0  0  0  0  0  0  0  0  0  0  0  # atno 8009 bound_to 7997
  155.8850  140.3418  155.5917 H   0  0  0  0  0  0  0  0  0  0  0  0  # atno 8010 bound_to 7997
  140.6675  143.7139  150.7856 H   0  0  0  0  0  0  0  0  0  0  0  0  # atno 10167 bound_to 10162
  157.0207  131.0231  151.2775 H   0  0  0  0  0  0  0  0  0  0  0  0  # atno 10718 bound_to 10713
  154.6995  135.5180  153.8507 H   0  0  0  0  0  0  0  0  0  0  0  0  # atno 10763 bound_to 10752
  153.0693  135.6596  154.0292 H   0  0  0  0  0  0  0  0  0  0  0  0  # atno 10764 bound_to 10752
  154.0153  135.2998  155.3367 H   0  0  0  0  0  0  0  0  0  0  0  0  # atno 10765 bound_to 10752
  140.0709  134.9152  157.1344 H   0  0  0  0  0  0  0  0  0  0  0  0  # atno 11005 bound_to 11000
  144.9400  139.4200  143.6453 LP  0  0  0  0  0  0  0  0  0  0  0  0  # atno 17320 bound_to 7965
  146.3269  139.8355  142.8900 LP  0  0  0  0  0  0  0  0  0  0  0  0  # atno 17321 bound_to 7965
  140.0819  143.4960  152.2525 LP  0  0  0  0  0  0  0  0  0  0  0  0  # atno 17342 bound_to 10162
  139.5930  144.7557  151.3355 LP  0  0  0  0  0  0  0  0  0  0  0  0  # atno 17343 bound_to 10162
  157.5251  130.8023  149.7853 LP  0  0  0  0  0  0  0  0  0  0  0  0  # atno 17370 bound_to 10713
  156.0103  130.3836  150.2287 LP  0  0  0  0  0  0  0  0  0  0  0  0  # atno 17371 bound_to 10713
  140.3628  134.2475  155.7185 LP  0  0  0  0  0  0  0  0  0  0  0  0  # atno 17394 bound_to 11000
  141.2011  133.7970  157.0455 LP  0  0  0  0  0  0  0  0  0  0  0  0  # atno 17395 bound_to 11000

$$$$
