AV-unprocessed.smi:1446|AV-procd|sdf|5889|dock10
  -GOLD-   22720 5573D 1   1.00000     0.00000
 Structure written by MMmdl.
 47 48  0  0  0  0  0  0  0  0  1 V2000
  145.4030  135.9684  151.8049 C   0  0  0  0  0  0  0  0  0  0  0  0
  145.8346  135.2166  153.0590 C   0  0  0  0  0  0  0  0  0  0  0  0
  144.9937  134.6778  153.7778 O   0  0  0  0  0  0  0  0  0  0  0  0
  147.1532  135.1873  153.3086 N   0  0  0  0  0  0  0  0  0  0  0  0
  147.7870  134.5274  154.4523 C   0  0  2  0  0  0  0  0  0  0  0  0
  148.2894  135.6056  155.4330 C   0  0  0  0  0  0  0  0  0  0  0  0
  148.0216  135.5177  156.6328 O   0  0  0  0  0  0  0  0  0  0  0  0
  148.9956  136.6102  154.8806 N   0  0  0  0  0  0  0  0  0  0  0  0
  149.5671  137.7415  155.5209 C   0  0  0  0  0  0  0  0  0  0  0  0
  150.5510  138.4206  154.7722 C   0  0  0  0  0  0  0  0  0  0  0  0
  151.1759  139.5588  155.3168 C   0  0  0  0  0  0  0  0  0  0  0  0
  150.8111  140.0039  156.6098 C   0  0  0  0  0  0  0  0  0  0  0  0
  151.3890  141.1393  157.2186 N   0  0  0  0  0  0  0  0  0  0  0  0
  150.6969  142.4068  156.9975 C   0  0  0  0  0  0  0  0  0  0  0  0
  151.5923  143.5862  157.4162 C   0  0  0  0  0  0  0  0  0  0  0  0
  152.0202  143.4134  158.7632 O   0  0  0  0  0  0  0  0  0  0  0  0
  152.7914  142.2277  158.9247 C   0  0  0  0  0  0  0  0  0  0  0  0
  151.9368  141.0001  158.5648 C   0  0  0  0  0  0  0  0  0  0  0  0
  149.8140  139.2563  157.2780 C   0  0  0  0  0  0  0  0  0  0  0  0
  149.2125  138.1668  156.7568 N   0  0  0  0  0  0  0  0  0  0  0  0
  148.9846  133.6721  153.9418 C   0  0  0  0  0  0  0  0  0  0  0  0
  148.5473  132.6360  152.8871 C   0  0  0  0  0  0  0  0  0  0  0  0
  149.7325  132.9469  155.0799 C   0  0  0  0  0  0  0  0  0  0  0  0
  145.6687  137.0226  151.8836 H   0  0  0  0  0  0  0  0  0  0  0  0
  144.3242  135.8971  151.6617 H   0  0  0  0  0  0  0  0  0  0  0  0
  145.8923  135.5522  150.9241 H   0  0  0  0  0  0  0  0  0  0  0  0
  147.7671  135.6654  152.6651 H   0  0  0  0  0  0  0  0  0  0  0  0
  147.0624  133.8770  154.9472 H   0  0  0  0  0  0  0  0  0  0  0  0
  149.1407  136.5557  153.8831 H   0  0  0  0  0  0  0  0  0  0  0  0
  150.8295  138.0760  153.7868 H   0  0  0  0  0  0  0  0  0  0  0  0
  151.9309  140.0632  154.7330 H   0  0  0  0  0  0  0  0  0  0  0  0
  150.4073  142.5344  155.9553 H   0  0  0  0  0  0  0  0  0  0  0  0
  149.7775  142.4118  157.5844 H   0  0  0  0  0  0  0  0  0  0  0  0
  152.4577  143.6704  156.7568 H   0  0  0  0  0  0  0  0  0  0  0  0
  151.0399  144.5225  157.3364 H   0  0  0  0  0  0  0  0  0  0  0  0
  153.6860  142.2748  158.3014 H   0  0  0  0  0  0  0  0  0  0  0  0
  153.1277  142.1604  159.9593 H   0  0  0  0  0  0  0  0  0  0  0  0
  151.1191  140.8943  159.2791 H   0  0  0  0  0  0  0  0  0  0  0  0
  152.5522  140.1023  158.6313 H   0  0  0  0  0  0  0  0  0  0  0  0
  149.4635  139.5449  158.2576 H   0  0  0  0  0  0  0  0  0  0  0  0
  149.7023  134.3354  153.4557 H   0  0  0  0  0  0  0  0  0  0  0  0
  147.7960  131.9559  153.2896 H   0  0  0  0  0  0  0  0  0  0  0  0
  149.3932  132.0341  152.5536 H   0  0  0  0  0  0  0  0  0  0  0  0
  148.1275  133.1079  151.9989 H   0  0  0  0  0  0  0  0  0  0  0  0
  149.0590  132.3039  155.6474 H   0  0  0  0  0  0  0  0  0  0  0  0
  150.1959  133.6441  155.7781 H   0  0  0  0  0  0  0  0  0  0  0  0
  150.5326  132.3199  154.6858 H   0  0  0  0  0  0  0  0  0  0  0  0
  1  2  1  0  0  0  0
  1 24  1  0  0  0  0
  1 25  1  0  0  0  0
  1 26  1  0  0  0  0
  2  3  2  0  0  0  0
  2  4  1  0  0  0  0
  4  5  1  0  0  0  0
  4 27  1  0  0  0  0
  5  6  1  0  0  0  0
  5 21  1  0  0  0  0
  5 28  1  0  0  0  0
  6  7  2  0  0  0  0
  6  8  1  0  0  0  0
  8  9  1  0  0  0  0
  8 29  1  0  0  0  0
  9 20  1  0  0  0  0
  9 10  2  0  0  0  0
 10 11  1  0  0  0  0
 10 30  1  0  0  0  0
 11 12  2  0  0  0  0
 11 31  1  0  0  0  0
 12 13  1  0  0  0  0
 12 19  1  0  0  0  0
 13 18  1  0  0  0  0
 13 14  1  0  0  0  0
 14 15  1  0  0  0  0
 14 32  1  0  0  0  0
 14 33  1  0  0  0  0
 15 16  1  0  0  0  0
 15 34  1  0  0  0  0
 15 35  1  0  0  0  0
 16 17  1  0  0  0  0
 17 18  1  0  0  0  0
 17 36  1  0  0  0  0
 17 37  1  0  0  0  0
 18 38  1  0  0  0  0
 18 39  1  0  0  0  0
 19 20  2  0  0  0  0
 19 40  1  0  0  0  0
 21 22  1  0  0  0  0
 21 23  1  0  0  0  0
 21 41  1  0  0  0  0
 22 42  1  0  0  0  0
 22 43  1  0  0  0  0
 22 44  1  0  0  0  0
 23 45  1  0  0  0  0
 23 46  1  0  0  0  0
 23 47  1  0  0  0  0
M  END
> <s_m_source_file>
AV-unprocessed.smi

> <i_m_source_file_index>
1446

> <i_lp_mmshare_version>
43012

> <i_f3d_flags>
0

> <s_epik_input>
W0NIM11DKD1PKVtOSF1bQ0BASF0oW0NIXShbQ0gzXSlbQ0gzXSlDKD1PKVtOSF1jMVtjSF1bY0hdYyhbY0hdbjEpTjJbQ0gyXVtDSDJdT1tDSDJdW0NIMl0y

> <s_epik_cmdline>
J2VwaWtfcHl0aG9uJywgJy1waCcsICc3LjAnLCAnLXRuJywgJzgnLCAnLW1hJywgJzIwMCcsICctbWV0YWxfYmluZGluZycsICctaW1hZScsICc8aW5maWxlLm1hZT4nLCAnLW9tYWUnLCAnPG91dGZpbGUubWFlPic=

> <r_lp_tautomer_probability>
1

> <r_epik_Ionization_Penalty>
0.00298315

> <r_epik_Ionization_Penalty_Charging>
0

> <r_epik_Ionization_Penalty_Neutral>
0.00298315

> <r_epik_State_Penalty>
0.0038483

> <r_epik_Charging_Adjusted_Penalty>
0.0038483

> <i_epik_Tot_Q>
0

> <i_epik_Tot_abs_Q>
0

> <r_epik_Metal_State_Penalty>
-0

> <b_epik_Metal_Only>
0

> <s_lp_Force_Field>
OPLS_2005

> <r_lp_Energy>
27.9322

> <b_lp_Chiralities_Consistent>
1

> <s_lp_Variant>
AV-unprocessed.smi:1446-1

> <Gold.Version>
5.8.1

> <Gold.Id.Protein>
6NUR|6NUR_protein|mol2

> <Gold.PLP.Fitness>
36.9232

> <Gold.PLP.PLP>
-32.3107

> <Gold.PLP.part.hbond>
-1.9588

> <Gold.PLP.part.metal>
0.0000

> <Gold.PLP.part.buried>
-3.2483

> <Gold.PLP.part.nonpolar>
-27.3671

> <Gold.PLP.part.repulsive>
0.1127

> <Gold.PLP.ligand.clash>
0.0000

> <Gold.PLP.ligand.torsion>
0.8652

> <Gold.PLP.Chemscore.Hbond>
1.9825

> <Gold.PLP.Chemscore.CHOScore>
0.0000

> <Gold.PLP.Chemscore.Metal>
0.0000

> <Gold.Chemscore.Hbonds>
donor molecule, donor type, donor heavy atom, donor atom, acceptor molecule, acceptor atom, score
      L1  H     4    27       P1  7948  0.99
      L1  H     8    29       P1  7948  0.98

> <Gold.PLP.Chemscore.Internal.Correction>
0.3954

> <Gold.Rescore>
     Score         DG    S(hbond)    S(metal)    S(lipo)     H(rot)  DE(clash)    DE(int)     intcor
     12.92     -15.03       0.98        0.00      91.63       1.74       0.08       2.03       ----

> <Gold.Chemscore.Fitness>
12.9163

> <Gold.Chemscore.DG>
-15.0301

> <Gold.Chemscore.ZeroCoef>
-5.4800

> <Gold.Chemscore.Hbond>
0.9826

> <Gold.Chemscore.Metal>
0.0000

> <Gold.Chemscore.Lipo>
91.6314

> <Gold.Chemscore.Internal_Hbond>
0.0000

> <Gold.Chemscore.DEClash>
0.0810

> <Gold.Chemscore.DEInternal>
2.0328

> <Gold.Chemscore.Rot>
1.7394

> <Gold.Chemscore.Internal.Correction>
   9.000000E+99

> <Gold.Chemscore.Hbonds>
donor molecule, donor type, donor heavy atom, donor atom, acceptor molecule, acceptor atom, score
      L1  H     4    27       P1  7948  0.92
      L1  H     8    29       P1  7948  0.91

> <Gold.Chemscore.Hbond.Weighted>
-3.2820

> <Gold.Chemscore.Metal.Weighted>
-0.0000

> <Gold.Chemscore.Lipo.Weighted>
-10.7209

> <Gold.Chemscore.Internal_Hbond.Weighted>
0.0000

> <Gold.Chemscore.DEClash.Weighted>
0.0810

> <Gold.Chemscore.DEInternal.Weighted>
2.0328

> <Gold.Chemscore.Rot.Weighted>
4.4528

> <Gold.Chemscore.Internal.Correction.Weighted>
   9.000000E+99

> <Gold.Protein.RotatedTorsions>
[ 6907 6896 6895 6894 ] final  137.11 input  -60.11 | X-H torsion
[ 7974 7965 7964 7962 ] final  -60.85 input  175.53 | X-H torsion
[ 8008 7997 7996 7995 ] final -115.94 input   59.86 | X-H torsion
[ 10167 10162 10161 10158 ] final   79.93 input  -65.29 | X-H torsion
[ 10718 10713 10712 10709 ] final  -93.85 input   66.30 | X-H torsion
[ 10763 10752 10751 10750 ] final   76.05 input  -60.55 | X-H torsion
[ 11005 11000 10999 10996 ] final   64.55 input  -57.11 | X-H torsion

> <Gold.Protein.ActiveResidues>
 VAL166  LYS551  ARG553  GLY616  TRP617  ASP618  TYR619  PRO620  LYS621  CYS622 
 ASP623  PHE694  ASN695  SER759  ASP760  ASP761  ALA762  ILE779  LEU786  VAL792 
 PHE793  MET794  SER795  GLU796  ALA797  LYS798  CYS799  TRP800  GLU811  SER814 

> <Gold.Protein.RotatedAtoms>
  152.2817  133.5477  159.5501 H   0  0  0  0  0  0  0  0  0  0  0  0  # atno 6907 bound_to 6896
  150.7199  134.0554  159.3821 H   0  0  0  0  0  0  0  0  0  0  0  0  # atno 6908 bound_to 6896
  151.8464  135.0573  160.0505 H   0  0  0  0  0  0  0  0  0  0  0  0  # atno 6909 bound_to 6896
  145.8105  140.8601  143.0184 H   0  0  0  0  0  0  0  0  0  0  0  0  # atno 7974 bound_to 7965
  155.0599  140.0393  157.2573 H   0  0  0  0  0  0  0  0  0  0  0  0  # atno 8008 bound_to 7997
  154.7068  140.2684  155.6643 H   0  0  0  0  0  0  0  0  0  0  0  0  # atno 8009 bound_to 7997
  156.2777  140.2729  156.1696 H   0  0  0  0  0  0  0  0  0  0  0  0  # atno 8010 bound_to 7997
  139.9551  144.5999  150.8124 H   0  0  0  0  0  0  0  0  0  0  0  0  # atno 10167 bound_to 10162
  156.0019  130.5044  150.5839 H   0  0  0  0  0  0  0  0  0  0  0  0  # atno 10718 bound_to 10713
  153.0698  135.4966  154.8279 H   0  0  0  0  0  0  0  0  0  0  0  0  # atno 10763 bound_to 10752
  154.7005  135.3001  154.9349 H   0  0  0  0  0  0  0  0  0  0  0  0  # atno 10764 bound_to 10752
  154.0075  135.6758  153.4816 H   0  0  0  0  0  0  0  0  0  0  0  0  # atno 10765 bound_to 10752
  139.9951  134.6529  156.0023 H   0  0  0  0  0  0  0  0  0  0  0  0  # atno 11005 bound_to 11000
  144.6758  140.0389  143.7481 LP  0  0  0  0  0  0  0  0  0  0  0  0  # atno 17320 bound_to 7965
  145.9782  139.2921  143.1058 LP  0  0  0  0  0  0  0  0  0  0  0  0  # atno 17321 bound_to 7965
  140.7571  143.3079  151.2917 LP  0  0  0  0  0  0  0  0  0  0  0  0  # atno 17342 bound_to 10162
  139.6598  144.0210  152.2684 LP  0  0  0  0  0  0  0  0  0  0  0  0  # atno 17343 bound_to 10162
  157.3715  131.0766  151.1554 LP  0  0  0  0  0  0  0  0  0  0  0  0  # atno 17370 bound_to 10713
  157.2306  130.6523  149.5848 LP  0  0  0  0  0  0  0  0  0  0  0  0  # atno 17371 bound_to 10713
  141.1598  133.6539  156.4281 LP  0  0  0  0  0  0  0  0  0  0  0  0  # atno 17394 bound_to 11000
  140.4833  134.6644  157.5180 LP  0  0  0  0  0  0  0  0  0  0  0  0  # atno 17395 bound_to 11000

$$$$
