AV-unprocessed.smi:2214|AV-procd|sdf|8959|dock9
  -GOLD-   2272012173D 1   1.00000     0.00000
 Structure written by MMmdl.
 41 42  0  0  0  0  0  0  0  0  1 V2000
  151.9479  145.6183  159.7261 C   0  0  0  0  0  0  0  0  0  0  0  0
  152.1051  144.1160  159.6105 C   0  0  0  0  0  0  0  0  0  0  0  0
  152.7660  143.3895  160.6207 C   0  0  0  0  0  0  0  0  0  0  0  0
  152.9049  141.9944  160.5058 C   0  0  0  0  0  0  0  0  0  0  0  0
  152.3848  141.3213  159.3834 C   0  0  0  0  0  0  0  0  0  0  0  0
  152.5713  139.6078  159.2629 Cl  0  0  0  0  0  0  0  0  0  0  0  0
  151.7210  142.0359  158.3619 C   0  0  0  0  0  0  0  0  0  0  0  0
  151.2383  141.3090  157.2950 O   0  0  0  0  0  0  0  0  0  0  0  0
  150.7891  142.0078  156.1422 C   0  0  0  0  0  0  0  0  0  0  0  0
  150.0213  141.0171  155.2547 C   0  0  1  0  0  0  0  0  0  0  0  0
  150.8917  139.9397  154.9747 O   0  0  0  0  0  0  0  0  0  0  0  0
  148.7495  140.4737  155.9481 C   0  0  0  0  0  0  0  0  0  0  0  0
  147.6442  141.4437  155.8984 N   0  0  0  0  0  0  0  0  0  0  0  0
  147.0317  141.7539  157.1248 C   0  0  0  0  0  0  0  0  0  0  0  0
  146.0592  142.6021  157.2024 N   0  0  0  0  0  0  0  0  0  0  0  0
  145.5964  143.2389  156.0472 C   0  0  0  0  0  0  0  0  0  0  0  0
  144.4523  144.2160  156.2513 C   0  0  0  0  0  0  0  0  0  0  0  0
  146.1520  142.9876  154.8300 C   0  0  0  0  0  0  0  0  0  0  0  0
  145.6905  143.6520  153.5388 C   0  0  0  0  0  0  0  0  0  0  0  0
  147.2629  142.0273  154.7265 C   0  0  0  0  0  0  0  0  0  0  0  0
  147.8185  141.7610  153.6591 O   0  0  0  0  0  0  0  0  0  0  0  0
  151.5849  143.4419  158.4867 C   0  0  0  0  0  0  0  0  0  0  0  0
  152.4720  146.0076  160.5993 H   0  0  0  0  0  0  0  0  0  0  0  0
  150.8937  145.8814  159.8152 H   0  0  0  0  0  0  0  0  0  0  0  0
  152.3515  146.1105  158.8408 H   0  0  0  0  0  0  0  0  0  0  0  0
  153.1679  143.8967  161.4858 H   0  0  0  0  0  0  0  0  0  0  0  0
  153.4126  141.4399  161.2812 H   0  0  0  0  0  0  0  0  0  0  0  0
  150.1299  142.8230  156.4456 H   0  0  0  0  0  0  0  0  0  0  0  0
  151.6299  142.4340  155.5921 H   0  0  0  0  0  0  0  0  0  0  0  0
  149.7749  141.5112  154.3137 H   0  0  0  0  0  0  0  0  0  0  0  0
  151.1372  139.5305  155.7903 H   0  0  0  0  0  0  0  0  0  0  0  0
  148.4600  139.5066  155.5322 H   0  0  0  0  0  0  0  0  0  0  0  0
  148.9660  140.2463  156.9940 H   0  0  0  0  0  0  0  0  0  0  0  0
  147.4372  141.2366  157.9966 H   0  0  0  0  0  0  0  0  0  0  0  0
  143.5781  143.9079  155.6769 H   0  0  0  0  0  0  0  0  0  0  0  0
  144.7446  145.2170  155.9333 H   0  0  0  0  0  0  0  0  0  0  0  0
  144.1597  144.2715  157.3005 H   0  0  0  0  0  0  0  0  0  0  0  0
  146.5099  144.2175  153.0940 H   0  0  0  0  0  0  0  0  0  0  0  0
  144.8574  144.3381  153.6825 H   0  0  0  0  0  0  0  0  0  0  0  0
  145.3719  142.8959  152.8201 H   0  0  0  0  0  0  0  0  0  0  0  0
  151.0803  144.0253  157.7315 H   0  0  0  0  0  0  0  0  0  0  0  0
  1  2  1  0  0  0  0
  1 23  1  0  0  0  0
  1 24  1  0  0  0  0
  1 25  1  0  0  0  0
  2 22  1  0  0  0  0
  2  3  2  0  0  0  0
  3  4  1  0  0  0  0
  3 26  1  0  0  0  0
  4  5  2  0  0  0  0
  4 27  1  0  0  0  0
  5  6  1  0  0  0  0
  5  7  1  0  0  0  0
  7  8  1  0  0  0  0
  7 22  2  0  0  0  0
  8  9  1  0  0  0  0
  9 10  1  0  0  0  0
  9 28  1  0  0  0  0
  9 29  1  0  0  0  0
 10 11  1  0  0  0  0
 10 12  1  0  0  0  0
 10 30  1  0  0  0  0
 11 31  1  0  0  0  0
 12 13  1  0  0  0  0
 12 32  1  0  0  0  0
 12 33  1  0  0  0  0
 13 20  1  0  0  0  0
 13 14  1  0  0  0  0
 14 15  2  0  0  0  0
 14 34  1  0  0  0  0
 15 16  1  0  0  0  0
 16 17  1  0  0  0  0
 16 18  2  0  0  0  0
 17 35  1  0  0  0  0
 17 36  1  0  0  0  0
 17 37  1  0  0  0  0
 18 19  1  0  0  0  0
 18 20  1  0  0  0  0
 19 38  1  0  0  0  0
 19 39  1  0  0  0  0
 19 40  1  0  0  0  0
 20 21  2  0  0  0  0
 22 41  1  0  0  0  0
M  END
> <s_m_source_file>
AV-unprocessed.smi

> <i_m_source_file_index>
2214

> <i_lp_mmshare_version>
43012

> <i_f3d_flags>
0

> <s_epik_input>
W0NIM11jMVtjSF1bY0hdYyhDbCljKFtjSF0xKU9bQ0gyXVtDQEhdKFtPSF0pW0NIMl1uMltjSF1uYyhbQ0gzXSljKFtDSDNdKWMyPU8=

> <s_epik_cmdline>
J2VwaWtfcHl0aG9uJywgJy1waCcsICc3LjAnLCAnLXRuJywgJzgnLCAnLW1hJywgJzIwMCcsICctbWV0YWxfYmluZGluZycsICctaW1hZScsICc8aW5maWxlLm1hZT4nLCAnLW9tYWUnLCAnPG91dGZpbGUubWFlPic=

> <r_lp_tautomer_probability>
1

> <r_epik_Ionization_Penalty>
3.50205e-05

> <r_epik_Ionization_Penalty_Charging>
7.87908e-08

> <r_epik_Ionization_Penalty_Neutral>
3.49418e-05

> <r_epik_State_Penalty>
-0

> <r_epik_Charging_Adjusted_Penalty>
7.87908e-08

> <i_epik_Tot_Q>
0

> <i_epik_Tot_abs_Q>
0

> <r_epik_Metal_State_Penalty>
-0

> <b_epik_Metal_Only>
0

> <s_lp_Force_Field>
OPLS_2005

> <r_lp_Energy>
22.3765

> <b_lp_Chiralities_Consistent>
1

> <s_lp_Variant>
AV-unprocessed.smi:2214-2

> <Gold.Version>
5.8.1

> <Gold.Id.Protein>
6NUR|6NUR_protein|mol2

> <Gold.PLP.Fitness>
47.7659

> <Gold.PLP.PLP>
-46.5429

> <Gold.PLP.part.hbond>
-1.3866

> <Gold.PLP.part.metal>
0.0000

> <Gold.PLP.part.buried>
-6.4525

> <Gold.PLP.part.nonpolar>
-39.0087

> <Gold.PLP.part.repulsive>
0.3133

> <Gold.PLP.ligand.clash>
0.0000

> <Gold.PLP.ligand.torsion>
0.3893

> <Gold.PLP.Chemscore.Hbond>
0.6500

> <Gold.PLP.Chemscore.CHOScore>
0.0000

> <Gold.PLP.Chemscore.Metal>
0.0000

> <Gold.Chemscore.Hbonds>
donor molecule, donor type, donor heavy atom, donor atom, acceptor molecule, acceptor atom, score
      P1  H  7989  7998       L1    11  0.55

> <Gold.PLP.Chemscore.Internal.Correction>
0.0516

> <Gold.Rescore>
     Score         DG    S(hbond)    S(metal)    S(lipo)     H(rot)  DE(clash)    DE(int)     intcor
     14.03     -15.87       0.84        0.00     116.29       2.35       0.19       1.65       ----

> <Gold.Chemscore.Fitness>
14.0303

> <Gold.Chemscore.DG>
-15.8703

> <Gold.Chemscore.ZeroCoef>
-5.4800

> <Gold.Chemscore.Hbond>
0.8377

> <Gold.Chemscore.Metal>
0.0000

> <Gold.Chemscore.Lipo>
116.2898

> <Gold.Chemscore.Internal_Hbond>
0.0000

> <Gold.Chemscore.DEClash>
0.1941

> <Gold.Chemscore.DEInternal>
1.6459

> <Gold.Chemscore.Rot>
2.3490

> <Gold.Chemscore.Internal.Correction>
   9.000000E+99

> <Gold.Chemscore.Hbonds>
donor molecule, donor type, donor heavy atom, donor atom, acceptor molecule, acceptor atom, score
      P1  H  7989  7998       L1    11  0.03
      P1  H  8011  8017       L1    21  0.02

> <Gold.Chemscore.Hbond.Weighted>
-2.7979

> <Gold.Chemscore.Metal.Weighted>
-0.0000

> <Gold.Chemscore.Lipo.Weighted>
-13.6059

> <Gold.Chemscore.Internal_Hbond.Weighted>
0.0000

> <Gold.Chemscore.DEClash.Weighted>
0.1941

> <Gold.Chemscore.DEInternal.Weighted>
1.6459

> <Gold.Chemscore.Rot.Weighted>
6.0136

> <Gold.Chemscore.Internal.Correction.Weighted>
   9.000000E+99

> <Gold.Protein.RotatedTorsions>
[ 6907 6896 6895 6894 ] final  -21.36 input  -60.11 | X-H torsion
[ 7974 7965 7964 7962 ] final   14.59 input  175.53 | X-H torsion
[ 8008 7997 7996 7995 ] final   70.89 input   59.86 | X-H torsion
[ 10167 10162 10161 10158 ] final  -39.12 input  -65.29 | X-H torsion
[ 10718 10713 10712 10709 ] final   -8.36 input   66.30 | X-H torsion
[ 10763 10752 10751 10750 ] final -172.01 input  -60.55 | X-H torsion
[ 11005 11000 10999 10996 ] final   85.19 input  -57.11 | X-H torsion

> <Gold.Protein.ActiveResidues>
 VAL166  LYS551  ARG553  GLY616  TRP617  ASP618  TYR619  PRO620  LYS621  CYS622 
 ASP623  PHE694  ASN695  SER759  ASP760  ASP761  ALA762  ILE779  LEU786  VAL792 
 PHE793  MET794  SER795  GLU796  ALA797  LYS798  CYS799  TRP800  GLU811  SER814 

> <Gold.Protein.RotatedAtoms>
  151.2344  135.0566  159.9000 H   0  0  0  0  0  0  0  0  0  0  0  0  # atno 6907 bound_to 6896
  152.5401  134.0502  159.8116 H   0  0  0  0  0  0  0  0  0  0  0  0  # atno 6908 bound_to 6896
  151.0686  133.5436  159.2660 H   0  0  0  0  0  0  0  0  0  0  0  0  # atno 6909 bound_to 6896
  146.2301  139.9019  142.8538 H   0  0  0  0  0  0  0  0  0  0  0  0  # atno 7974 bound_to 7965
  155.7457  140.3489  155.5126 H   0  0  0  0  0  0  0  0  0  0  0  0  # atno 8008 bound_to 7997
  155.9052  140.1041  157.1342 H   0  0  0  0  0  0  0  0  0  0  0  0  # atno 8009 bound_to 7997
  154.4049  140.1278  156.4474 H   0  0  0  0  0  0  0  0  0  0  0  0  # atno 8010 bound_to 7997
  140.7073  143.3234  151.2737 H   0  0  0  0  0  0  0  0  0  0  0  0  # atno 10167 bound_to 10162
  156.7038  130.5101  149.5910 H   0  0  0  0  0  0  0  0  0  0  0  0  # atno 10718 bound_to 10713
  154.6241  135.2878  155.0293 H   0  0  0  0  0  0  0  0  0  0  0  0  # atno 10763 bound_to 10752
  154.1477  135.6508  153.4960 H   0  0  0  0  0  0  0  0  0  0  0  0  # atno 10764 bound_to 10752
  153.0249  135.5348  154.7042 H   0  0  0  0  0  0  0  0  0  0  0  0  # atno 10765 bound_to 10752
  139.8978  134.8269  156.2549 H   0  0  0  0  0  0  0  0  0  0  0  0  # atno 11005 bound_to 11000
  145.2314  140.9974  143.3988 LP  0  0  0  0  0  0  0  0  0  0  0  0  # atno 17320 bound_to 7965
  144.9527  139.4065  143.6394 LP  0  0  0  0  0  0  0  0  0  0  0  0  # atno 17321 bound_to 7965
  139.6695  144.0045  152.2744 LP  0  0  0  0  0  0  0  0  0  0  0  0  # atno 17342 bound_to 10162
  139.9639  144.6539  150.8053 LP  0  0  0  0  0  0  0  0  0  0  0  0  # atno 17343 bound_to 10162
  156.1710  130.6437  151.0837 LP  0  0  0  0  0  0  0  0  0  0  0  0  # atno 17370 bound_to 10713
  157.6963  131.0793  150.6959 LP  0  0  0  0  0  0  0  0  0  0  0  0  # atno 17371 bound_to 10713
  141.0200  133.7047  156.1252 LP  0  0  0  0  0  0  0  0  0  0  0  0  # atno 17394 bound_to 11000
  140.7247  134.4320  157.5572 LP  0  0  0  0  0  0  0  0  0  0  0  0  # atno 17395 bound_to 11000

$$$$
