AV-unprocessed.smi:2339|AV-procd|sdf|9339|dock9
  -GOLD-   2272012563D 1   1.00000     0.00000
 Structure written by MMmdl.
 49 52  0  0  0  0  0  0  0  0  1 V2000
  145.1777  142.5317  154.9177 C   0  0  0  0  0  0  0  0  0  0  0  0
  146.2082  142.5139  153.7832 C   0  0  0  0  0  0  0  0  0  0  0  0
  147.2389  141.5105  154.0070 N   0  0  0  0  0  0  0  0  0  0  0  0
  148.4905  141.8582  154.5035 C   0  0  0  0  0  0  0  0  0  0  0  0
  149.4943  140.9819  154.6985 C   0  0  0  0  0  0  0  0  0  0  0  0
  149.2858  139.5575  154.3699 C   0  0  0  0  0  0  0  0  0  0  0  0
  150.1788  138.7295  154.5484 O   0  0  0  0  0  0  0  0  0  0  0  0
  147.9543  139.1877  153.8202 C   0  0  0  0  0  0  0  0  0  0  0  0
  147.7727  137.8336  153.4913 N   0  0  0  0  0  0  0  0  0  0  0  0
  146.7558  137.0023  153.7988 C   0  0  0  0  0  0  0  0  0  0  0  0
  145.7794  137.2932  154.4856 O   0  0  0  0  0  0  0  0  0  0  0  0
  146.8798  135.7733  153.2696 N   0  0  0  0  0  0  0  0  0  0  0  0
  145.9660  134.6387  153.4027 C   0  0  1  0  0  0  0  0  0  0  0  0
  145.2607  134.3227  152.0832 C   0  0  2  0  0  0  0  0  0  0  0  0
  143.8588  134.4314  151.5999 C   0  0  0  0  0  0  0  0  0  0  0  0
  143.7498  133.0293  150.9446 C   0  0  0  0  0  0  0  0  0  0  0  0
  144.9283  132.3011  151.3669 O   0  0  0  0  0  0  0  0  0  0  0  0
  145.2748  132.8997  152.5993 C   0  0  1  0  0  0  0  0  0  0  0  0
  146.6453  133.2251  153.2244 C   0  0  0  0  0  0  0  0  0  0  0  0
  147.9084  133.0720  152.3623 C   0  0  0  0  0  0  0  0  0  0  0  0
  149.0927  132.9931  153.3228 C   0  0  0  0  0  0  0  0  0  0  0  0
  148.5374  132.3451  154.5896 C   0  0  0  0  0  0  0  0  0  0  0  0
  147.0100  132.4555  154.4955 C   0  0  0  0  0  0  0  0  0  0  0  0
  147.0317  140.1733  153.6740 C   0  0  0  0  0  0  0  0  0  0  0  0
  144.4122  143.2856  154.7340 H   0  0  0  0  0  0  0  0  0  0  0  0
  145.6486  142.7612  155.8741 H   0  0  0  0  0  0  0  0  0  0  0  0
  144.6788  141.5666  155.0119 H   0  0  0  0  0  0  0  0  0  0  0  0
  145.7095  142.3184  152.8331 H   0  0  0  0  0  0  0  0  0  0  0  0
  146.6708  143.4970  153.6879 H   0  0  0  0  0  0  0  0  0  0  0  0
  148.6027  142.9081  154.7329 H   0  0  0  0  0  0  0  0  0  0  0  0
  150.4503  141.2972  155.0898 H   0  0  0  0  0  0  0  0  0  0  0  0
  148.5079  137.4409  152.9211 H   0  0  0  0  0  0  0  0  0  0  0  0
  147.7030  135.6076  152.7087 H   0  0  0  0  0  0  0  0  0  0  0  0
  145.2769  134.7098  154.2494 H   0  0  0  0  0  0  0  0  0  0  0  0
  145.9455  134.4684  151.2424 H   0  0  0  0  0  0  0  0  0  0  0  0
  143.1518  134.5547  152.4216 H   0  0  0  0  0  0  0  0  0  0  0  0
  143.7187  135.2409  150.8832 H   0  0  0  0  0  0  0  0  0  0  0  0
  142.8456  132.5158  151.2737 H   0  0  0  0  0  0  0  0  0  0  0  0
  143.7294  133.0889  149.8562 H   0  0  0  0  0  0  0  0  0  0  0  0
  144.5129  132.6942  153.3600 H   0  0  0  0  0  0  0  0  0  0  0  0
  147.8500  132.1480  151.7856 H   0  0  0  0  0  0  0  0  0  0  0  0
  148.0519  133.8796  151.6449 H   0  0  0  0  0  0  0  0  0  0  0  0
  149.9331  132.4396  152.9032 H   0  0  0  0  0  0  0  0  0  0  0  0
  149.4459  133.9987  153.5527 H   0  0  0  0  0  0  0  0  0  0  0  0
  148.8320  131.2964  154.6416 H   0  0  0  0  0  0  0  0  0  0  0  0
  148.9232  132.8368  155.4835 H   0  0  0  0  0  0  0  0  0  0  0  0
  146.6011  132.9361  155.3834 H   0  0  0  0  0  0  0  0  0  0  0  0
  146.5778  131.4543  154.4673 H   0  0  0  0  0  0  0  0  0  0  0  0
  146.0415  140.0016  153.2848 H   0  0  0  0  0  0  0  0  0  0  0  0
  1  2  1  0  0  0  0
  1 25  1  0  0  0  0
  1 26  1  0  0  0  0
  1 27  1  0  0  0  0
  2  3  1  0  0  0  0
  2 28  1  0  0  0  0
  2 29  1  0  0  0  0
  3 24  1  0  0  0  0
  3  4  1  0  0  0  0
  4  5  2  0  0  0  0
  4 30  1  0  0  0  0
  5  6  1  0  0  0  0
  5 31  1  0  0  0  0
  6  7  2  0  0  0  0
  6  8  1  0  0  0  0
  8  9  1  0  0  0  0
  8 24  2  0  0  0  0
  9 10  1  0  0  0  0
  9 32  1  0  0  0  0
 10 11  2  0  0  0  0
 10 12  1  0  0  0  0
 12 13  1  0  0  0  0
 12 33  1  0  0  0  0
 13 19  1  0  0  0  0
 13 14  1  0  0  0  0
 13 34  1  0  0  0  0
 14 18  1  0  0  0  0
 14 15  1  0  0  0  0
 14 35  1  0  0  0  0
 15 16  1  0  0  0  0
 15 36  1  0  0  0  0
 15 37  1  0  0  0  0
 16 17  1  0  0  0  0
 16 38  1  0  0  0  0
 16 39  1  0  0  0  0
 17 18  1  0  0  0  0
 18 19  1  0  0  0  0
 18 40  1  0  0  0  0
 19 23  1  0  0  0  0
 19 20  1  0  0  0  0
 20 21  1  0  0  0  0
 20 41  1  0  0  0  0
 20 42  1  0  0  0  0
 21 22  1  0  0  0  0
 21 43  1  0  0  0  0
 21 44  1  0  0  0  0
 22 23  1  0  0  0  0
 22 45  1  0  0  0  0
 22 46  1  0  0  0  0
 23 47  1  0  0  0  0
 23 48  1  0  0  0  0
 24 49  1  0  0  0  0
M  END
> <s_m_source_file>
AV-unprocessed.smi

> <i_m_source_file_index>
2339

> <i_lp_mmshare_version>
43012

> <i_f3d_flags>
0

> <s_epik_input>
W0NIM11bQ0gyXW4xW2NIXVtjSF1jKD1PKWMoW2NIXTEpW05IXUMoPU8pW05IXVtDQEBIXTJbQ0BASF0oW0NIMl1bQ0gyXU8zKVtDQEBIXTNDMjRbQ0gyXVtDSDJdW0NIMl1bQ0gyXTQ=

> <s_epik_cmdline>
J2VwaWtfcHl0aG9uJywgJy1waCcsICc3LjAnLCAnLXRuJywgJzgnLCAnLW1hJywgJzIwMCcsICctbWV0YWxfYmluZGluZycsICctaW1hZScsICc8aW5maWxlLm1hZT4nLCAnLW9tYWUnLCAnPG91dGZpbGUubWFlPic=

> <r_lp_tautomer_probability>
1

> <r_epik_Ionization_Penalty>
0.00145966

> <r_epik_Ionization_Penalty_Charging>
0.00143969

> <r_epik_Ionization_Penalty_Neutral>
1.99697e-05

> <r_epik_State_Penalty>
0.000961843

> <r_epik_Charging_Adjusted_Penalty>
0.00240153

> <i_epik_Tot_Q>
0

> <i_epik_Tot_abs_Q>
0

> <r_epik_Metal_State_Penalty>
-0

> <b_epik_Metal_Only>
0

> <s_lp_Force_Field>
OPLS_2005

> <r_lp_Energy>
78.6826

> <b_lp_Chiralities_Consistent>
1

> <s_lp_Variant>
AV-unprocessed.smi:2339-4

> <Gold.Version>
5.8.1

> <Gold.Id.Protein>
6NUR|6NUR_protein|mol2

> <Gold.PLP.Fitness>
49.0517

> <Gold.PLP.PLP>
-38.8373

> <Gold.PLP.part.hbond>
-2.0000

> <Gold.PLP.part.metal>
0.0000

> <Gold.PLP.part.buried>
-2.1555

> <Gold.PLP.part.nonpolar>
-35.0765

> <Gold.PLP.part.repulsive>
0.3800

> <Gold.PLP.ligand.clash>
0.0000

> <Gold.PLP.ligand.torsion>
0.9298

> <Gold.PLP.Chemscore.Hbond>
1.9520

> <Gold.PLP.Chemscore.CHOScore>
1.9763

> <Gold.PLP.Chemscore.Metal>
0.0000

> <Gold.Chemscore.Hbonds>
donor molecule, donor type, donor heavy atom, donor atom, acceptor molecule, acceptor atom, score
      L1  H     9    32       P1  7948  0.96
      L1  H    12    33       P1  7948  0.99
      L1  C     4    30       P1  8028  1.00
      L1  C    24    49       P1 10175  0.98

> <Gold.PLP.Chemscore.Internal.Correction>
0.2889

> <Gold.Rescore>
     Score         DG    S(hbond)    S(metal)    S(lipo)     H(rot)  DE(clash)    DE(int)     intcor
     17.80     -18.46       1.89        0.00      82.68       1.17       0.01       0.66       ----

> <Gold.Chemscore.Fitness>
17.7991

> <Gold.Chemscore.DG>
-18.4637

> <Gold.Chemscore.ZeroCoef>
-5.4800

> <Gold.Chemscore.Hbond>
1.8854

> <Gold.Chemscore.Metal>
0.0000

> <Gold.Chemscore.Lipo>
82.6841

> <Gold.Chemscore.Internal_Hbond>
0.0000

> <Gold.Chemscore.DEClash>
0.0060

> <Gold.Chemscore.DEInternal>
0.6587

> <Gold.Chemscore.Rot>
1.1670

> <Gold.Chemscore.Internal.Correction>
   9.000000E+99

> <Gold.Chemscore.Hbonds>
donor molecule, donor type, donor heavy atom, donor atom, acceptor molecule, acceptor atom, score
      L1  H     9    32       P1  7948  0.92
      L1  H    12    33       P1  7948  0.93

> <Gold.Chemscore.Hbond.Weighted>
-6.2971

> <Gold.Chemscore.Metal.Weighted>
-0.0000

> <Gold.Chemscore.Lipo.Weighted>
-9.6740

> <Gold.Chemscore.Internal_Hbond.Weighted>
0.0000

> <Gold.Chemscore.DEClash.Weighted>
0.0060

> <Gold.Chemscore.DEInternal.Weighted>
0.6587

> <Gold.Chemscore.Rot.Weighted>
2.9874

> <Gold.Chemscore.Internal.Correction.Weighted>
   9.000000E+99

> <Gold.Protein.RotatedTorsions>
[ 6907 6896 6895 6894 ] final -121.49 input  -60.11 | X-H torsion
[ 7974 7965 7964 7962 ] final  -48.87 input  175.53 | X-H torsion
[ 8008 7997 7996 7995 ] final   39.55 input   59.86 | X-H torsion
[ 10167 10162 10161 10158 ] final   14.37 input  -65.29 | X-H torsion
[ 10718 10713 10712 10709 ] final -110.10 input   66.30 | X-H torsion
[ 10763 10752 10751 10750 ] final   69.43 input  -60.55 | X-H torsion
[ 11005 11000 10999 10996 ] final  -35.98 input  -57.11 | X-H torsion

> <Gold.Protein.ActiveResidues>
 VAL166  LYS551  ARG553  GLY616  TRP617  ASP618  TYR619  PRO620  LYS621  CYS622 
 ASP623  PHE694  ASN695  SER759  ASP760  ASP761  ALA762  ILE779  LEU786  VAL792 
 PHE793  MET794  SER795  GLU796  ALA797  LYS798  CYS799  TRP800  GLU811  SER814 

> <Gold.Protein.RotatedAtoms>
  150.8488  133.7819  159.3032 H   0  0  0  0  0  0  0  0  0  0  0  0  # atno 6907 bound_to 6896
  151.5498  135.1066  159.9956 H   0  0  0  0  0  0  0  0  0  0  0  0  # atno 6908 bound_to 6896
  152.4536  133.7634  159.6815 H   0  0  0  0  0  0  0  0  0  0  0  0  # atno 6909 bound_to 6896
  145.9466  140.7612  142.9525 H   0  0  0  0  0  0  0  0  0  0  0  0  # atno 7974 bound_to 7965
  155.2385  140.3343  155.4295 H   0  0  0  0  0  0  0  0  0  0  0  0  # atno 8008 bound_to 7997
  156.2266  140.1832  156.7393 H   0  0  0  0  0  0  0  0  0  0  0  0  # atno 8009 bound_to 7997
  154.5908  140.0638  156.9221 H   0  0  0  0  0  0  0  0  0  0  0  0  # atno 8010 bound_to 7997
  140.5940  143.8738  150.6900 H   0  0  0  0  0  0  0  0  0  0  0  0  # atno 10167 bound_to 10162
  156.0573  130.5798  150.8191 H   0  0  0  0  0  0  0  0  0  0  0  0  # atno 10718 bound_to 10713
  153.0287  135.5211  154.7287 H   0  0  0  0  0  0  0  0  0  0  0  0  # atno 10763 bound_to 10752
  154.6321  135.2901  155.0206 H   0  0  0  0  0  0  0  0  0  0  0  0  # atno 10764 bound_to 10752
  154.1154  135.6615  153.4945 H   0  0  0  0  0  0  0  0  0  0  0  0  # atno 10765 bound_to 10752
  140.9838  133.7041  156.1731 H   0  0  0  0  0  0  0  0  0  0  0  0  # atno 11005 bound_to 11000
  144.6788  140.2367  143.7349 LP  0  0  0  0  0  0  0  0  0  0  0  0  # atno 17320 bound_to 7965
  145.8227  139.2051  143.1928 LP  0  0  0  0  0  0  0  0  0  0  0  0  # atno 17321 bound_to 7965
  140.2268  143.3766  152.1598 LP  0  0  0  0  0  0  0  0  0  0  0  0  # atno 17342 bound_to 10162
  139.5246  144.7086  151.5278 LP  0  0  0  0  0  0  0  0  0  0  0  0  # atno 17343 bound_to 10162
  157.5553  131.0945  150.9638 LP  0  0  0  0  0  0  0  0  0  0  0  0  # atno 17370 bound_to 10713
  156.9888  130.5555  149.5301 LP  0  0  0  0  0  0  0  0  0  0  0  0  # atno 17371 bound_to 10713
  140.7145  134.4425  157.5579 LP  0  0  0  0  0  0  0  0  0  0  0  0  # atno 17394 bound_to 11000
  139.8962  134.8666  156.2099 LP  0  0  0  0  0  0  0  0  0  0  0  0  # atno 17395 bound_to 11000

$$$$
