#       Name:                AV-unprocessed.smi:52
#       Creating user name   scv26
#       Creation time:       Thu Mar 26 16:38:32 2020


#       File generated by GOLD software.
#

@<TRIPOS>MOLECULE
AV-unprocessed.smi:52
    36    37     1
SMALL
NO_CHARGES


@<TRIPOS>ATOM
      1 ****        -5.5959  -0.4074   1.4728 O.co2          1 S1                 0.0000
      2 ****        -4.5038  -0.9980   1.6274 C.2            1 S1                 0.0000
      3 ****        -4.4470  -2.2041   1.9542 O.co2          1 S1                -1.0000
      4 ****        -3.2403  -0.2443   1.4163 C.2            1 S1                 0.0000
      5 ****        -3.1224   1.0760   1.0615 C.2            1 S1                 0.0000
      6 ****        -1.7962   1.3992   0.9625 O.3            1 S1                 0.0000
      7 ****        -1.1465   0.2429   1.2659 C.2            1 S1                 0.0000
      8 ****         0.3464   0.2251   1.2420 C.3            1 S1                 0.0000
      9 ****         0.8914  -0.3410   0.0126 N.3            1 S1                 0.0000
     10 ****         0.6058   0.4455  -1.1766 C.3            1 S1                 0.0000
     11 ****         1.6330   0.0235  -2.2367 C.3            1 S1                 0.0000
     12 ****         2.7175  -0.7131  -1.4333 C.3            1 S1                 0.0000
     13 ****         4.0219  -0.2617  -1.7302 O.3            1 S1                 0.0000
     14 ****         2.3356  -0.4402   0.0223 C.3            1 S1                 0.0000
     15 ****        -1.9613  -0.7715   1.5473 N.2            1 S1                 0.0000
     16 ****         2.6556  -1.7839  -1.6330 H              1 S1                 0.0000
     17 ****        -3.8340   1.8621   0.8564 H              1 S1                 0.0000
     18 ****         0.7141   1.2414   1.3906 H              1 S1                 0.0000
     19 ****         0.6884  -0.3602   2.0964 H              1 S1                 0.0000
     20 ****        -0.4206   0.2994  -1.5150 H              1 S1                 0.0000
     21 ****         0.7334   1.5076  -0.9603 H              1 S1                 0.0000
     22 ****         1.1868  -0.6423  -2.9764 H              1 S1                 0.0000
     23 ****         2.0202   0.8963  -2.7641 H              1 S1                 0.0000
     24 ****         4.0661   0.6656  -1.5533 H              1 S1                 0.0000
     25 ****         2.7694   0.5060   0.3514 H              1 S1                 0.0000
     26 ****         2.6829  -1.2221   0.6985 H              1 S1                 0.0000
     27 ****        -6.4549  -0.9005   1.6109 LP             1 S1                 0.0000
     28 ****        -5.6098   0.5576   1.2112 LP             1 S1                 0.0000
     29 ****        -5.2894  -2.7231   2.0993 LP             1 S1                 0.0000
     30 ****        -3.5592  -2.6494   2.0705 LP             1 S1                 0.0000
     31 ****        -1.5577   2.1208   1.6124 LP             1 S1                 0.0000
     32 ****        -1.5726   1.6986   0.0350 LP             1 S1                 0.0000
     33 ****         0.4465  -1.2360  -0.0201 LP             1 S1                 0.0000
     34 ****         4.2261  -0.4313  -2.6943 LP             1 S1                 0.0000
     35 ****         4.6845  -0.7460  -1.1589 LP             1 S1                 0.0000
     36 ****        -1.7088  -1.7062   1.7976 LP             1 S1                 0.0000
@<TRIPOS>BOND
    1    1    2 ar    
    2    2    3 ar    
    3    2    4 1     
    4    4   15 1     
    5    4    5 2     
    6    5    6 1     
    7    5   17 1     
    8    6    7 1     
    9    7    8 1     
   10    7   15 2     
   11    8    9 1     
   12    8   18 1     
   13    8   19 1     
   14    9   14 1     
   15    9   10 1     
   16   10   11 1     
   17   10   20 1     
   18   10   21 1     
   19   11   12 1     
   20   11   22 1     
   21   11   23 1     
   22   12   16 1     
   23   12   13 1     
   24   12   14 1     
   25   13   24 1     
   26   14   25 1     
   27   14   26 1     
   28    1   27 1     
   29    1   28 1     
   30    3   29 1     
   31    3   30 1     
   32    6   31 1     
   33    6   32 1     
   34    9   33 1     
   35   13   34 1     
   36   13   35 1     
   37   15   36 1     
@<TRIPOS>SUBSTRUCTURE
      1 S1             1
@<TRIPOS>SET
LONE_PAIRS      STATIC     ATOMS    <user>   **** ""
10 27 28 29 30 31 32 33 34 35 36
DONOR_HYDROGENS      STATIC     ATOMS    <user>   **** ""
1 24
ATOM$BLUE        STATIC     ATOMS    COLORGROUP SYSTEM
10 27 28 29 30 31 32 33 34 35 36
ATOM$RED        STATIC     ATOMS    COLORGROUP SYSTEM
1 24
