AV-unprocessed.smi:2261|AV-procd|sdf|9136|dock2
  -GOLD-   2272012343D 1   1.00000     0.00000
 Structure written by MMmdl.
 41 42  0  0  0  0  0  0  0  0  1 V2000
  148.7415  135.1442  158.6437 C   0  0  0  0  0  0  0  0  0  0  0  0
  148.6390  133.8248  157.8633 C   0  0  0  0  0  0  0  0  0  0  0  0
  148.1541  132.6820  158.7716 C   0  0  0  0  0  0  0  0  0  0  0  0
  147.7758  133.9606  156.6029 C   0  0  0  0  0  0  0  0  0  0  0  0
  148.4773  133.0624  155.6031 C   0  0  1  0  0  0  0  0  0  0  0  0
  148.1745  133.4554  154.2286 N   0  0  0  0  0  0  0  0  0  0  0  0
  147.6321  132.6600  153.2946 C   0  0  0  0  0  0  0  0  0  0  0  0
  147.3161  131.4882  153.4974 O   0  0  0  0  0  0  0  0  0  0  0  0
  147.4091  133.2842  151.9174 C   0  0  0  0  0  0  0  0  0  0  0  0
  145.9758  133.0667  151.4684 C   0  0  0  0  0  0  0  0  0  0  0  0
  144.9039  133.7052  152.1263 C   0  0  0  0  0  0  0  0  0  0  0  0
  143.5921  133.4685  151.6727 C   0  0  0  0  0  0  0  0  0  0  0  0
  143.4074  132.6015  150.5771 C   0  0  0  0  0  0  0  0  0  0  0  0
  144.4256  131.9854  149.9390 N   0  0  0  0  0  0  0  0  0  0  0  0
  145.6806  132.2171  150.3807 C   0  0  0  0  0  0  0  0  0  0  0  0
  149.9628  133.2293  155.9923 C   0  0  0  0  0  0  0  0  0  0  0  0
  150.7786  131.9490  155.7528 C   0  0  0  0  0  0  0  0  0  0  0  0
  150.6565  134.4472  155.3466 C   0  0  0  0  0  0  0  0  0  0  0  0
  149.9411  133.4730  157.3979 O   0  0  0  0  0  0  0  0  0  0  0  0
  147.7641  135.4663  159.0037 H   0  0  0  0  0  0  0  0  0  0  0  0
  149.1467  135.9420  158.0205 H   0  0  0  0  0  0  0  0  0  0  0  0
  149.3976  135.0406  159.5084 H   0  0  0  0  0  0  0  0  0  0  0  0
  147.1538  132.8813  159.1570 H   0  0  0  0  0  0  0  0  0  0  0  0
  148.8181  132.5510  159.6268 H   0  0  0  0  0  0  0  0  0  0  0  0
  148.1199  131.7328  158.2364 H   0  0  0  0  0  0  0  0  0  0  0  0
  146.7337  133.6820  156.7636 H   0  0  0  0  0  0  0  0  0  0  0  0
  147.7858  134.9923  156.2473 H   0  0  0  0  0  0  0  0  0  0  0  0
  148.1527  132.0358  155.7842 H   0  0  0  0  0  0  0  0  0  0  0  0
  148.3993  134.4046  153.9684 H   0  0  0  0  0  0  0  0  0  0  0  0
  147.6355  134.3512  151.9443 H   0  0  0  0  0  0  0  0  0  0  0  0
  148.0945  132.8355  151.1972 H   0  0  0  0  0  0  0  0  0  0  0  0
  145.0816  134.3624  152.9649 H   0  0  0  0  0  0  0  0  0  0  0  0
  142.7473  133.9394  152.1528 H   0  0  0  0  0  0  0  0  0  0  0  0
  142.4149  132.3979  150.2034 H   0  0  0  0  0  0  0  0  0  0  0  0
  146.4725  131.7078  149.8511 H   0  0  0  0  0  0  0  0  0  0  0  0
  150.8427  131.7121  154.6907 H   0  0  0  0  0  0  0  0  0  0  0  0
  150.3298  131.0936  156.2586 H   0  0  0  0  0  0  0  0  0  0  0  0
  151.7963  132.0553  156.1292 H   0  0  0  0  0  0  0  0  0  0  0  0
  150.7591  134.3260  154.2678 H   0  0  0  0  0  0  0  0  0  0  0  0
  151.6586  134.5850  155.7537 H   0  0  0  0  0  0  0  0  0  0  0  0
  150.1032  135.3688  155.5279 H   0  0  0  0  0  0  0  0  0  0  0  0
  1  2  1  0  0  0  0
  1 20  1  0  0  0  0
  1 21  1  0  0  0  0
  1 22  1  0  0  0  0
  2 19  1  0  0  0  0
  2  3  1  0  0  0  0
  2  4  1  0  0  0  0
  3 23  1  0  0  0  0
  3 24  1  0  0  0  0
  3 25  1  0  0  0  0
  4  5  1  0  0  0  0
  4 26  1  0  0  0  0
  4 27  1  0  0  0  0
  5  6  1  0  0  0  0
  5 16  1  0  0  0  0
  5 28  1  0  0  0  0
  6  7  1  0  0  0  0
  6 29  1  0  0  0  0
  7  8  2  0  0  0  0
  7  9  1  0  0  0  0
  9 10  1  0  0  0  0
  9 30  1  0  0  0  0
  9 31  1  0  0  0  0
 10 15  1  0  0  0  0
 10 11  2  0  0  0  0
 11 12  1  0  0  0  0
 11 32  1  0  0  0  0
 12 13  2  0  0  0  0
 12 33  1  0  0  0  0
 13 14  1  0  0  0  0
 13 34  1  0  0  0  0
 14 15  2  0  0  0  0
 15 35  1  0  0  0  0
 16 17  1  0  0  0  0
 16 18  1  0  0  0  0
 16 19  1  0  0  0  0
 17 36  1  0  0  0  0
 17 37  1  0  0  0  0
 17 38  1  0  0  0  0
 18 39  1  0  0  0  0
 18 40  1  0  0  0  0
 18 41  1  0  0  0  0
M  END
> <s_m_source_file>
AV-unprocessed.smi

> <i_m_source_file_index>
2261

> <i_lp_mmshare_version>
43012

> <i_f3d_flags>
0

> <s_epik_input>
W0NIM11DMShbQ0gzXSlbQ0gyXVtDQEhdKEMoTzEpKFtDSDNdKVtDSDNdKVtOSF1DKD1PKVtDSDJdYzJbY0hdW2NIXVtjSF1uW2NIXTI=

> <s_epik_cmdline>
J2VwaWtfcHl0aG9uJywgJy1waCcsICc3LjAnLCAnLXRuJywgJzgnLCAnLW1hJywgJzIwMCcsICctbWV0YWxfYmluZGluZycsICctaW1hZScsICc8aW5maWxlLm1hZT4nLCAnLW9tYWUnLCAnPG91dGZpbGUubWFlPic=

> <r_epik_Ionization_Penalty>
0.00420617

> <r_epik_Ionization_Penalty_Charging>
0

> <r_epik_Ionization_Penalty_Neutral>
0.00420617

> <r_epik_State_Penalty>
0.0030219

> <r_epik_Charging_Adjusted_Penalty>
0.0030219

> <i_epik_Tot_Q>
0

> <i_epik_Tot_abs_Q>
0

> <r_epik_Metal_State_Penalty>
-0

> <b_epik_Metal_Only>
0

> <s_lp_Force_Field>
OPLS_2005

> <r_lp_Energy>
17.0757

> <b_lp_Chiralities_Consistent>
1

> <s_lp_Variant>
AV-unprocessed.smi:2261-1

> <Gold.Version>
5.8.1

> <Gold.Id.Protein>
6NUR|6NUR_protein|mol2

> <Gold.PLP.Fitness>
37.2792

> <Gold.PLP.PLP>
-27.9110

> <Gold.PLP.part.hbond>
-1.5967

> <Gold.PLP.part.metal>
0.0000

> <Gold.PLP.part.buried>
-5.0575

> <Gold.PLP.part.nonpolar>
-22.0644

> <Gold.PLP.part.repulsive>
0.2358

> <Gold.PLP.ligand.clash>
0.0000

> <Gold.PLP.ligand.torsion>
0.1322

> <Gold.PLP.Chemscore.Hbond>
0.9750

> <Gold.PLP.Chemscore.CHOScore>
2.2312

> <Gold.PLP.Chemscore.Metal>
0.0000

> <Gold.Chemscore.Hbonds>
donor molecule, donor type, donor heavy atom, donor atom, acceptor molecule, acceptor atom, score
      P1  H  6896  6908       L1    19  0.59
      L1  C    13    34       P1 10186  0.72
      L1  C    13    34       P1 10952  0.67
      L1  C    15    35       P1 10747  0.67

> <Gold.PLP.Chemscore.Internal.Correction>
0.0140

> <Gold.Rescore>
     Score         DG    S(hbond)    S(metal)    S(lipo)     H(rot)  DE(clash)    DE(int)     intcor
     13.35     -13.49       0.97        0.00      68.88       1.28       0.02       0.12       ----

> <Gold.Chemscore.Fitness>
13.3523

> <Gold.Chemscore.DG>
-13.4929

> <Gold.Chemscore.ZeroCoef>
-5.4800

> <Gold.Chemscore.Hbond>
0.9707

> <Gold.Chemscore.Metal>
0.0000

> <Gold.Chemscore.Lipo>
68.8751

> <Gold.Chemscore.Internal_Hbond>
0.0000

> <Gold.Chemscore.DEClash>
0.0164

> <Gold.Chemscore.DEInternal>
0.1242

> <Gold.Chemscore.Rot>
1.2842

> <Gold.Chemscore.Internal.Correction>
   9.000000E+99

> <Gold.Chemscore.Hbonds>
donor molecule, donor type, donor heavy atom, donor atom, acceptor molecule, acceptor atom, score
      P1  H  6896  6908       L1    19  0.05

> <Gold.Chemscore.Hbond.Weighted>
-3.2421

> <Gold.Chemscore.Metal.Weighted>
-0.0000

> <Gold.Chemscore.Lipo.Weighted>
-8.0584

> <Gold.Chemscore.Internal_Hbond.Weighted>
0.0000

> <Gold.Chemscore.DEClash.Weighted>
0.0164

> <Gold.Chemscore.DEInternal.Weighted>
0.1242

> <Gold.Chemscore.Rot.Weighted>
3.2875

> <Gold.Chemscore.Internal.Correction.Weighted>
   9.000000E+99

> <Gold.Protein.RotatedTorsions>
[ 6907 6896 6895 6894 ] final  118.86 input  -60.11 | X-H torsion
[ 7974 7965 7964 7962 ] final    2.43 input  175.53 | X-H torsion
[ 8008 7997 7996 7995 ] final  -47.67 input   59.86 | X-H torsion
[ 10167 10162 10161 10158 ] final  -74.83 input  -65.29 | X-H torsion
[ 10718 10713 10712 10709 ] final  -12.82 input   66.30 | X-H torsion
[ 10763 10752 10751 10750 ] final  141.48 input  -60.55 | X-H torsion
[ 11005 11000 10999 10996 ] final    5.28 input  -57.11 | X-H torsion

> <Gold.Protein.ActiveResidues>
 VAL166  LYS551  ARG553  GLY616  TRP617  ASP618  TYR619  PRO620  LYS621  CYS622 
 ASP623  PHE694  ASN695  SER759  ASP760  ASP761  ALA762  ILE779  LEU786  VAL792 
 PHE793  MET794  SER795  GLU796  ALA797  LYS798  CYS799  TRP800  GLU811  SER814 

> <Gold.Protein.RotatedAtoms>
  152.4513  133.7635  159.6759 H   0  0  0  0  0  0  0  0  0  0  0  0  # atno 6907 bound_to 6896
  150.8426  133.7902  159.3061 H   0  0  0  0  0  0  0  0  0  0  0  0  # atno 6908 bound_to 6896
  151.5522  135.1070  160.0004 H   0  0  0  0  0  0  0  0  0  0  0  0  # atno 6909 bound_to 6896
  146.2444  140.0837  142.8355 H   0  0  0  0  0  0  0  0  0  0  0  0  # atno 7974 bound_to 7965
  154.4019  140.1340  156.4214 H   0  0  0  0  0  0  0  0  0  0  0  0  # atno 8008 bound_to 7997
  155.7639  140.3485  155.5192 H   0  0  0  0  0  0  0  0  0  0  0  0  # atno 8009 bound_to 7997
  155.8832  140.0991  157.1461 H   0  0  0  0  0  0  0  0  0  0  0  0  # atno 8010 bound_to 7997
  140.4994  143.2364  151.7777 H   0  0  0  0  0  0  0  0  0  0  0  0  # atno 10167 bound_to 10162
  156.6392  130.4923  149.6101 H   0  0  0  0  0  0  0  0  0  0  0  0  # atno 10718 bound_to 10713
  153.9399  135.2981  155.3443 H   0  0  0  0  0  0  0  0  0  0  0  0  # atno 10763 bound_to 10752
  154.7482  135.4993  153.9245 H   0  0  0  0  0  0  0  0  0  0  0  0  # atno 10764 bound_to 10752
  153.1048  135.6744  153.9713 H   0  0  0  0  0  0  0  0  0  0  0  0  # atno 10765 bound_to 10752
  140.5725  134.0089  155.8014 H   0  0  0  0  0  0  0  0  0  0  0  0  # atno 11005 bound_to 11000
  145.0710  140.9155  143.4882 LP  0  0  0  0  0  0  0  0  0  0  0  0  # atno 17320 bound_to 7965
  145.0971  139.2848  143.5705 LP  0  0  0  0  0  0  0  0  0  0  0  0  # atno 17321 bound_to 7965
  139.4868  144.4543  151.9617 LP  0  0  0  0  0  0  0  0  0  0  0  0  # atno 17342 bound_to 10162
  140.3631  144.2948  150.5930 LP  0  0  0  0  0  0  0  0  0  0  0  0  # atno 17343 bound_to 10162
  156.2173  130.6715  151.1331 LP  0  0  0  0  0  0  0  0  0  0  0  0  # atno 17370 bound_to 10713
  157.7176  131.0700  150.6265 LP  0  0  0  0  0  0  0  0  0  0  0  0  # atno 17371 bound_to 10713
  141.1047  133.9712  157.3017 LP  0  0  0  0  0  0  0  0  0  0  0  0  # atno 17394 bound_to 11000
  139.9355  135.0197  156.8541 LP  0  0  0  0  0  0  0  0  0  0  0  0  # atno 17395 bound_to 11000

$$$$
