AV-unprocessed.smi:637|AV-procd|sdf|3141|dock8
  -GOLD-   22720 0 63D 1   1.00000     0.00000
 Structure written by MMmdl.
 38 40  0  0  0  0  0  0  0  0  1 V2000
  143.2028  145.6299  154.0608 C   0  0  0  0  0  0  0  0  0  0  0  0
  144.2000  144.6118  154.4990 C   0  0  0  0  0  0  0  0  0  0  0  0
  144.3375  144.0547  155.7473 C   0  0  0  0  0  0  0  0  0  0  0  0
  145.4019  143.1083  155.8318 C   0  0  0  0  0  0  0  0  0  0  0  0
  146.0571  142.9669  154.6317 C   0  0  0  0  0  0  0  0  0  0  0  0
  147.1827  142.0581  154.4851 C   0  0  0  0  0  0  0  0  0  0  0  0
  147.1619  140.9791  153.5122 C   0  0  0  0  0  0  0  0  0  0  0  0
  148.2350  140.1661  153.4060 C   0  0  0  0  0  0  0  0  0  0  0  0
  149.4189  140.3402  154.2449 C   0  0  0  0  0  0  0  0  0  0  0  0
  150.4117  139.6165  154.1702 O   0  0  0  0  0  0  0  0  0  0  0  0
  149.3219  141.3811  155.1232 N   0  0  0  0  0  0  0  0  0  0  0  0
  150.4167  141.7087  156.0443 C   0  0  0  0  0  0  0  0  0  0  0  0
  149.9547  141.7587  157.5169 C   0  0  2  0  0  0  0  0  0  0  0  0
  148.8515  142.6384  157.6191 O   0  0  0  0  0  0  0  0  0  0  0  0
  151.0950  142.1905  158.4264 C   0  0  0  0  0  0  0  0  0  0  0  0
  152.2037  141.3383  158.6183 C   0  0  0  0  0  0  0  0  0  0  0  0
  153.2693  141.7354  159.4496 C   0  0  0  0  0  0  0  0  0  0  0  0
  153.2338  142.9883  160.0911 C   0  0  0  0  0  0  0  0  0  0  0  0
  152.1324  143.8445  159.9008 C   0  0  0  0  0  0  0  0  0  0  0  0
  152.0981  145.0505  160.5152 F   0  0  0  0  0  0  0  0  0  0  0  0
  151.0669  143.4479  159.0699 C   0  0  0  0  0  0  0  0  0  0  0  0
  148.2266  142.2186  155.2341 N   0  0  0  0  0  0  0  0  0  0  0  0
  145.3836  143.9775  153.3820 S   0  0  0  0  0  0  0  0  0  0  0  0
  142.5879  145.9639  154.8968 H   0  0  0  0  0  0  0  0  0  0  0  0
  142.5408  145.2191  153.2984 H   0  0  0  0  0  0  0  0  0  0  0  0
  143.7016  146.5036  153.6410 H   0  0  0  0  0  0  0  0  0  0  0  0
  143.7161  144.2933  156.5979 H   0  0  0  0  0  0  0  0  0  0  0  0
  145.6290  142.5905  156.7528 H   0  0  0  0  0  0  0  0  0  0  0  0
  146.3000  140.8270  152.8802 H   0  0  0  0  0  0  0  0  0  0  0  0
  148.2194  139.3645  152.6821 H   0  0  0  0  0  0  0  0  0  0  0  0
  151.1930  140.9491  155.9322 H   0  0  0  0  0  0  0  0  0  0  0  0
  150.8996  142.6473  155.7644 H   0  0  0  0  0  0  0  0  0  0  0  0
  149.6170  140.7730  157.8396 H   0  0  0  0  0  0  0  0  0  0  0  0
  148.8595  143.2161  156.8714 H   0  0  0  0  0  0  0  0  0  0  0  0
  152.2426  140.3774  158.1262 H   0  0  0  0  0  0  0  0  0  0  0  0
  154.1150  141.0791  159.5940 H   0  0  0  0  0  0  0  0  0  0  0  0
  154.0517  143.2932  160.7271 H   0  0  0  0  0  0  0  0  0  0  0  0
  150.2287  144.1139  158.9256 H   0  0  0  0  0  0  0  0  0  0  0  0
  1  2  1  0  0  0  0
  1 24  1  0  0  0  0
  1 25  1  0  0  0  0
  1 26  1  0  0  0  0
  2 23  1  0  0  0  0
  2  3  2  0  0  0  0
  3  4  1  0  0  0  0
  3 27  1  0  0  0  0
  4  5  2  0  0  0  0
  4 28  1  0  0  0  0
  5  6  1  0  0  0  0
  5 23  1  0  0  0  0
  6 22  2  0  0  0  0
  6  7  1  0  0  0  0
  7  8  2  0  0  0  0
  7 29  1  0  0  0  0
  8  9  1  0  0  0  0
  8 30  1  0  0  0  0
  9 10  2  0  0  0  0
  9 11  1  0  0  0  0
 11 12  1  0  0  0  0
 11 22  1  0  0  0  0
 12 13  1  0  0  0  0
 12 31  1  0  0  0  0
 12 32  1  0  0  0  0
 13 14  1  0  0  0  0
 13 15  1  0  0  0  0
 13 33  1  0  0  0  0
 14 34  1  0  0  0  0
 15 21  1  0  0  0  0
 15 16  2  0  0  0  0
 16 17  1  0  0  0  0
 16 35  1  0  0  0  0
 17 18  2  0  0  0  0
 17 36  1  0  0  0  0
 18 19  1  0  0  0  0
 18 37  1  0  0  0  0
 19 20  1  0  0  0  0
 19 21  2  0  0  0  0
 21 38  1  0  0  0  0
M  END
> <s_m_source_file>
AV-unprocessed.smi

> <i_m_source_file_index>
637

> <i_lp_mmshare_version>
43012

> <i_f3d_flags>
0

> <s_epik_input>
W0NIM11jMVtjSF1bY0hdYyhzMSktYzJbY0hdW2NIXWMoPU8pbihuMilbQ0gyXVtDQEhdKFtPSF0pYzNbY0hdW2NIXVtjSF1jKEYpW2NIXTM=

> <s_epik_cmdline>
J2VwaWtfcHl0aG9uJywgJy1waCcsICc3LjAnLCAnLXRuJywgJzgnLCAnLW1hJywgJzIwMCcsICctbWV0YWxfYmluZGluZycsICctaW1hZScsICc8aW5maWxlLm1hZT4nLCAnLW9tYWUnLCAnPG91dGZpbGUubWFlPic=

> <r_lp_tautomer_probability>
1

> <r_epik_Ionization_Penalty>
2.26963e-07

> <r_epik_Ionization_Penalty_Charging>
5.89185e-08

> <r_epik_Ionization_Penalty_Neutral>
1.68044e-07

> <r_epik_State_Penalty>
-0

> <r_epik_Charging_Adjusted_Penalty>
5.89185e-08

> <i_epik_Tot_Q>
0

> <i_epik_Tot_abs_Q>
0

> <r_epik_Metal_State_Penalty>
-0

> <b_epik_Metal_Only>
0

> <s_lp_Force_Field>
OPLS_2005

> <r_lp_Energy>
28.2523

> <b_lp_Chiralities_Consistent>
1

> <s_lp_Variant>
AV-unprocessed.smi:637-1

> <Gold.Version>
5.8.1

> <Gold.Id.Protein>
6NUR|6NUR_protein|mol2

> <Gold.PLP.Fitness>
52.7195

> <Gold.PLP.PLP>
-49.5974

> <Gold.PLP.part.hbond>
-2.0000

> <Gold.PLP.part.metal>
0.0000

> <Gold.PLP.part.buried>
-3.4367

> <Gold.PLP.part.nonpolar>
-48.0124

> <Gold.PLP.part.repulsive>
3.5731

> <Gold.PLP.ligand.clash>
0.0000

> <Gold.PLP.ligand.torsion>
1.2951

> <Gold.PLP.Chemscore.Hbond>
1.9000

> <Gold.PLP.Chemscore.CHOScore>
0.0000

> <Gold.PLP.Chemscore.Metal>
0.0000

> <Gold.Chemscore.Hbonds>
donor molecule, donor type, donor heavy atom, donor atom, acceptor molecule, acceptor atom, score
      L1  H    14    34       P1  8028  1.00
      P1  H  7989  7998       L1    10  0.95

> <Gold.PLP.Chemscore.Internal.Correction>
0.0125

> <Gold.Rescore>
     Score         DG    S(hbond)    S(metal)    S(lipo)     H(rot)  DE(clash)    DE(int)     intcor
     13.95     -19.89       1.03        0.00     133.64       1.82       2.92       3.02       ----

> <Gold.Chemscore.Fitness>
13.9471

> <Gold.Chemscore.DG>
-19.8885

> <Gold.Chemscore.ZeroCoef>
-5.4800

> <Gold.Chemscore.Hbond>
1.0294

> <Gold.Chemscore.Metal>
0.0000

> <Gold.Chemscore.Lipo>
133.6358

> <Gold.Chemscore.Internal_Hbond>
0.0000

> <Gold.Chemscore.DEClash>
2.9249

> <Gold.Chemscore.DEInternal>
3.0165

> <Gold.Chemscore.Rot>
1.8222

> <Gold.Chemscore.Internal.Correction>
   9.000000E+99

> <Gold.Chemscore.Hbonds>
donor molecule, donor type, donor heavy atom, donor atom, acceptor molecule, acceptor atom, score
      L1  H    14    34       P1  8028  0.78
      P1  H  7989  7998       L1    10  0.21

> <Gold.Chemscore.Hbond.Weighted>
-3.4380

> <Gold.Chemscore.Metal.Weighted>
-0.0000

> <Gold.Chemscore.Lipo.Weighted>
-15.6354

> <Gold.Chemscore.Internal_Hbond.Weighted>
0.0000

> <Gold.Chemscore.DEClash.Weighted>
2.9249

> <Gold.Chemscore.DEInternal.Weighted>
3.0165

> <Gold.Chemscore.Rot.Weighted>
4.6649

> <Gold.Chemscore.Internal.Correction.Weighted>
   9.000000E+99

> <Gold.Protein.RotatedTorsions>
[ 6907 6896 6895 6894 ] final -114.76 input  -60.11 | X-H torsion
[ 7974 7965 7964 7962 ] final -137.51 input  175.53 | X-H torsion
[ 8008 7997 7996 7995 ] final  -92.20 input   59.86 | X-H torsion
[ 10167 10162 10161 10158 ] final  159.36 input  -65.29 | X-H torsion
[ 10718 10713 10712 10709 ] final   76.40 input   66.30 | X-H torsion
[ 10763 10752 10751 10750 ] final  177.58 input  -60.55 | X-H torsion
[ 11005 11000 10999 10996 ] final   85.88 input  -57.11 | X-H torsion

> <Gold.Protein.ActiveResidues>
 VAL166  LYS551  ARG553  GLY616  TRP617  ASP618  TYR619  PRO620  LYS621  CYS622 
 ASP623  PHE694  ASN695  SER759  ASP760  ASP761  ALA762  ILE779  LEU786  VAL792 
 PHE793  MET794  SER795  GLU796  ALA797  LYS798  CYS799  TRP800  GLU811  SER814 

> <Gold.Protein.RotatedAtoms>
  150.7926  133.8755  159.3270 H   0  0  0  0  0  0  0  0  0  0  0  0  # atno 6907 bound_to 6896
  151.6589  135.0990  160.0185 H   0  0  0  0  0  0  0  0  0  0  0  0  # atno 6908 bound_to 6896
  152.4003  133.6768  159.6346 H   0  0  0  0  0  0  0  0  0  0  0  0  # atno 6909 bound_to 6896
  144.8836  140.6543  143.5190 H   0  0  0  0  0  0  0  0  0  0  0  0  # atno 7974 bound_to 7965
  154.7202  140.0511  157.0632 H   0  0  0  0  0  0  0  0  0  0  0  0  # atno 8008 bound_to 7997
  155.0438  140.3171  155.4696 H   0  0  0  0  0  0  0  0  0  0  0  0  # atno 8009 bound_to 7997
  156.2814  140.2128  156.5562 H   0  0  0  0  0  0  0  0  0  0  0  0  # atno 8010 bound_to 7997
  139.4832  144.4737  151.8541 H   0  0  0  0  0  0  0  0  0  0  0  0  # atno 10167 bound_to 10162
  157.6672  130.9773  150.1492 H   0  0  0  0  0  0  0  0  0  0  0  0  # atno 10718 bound_to 10713
  154.4964  135.2781  155.1456 H   0  0  0  0  0  0  0  0  0  0  0  0  # atno 10763 bound_to 10752
  154.3107  135.6229  153.5468 H   0  0  0  0  0  0  0  0  0  0  0  0  # atno 10764 bound_to 10752
  152.9895  135.5719  154.5397 H   0  0  0  0  0  0  0  0  0  0  0  0  # atno 10765 bound_to 10752
  139.8959  134.8317  156.2643 H   0  0  0  0  0  0  0  0  0  0  0  0  # atno 11005 bound_to 11000
  145.3909  139.1617  143.4229 LP  0  0  0  0  0  0  0  0  0  0  0  0  # atno 17320 bound_to 7965
  146.3010  140.3998  142.8704 LP  0  0  0  0  0  0  0  0  0  0  0  0  # atno 17321 bound_to 7965
  140.4207  144.2246  150.5887 LP  0  0  0  0  0  0  0  0  0  0  0  0  # atno 17342 bound_to 10162
  140.4876  143.2358  151.8865 LP  0  0  0  0  0  0  0  0  0  0  0  0  # atno 17343 bound_to 10162
  156.2295  130.3681  149.8461 LP  0  0  0  0  0  0  0  0  0  0  0  0  # atno 17370 bound_to 10713
  156.6291  130.8658  151.3491 LP  0  0  0  0  0  0  0  0  0  0  0  0  # atno 17371 bound_to 10713
  141.0142  133.7078  156.1161 LP  0  0  0  0  0  0  0  0  0  0  0  0  # atno 17394 bound_to 11000
  140.7325  134.4239  157.5564 LP  0  0  0  0  0  0  0  0  0  0  0  0  # atno 17395 bound_to 11000

$$$$
