#       Name:                AV-unprocessed.smi:3217
#       Creating user name   scv26
#       Creation time:       Fri Mar 27 18:13:24 2020


#       File generated by GOLD software.
#

@<TRIPOS>MOLECULE
AV-unprocessed.smi:3217
    39    40     1
SMALL
NO_CHARGES


@<TRIPOS>ATOM
      1 ****        -2.0675  -1.5515  -2.0566 C.3            1 S1                 0.0000
      2 ****        -1.6339  -0.7762  -0.8040 C.3            1 S1                 0.0000
      3 ****        -0.1758  -0.6647  -0.7995 N.am           1 S1                 0.0000
      4 ****         0.5270   0.4751  -0.7277 C.2            1 S1                 0.0000
      5 ****         0.0118   1.5894  -0.6441 O.2            1 S1                 0.0000
      6 ****         1.8474   0.2282  -0.7721 N.am           1 S1                 0.0000
      7 ****         2.9305   1.1492  -0.7539 C.ar           1 S1                 0.0000
      8 ****         2.8350   2.4955  -0.3239 C.ar           1 S1                 0.0000
      9 ****         3.9906   3.3001  -0.3468 C.ar           1 S1                 0.0000
     10 ****         5.1995   2.7299  -0.7898 C.ar           1 S1                 0.0000
     11 ****         5.3083   1.4457  -1.1899 N.ar           1 S1                 0.0000
     12 ****         4.1961   0.6806  -1.1662 C.ar           1 S1                 0.0000
     13 ****        -2.1241  -1.4525   0.4924 C.3            1 S1                 0.0000
     14 ****        -1.7028  -0.7475   1.7846 C.3            1 S1                 0.0000
     15 ****        -2.7795  -1.1942   2.7460 C.3            1 S1                 0.0000
     16 ****        -4.0145  -1.1755   1.8519 C.3            1 S1                 0.0000
     17 ****        -3.5500  -1.4727   0.5376 O.3            1 S1                 0.0000
     18 ****        -3.1536  -1.6261  -2.1176 H              1 S1                 0.0000
     19 ****        -1.6638  -2.5645  -2.0580 H              1 S1                 0.0000
     20 ****        -1.7226  -1.0540  -2.9638 H              1 S1                 0.0000
     21 ****        -2.0853   0.2160  -0.8595 H              1 S1                 0.0000
     22 ****         0.3390  -1.5302  -0.8671 H              1 S1                 0.0000
     23 ****         2.1093  -0.7387  -0.8964 H              1 S1                 0.0000
     24 ****         1.9122   2.9254   0.0318 H              1 S1                 0.0000
     25 ****         3.9510   4.3313  -0.0285 H              1 S1                 0.0000
     26 ****         6.1038   3.3194  -0.8185 H              1 S1                 0.0000
     27 ****         4.3218  -0.3415  -1.4929 H              1 S1                 0.0000
     28 ****        -1.7807  -2.4879   0.5288 H              1 S1                 0.0000
     29 ****        -0.6992  -1.0208   2.1116 H              1 S1                 0.0000
     30 ****        -1.7396   0.3361   1.6625 H              1 S1                 0.0000
     31 ****        -2.5778  -2.2093   3.0909 H              1 S1                 0.0000
     32 ****        -2.8738  -0.5467   3.6181 H              1 S1                 0.0000
     33 ****        -4.7746  -1.8862   2.1771 H              1 S1                 0.0000
     34 ****        -4.4626  -0.1812   1.8431 H              1 S1                 0.0000
     35 ****        -0.9840   1.6798  -0.6267 LP             1 S1                 0.0000
     36 ****         0.5888   2.4045  -0.5936 LP             1 S1                 0.0000
     37 ****         6.1847   1.0726  -1.4942 LP             1 S1                 0.0000
     38 ****        -3.8745  -2.3805   0.2718 LP             1 S1                 0.0000
     39 ****        -3.9088  -0.7907  -0.0998 LP             1 S1                 0.0000
@<TRIPOS>BOND
    1    1    2 1     
    2    1   18 1     
    3    1   19 1     
    4    1   20 1     
    5    2    3 1     
    6    2   13 1     
    7    2   21 1     
    8    3    4 am    
    9    3   22 1     
   10    4    5 2     
   11    4    6 am    
   12    6    7 1     
   13    6   23 1     
   14    7   12 ar    
   15    7    8 ar    
   16    8    9 ar    
   17    8   24 1     
   18    9   10 ar    
   19    9   25 1     
   20   10   11 ar    
   21   10   26 1     
   22   11   12 ar    
   23   12   27 1     
   24   13   17 1     
   25   13   14 1     
   26   13   28 1     
   27   14   15 1     
   28   14   29 1     
   29   14   30 1     
   30   15   16 1     
   31   15   31 1     
   32   15   32 1     
   33   16   17 1     
   34   16   33 1     
   35   16   34 1     
   36    5   35 1     
   37    5   36 1     
   38   11   37 1     
   39   17   38 1     
   40   17   39 1     
@<TRIPOS>SUBSTRUCTURE
      1 S1             1
@<TRIPOS>SET
LONE_PAIRS      STATIC     ATOMS    <user>   **** ""
5 35 36 37 38 39
DONOR_HYDROGENS      STATIC     ATOMS    <user>   **** ""
2 22 23
ATOM$BLUE        STATIC     ATOMS    COLORGROUP SYSTEM
5 35 36 37 38 39
ATOM$RED        STATIC     ATOMS    COLORGROUP SYSTEM
2 22 23
