#       Name:                AV-unprocessed.smi:1845
#       Creating user name   scv26
#       Creation time:       Fri Mar 27 09:22:10 2020


#       File generated by GOLD software.
#

@<TRIPOS>MOLECULE
AV-unprocessed.smi:1845
    51    52     1
SMALL
NO_CHARGES


@<TRIPOS>ATOM
      1 ****        -7.1940   2.3090  -3.7874 C.3            1 S1                 0.0000
      2 ****        -6.7307   2.4581  -2.0086 S.o2           1 S1                 0.0000
      3 ****        -7.3856   3.6914  -1.5471 O.2            1 S1                 0.0000
      4 ****        -7.1555   1.2035  -1.3648 O.2            1 S1                 0.0000
      5 ****        -5.1163   2.6475  -2.0813 N.pl3          1 S1                -1.0000
      6 ****        -4.2307   1.5299  -2.3799 C.3            1 S1                 0.0000
      7 ****        -2.9033   1.6958  -1.6082 C.3            1 S1                 0.0000
      8 ****        -1.9209   0.5332  -1.8172 C.2            1 S1                 0.0000
      9 ****        -1.2752   0.4365  -2.8634 O.2            1 S1                 0.0000
     10 ****        -1.7863  -0.3251  -0.7917 N.am           1 S1                 0.0000
     11 ****        -0.9252  -1.5042  -0.7761 C.3            1 S1                 0.0000
     12 ****         0.4131  -1.3074  -0.0769 C.ar           1 S1                 0.0000
     13 ****         1.0547  -0.0529   0.0045 C.ar           1 S1                 0.0000
     14 ****         2.2972   0.0397   0.6608 C.ar           1 S1                 0.0000
     15 ****         2.8725  -1.1253   1.2222 C.ar           1 S1                 0.0000
     16 ****         4.1156  -1.0573   1.8900 N.3            1 S1                 0.0000
     17 ****         4.2303  -0.0266   2.9194 C.3            1 S1                 0.0000
     18 ****         5.6986   0.1466   3.3450 C.3            1 S1                 0.0000
     19 ****         6.2330  -1.1068   3.7571 O.3            1 S1                 0.0000
     20 ****         6.2168  -2.0605   2.7005 C.3            1 S1                 0.0000
     21 ****         4.7671  -2.3148   2.2545 C.3            1 S1                 0.0000
     22 ****         2.2587  -2.3309   1.1291 N.ar           1 S1                 0.0000
     23 ****         1.0691  -2.4140   0.4978 C.ar           1 S1                 0.0000
     24 ****        -8.2794   2.2674  -3.8711 H              1 S1                 0.0000
     25 ****        -6.7690   1.3991  -4.2099 H              1 S1                 0.0000
     26 ****        -6.8236   3.1754  -4.3346 H              1 S1                 0.0000
     27 ****        -4.6737   0.5722  -2.1046 H              1 S1                 0.0000
     28 ****        -4.0275   1.4621  -3.4491 H              1 S1                 0.0000
     29 ****        -2.4083   2.6174  -1.9179 H              1 S1                 0.0000
     30 ****        -3.1067   1.8038  -0.5412 H              1 S1                 0.0000
     31 ****        -2.3452  -0.1614   0.0332 H              1 S1                 0.0000
     32 ****        -1.4724  -2.2980  -0.2666 H              1 S1                 0.0000
     33 ****        -0.7410  -1.8666  -1.7887 H              1 S1                 0.0000
     34 ****         0.6160   0.8319  -0.4316 H              1 S1                 0.0000
     35 ****         2.7971   0.9954   0.7094 H              1 S1                 0.0000
     36 ****         3.8482   0.9337   2.5769 H              1 S1                 0.0000
     37 ****         3.6256  -0.3201   3.7784 H              1 S1                 0.0000
     38 ****         6.2940   0.5573   2.5280 H              1 S1                 0.0000
     39 ****         5.7682   0.8510   4.1739 H              1 S1                 0.0000
     40 ****         6.8246  -1.7062   1.8663 H              1 S1                 0.0000
     41 ****         6.6690  -2.9880   3.0521 H              1 S1                 0.0000
     42 ****         4.2070  -2.7911   3.0603 H              1 S1                 0.0000
     43 ****         4.7677  -3.0008   1.4064 H              1 S1                 0.0000
     44 ****         0.6267  -3.3982   0.4523 H              1 S1                 0.0000
     45 ****        -4.7228   3.5520  -1.9172 LP             1 S1                 0.0000
     46 ****        -1.3885   1.1187  -3.5857 LP             1 S1                 0.0000
     47 ****        -0.6384  -0.3242  -2.9894 LP             1 S1                 0.0000
     48 ****         4.6790  -0.7366   1.1286 LP             1 S1                 0.0000
     49 ****         5.6870  -1.4573   4.5180 LP             1 S1                 0.0000
     50 ****         7.1772  -0.9731   4.0582 LP             1 S1                 0.0000
     51 ****         2.6818  -3.1470   1.5228 LP             1 S1                 0.0000
@<TRIPOS>BOND
    1    1    2 1     
    2    1   24 1     
    3    1   25 1     
    4    1   26 1     
    5    2    3 2     
    6    2    4 2     
    7    2    5 1     
    8    5    6 1     
    9    6    7 1     
   10    6   27 1     
   11    6   28 1     
   12    7    8 1     
   13    7   29 1     
   14    7   30 1     
   15    8    9 2     
   16    8   10 am    
   17   10   11 1     
   18   10   31 1     
   19   11   12 1     
   20   11   32 1     
   21   11   33 1     
   22   12   23 ar    
   23   12   13 ar    
   24   13   14 ar    
   25   13   34 1     
   26   14   15 ar    
   27   14   35 1     
   28   15   16 1     
   29   15   22 ar    
   30   16   21 1     
   31   16   17 1     
   32   17   18 1     
   33   17   36 1     
   34   17   37 1     
   35   18   19 1     
   36   18   38 1     
   37   18   39 1     
   38   19   20 1     
   39   20   21 1     
   40   20   40 1     
   41   20   41 1     
   42   21   42 1     
   43   21   43 1     
   44   22   23 ar    
   45   23   44 1     
   46    5   45 1     
   47    9   46 1     
   48    9   47 1     
   49   16   48 1     
   50   19   49 1     
   51   19   50 1     
   52   22   51 1     
@<TRIPOS>SUBSTRUCTURE
      1 S1             1
@<TRIPOS>SET
LONE_PAIRS      STATIC     ATOMS    <user>   **** ""
9 3 4 45 46 47 48 49 50 51
DONOR_HYDROGENS      STATIC     ATOMS    <user>   **** ""
1 31
ATOM$BLUE        STATIC     ATOMS    COLORGROUP SYSTEM
9 3 4 45 46 47 48 49 50 51
ATOM$RED        STATIC     ATOMS    COLORGROUP SYSTEM
1 31
