AV-unprocessed.smi:675|AV-procd|sdf|3306|dock9
  -GOLD-   22720 0273D 1   1.00000     0.00000
 Structure written by MMmdl.
 28 29  0  0  0  0  0  0  0  0  2 V2000
  146.8645  138.6961  153.3242 O   0  0  0  0  0  0  0  0  0  0  0  0
  147.7974  139.2278  153.9246 C   0  0  0  0  0  0  0  0  0  0  0  0
  148.9524  138.5654  154.2264 N   0  5  0  0  0  0  0  0  0  0  0  0
  150.0010  139.1394  154.8936 C   0  0  0  0  0  0  0  0  0  0  0  0
  151.0314  138.5186  155.1548 O   0  0  0  0  0  0  0  0  0  0  0  0
  149.8979  140.4452  155.2808 N   0  0  0  0  0  0  0  0  0  0  0  0
  150.9666  141.1428  156.0104 C   0  0  0  0  0  0  0  0  0  0  0  0
  150.4447  141.8094  157.3017 C   0  0  1  0  0  0  0  0  0  0  0  0
  149.5919  140.9004  157.9709 O   0  0  0  0  0  0  0  0  0  0  0  0
  151.6065  142.2569  158.1879 C   0  0  0  0  0  0  0  0  0  0  0  0
  151.7632  143.6261  158.5082 C   0  0  0  0  0  0  0  0  0  0  0  0
  152.8224  144.0558  159.3293 C   0  0  0  0  0  0  0  0  0  0  0  0
  153.7351  143.1193  159.8466 C   0  0  0  0  0  0  0  0  0  0  0  0
  153.5820  141.7535  159.5465 C   0  0  0  0  0  0  0  0  0  0  0  0
  152.5229  141.3169  158.7250 C   0  0  0  0  0  0  0  0  0  0  0  0
  152.3731  139.6226  158.4116 Cl  0  0  0  0  0  0  0  0  0  0  0  0
  148.7291  141.1720  154.9958 C   0  0  0  0  0  0  0  0  0  0  0  0
  147.6870  140.6240  154.3419 C   0  0  0  0  0  0  0  0  0  0  0  0
  146.2618  141.5425  154.0094 Cl  0  0  0  0  0  0  0  0  0  0  0  0
  151.8263  140.5027  156.2171 H   0  0  0  0  0  0  0  0  0  0  0  0
  151.3564  141.9140  155.3438 H   0  0  0  0  0  0  0  0  0  0  0  0
  149.8304  142.6750  157.0558 H   0  0  0  0  0  0  0  0  0  0  0  0
  149.5331  141.1560  158.8783 H   0  0  0  0  0  0  0  0  0  0  0  0
  151.0669  144.3596  158.1286 H   0  0  0  0  0  0  0  0  0  0  0  0
  152.9324  145.1042  159.5643 H   0  0  0  0  0  0  0  0  0  0  0  0
  154.5479  143.4471  160.4775 H   0  0  0  0  0  0  0  0  0  0  0  0
  154.2796  141.0360  159.9529 H   0  0  0  0  0  0  0  0  0  0  0  0
  148.7319  142.1945  155.3441 H   0  0  0  0  0  0  0  0  0  0  0  0
  1  2  2  0  0  0  0
  2 18  1  0  0  0  0
  2  3  1  0  0  0  0
  3  4  1  0  0  0  0
  4  5  2  0  0  0  0
  4  6  1  0  0  0  0
  6  7  1  0  0  0  0
  6 17  1  0  0  0  0
  7  8  1  0  0  0  0
  7 20  1  0  0  0  0
  7 21  1  0  0  0  0
  8  9  1  0  0  0  0
  8 10  1  0  0  0  0
  8 22  1  0  0  0  0
  9 23  1  0  0  0  0
 10 15  1  0  0  0  0
 10 11  2  0  0  0  0
 11 12  1  0  0  0  0
 11 24  1  0  0  0  0
 12 13  2  0  0  0  0
 12 25  1  0  0  0  0
 13 14  1  0  0  0  0
 13 26  1  0  0  0  0
 14 15  2  0  0  0  0
 14 27  1  0  0  0  0
 15 16  1  0  0  0  0
 17 18  2  0  0  0  0
 17 28  1  0  0  0  0
 18 19  1  0  0  0  0
M  CHG  1   3  -1
M  END
> <s_m_source_file>
AV-unprocessed.smi

> <i_m_source_file_index>
675

> <i_lp_mmshare_version>
43012

> <i_f3d_flags>
0

> <s_epik_input>
Tz1jMVtuSF1jKD1PKW4oW2NIXWMxQ2wpW0NIMl1bQ0BIXShbT0hdKWMyW2NIXVtjSF1bY0hdW2NIXWMyQ2w=

> <s_epik_cmdline>
J2VwaWtfcHl0aG9uJywgJy1waCcsICc3LjAnLCAnLXRuJywgJzgnLCAnLW1hJywgJzIwMCcsICctbWV0YWxfYmluZGluZycsICctaW1hZScsICc8aW5maWxlLm1hZT4nLCAnLW9tYWUnLCAnPG91dGZpbGUubWFlPic=

> <r_epik_Ionization_Penalty>
1.79791

> <r_epik_Ionization_Penalty_Charging>
3.23819e-08

> <r_epik_Ionization_Penalty_Neutral>
1.79791

> <r_epik_State_Penalty>
1.91135

> <r_epik_Charging_Adjusted_Penalty>
1.91135

> <i_epik_Tot_Q>
-1

> <i_epik_Tot_abs_Q>
1

> <r_epik_Metal_State_Penalty>
0.014155

> <b_epik_Metal_Only>
0

> <s_lp_Force_Field>
OPLS_2005

> <r_lp_Energy>
23.2972

> <b_lp_Chiralities_Consistent>
1

> <s_lp_Variant>
AV-unprocessed.smi:675-4

> <Gold.Version>
5.8.1

> <Gold.Id.Protein>
6NUR|6NUR_protein|mol2

> <Gold.PLP.Fitness>
42.3283

> <Gold.PLP.PLP>
-39.6384

> <Gold.PLP.part.hbond>
0.0000

> <Gold.PLP.part.metal>
0.0000

> <Gold.PLP.part.buried>
-3.7497

> <Gold.PLP.part.nonpolar>
-36.4692

> <Gold.PLP.part.repulsive>
1.9519

> <Gold.PLP.ligand.clash>
0.0000

> <Gold.PLP.ligand.torsion>
0.1599

> <Gold.PLP.Chemscore.Hbond>
0.0000

> <Gold.PLP.Chemscore.CHOScore>
1.0000

> <Gold.PLP.Chemscore.Metal>
0.0000

> <Gold.Chemscore.Hbonds>
donor molecule, donor type, donor heavy atom, donor atom, acceptor molecule, acceptor atom, score
      L1  C    17    28       P1  8028  0.97

> <Gold.PLP.Chemscore.Internal.Correction>
0.0097

> <Gold.Rescore>
     Score         DG    S(hbond)    S(metal)    S(lipo)     H(rot)  DE(clash)    DE(int)     intcor
     12.50     -12.68       0.00        0.00     108.07       2.13       0.13       0.04       ----

> <Gold.Chemscore.Fitness>
12.5028

> <Gold.Chemscore.DG>
-12.6773

> <Gold.Chemscore.ZeroCoef>
-5.4800

> <Gold.Chemscore.Hbond>
0.0000

> <Gold.Chemscore.Metal>
0.0000

> <Gold.Chemscore.Lipo>
108.0711

> <Gold.Chemscore.Internal_Hbond>
0.0000

> <Gold.Chemscore.DEClash>
0.1344

> <Gold.Chemscore.DEInternal>
0.0401

> <Gold.Chemscore.Rot>
2.1278

> <Gold.Chemscore.Internal.Correction>
   9.000000E+99

> <Gold.Chemscore.Hbond.Weighted>
-0.0000

> <Gold.Chemscore.Metal.Weighted>
-0.0000

> <Gold.Chemscore.Lipo.Weighted>
-12.6443

> <Gold.Chemscore.Internal_Hbond.Weighted>
0.0000

> <Gold.Chemscore.DEClash.Weighted>
0.1344

> <Gold.Chemscore.DEInternal.Weighted>
0.0401

> <Gold.Chemscore.Rot.Weighted>
5.4470

> <Gold.Chemscore.Internal.Correction.Weighted>
   9.000000E+99

> <Gold.Protein.RotatedTorsions>
[ 6907 6896 6895 6894 ] final  112.95 input  -60.11 | X-H torsion
[ 7974 7965 7964 7962 ] final  -57.35 input  175.53 | X-H torsion
[ 8008 7997 7996 7995 ] final  -99.31 input   59.86 | X-H torsion
[ 10167 10162 10161 10158 ] final   35.37 input  -65.29 | X-H torsion
[ 10718 10713 10712 10709 ] final  170.90 input   66.30 | X-H torsion
[ 10763 10752 10751 10750 ] final  175.95 input  -60.55 | X-H torsion
[ 11005 11000 10999 10996 ] final   26.71 input  -57.11 | X-H torsion

> <Gold.Protein.ActiveResidues>
 VAL166  LYS551  ARG553  GLY616  TRP617  ASP618  TYR619  PRO620  LYS621  CYS622 
 ASP623  PHE694  ASN695  SER759  ASP760  ASP761  ALA762  ILE779  LEU786  VAL792 
 PHE793  MET794  SER795  GLU796  ALA797  LYS798  CYS799  TRP800  GLU811  SER814 

> <Gold.Protein.RotatedAtoms>
  152.4888  133.8444  159.7169 H   0  0  0  0  0  0  0  0  0  0  0  0  # atno 6907 bound_to 6896
  150.8999  133.7123  159.2888 H   0  0  0  0  0  0  0  0  0  0  0  0  # atno 6908 bound_to 6896
  151.4568  135.1039  159.9766 H   0  0  0  0  0  0  0  0  0  0  0  0  # atno 6909 bound_to 6896
  145.8520  140.8345  142.9981 H   0  0  0  0  0  0  0  0  0  0  0  0  # atno 7974 bound_to 7965
  154.8130  140.0449  157.1356 H   0  0  0  0  0  0  0  0  0  0  0  0  # atno 8008 bound_to 7997
  154.9346  140.3044  155.5131 H   0  0  0  0  0  0  0  0  0  0  0  0  # atno 8009 bound_to 7997
  156.2973  140.2317  156.4409 H   0  0  0  0  0  0  0  0  0  0  0  0  # atno 8010 bound_to 7997
  140.4228  144.1435  150.6150 H   0  0  0  0  0  0  0  0  0  0  0  0  # atno 10167 bound_to 10162
  157.0013  131.0177  151.2829 H   0  0  0  0  0  0  0  0  0  0  0  0  # atno 10718 bound_to 10713
  154.4745  135.2772  155.1617 H   0  0  0  0  0  0  0  0  0  0  0  0  # atno 10763 bound_to 10752
  154.3353  135.6181  153.5574 H   0  0  0  0  0  0  0  0  0  0  0  0  # atno 10764 bound_to 10752
  152.9868  135.5775  154.5133 H   0  0  0  0  0  0  0  0  0  0  0  0  # atno 10765 bound_to 10752
  140.3341  134.2406  155.7698 H   0  0  0  0  0  0  0  0  0  0  0  0  # atno 11005 bound_to 11000
  144.6729  140.0968  143.7462 LP  0  0  0  0  0  0  0  0  0  0  0  0  # atno 17320 bound_to 7965
  145.9346  139.2629  143.1304 LP  0  0  0  0  0  0  0  0  0  0  0  0  # atno 17321 bound_to 7965
  140.4514  143.2485  151.9342 LP  0  0  0  0  0  0  0  0  0  0  0  0  # atno 17342 bound_to 10162
  139.4783  144.5558  151.8316 LP  0  0  0  0  0  0  0  0  0  0  0  0  # atno 17343 bound_to 10162
  157.5388  130.8106  149.8003 LP  0  0  0  0  0  0  0  0  0  0  0  0  # atno 17370 bound_to 10713
  156.0170  130.3810  150.2080 LP  0  0  0  0  0  0  0  0  0  0  0  0  # atno 17371 bound_to 10713
  141.2056  133.7856  157.0225 LP  0  0  0  0  0  0  0  0  0  0  0  0  # atno 17394 bound_to 11000
  140.0836  134.9634  157.1664 LP  0  0  0  0  0  0  0  0  0  0  0  0  # atno 17395 bound_to 11000

$$$$
