AV-unprocessed.smi:535|AV-procd|sdf|2858|dock2
  -GOLD-   2262023353D 1   1.00000     0.00000
 Structure written by MMmdl.
 46 48  0  0  0  0  0  0  0  0  1 V2000
  147.0735  141.7549  158.0695 C   0  0  0  0  0  0  0  0  0  0  0  0
  148.4763  141.9496  158.1053 O   0  0  0  0  0  0  0  0  0  0  0  0
  149.0136  142.2489  156.8287 C   0  0  0  0  0  0  0  0  0  0  0  0
  150.5062  142.5627  156.9803 C   0  0  0  0  0  0  0  0  0  0  0  0
  151.2932  141.3442  157.1465 N   0  0  0  0  0  0  0  0  0  0  0  0
  152.2573  141.0723  158.0699 C   0  0  0  0  0  0  0  0  0  0  0  0
  152.6297  141.9862  159.0579 N   0  0  0  0  0  0  0  0  0  0  0  0
  153.2488  141.6747  160.3460 C   0  0  0  0  0  0  0  0  0  0  0  0
  152.4904  142.3361  161.5095 C   0  0  0  0  0  0  0  0  0  0  0  0
  152.4360  143.8575  161.3154 C   0  0  0  0  0  0  0  0  0  0  0  0
  151.8913  144.1990  159.9172 C   0  0  1  0  0  0  0  0  0  0  0  0
  151.9119  145.7112  159.6571 C   0  0  0  0  0  0  0  0  0  0  0  0
  152.6825  143.4309  158.8383 C   0  0  0  0  0  0  0  0  0  0  0  0
  152.8543  139.8871  157.9162 N   0  0  0  0  0  0  0  0  0  0  0  0
  152.2069  139.3474  156.8164 C   0  0  0  0  0  0  0  0  0  0  0  0
  151.2802  140.2113  156.3294 C   0  0  0  0  0  0  0  0  0  0  0  0
  150.4873  139.9156  155.1273 C   0  0  0  0  0  0  0  0  0  0  0  0
  149.6614  140.6898  154.6492 O   0  0  0  0  0  0  0  0  0  0  0  0
  150.7688  138.7043  154.5885 N   0  0  0  0  0  0  0  0  0  0  0  0
  151.6809  137.7874  155.0335 C   0  0  0  0  0  0  0  0  0  0  0  0
  151.8324  136.7268  154.4274 O   0  0  0  0  0  0  0  0  0  0  0  0
  152.4029  138.1009  156.1565 N   0  0  0  0  0  0  0  0  0  0  0  0
  153.3983  137.1619  156.6774 C   0  0  0  0  0  0  0  0  0  0  0  0
  150.2513  138.4529  153.7590 H   0  0  0  0  0  0  0  0  0  0  0  0
  146.7093  141.5276  159.0714 H   0  0  0  0  0  0  0  0  0  0  0  0
  146.8076  140.9219  157.4175 H   0  0  0  0  0  0  0  0  0  0  0  0
  146.5597  142.6515  157.7198 H   0  0  0  0  0  0  0  0  0  0  0  0
  148.8736  141.4036  156.1528 H   0  0  0  0  0  0  0  0  0  0  0  0
  148.4922  143.1056  156.3989 H   0  0  0  0  0  0  0  0  0  0  0  0
  150.8601  143.1211  156.1197 H   0  0  0  0  0  0  0  0  0  0  0  0
  150.6727  143.2280  157.8252 H   0  0  0  0  0  0  0  0  0  0  0  0
  153.3169  140.5968  160.4874 H   0  0  0  0  0  0  0  0  0  0  0  0
  154.2798  142.0307  160.3321 H   0  0  0  0  0  0  0  0  0  0  0  0
  151.4771  141.9381  161.5710 H   0  0  0  0  0  0  0  0  0  0  0  0
  152.9753  142.0975  162.4564 H   0  0  0  0  0  0  0  0  0  0  0  0
  151.8161  144.3122  162.0888 H   0  0  0  0  0  0  0  0  0  0  0  0
  153.4378  144.2731  161.4324 H   0  0  0  0  0  0  0  0  0  0  0  0
  150.8517  143.8710  159.8698 H   0  0  0  0  0  0  0  0  0  0  0  0
  152.9293  146.1033  159.6757 H   0  0  0  0  0  0  0  0  0  0  0  0
  151.3341  146.2469  160.4107 H   0  0  0  0  0  0  0  0  0  0  0  0
  151.4818  145.9468  158.6832 H   0  0  0  0  0  0  0  0  0  0  0  0
  153.7237  143.7564  158.8218 H   0  0  0  0  0  0  0  0  0  0  0  0
  152.2713  143.6609  157.8546 H   0  0  0  0  0  0  0  0  0  0  0  0
  152.9881  136.1534  156.7507 H   0  0  0  0  0  0  0  0  0  0  0  0
  153.7455  137.4358  157.6736 H   0  0  0  0  0  0  0  0  0  0  0  0
  154.2673  137.1304  156.0194 H   0  0  0  0  0  0  0  0  0  0  0  0
  1  2  1  0  0  0  0
  1 25  1  0  0  0  0
  1 26  1  0  0  0  0
  1 27  1  0  0  0  0
  2  3  1  0  0  0  0
  3  4  1  0  0  0  0
  3 28  1  0  0  0  0
  3 29  1  0  0  0  0
  4  5  1  0  0  0  0
  4 30  1  0  0  0  0
  4 31  1  0  0  0  0
  5 16  1  0  0  0  0
  5  6  1  0  0  0  0
  6  7  1  0  0  0  0
  6 14  2  0  0  0  0
  7 13  1  0  0  0  0
  7  8  1  0  0  0  0
  8  9  1  0  0  0  0
  8 32  1  0  0  0  0
  8 33  1  0  0  0  0
  9 10  1  0  0  0  0
  9 34  1  0  0  0  0
  9 35  1  0  0  0  0
 10 11  1  0  0  0  0
 10 36  1  0  0  0  0
 10 37  1  0  0  0  0
 11 12  1  0  0  0  0
 11 13  1  0  0  0  0
 11 38  1  0  0  0  0
 12 39  1  0  0  0  0
 12 40  1  0  0  0  0
 12 41  1  0  0  0  0
 13 42  1  0  0  0  0
 13 43  1  0  0  0  0
 14 15  1  0  0  0  0
 15 22  1  0  0  0  0
 15 16  2  0  0  0  0
 16 17  1  0  0  0  0
 17 18  2  0  0  0  0
 17 19  1  0  0  0  0
 19 24  1  0  0  0  0
 19 20  1  0  0  0  0
 20 21  2  0  0  0  0
 20 22  1  0  0  0  0
 22 23  1  0  0  0  0
 23 44  1  0  0  0  0
 23 45  1  0  0  0  0
 23 46  1  0  0  0  0
M  END
> <s_m_source_file>
AV-unprocessed.smi

> <i_m_source_file_index>
535

> <i_lp_mmshare_version>
43012

> <i_f3d_flags>
0

> <s_epik_input>
W0NIM11uMWMoPU8pW25IXWMoPU8pYyhjMTIpbihbQ0gyXVtDSDJdT1tDSDNdKWMobjIpTjNbQ0gyXVtDSDJdW0NIMl1bQ0BASF0oW0NIM10pW0NIMl0z

> <s_epik_cmdline>
J2VwaWtfcHl0aG9uJywgJy1waCcsICc3LjAnLCAnLXRuJywgJzgnLCAnLW1hJywgJzIwMCcsICctbWV0YWxfYmluZGluZycsICctaW1hZScsICc8aW5maWxlLm1hZT4nLCAnLW9tYWUnLCAnPG91dGZpbGUubWFlPic=

> <r_lp_tautomer_probability>
1

> <r_epik_Ionization_Penalty>
0.00042181

> <r_epik_Ionization_Penalty_Charging>
0.000122112

> <r_epik_Ionization_Penalty_Neutral>
0.000299698

> <r_epik_State_Penalty>
-0

> <r_epik_Charging_Adjusted_Penalty>
0.000122112

> <i_epik_Tot_Q>
0

> <i_epik_Tot_abs_Q>
0

> <r_epik_Metal_State_Penalty>
0.0934894

> <b_epik_Metal_Only>
0

> <s_lp_Force_Field>
OPLS_2005

> <r_lp_Energy>
38.8925

> <b_lp_Chiralities_Consistent>
1

> <s_lp_Variant>
AV-unprocessed.smi:535-1

> <Gold.Version>
5.8.1

> <Gold.Id.Protein>
6NUR|6NUR_protein|mol2

> <Gold.PLP.Fitness>
46.9825

> <Gold.PLP.PLP>
-42.3574

> <Gold.PLP.part.hbond>
-2.7883

> <Gold.PLP.part.metal>
0.0000

> <Gold.PLP.part.buried>
1.1870

> <Gold.PLP.part.nonpolar>
-41.5367

> <Gold.PLP.part.repulsive>
0.8833

> <Gold.PLP.ligand.clash>
0.3205

> <Gold.PLP.ligand.torsion>
0.5917

> <Gold.PLP.Chemscore.Hbond>
1.8640

> <Gold.PLP.Chemscore.CHOScore>
0.0000

> <Gold.PLP.Chemscore.Metal>
0.0000

> <Gold.Chemscore.Hbonds>
donor molecule, donor type, donor heavy atom, donor atom, acceptor molecule, acceptor atom, score
      P1  H  7997  8008       L1    14  0.83
      P1  H 10752 10763       L1    21  1.00

> <Gold.PLP.Chemscore.Internal.Correction>
0.5370

> <Gold.Rescore>
     Score         DG    S(hbond)    S(metal)    S(lipo)     H(rot)  DE(clash)    DE(int)     intcor
     12.45     -16.77       1.13        0.00      96.04       1.46       1.54       2.79       ----

> <Gold.Chemscore.Fitness>
12.4506

> <Gold.Chemscore.DG>
-16.7733

> <Gold.Chemscore.ZeroCoef>
-5.4800

> <Gold.Chemscore.Hbond>
1.1326

> <Gold.Chemscore.Metal>
0.0000

> <Gold.Chemscore.Lipo>
96.0444

> <Gold.Chemscore.Internal_Hbond>
0.0000

> <Gold.Chemscore.DEClash>
1.5377

> <Gold.Chemscore.DEInternal>
2.7850

> <Gold.Chemscore.Rot>
1.4557

> <Gold.Chemscore.Internal.Correction>
   9.000000E+99

> <Gold.Chemscore.Hbonds>
donor molecule, donor type, donor heavy atom, donor atom, acceptor molecule, acceptor atom, score
      P1  H  7997  8008       L1    14  0.11
      P1  H 10752 10763       L1    21  0.95

> <Gold.Chemscore.Hbond.Weighted>
-3.7828

> <Gold.Chemscore.Metal.Weighted>
-0.0000

> <Gold.Chemscore.Lipo.Weighted>
-11.2372

> <Gold.Chemscore.Internal_Hbond.Weighted>
0.0000

> <Gold.Chemscore.DEClash.Weighted>
1.5377

> <Gold.Chemscore.DEInternal.Weighted>
2.7850

> <Gold.Chemscore.Rot.Weighted>
3.7267

> <Gold.Chemscore.Internal.Correction.Weighted>
   9.000000E+99

> <Gold.Protein.RotatedTorsions>
[ 6907 6896 6895 6894 ] final   84.45 input  -60.11 | X-H torsion
[ 7974 7965 7964 7962 ] final -174.77 input  175.53 | X-H torsion
[ 8008 7997 7996 7995 ] final  -92.22 input   59.86 | X-H torsion
[ 10167 10162 10161 10158 ] final  172.52 input  -65.29 | X-H torsion
[ 10718 10713 10712 10709 ] final   77.27 input   66.30 | X-H torsion
[ 10763 10752 10751 10750 ] final   38.95 input  -60.55 | X-H torsion
[ 11005 11000 10999 10996 ] final  -47.94 input  -57.11 | X-H torsion

> <Gold.Protein.ActiveResidues>
 VAL166  LYS551  ARG553  GLY616  TRP617  ASP618  TYR619  PRO620  LYS621  CYS622 
 ASP623  PHE694  ASN695  SER759  ASP760  ASP761  ALA762  ILE779  LEU786  VAL792 
 PHE793  MET794  SER795  GLU796  ALA797  LYS798  CYS799  TRP800  GLU811  SER814 

> <Gold.Protein.RotatedAtoms>
  152.5352  134.2739  159.8981 H   0  0  0  0  0  0  0  0  0  0  0  0  # atno 6907 bound_to 6896
  151.2695  133.4255  159.2628 H   0  0  0  0  0  0  0  0  0  0  0  0  # atno 6908 bound_to 6896
  151.0380  134.9602  159.8203 H   0  0  0  0  0  0  0  0  0  0  0  0  # atno 6909 bound_to 6896
  144.7130  140.1422  143.6391 H   0  0  0  0  0  0  0  0  0  0  0  0  # atno 7974 bound_to 7965
  154.7205  140.0511  157.0635 H   0  0  0  0  0  0  0  0  0  0  0  0  # atno 8008 bound_to 7997
  155.0434  140.3171  155.4697 H   0  0  0  0  0  0  0  0  0  0  0  0  # atno 8009 bound_to 7997
  156.2815  140.2129  156.5558 H   0  0  0  0  0  0  0  0  0  0  0  0  # atno 8010 bound_to 7997
  139.5079  144.3365  152.0060 H   0  0  0  0  0  0  0  0  0  0  0  0  # atno 10167 bound_to 10162
  157.6704  130.9814  150.1617 H   0  0  0  0  0  0  0  0  0  0  0  0  # atno 10718 bound_to 10713
  152.9983  135.6234  154.2387 H   0  0  0  0  0  0  0  0  0  0  0  0  # atno 10763 bound_to 10752
  154.2128  135.2799  155.2954 H   0  0  0  0  0  0  0  0  0  0  0  0  # atno 10764 bound_to 10752
  154.5592  135.5710  153.7051 H   0  0  0  0  0  0  0  0  0  0  0  0  # atno 10765 bound_to 10752
  141.0671  133.6690  156.3369 H   0  0  0  0  0  0  0  0  0  0  0  0  # atno 11005 bound_to 11000
  145.9192  139.2535  143.1391 LP  0  0  0  0  0  0  0  0  0  0  0  0  # atno 17320 bound_to 7965
  145.9638  140.8815  143.0197 LP  0  0  0  0  0  0  0  0  0  0  0  0  # atno 17321 bound_to 7965
  140.2803  144.3866  150.6121 LP  0  0  0  0  0  0  0  0  0  0  0  0  # atno 17342 bound_to 10162
  140.6023  143.2167  151.7049 LP  0  0  0  0  0  0  0  0  0  0  0  0  # atno 17343 bound_to 10162
  156.2392  130.3689  149.8356 LP  0  0  0  0  0  0  0  0  0  0  0  0  # atno 17370 bound_to 10713
  156.6161  130.8607  151.3465 LP  0  0  0  0  0  0  0  0  0  0  0  0  # atno 17371 bound_to 10713
  140.5751  134.5802  157.5466 LP  0  0  0  0  0  0  0  0  0  0  0  0  # atno 17394 bound_to 11000
  139.9487  134.7656  156.0500 LP  0  0  0  0  0  0  0  0  0  0  0  0  # atno 17395 bound_to 11000

$$$$
