#       Name:                AV-unprocessed.smi:332
#       Creating user name   scv26
#       Creation time:       Thu Mar 26 22:27:00 2020


#       File generated by GOLD software.
#

@<TRIPOS>MOLECULE
AV-unprocessed.smi:332
    46    48     1
SMALL
NO_CHARGES


@<TRIPOS>ATOM
      1 ****        -1.5612  -1.5692   1.8615 C.3            1 S1                 0.0000
      2 ****        -1.0941  -0.8407   0.5909 C.3            1 S1                 0.0000
      3 ****         0.3667  -0.8499   0.5410 N.am           1 S1                 0.0000
      4 ****         1.1748   0.1400   0.9506 C.2            1 S1                 0.0000
      5 ****         0.7605   1.1980   1.4267 O.2            1 S1                 0.0000
      6 ****         2.6793  -0.1250   0.7907 C.3            1 S1                 0.0000
      7 ****         3.5270   1.0229   1.1551 N.am           1 S1                 0.0000
      8 ****         3.9326   1.8745   0.1081 C.2            1 S1                 0.0000
      9 ****         4.7074   2.9488   0.3260 C.2            1 S1                 0.0000
     10 ****         5.1264   3.2247   1.6796 C.2            1 S1                 0.0000
     11 ****         4.7410   2.4191   2.6892 C.2            1 S1                 0.0000
     12 ****         3.8941   1.2434   2.4557 C.2            1 S1                 0.0000
     13 ****         3.5367   0.5030   3.3724 O.2            1 S1                 0.0000
     14 ****        -1.6521  -1.4807  -0.7022 C.3            1 S1                 0.0000
     15 ****        -1.2773  -0.7348  -2.0041 C.3            1 S1                 0.0000
     16 ****        -2.6305  -0.5943  -2.7256 C.3            1 S1                 0.0000
     17 ****        -3.4701   0.4834  -2.0155 C.3            1 S1                 0.0000
     18 ****        -3.8846  -0.2188  -0.7099 C.3            1 S1                 0.0000
     19 ****        -3.1927  -1.5929  -0.8243 C.3            1 S1                 0.0000
     20 ****        -3.3488  -1.8748  -2.3156 C.3            1 S1                 0.0000
     21 ****        -2.6454  -1.5299   1.9658 H              1 S1                 0.0000
     22 ****        -1.1345  -1.1127   2.7552 H              1 S1                 0.0000
     23 ****        -1.2646  -2.6186   1.8499 H              1 S1                 0.0000
     24 ****        -1.4370   0.1930   0.6438 H              1 S1                 0.0000
     25 ****         0.7984  -1.6806   0.1630 H              1 S1                 0.0000
     26 ****         2.9458  -0.9991   1.3874 H              1 S1                 0.0000
     27 ****         2.8707  -0.4186  -0.2427 H              1 S1                 0.0000
     28 ****         3.5709   1.6028  -0.8731 H              1 S1                 0.0000
     29 ****         5.0063   3.5918  -0.4888 H              1 S1                 0.0000
     30 ****         5.7504   4.0821   1.8843 H              1 S1                 0.0000
     31 ****         5.0627   2.6425   3.6959 H              1 S1                 0.0000
     32 ****        -1.2494  -2.4934  -0.7685 H              1 S1                 0.0000
     33 ****        -0.8157   0.2370  -1.8229 H              1 S1                 0.0000
     34 ****        -0.5770  -1.3261  -2.5953 H              1 S1                 0.0000
     35 ****        -2.5389  -0.4384  -3.8009 H              1 S1                 0.0000
     36 ****        -2.9038   1.3979  -1.8348 H              1 S1                 0.0000
     37 ****        -4.3496   0.7454  -2.6051 H              1 S1                 0.0000
     38 ****        -3.6016   0.3399   0.1811 H              1 S1                 0.0000
     39 ****        -4.9679  -0.3435  -0.6790 H              1 S1                 0.0000
     40 ****        -3.6275  -2.3544  -0.1763 H              1 S1                 0.0000
     41 ****        -4.3889  -1.9123  -2.6445 H              1 S1                 0.0000
     42 ****        -2.8378  -2.7817  -2.6439 H              1 S1                 0.0000
     43 ****        -0.2229   1.3516   1.5235 LP             1 S1                 0.0000
     44 ****         1.4076   1.9032   1.7164 LP             1 S1                 0.0000
     45 ****         2.9591  -0.2900   3.1784 LP             1 S1                 0.0000
     46 ****         3.8240   0.6947   4.3108 LP             1 S1                 0.0000
@<TRIPOS>BOND
    1    1    2 1     
    2    1   21 1     
    3    1   22 1     
    4    1   23 1     
    5    2    3 1     
    6    2   14 1     
    7    2   24 1     
    8    3    4 am    
    9    3   25 1     
   10    4    5 2     
   11    4    6 1     
   12    6    7 1     
   13    6   26 1     
   14    6   27 1     
   15    7   12 am    
   16    7    8 1     
   17    8    9 2     
   18    8   28 1     
   19    9   10 1     
   20    9   29 1     
   21   10   11 2     
   22   10   30 1     
   23   11   12 1     
   24   11   31 1     
   25   12   13 2     
   26   14   19 1     
   27   14   15 1     
   28   14   32 1     
   29   15   16 1     
   30   15   33 1     
   31   15   34 1     
   32   16   20 1     
   33   16   17 1     
   34   16   35 1     
   35   17   18 1     
   36   17   36 1     
   37   17   37 1     
   38   18   19 1     
   39   18   38 1     
   40   18   39 1     
   41   19   20 1     
   42   19   40 1     
   43   20   41 1     
   44   20   42 1     
   45    5   43 1     
   46    5   44 1     
   47   13   45 1     
   48   13   46 1     
@<TRIPOS>SUBSTRUCTURE
      1 S1             1
@<TRIPOS>SET
LONE_PAIRS      STATIC     ATOMS    <user>   **** ""
4 43 44 45 46
DONOR_HYDROGENS      STATIC     ATOMS    <user>   **** ""
1 25
ATOM$BLUE        STATIC     ATOMS    COLORGROUP SYSTEM
4 43 44 45 46
ATOM$RED        STATIC     ATOMS    COLORGROUP SYSTEM
1 25
