AV-unprocessed.smi:3150|AV-procd|sdf|12012|dock3
  -GOLD-   2272017423D 1   1.00000     0.00000
 Structure written by MMmdl.
 32 33  0  0  0  0  0  0  0  0  2 V2000
  151.9615  138.0872  154.1460 C   0  0  0  0  0  0  0  0  0  0  0  0
  152.7480  138.6935  155.3160 C   0  0  1  0  0  0  0  0  0  0  0  0
  153.9715  139.2104  154.7978 O   0  0  0  0  0  0  0  0  0  0  0  0
  154.8350  138.2411  154.2165 C   0  0  0  0  0  0  0  0  0  0  0  0
  156.2371  138.8080  154.1640 C   0  0  0  0  0  0  0  0  0  0  0  0
  156.8708  139.1613  152.8375 C   0  0  0  0  0  0  0  0  0  0  0  0
  157.3807  137.9802  153.6234 C   0  0  0  0  0  0  0  0  0  0  0  0
  151.9364  139.8091  155.9959 C   0  0  0  0  0  0  0  0  0  0  0  0
  151.0487  140.3715  155.3485 O   0  0  0  0  0  0  0  0  0  0  0  0
  152.3502  140.0271  157.3075 N   0  0  0  0  0  0  0  0  0  0  0  0
  151.9679  141.0487  158.0245 C   0  0  0  0  0  0  0  0  0  0  0  0
  151.0968  142.0442  157.5486 N   0  0  0  0  0  0  0  0  0  0  0  0
  150.6998  143.1232  158.3096 C   0  0  0  0  0  0  0  0  0  0  0  0
  151.1252  143.2870  159.5634 C   0  0  0  0  0  0  0  0  0  0  0  0
  152.0245  142.3038  160.1311 C   0  0  0  0  0  0  0  0  0  0  0  0
  152.4621  141.1889  159.4063 C   0  0  0  0  0  0  0  0  0  0  0  0
  153.2416  140.3644  159.9377 O   0  5  0  0  0  0  0  0  0  0  0  0
  151.0144  137.6642  154.4831 H   0  0  0  0  0  0  0  0  0  0  0  0
  152.5293  137.2860  153.6723 H   0  0  0  0  0  0  0  0  0  0  0  0
  151.7427  138.8339  153.3817 H   0  0  0  0  0  0  0  0  0  0  0  0
  152.9722  137.8973  156.0293 H   0  0  0  0  0  0  0  0  0  0  0  0
  154.8406  137.3120  154.7881 H   0  0  0  0  0  0  0  0  0  0  0  0
  154.5105  138.0068  153.2019 H   0  0  0  0  0  0  0  0  0  0  0  0
  156.4751  139.4699  154.9945 H   0  0  0  0  0  0  0  0  0  0  0  0
  156.3030  138.9542  151.9323 H   0  0  0  0  0  0  0  0  0  0  0  0
  157.4971  140.0503  152.8017 H   0  0  0  0  0  0  0  0  0  0  0  0
  158.3471  138.0799  154.1134 H   0  0  0  0  0  0  0  0  0  0  0  0
  157.1502  136.9860  153.2454 H   0  0  0  0  0  0  0  0  0  0  0  0
  150.0303  143.8081  157.8110 H   0  0  0  0  0  0  0  0  0  0  0  0
  150.8050  144.1384  160.1456 H   0  0  0  0  0  0  0  0  0  0  0  0
  152.3621  142.4467  161.1476 H   0  0  0  0  0  0  0  0  0  0  0  0
  150.7269  141.9996  156.6106 H   0  0  0  0  0  0  0  0  0  0  0  0
  1  2  1  0  0  0  0
  1 18  1  0  0  0  0
  1 19  1  0  0  0  0
  1 20  1  0  0  0  0
  2  3  1  0  0  0  0
  2  8  1  0  0  0  0
  2 21  1  0  0  0  0
  3  4  1  0  0  0  0
  4  5  1  0  0  0  0
  4 22  1  0  0  0  0
  4 23  1  0  0  0  0
  5  7  1  0  0  0  0
  5  6  1  0  0  0  0
  5 24  1  0  0  0  0
  6  7  1  0  0  0  0
  6 25  1  0  0  0  0
  6 26  1  0  0  0  0
  7 27  1  0  0  0  0
  7 28  1  0  0  0  0
  8  9  2  0  0  0  0
  8 10  1  0  0  0  0
 10 11  2  0  0  0  0
 11 16  1  0  0  0  0
 11 12  1  0  0  0  0
 12 32  1  0  0  0  0
 12 13  1  0  0  0  0
 13 29  1  0  0  0  0
 13 14  2  0  0  0  0
 14 30  1  0  0  0  0
 14 15  1  0  0  0  0
 15 16  2  0  0  0  0
 15 31  1  0  0  0  0
 16 17  1  0  0  0  0
M  CHG  1  17  -1
M  END
> <s_m_source_file>
AV-unprocessed.smi

> <i_m_source_file_index>
3150

> <i_lp_mmshare_version>
43012

> <i_f3d_flags>
0

> <s_epik_input>
W0NIMl0xW0NIMl1bQ0hdMVtDSDJdT1tDQEBIXShbQ0gzXSlDKD1PKVtOSF1jMm5bY0hdW2NIXVtjSF1jMltPSF0=

> <s_epik_cmdline>
J2VwaWtfcHl0aG9uJywgJy1waCcsICc3LjAnLCAnLXRuJywgJzgnLCAnLW1hJywgJzIwMCcsICctbWV0YWxfYmluZGluZycsICctaW1hZScsICc8aW5maWxlLm1hZT4nLCAnLW9tYWUnLCAnPG91dGZpbGUubWFlPic=

> <r_epik_Ionization_Penalty>
0.784632

> <r_epik_Ionization_Penalty_Charging>
0.784632

> <r_epik_Ionization_Penalty_Neutral>
7.02258e-13

> <r_epik_State_Penalty>
1.43154

> <r_epik_Charging_Adjusted_Penalty>
2.21617

> <i_epik_Tot_Q>
-1

> <i_epik_Tot_abs_Q>
1

> <r_epik_Metal_State_Penalty>
1.39244

> <b_epik_Metal_Only>
0

> <s_lp_Force_Field>
OPLS_2005

> <r_lp_Energy>
45.381

> <b_lp_Chiralities_Consistent>
1

> <s_lp_Variant>
AV-unprocessed.smi:3150-6

> <Gold.Version>
5.8.1

> <Gold.Id.Protein>
6NUR|6NUR_protein|mol2

> <Gold.PLP.Fitness>
41.9519

> <Gold.PLP.PLP>
-33.7856

> <Gold.PLP.part.hbond>
-3.0000

> <Gold.PLP.part.metal>
0.0000

> <Gold.PLP.part.buried>
-2.0884

> <Gold.PLP.part.nonpolar>
-28.9556

> <Gold.PLP.part.repulsive>
0.0906

> <Gold.PLP.ligand.clash>
0.0000

> <Gold.PLP.ligand.torsion>
1.1359

> <Gold.PLP.Chemscore.Hbond>
2.2880

> <Gold.PLP.Chemscore.CHOScore>
1.0000

> <Gold.PLP.Chemscore.Metal>
0.0000

> <Gold.Chemscore.Hbonds>
donor molecule, donor type, donor heavy atom, donor atom, acceptor molecule, acceptor atom, score
      P1  H  7989  7998       L1     9  1.00
      P1  H  7997  8008       L1     3  0.33
      P1  H  7997  8010       L1    10  0.48
      L1  C    13    29       P1  8028  0.88

> <Gold.PLP.Chemscore.Internal.Correction>
0.5742

> <Gold.Rescore>
     Score         DG    S(hbond)    S(metal)    S(lipo)     H(rot)  DE(clash)    DE(int)     intcor
     17.48     -19.75       1.85        0.00     105.18       1.64       1.16       1.12       ----

> <Gold.Chemscore.Fitness>
17.4770

> <Gold.Chemscore.DG>
-19.7548

> <Gold.Chemscore.ZeroCoef>
-5.4800

> <Gold.Chemscore.Hbond>
1.8456

> <Gold.Chemscore.Metal>
0.0000

> <Gold.Chemscore.Lipo>
105.1758

> <Gold.Chemscore.Internal_Hbond>
0.0000

> <Gold.Chemscore.DEClash>
1.1626

> <Gold.Chemscore.DEInternal>
1.1153

> <Gold.Chemscore.Rot>
1.6387

> <Gold.Chemscore.Internal.Correction>
   9.000000E+99

> <Gold.Chemscore.Hbonds>
donor molecule, donor type, donor heavy atom, donor atom, acceptor molecule, acceptor atom, score
      P1  H  7989  7998       L1     9  0.78
      P1  H  7997  8008       L1     3  0.06
      P1  H  7997  8010       L1    10  0.07

> <Gold.Chemscore.Hbond.Weighted>
-6.1643

> <Gold.Chemscore.Metal.Weighted>
-0.0000

> <Gold.Chemscore.Lipo.Weighted>
-12.3056

> <Gold.Chemscore.Internal_Hbond.Weighted>
0.0000

> <Gold.Chemscore.DEClash.Weighted>
1.1626

> <Gold.Chemscore.DEInternal.Weighted>
1.1153

> <Gold.Chemscore.Rot.Weighted>
4.1950

> <Gold.Chemscore.Internal.Correction.Weighted>
   9.000000E+99

> <Gold.Protein.RotatedTorsions>
[ 6907 6896 6895 6894 ] final  113.54 input  -60.11 | X-H torsion
[ 7974 7965 7964 7962 ] final  140.04 input  175.53 | X-H torsion
[ 8008 7997 7996 7995 ] final   41.99 input   59.86 | X-H torsion
[ 10167 10162 10161 10158 ] final  175.60 input  -65.29 | X-H torsion
[ 10718 10713 10712 10709 ] final   85.21 input   66.30 | X-H torsion
[ 10763 10752 10751 10750 ] final  145.64 input  -60.55 | X-H torsion
[ 11005 11000 10999 10996 ] final -126.97 input  -57.11 | X-H torsion

> <Gold.Protein.ActiveResidues>
 VAL166  LYS551  ARG553  GLY616  TRP617  ASP618  TYR619  PRO620  LYS621  CYS622 
 ASP623  PHE694  ASN695  SER759  ASP760  ASP761  ALA762  ILE779  LEU786  VAL792 
 PHE793  MET794  SER795  GLU796  ALA797  LYS798  CYS799  TRP800  GLU811  SER814 

> <Gold.Protein.RotatedAtoms>
  152.4855  133.8361  159.7128 H   0  0  0  0  0  0  0  0  0  0  0  0  # atno 6907 bound_to 6896
  150.8937  133.7199  159.2904 H   0  0  0  0  0  0  0  0  0  0  0  0  # atno 6908 bound_to 6896
  151.4663  135.1046  159.9791 H   0  0  0  0  0  0  0  0  0  0  0  0  # atno 6909 bound_to 6896
  144.9223  139.5152  143.5657 H   0  0  0  0  0  0  0  0  0  0  0  0  # atno 7974 bound_to 7965
  155.2788  140.3371  155.4260 H   0  0  0  0  0  0  0  0  0  0  0  0  # atno 8008 bound_to 7997
  156.2099  140.1766  156.7759 H   0  0  0  0  0  0  0  0  0  0  0  0  # atno 8009 bound_to 7997
  154.5672  140.0676  156.8894 H   0  0  0  0  0  0  0  0  0  0  0  0  # atno 8010 bound_to 7997
  139.5183  144.3013  152.0376 H   0  0  0  0  0  0  0  0  0  0  0  0  # atno 10167 bound_to 10162
  157.6911  131.0165  150.2789 H   0  0  0  0  0  0  0  0  0  0  0  0  # atno 10718 bound_to 10713
  154.0088  135.2916  155.3394 H   0  0  0  0  0  0  0  0  0  0  0  0  # atno 10763 bound_to 10752
  154.7115  135.5147  153.8677 H   0  0  0  0  0  0  0  0  0  0  0  0  # atno 10764 bound_to 10752
  153.0732  135.6655  154.0322 H   0  0  0  0  0  0  0  0  0  0  0  0  # atno 10765 bound_to 10752
  140.9638  134.0900  157.3941 H   0  0  0  0  0  0  0  0  0  0  0  0  # atno 11005 bound_to 11000
  146.3210  139.8112  142.8945 LP  0  0  0  0  0  0  0  0  0  0  0  0  # atno 17320 bound_to 7965
  145.3276  141.0259  143.3465 LP  0  0  0  0  0  0  0  0  0  0  0  0  # atno 17321 bound_to 7965
  140.2460  144.4219  150.6240 LP  0  0  0  0  0  0  0  0  0  0  0  0  # atno 17342 bound_to 10162
  140.6257  143.2181  151.6601 LP  0  0  0  0  0  0  0  0  0  0  0  0  # atno 17343 bound_to 10162
  156.3339  130.3804  149.7467 LP  0  0  0  0  0  0  0  0  0  0  0  0  # atno 17370 bound_to 10713
  156.4998  130.8123  151.3128 LP  0  0  0  0  0  0  0  0  0  0  0  0  # atno 17371 bound_to 10713
  139.8887  135.0100  156.6637 LP  0  0  0  0  0  0  0  0  0  0  0  0  # atno 17394 bound_to 11000
  140.7429  133.8962  155.8291 LP  0  0  0  0  0  0  0  0  0  0  0  0  # atno 17395 bound_to 11000

$$$$
