#       Name:                AV-unprocessed.smi:1458
#       Creating user name   scv26
#       Creation time:       Fri Mar 27 06:00:41 2020


#       File generated by GOLD software.
#

@<TRIPOS>MOLECULE
AV-unprocessed.smi:1458
    54    55     1
SMALL
NO_CHARGES


@<TRIPOS>ATOM
      1 ****        -5.4455   6.2643  -1.2340 C.3            1 S1                 0.0000
      2 ****        -5.1127   4.9128  -0.9701 O.3            1 S1                 0.0000
      3 ****        -5.4378   4.0508  -2.0487 C.3            1 S1                 0.0000
      4 ****        -5.0554   2.6133  -1.6787 C.3            1 S1                 0.0000
      5 ****        -3.6106   2.4837  -1.5456 N.am           1 S1                 0.0000
      6 ****        -2.9875   1.3961  -1.0750 C.2            1 S1                 0.0000
      7 ****        -3.5803   0.3795  -0.7149 O.2            1 S1                 0.0000
      8 ****        -1.6564   1.5790  -1.0380 N.am           1 S1                 0.0000
      9 ****        -0.6499   0.6890  -0.5746 C.ar           1 S1                 0.0000
     10 ****         0.6110   1.2285  -0.2561 C.ar           1 S1                 0.0000
     11 ****         1.6322   0.3735   0.1983 C.ar           1 S1                 0.0000
     12 ****         1.3697  -1.0111   0.3199 C.ar           1 S1                 0.0000
     13 ****         2.3751  -1.8857   0.7863 N.3            1 S1                 0.0000
     14 ****         3.0024  -1.5081   2.0501 C.3            1 S1                 0.0000
     15 ****         4.2854  -2.3253   2.2985 C.3            1 S1                 0.0000
     16 ****         5.4778  -1.8699   1.4385 C.3            1 S1                 0.0000
     17 ****         4.0181  -3.7221   2.1568 O.3            1 S1                 0.0000
     18 ****         3.4549  -4.0979   0.9007 C.3            1 S1                 0.0000
     19 ****         3.2267  -5.6129   0.9192 C.3            1 S1                 0.0000
     20 ****         2.1454  -3.3230   0.6682 C.3            1 S1                 0.0000
     21 ****         0.1632  -1.5336  -0.0101 N.ar           1 S1                 0.0000
     22 ****        -0.8145  -0.7103  -0.4446 C.ar           1 S1                 0.0000
     23 ****        -5.1744   6.8817  -0.3777 H              1 S1                 0.0000
     24 ****        -6.5161   6.3803  -1.4067 H              1 S1                 0.0000
     25 ****        -4.9068   6.6404  -2.1046 H              1 S1                 0.0000
     26 ****        -6.5088   4.1035  -2.2503 H              1 S1                 0.0000
     27 ****        -4.9188   4.3609  -2.9573 H              1 S1                 0.0000
     28 ****        -5.5482   2.3235  -0.7493 H              1 S1                 0.0000
     29 ****        -5.4008   1.9276  -2.4536 H              1 S1                 0.0000
     30 ****        -3.0530   3.2817  -1.8127 H              1 S1                 0.0000
     31 ****        -1.3298   2.4941  -1.3113 H              1 S1                 0.0000
     32 ****         0.7974   2.2881  -0.3540 H              1 S1                 0.0000
     33 ****         2.6015   0.7857   0.4352 H              1 S1                 0.0000
     34 ****         3.2388  -0.4458   2.0913 H              1 S1                 0.0000
     35 ****         2.2884  -1.6981   2.8525 H              1 S1                 0.0000
     36 ****         4.5749  -2.1770   3.3391 H              1 S1                 0.0000
     37 ****         5.7445  -0.8376   1.6658 H              1 S1                 0.0000
     38 ****         5.2622  -1.9189   0.3715 H              1 S1                 0.0000
     39 ****         6.3552  -2.4870   1.6325 H              1 S1                 0.0000
     40 ****         4.1596  -3.8730   0.1000 H              1 S1                 0.0000
     41 ****         2.8023  -5.9576  -0.0239 H              1 S1                 0.0000
     42 ****         2.5428  -5.8989   1.7189 H              1 S1                 0.0000
     43 ****         4.1645  -6.1462   1.0768 H              1 S1                 0.0000
     44 ****         1.3924  -3.6260   1.3975 H              1 S1                 0.0000
     45 ****         1.7563  -3.5636  -0.3220 H              1 S1                 0.0000
     46 ****        -1.7354  -1.2074  -0.7052 H              1 S1                 0.0000
     47 ****        -5.6129   4.6124  -0.1579 LP             1 S1                 0.0000
     48 ****        -4.1296   4.8528  -0.7972 LP             1 S1                 0.0000
     49 ****        -4.5781   0.3378  -0.7662 LP             1 S1                 0.0000
     50 ****        -3.0642  -0.4049  -0.3709 LP             1 S1                 0.0000
     51 ****         3.0613  -1.7200   0.0781 LP             1 S1                 0.0000
     52 ****         3.3793  -3.9915   2.8775 LP             1 S1                 0.0000
     53 ****         4.8792  -4.2172   2.2725 LP             1 S1                 0.0000
     54 ****        -0.0006  -2.5171   0.0674 LP             1 S1                 0.0000
@<TRIPOS>BOND
    1    1    2 1     
    2    1   23 1     
    3    1   24 1     
    4    1   25 1     
    5    2    3 1     
    6    3    4 1     
    7    3   26 1     
    8    3   27 1     
    9    4    5 1     
   10    4   28 1     
   11    4   29 1     
   12    5    6 am    
   13    5   30 1     
   14    6    7 2     
   15    6    8 am    
   16    8    9 1     
   17    8   31 1     
   18    9   22 ar    
   19    9   10 ar    
   20   10   11 ar    
   21   10   32 1     
   22   11   12 ar    
   23   11   33 1     
   24   12   13 1     
   25   12   21 ar    
   26   13   20 1     
   27   13   14 1     
   28   14   15 1     
   29   14   34 1     
   30   14   35 1     
   31   15   16 1     
   32   15   17 1     
   33   15   36 1     
   34   16   37 1     
   35   16   38 1     
   36   16   39 1     
   37   17   18 1     
   38   18   19 1     
   39   18   20 1     
   40   18   40 1     
   41   19   41 1     
   42   19   42 1     
   43   19   43 1     
   44   20   44 1     
   45   20   45 1     
   46   21   22 ar    
   47   22   46 1     
   48    2   47 1     
   49    2   48 1     
   50    7   49 1     
   51    7   50 1     
   52   13   51 1     
   53   17   52 1     
   54   17   53 1     
   55   21   54 1     
@<TRIPOS>SUBSTRUCTURE
      1 S1             1
@<TRIPOS>SET
LONE_PAIRS      STATIC     ATOMS    <user>   **** ""
8 47 48 49 50 51 52 53 54
DONOR_HYDROGENS      STATIC     ATOMS    <user>   **** ""
2 30 31
ATOM$BLUE        STATIC     ATOMS    COLORGROUP SYSTEM
8 47 48 49 50 51 52 53 54
ATOM$RED        STATIC     ATOMS    COLORGROUP SYSTEM
2 30 31
