AV-unprocessed.smi:160|AV-procd|sdf|1351|dock2
  -GOLD-   2262019 53D 1   1.00000     0.00000
 Structure written by MMmdl.
 29 30  0  0  0  0  0  0  0  0  1 V2000
  150.6532  133.3683  155.4135 N   0  0  0  0  0  0  0  0  0  0  0  0
  150.5583  133.9338  156.6215 C   0  0  0  0  0  0  0  0  0  0  0  0
  150.0921  133.3396  157.5922 O   0  0  0  0  0  0  0  0  0  0  0  0
  151.0535  135.3493  156.7328 C   0  0  0  0  0  0  0  0  0  0  0  0
  151.0855  135.9941  157.9363 N   0  0  0  0  0  0  0  0  0  0  0  0
  151.5764  137.1596  157.5346 C   0  0  0  0  0  0  0  0  0  0  0  0
  151.8324  137.2253  156.2239 N   0  0  0  0  0  0  0  0  0  0  0  0
  152.3661  138.3671  155.4089 C   0  0  2  0  0  0  0  0  0  0  0  0
  152.4492  139.4751  156.2507 O   0  0  0  0  0  0  0  0  0  0  0  0
  151.4501  140.4465  155.9355 C   0  0  2  0  0  0  0  0  0  0  0  0
  150.7104  140.8705  157.2147 C   0  0  0  0  0  0  0  0  0  0  0  0
  149.8517  141.9577  156.9437 O   0  0  0  0  0  0  0  0  0  0  0  0
  150.5329  139.7880  154.8925 C   0  0  1  0  0  0  0  0  0  0  0  0
  150.1046  140.7377  153.9372 O   0  0  0  0  0  0  0  0  0  0  0  0
  151.4384  138.7524  154.2445 C   0  0  2  0  0  0  0  0  0  0  0  0
  150.6945  137.6698  153.7146 O   0  0  0  0  0  0  0  0  0  0  0  0
  151.4804  136.0364  155.6724 N   0  0  0  0  0  0  0  0  0  0  0  0
  153.3534  138.0316  155.0889 H   0  0  0  0  0  0  0  0  0  0  0  0
  151.9575  141.3008  155.4825 H   0  0  0  0  0  0  0  0  0  0  0  0
  149.6725  139.3164  155.3696 H   0  0  0  0  0  0  0  0  0  0  0  0
  152.0531  139.2077  153.4663 H   0  0  0  0  0  0  0  0  0  0  0  0
  150.3373  132.4195  155.2755 H   0  0  0  0  0  0  0  0  0  0  0  0
  151.0418  133.8967  154.6457 H   0  0  0  0  0  0  0  0  0  0  0  0
  151.7544  137.9827  158.2109 H   0  0  0  0  0  0  0  0  0  0  0  0
  150.0907  140.0500  157.5780 H   0  0  0  0  0  0  0  0  0  0  0  0
  151.4073  141.1272  158.0127 H   0  0  0  0  0  0  0  0  0  0  0  0
  149.1590  141.9612  157.5865 H   0  0  0  0  0  0  0  0  0  0  0  0
  149.9698  140.2918  153.1147 H   0  0  0  0  0  0  0  0  0  0  0  0
  151.2037  137.2593  153.0326 H   0  0  0  0  0  0  0  0  0  0  0  0
  1  2  1  0  0  0  0
  1 22  1  0  0  0  0
  1 23  1  0  0  0  0
  2  3  2  0  0  0  0
  2  4  1  0  0  0  0
  4 17  2  0  0  0  0
  4  5  1  0  0  0  0
  5  6  2  0  0  0  0
  6  7  1  0  0  0  0
  6 24  1  0  0  0  0
  7  8  1  0  0  0  0
  7 17  1  0  0  0  0
  8 18  1  0  0  0  0
  8 15  1  0  0  0  0
  8  9  1  0  0  0  0
  9 10  1  0  0  0  0
 10 19  1  0  0  0  0
 10 11  1  0  0  0  0
 10 13  1  0  0  0  0
 11 12  1  0  0  0  0
 11 25  1  0  0  0  0
 11 26  1  0  0  0  0
 12 27  1  0  0  0  0
 13 20  1  0  0  0  0
 13 14  1  0  0  0  0
 13 15  1  0  0  0  0
 14 28  1  0  0  0  0
 15 21  1  0  0  0  0
 15 16  1  0  0  0  0
 16 29  1  0  0  0  0
M  END
> <s_m_source_file>
AV-unprocessed.smi

> <i_m_source_file_index>
160

> <i_lp_mmshare_version>
43012

> <i_f3d_flags>
0

> <s_epik_input>
W05IMl1DKD1PKWMxbltjSF1uKG4xKVtDQEBIXTJPW0NASF0oW0NIMl1bT0hdKVtDQEBIXShbT0hdKVtDQEhdMltPSF0=

> <s_epik_cmdline>
J2VwaWtfcHl0aG9uJywgJy1waCcsICc3LjAnLCAnLXRuJywgJzgnLCAnLW1hJywgJzIwMCcsICctbWV0YWxfYmluZGluZycsICctaW1hZScsICc8aW5maWxlLm1hZT4nLCAnLW9tYWUnLCAnPG91dGZpbGUubWFlPic=

> <r_lp_tautomer_probability>
1

> <r_epik_Ionization_Penalty>
1.06932e-05

> <r_epik_Ionization_Penalty_Charging>
0

> <r_epik_Ionization_Penalty_Neutral>
1.06932e-05

> <r_epik_State_Penalty>
-0

> <r_epik_Charging_Adjusted_Penalty>
0

> <i_epik_Tot_Q>
0

> <i_epik_Tot_abs_Q>
0

> <r_epik_Metal_State_Penalty>
0.0142097

> <b_epik_Metal_Only>
0

> <s_epik_Chemistry_Notes>
This compound contains an acetal/aminal-like group ( X-CH(R)-Y where X, Y are N, S, or O) that may be acid/base labile, releasing an aldehyde.

> <s_lp_Force_Field>
OPLS_2005

> <r_lp_Energy>
40.6447

> <b_lp_Chiralities_Consistent>
1

> <s_lp_Variant>
AV-unprocessed.smi:160-9

> <Gold.Version>
5.8.1

> <Gold.Id.Protein>
6NUR|6NUR_protein|mol2

> <Gold.PLP.Fitness>
40.9867

> <Gold.PLP.PLP>
-24.8287

> <Gold.PLP.part.hbond>
-8.6317

> <Gold.PLP.part.metal>
0.0000

> <Gold.PLP.part.buried>
-2.3640

> <Gold.PLP.part.nonpolar>
-14.1988

> <Gold.PLP.part.repulsive>
0.1417

> <Gold.PLP.ligand.clash>
0.0000

> <Gold.PLP.ligand.torsion>
0.1161

> <Gold.PLP.Chemscore.Hbond>
5.4583

> <Gold.PLP.Chemscore.CHOScore>
0.0000

> <Gold.PLP.Chemscore.Metal>
0.0000

> <Gold.Chemscore.Hbonds>
donor molecule, donor type, donor heavy atom, donor atom, acceptor molecule, acceptor atom, score
      L1  H    14    28       P1  7957  1.00
      L1  H    16    29       P1  7949  0.91
      P1  H  6896  6907       L1     5  0.31
      P1  H  6896  6909       L1     3  1.00
      P1  H  7989  7998       L1    14  0.08
      P1  H  7997  8010       L1     9  1.00
      P1  H 10752 10765       L1    17  1.00

> <Gold.PLP.Chemscore.Internal.Correction>
0.0154

> <Gold.Rescore>
     Score         DG    S(hbond)    S(metal)    S(lipo)     H(rot)  DE(clash)    DE(int)     intcor
      9.77     -11.53       3.97        0.00      27.14       4.06       0.03       1.74       ----

> <Gold.Chemscore.Fitness>
9.7651

> <Gold.Chemscore.DG>
-11.5342

> <Gold.Chemscore.ZeroCoef>
-5.4800

> <Gold.Chemscore.Hbond>
3.9739

> <Gold.Chemscore.Metal>
0.0000

> <Gold.Chemscore.Lipo>
27.1363

> <Gold.Chemscore.Internal_Hbond>
0.0000

> <Gold.Chemscore.DEClash>
0.0332

> <Gold.Chemscore.DEInternal>
1.7359

> <Gold.Chemscore.Rot>
4.0600

> <Gold.Chemscore.Internal.Correction>
   9.000000E+99

> <Gold.Chemscore.Hbonds>
donor molecule, donor type, donor heavy atom, donor atom, acceptor molecule, acceptor atom, score
      L1  H    14    28       P1  7957  0.95
      L1  H    16    29       P1  7949  0.48
      P1  H  6896  6907       L1     5  0.32
      P1  H  6896  6909       L1     3  0.89
      P1  H  7997  8010       L1     9  0.68
      P1  H 10752 10765       L1    17  0.39

> <Gold.Chemscore.Hbond.Weighted>
-13.2729

> <Gold.Chemscore.Metal.Weighted>
-0.0000

> <Gold.Chemscore.Lipo.Weighted>
-3.1750

> <Gold.Chemscore.Internal_Hbond.Weighted>
0.0000

> <Gold.Chemscore.DEClash.Weighted>
0.0332

> <Gold.Chemscore.DEInternal.Weighted>
1.7359

> <Gold.Chemscore.Rot.Weighted>
10.3936

> <Gold.Chemscore.Internal.Correction.Weighted>
   9.000000E+99

> <Gold.Protein.RotatedTorsions>
[ 6907 6896 6895 6894 ] final  -22.42 input  -60.11 | X-H torsion
[ 7974 7965 7964 7962 ] final  115.10 input  175.53 | X-H torsion
[ 8008 7997 7996 7995 ] final   78.33 input   59.86 | X-H torsion
[ 10167 10162 10161 10158 ] final  140.20 input  -65.29 | X-H torsion
[ 10718 10713 10712 10709 ] final -141.00 input   66.30 | X-H torsion
[ 10763 10752 10751 10750 ] final -167.28 input  -60.55 | X-H torsion
[ 11005 11000 10999 10996 ] final   41.36 input  -57.11 | X-H torsion

> <Gold.Protein.ActiveResidues>
 VAL166  LYS551  ARG553  GLY616  TRP617  ASP618  TYR619  PRO620  LYS621  CYS622 
 ASP623  PHE694  ASN695  SER759  ASP760  ASP761  ALA762  ILE779  LEU786  VAL792 
 PHE793  MET794  SER795  GLU796  ALA797  LYS798  CYS799  TRP800  GLU811  SER814 

> <Gold.Protein.RotatedAtoms>
  151.2189  135.0511  159.8941 H   0  0  0  0  0  0  0  0  0  0  0  0  # atno 6907 bound_to 6896
  152.5417  134.0662  159.8184 H   0  0  0  0  0  0  0  0  0  0  0  0  # atno 6908 bound_to 6896
  151.0826  133.5330  159.2651 H   0  0  0  0  0  0  0  0  0  0  0  0  # atno 6909 bound_to 6896
  145.1962  139.2975  143.4342 H   0  0  0  0  0  0  0  0  0  0  0  0  # atno 7974 bound_to 7965
  155.8542  140.3456  155.5713 H   0  0  0  0  0  0  0  0  0  0  0  0  # atno 8008 bound_to 7997
  155.8004  140.0884  157.1980 H   0  0  0  0  0  0  0  0  0  0  0  0  # atno 8009 bound_to 7997
  154.4009  140.1466  156.3255 H   0  0  0  0  0  0  0  0  0  0  0  0  # atno 8010 bound_to 7997
  139.5056  144.6249  151.5962 H   0  0  0  0  0  0  0  0  0  0  0  0  # atno 10167 bound_to 10162
  156.3288  130.7575  151.1688 H   0  0  0  0  0  0  0  0  0  0  0  0  # atno 10718 bound_to 10713
  154.6748  135.2945  154.9694 H   0  0  0  0  0  0  0  0  0  0  0  0  # atno 10763 bound_to 10752
  154.0709  135.6618  153.4828 H   0  0  0  0  0  0  0  0  0  0  0  0  # atno 10764 bound_to 10752
  153.0509  135.5174  154.7761 H   0  0  0  0  0  0  0  0  0  0  0  0  # atno 10765 bound_to 10752
  140.1842  134.4067  155.8183 H   0  0  0  0  0  0  0  0  0  0  0  0  # atno 11005 bound_to 11000
  146.3426  140.2191  142.8591 LP  0  0  0  0  0  0  0  0  0  0  0  0  # atno 17320 bound_to 7965
  144.9992  140.8617  143.5292 LP  0  0  0  0  0  0  0  0  0  0  0  0  # atno 17321 bound_to 7965
  140.5962  143.9691  150.6356 LP  0  0  0  0  0  0  0  0  0  0  0  0  # atno 17342 bound_to 10162
  140.2888  143.3338  152.1082 LP  0  0  0  0  0  0  0  0  0  0  0  0  # atno 17343 bound_to 10162
  157.7426  131.0487  150.5008 LP  0  0  0  0  0  0  0  0  0  0  0  0  # atno 17370 bound_to 10713
  156.5171  130.4153  149.6270 LP  0  0  0  0  0  0  0  0  0  0  0  0  # atno 17371 bound_to 10713
  141.2224  133.7015  156.7983 LP  0  0  0  0  0  0  0  0  0  0  0  0  # atno 17394 bound_to 11000
  140.2233  134.8740  157.3400 LP  0  0  0  0  0  0  0  0  0  0  0  0  # atno 17395 bound_to 11000

$$$$
