AV-unprocessed.smi:1567|AV-procd|sdf|6307|dock7
  -GOLD-   22720 6503D 1   1.00000     0.00000
 Structure written by MMmdl.
 42 44  0  0  0  0  0  0  0  0  1 V2000
  154.4181  138.3871  158.0156 O   0  0  0  0  0  0  0  0  0  0  0  0
  153.5188  137.3993  157.5621 C   0  0  0  0  0  0  0  0  0  0  0  0
  152.2312  138.0643  157.0531 C   0  0  0  0  0  0  0  0  0  0  0  0
  152.1115  138.1042  155.5184 C   0  0  0  0  0  0  0  0  0  0  0  0
  150.8943  138.8372  155.0240 C   0  0  0  0  0  0  0  0  0  0  0  0
  149.9610  138.2154  154.3013 N   0  0  0  0  0  0  0  0  0  0  0  0
  149.0341  139.2115  154.0703 C   0  0  0  0  0  0  0  0  0  0  0  0
  147.8199  139.1858  153.3476 C   0  0  0  0  0  0  0  0  0  0  0  0
  147.0236  140.3456  153.2488 C   0  0  0  0  0  0  0  0  0  0  0  0
  147.4286  141.5439  153.8710 C   0  0  0  0  0  0  0  0  0  0  0  0
  148.6343  141.5900  154.5970 C   0  0  0  0  0  0  0  0  0  0  0  0
  149.4267  140.4298  154.6915 C   0  0  0  0  0  0  0  0  0  0  0  0
  150.6370  140.1398  155.3161 N   0  0  0  0  0  0  0  0  0  0  0  0
  151.4242  141.0695  156.1166 C   0  0  0  0  0  0  0  0  0  0  0  0
  150.6753  141.5722  157.3659 C   0  0  1  0  0  0  0  0  0  0  0  0
  149.6444  140.6652  157.7093 O   0  0  0  0  0  0  0  0  0  0  0  0
  151.6359  141.8230  158.5197 C   0  0  0  0  0  0  0  0  0  0  0  0
  152.3264  140.7459  159.1193 C   0  0  0  0  0  0  0  0  0  0  0  0
  153.2218  140.9766  160.1812 C   0  0  0  0  0  0  0  0  0  0  0  0
  153.8780  139.9381  160.7503 F   0  0  0  0  0  0  0  0  0  0  0  0
  153.4356  142.2867  160.6502 C   0  0  0  0  0  0  0  0  0  0  0  0
  152.7561  143.3655  160.0535 C   0  0  0  0  0  0  0  0  0  0  0  0
  151.8612  143.1372  158.9896 C   0  0  0  0  0  0  0  0  0  0  0  0
  151.2233  144.1887  158.4209 F   0  0  0  0  0  0  0  0  0  0  0  0
  154.3443  138.4531  158.9556 H   0  0  0  0  0  0  0  0  0  0  0  0
  153.9991  136.8329  156.7646 H   0  0  0  0  0  0  0  0  0  0  0  0
  153.3094  136.7100  158.3807 H   0  0  0  0  0  0  0  0  0  0  0  0
  151.3643  137.5497  157.4699 H   0  0  0  0  0  0  0  0  0  0  0  0
  152.1857  139.0853  157.4341 H   0  0  0  0  0  0  0  0  0  0  0  0
  152.9901  138.5973  155.1015 H   0  0  0  0  0  0  0  0  0  0  0  0
  152.1328  137.0842  155.1392 H   0  0  0  0  0  0  0  0  0  0  0  0
  147.5013  138.2723  152.8679 H   0  0  0  0  0  0  0  0  0  0  0  0
  146.0978  140.3155  152.6933 H   0  0  0  0  0  0  0  0  0  0  0  0
  146.8137  142.4284  153.7904 H   0  0  0  0  0  0  0  0  0  0  0  0
  148.9475  142.5077  155.0719 H   0  0  0  0  0  0  0  0  0  0  0  0
  152.3492  140.5733  156.4124 H   0  0  0  0  0  0  0  0  0  0  0  0
  151.7311  141.9048  155.4871 H   0  0  0  0  0  0  0  0  0  0  0  0
  150.1798  142.5099  157.1245 H   0  0  0  0  0  0  0  0  0  0  0  0
  149.8214  139.8364  157.2911 H   0  0  0  0  0  0  0  0  0  0  0  0
  152.1741  139.7370  158.7641 H   0  0  0  0  0  0  0  0  0  0  0  0
  154.1223  142.4640  161.4647 H   0  0  0  0  0  0  0  0  0  0  0  0
  152.9233  144.3708  160.4108 H   0  0  0  0  0  0  0  0  0  0  0  0
  1  2  1  0  0  0  0
  1 25  1  0  0  0  0
  2  3  1  0  0  0  0
  2 26  1  0  0  0  0
  2 27  1  0  0  0  0
  3  4  1  0  0  0  0
  3 28  1  0  0  0  0
  3 29  1  0  0  0  0
  4  5  1  0  0  0  0
  4 30  1  0  0  0  0
  4 31  1  0  0  0  0
  5 13  1  0  0  0  0
  5  6  2  0  0  0  0
  6  7  1  0  0  0  0
  7 12  2  0  0  0  0
  7  8  1  0  0  0  0
  8  9  2  0  0  0  0
  8 32  1  0  0  0  0
  9 10  1  0  0  0  0
  9 33  1  0  0  0  0
 10 11  2  0  0  0  0
 10 34  1  0  0  0  0
 11 12  1  0  0  0  0
 11 35  1  0  0  0  0
 12 13  1  0  0  0  0
 13 14  1  0  0  0  0
 14 15  1  0  0  0  0
 14 36  1  0  0  0  0
 14 37  1  0  0  0  0
 15 16  1  0  0  0  0
 15 17  1  0  0  0  0
 15 38  1  0  0  0  0
 16 39  1  0  0  0  0
 17 23  1  0  0  0  0
 17 18  2  0  0  0  0
 18 19  1  0  0  0  0
 18 40  1  0  0  0  0
 19 20  1  0  0  0  0
 19 21  2  0  0  0  0
 21 22  1  0  0  0  0
 21 41  1  0  0  0  0
 22 23  2  0  0  0  0
 22 42  1  0  0  0  0
 23 24  1  0  0  0  0
M  END
> <s_m_source_file>
AV-unprocessed.smi

> <i_m_source_file_index>
1567

> <i_lp_mmshare_version>
43012

> <i_f3d_flags>
0

> <s_epik_input>
W09IXVtDSDJdW0NIMl1bQ0gyXWMobjEpbihjKGMxMilbY0hdW2NIXVtjSF1bY0hdMilbQ0gyXVtDQEhdKFtPSF0pYzNbY0hdYyhGKVtjSF1bY0hdYzNG

> <s_epik_cmdline>
J2VwaWtfcHl0aG9uJywgJy1waCcsICc3LjAnLCAnLXRuJywgJzgnLCAnLW1hJywgJzIwMCcsICctbWV0YWxfYmluZGluZycsICctaW1hZScsICc8aW5maWxlLm1hZT4nLCAnLW9tYWUnLCAnPG91dGZpbGUubWFlPic=

> <r_epik_Ionization_Penalty>
0.182562

> <r_epik_Ionization_Penalty_Charging>
0

> <r_epik_Ionization_Penalty_Neutral>
0.182562

> <r_epik_State_Penalty>
0.172086

> <r_epik_Charging_Adjusted_Penalty>
0.172086

> <i_epik_Tot_Q>
0

> <i_epik_Tot_abs_Q>
0

> <r_epik_Metal_State_Penalty>
0.000199649

> <b_epik_Metal_Only>
0

> <s_lp_Force_Field>
OPLS_2005

> <r_lp_Energy>
10.1612

> <b_lp_Chiralities_Consistent>
1

> <s_lp_Variant>
AV-unprocessed.smi:1567-2

> <Gold.Version>
5.8.1

> <Gold.Id.Protein>
6NUR|6NUR_protein|mol2

> <Gold.PLP.Fitness>
52.3582

> <Gold.PLP.PLP>
-50.9963

> <Gold.PLP.part.hbond>
-1.0000

> <Gold.PLP.part.metal>
0.0000

> <Gold.PLP.part.buried>
-2.6091

> <Gold.PLP.part.nonpolar>
-47.4635

> <Gold.PLP.part.repulsive>
0.2205

> <Gold.PLP.ligand.clash>
0.0000

> <Gold.PLP.ligand.torsion>
0.8609

> <Gold.PLP.Chemscore.Hbond>
1.0000

> <Gold.PLP.Chemscore.CHOScore>
0.0000

> <Gold.PLP.Chemscore.Metal>
0.0000

> <Gold.Chemscore.Hbonds>
donor molecule, donor type, donor heavy atom, donor atom, acceptor molecule, acceptor atom, score
      P1  H  7997  8010       L1     1  0.94

> <Gold.PLP.Chemscore.Internal.Correction>
0.0838

> <Gold.Rescore>
     Score         DG    S(hbond)    S(metal)    S(lipo)     H(rot)  DE(clash)    DE(int)     intcor
     15.05     -15.84       0.99        0.00     131.03       3.23       0.03       0.75       ----

> <Gold.Chemscore.Fitness>
15.0517

> <Gold.Chemscore.DG>
-15.8373

> <Gold.Chemscore.ZeroCoef>
-5.4800

> <Gold.Chemscore.Hbond>
0.9853

> <Gold.Chemscore.Metal>
0.0000

> <Gold.Chemscore.Lipo>
131.0265

> <Gold.Chemscore.Internal_Hbond>
0.0000

> <Gold.Chemscore.DEClash>
0.0338

> <Gold.Chemscore.DEInternal>
0.7518

> <Gold.Chemscore.Rot>
3.2281

> <Gold.Chemscore.Internal.Correction>
   9.000000E+99

> <Gold.Chemscore.Hbonds>
donor molecule, donor type, donor heavy atom, donor atom, acceptor molecule, acceptor atom, score
      P1  H  7997  8010       L1     1  0.71

> <Gold.Chemscore.Hbond.Weighted>
-3.2910

> <Gold.Chemscore.Metal.Weighted>
-0.0000

> <Gold.Chemscore.Lipo.Weighted>
-15.3301

> <Gold.Chemscore.Internal_Hbond.Weighted>
0.0000

> <Gold.Chemscore.DEClash.Weighted>
0.0338

> <Gold.Chemscore.DEInternal.Weighted>
0.7518

> <Gold.Chemscore.Rot.Weighted>
8.2639

> <Gold.Chemscore.Internal.Correction.Weighted>
   9.000000E+99

> <Gold.Protein.RotatedTorsions>
[ 6907 6896 6895 6894 ] final -105.64 input  -60.11 | X-H torsion
[ 7974 7965 7964 7962 ] final  104.90 input  175.53 | X-H torsion
[ 8008 7997 7996 7995 ] final    5.68 input   59.86 | X-H torsion
[ 10167 10162 10161 10158 ] final  -70.14 input  -65.29 | X-H torsion
[ 10718 10713 10712 10709 ] final  -40.53 input   66.30 | X-H torsion
[ 10763 10752 10751 10750 ] final   28.79 input  -60.55 | X-H torsion
[ 11005 11000 10999 10996 ] final -153.94 input  -57.11 | X-H torsion

> <Gold.Protein.ActiveResidues>
 VAL166  LYS551  ARG553  GLY616  TRP617  ASP618  TYR619  PRO620  LYS621  CYS622 
 ASP623  PHE694  ASN695  SER759  ASP760  ASP761  ALA762  ILE779  LEU786  VAL792 
 PHE793  MET794  SER795  GLU796  ALA797  LYS798  CYS799  TRP800  GLU811  SER814 

> <Gold.Protein.RotatedAtoms>
  150.7347  134.0096  159.3664 H   0  0  0  0  0  0  0  0  0  0  0  0  # atno 6907 bound_to 6896
  151.8055  135.0694  160.0415 H   0  0  0  0  0  0  0  0  0  0  0  0  # atno 6908 bound_to 6896
  152.3110  133.5717  159.5717 H   0  0  0  0  0  0  0  0  0  0  0  0  # atno 6909 bound_to 6896
  145.3267  139.2498  143.3683 H   0  0  0  0  0  0  0  0  0  0  0  0  # atno 7974 bound_to 7965
  154.7314  140.2731  155.6453 H   0  0  0  0  0  0  0  0  0  0  0  0  # atno 8008 bound_to 7997
  156.2850  140.2715  156.1940 H   0  0  0  0  0  0  0  0  0  0  0  0  # atno 8009 bound_to 7997
  155.0377  140.0371  157.2488 H   0  0  0  0  0  0  0  0  0  0  0  0  # atno 8010 bound_to 7997
  140.5376  143.2317  151.7149 H   0  0  0  0  0  0  0  0  0  0  0  0  # atno 10167 bound_to 10162
  156.2803  130.4216  149.8344 H   0  0  0  0  0  0  0  0  0  0  0  0  # atno 10718 bound_to 10713
  153.0470  135.6505  154.0791 H   0  0  0  0  0  0  0  0  0  0  0  0  # atno 10763 bound_to 10752
  154.0487  135.2897  155.3345 H   0  0  0  0  0  0  0  0  0  0  0  0  # atno 10764 bound_to 10752
  154.6734  135.5347  153.8233 H   0  0  0  0  0  0  0  0  0  0  0  0  # atno 10765 bound_to 10752
  140.7028  134.3919  157.5207 H   0  0  0  0  0  0  0  0  0  0  0  0  # atno 11005 bound_to 11000
  146.3061  140.3836  142.8686 LP  0  0  0  0  0  0  0  0  0  0  0  0  # atno 17320 bound_to 7965
  144.8896  140.7507  143.5935 LP  0  0  0  0  0  0  0  0  0  0  0  0  # atno 17321 bound_to 7965
  139.4976  144.4019  152.0172 LP  0  0  0  0  0  0  0  0  0  0  0  0  # atno 17342 bound_to 10162
  140.3125  144.3521  150.6030 LP  0  0  0  0  0  0  0  0  0  0  0  0  # atno 17343 bound_to 10162
  156.5794  130.8459  151.3379 LP  0  0  0  0  0  0  0  0  0  0  0  0  # atno 17370 bound_to 10713
  157.7312  130.9697  150.1869 LP  0  0  0  0  0  0  0  0  0  0  0  0  # atno 17371 bound_to 10713
  139.8892  134.8836  156.2432 LP  0  0  0  0  0  0  0  0  0  0  0  0  # atno 17394 bound_to 11000
  141.0150  133.7074  156.1173 LP  0  0  0  0  0  0  0  0  0  0  0  0  # atno 17395 bound_to 11000

$$$$
