AV-unprocessed.smi:813|AV-procd|sdf|3817|dock4
  -GOLD-   22720 1253D 1   1.00000     0.00000
 Structure written by MMmdl.
 36 37  0  0  0  0  0  0  0  0  1 V2000
  148.6169  141.8372  154.4401 C   0  0  0  0  0  0  0  0  0  0  0  0
  148.8041  141.3869  155.8984 C   0  0  2  0  0  0  0  0  0  0  0  0
  148.1821  142.3868  156.7659 N   0  0  0  0  0  0  0  0  0  0  0  0
  147.4096  142.1164  157.8289 C   0  0  0  0  0  0  0  0  0  0  0  0
  147.1099  140.9736  158.1764 O   0  0  0  0  0  0  0  0  0  0  0  0
  147.0236  143.2454  158.4485 N   0  0  0  0  0  0  0  0  0  0  0  0
  146.2245  143.3810  159.6145 C   0  0  0  0  0  0  0  0  0  0  0  0
  145.5412  142.3684  160.1712 N   0  0  0  0  0  0  0  0  0  0  0  0
  144.8443  142.7720  161.3030 N   0  0  0  0  0  0  0  0  0  0  0  0
  145.0290  144.0711  161.5546 C   0  0  0  0  0  0  0  0  0  0  0  0
  146.0716  144.9290  160.4331 S   0  0  0  0  0  0  0  0  0  0  0  0
  150.3117  141.2832  156.1805 C   0  0  0  0  0  0  0  0  0  0  0  0
  151.0823  140.8427  155.3255 O   0  0  0  0  0  0  0  0  0  0  0  0
  150.7138  141.6859  157.3951 N   0  0  0  0  0  0  0  0  0  0  0  0
  152.0975  141.6933  157.8604 C   0  0  0  0  0  0  0  0  0  0  0  0
  152.2811  140.7059  159.0268 C   0  0  0  0  0  0  0  0  0  0  0  0
  152.4358  141.5644  160.2821 C   0  0  0  0  0  0  0  0  0  0  0  0
  153.1200  142.8327  159.7817 C   0  0  0  0  0  0  0  0  0  0  0  0
  152.5032  143.0794  158.4036 C   0  0  0  0  0  0  0  0  0  0  0  0
  149.0659  141.1267  153.7447 H   0  0  0  0  0  0  0  0  0  0  0  0
  149.0672  142.8139  154.2549 H   0  0  0  0  0  0  0  0  0  0  0  0
  147.5583  141.9096  154.1889 H   0  0  0  0  0  0  0  0  0  0  0  0
  148.3249  140.4170  156.0467 H   0  0  0  0  0  0  0  0  0  0  0  0
  148.3811  143.3535  156.5552 H   0  0  0  0  0  0  0  0  0  0  0  0
  147.3514  144.1110  158.0465 H   0  0  0  0  0  0  0  0  0  0  0  0
  144.5482  144.5274  162.4073 H   0  0  0  0  0  0  0  0  0  0  0  0
  150.0146  142.0316  158.0363 H   0  0  0  0  0  0  0  0  0  0  0  0
  152.7598  141.3983  157.0441 H   0  0  0  0  0  0  0  0  0  0  0  0
  151.4675  139.9852  159.1185 H   0  0  0  0  0  0  0  0  0  0  0  0
  153.1972  140.1345  158.8709 H   0  0  0  0  0  0  0  0  0  0  0  0
  151.4518  141.8110  160.6833 H   0  0  0  0  0  0  0  0  0  0  0  0
  153.0014  141.0627  161.0675 H   0  0  0  0  0  0  0  0  0  0  0  0
  152.9865  143.6773  160.4582 H   0  0  0  0  0  0  0  0  0  0  0  0
  154.1911  142.6545  159.6783 H   0  0  0  0  0  0  0  0  0  0  0  0
  153.1935  143.5956  157.7358 H   0  0  0  0  0  0  0  0  0  0  0  0
  151.6274  143.7205  158.5165 H   0  0  0  0  0  0  0  0  0  0  0  0
  1  2  1  0  0  0  0
  1 20  1  0  0  0  0
  1 21  1  0  0  0  0
  1 22  1  0  0  0  0
  2  3  1  0  0  0  0
  2 12  1  0  0  0  0
  2 23  1  0  0  0  0
  3  4  1  0  0  0  0
  3 24  1  0  0  0  0
  4  5  2  0  0  0  0
  4  6  1  0  0  0  0
  6  7  1  0  0  0  0
  6 25  1  0  0  0  0
  7 11  1  0  0  0  0
  7  8  2  0  0  0  0
  8  9  1  0  0  0  0
  9 10  2  0  0  0  0
 10 11  1  0  0  0  0
 10 26  1  0  0  0  0
 12 13  2  0  0  0  0
 12 14  1  0  0  0  0
 14 15  1  0  0  0  0
 14 27  1  0  0  0  0
 15 19  1  0  0  0  0
 15 16  1  0  0  0  0
 15 28  1  0  0  0  0
 16 17  1  0  0  0  0
 16 29  1  0  0  0  0
 16 30  1  0  0  0  0
 17 18  1  0  0  0  0
 17 31  1  0  0  0  0
 17 32  1  0  0  0  0
 18 19  1  0  0  0  0
 18 33  1  0  0  0  0
 18 34  1  0  0  0  0
 19 35  1  0  0  0  0
 19 36  1  0  0  0  0
M  END
> <s_m_source_file>
AV-unprocessed.smi

> <i_m_source_file_index>
813

> <i_lp_mmshare_version>
43012

> <i_f3d_flags>
0

> <s_epik_input>
W0NIMl0xW0NIMl1bQ0gyXVtDSDJdW0NIXTFbTkhdQyg9TylbQ0BIXShbQ0gzXSlbTkhdQyg9TylbTkhdYzJubltjSF1zMg==

> <s_epik_cmdline>
J2VwaWtfcHl0aG9uJywgJy1waCcsICc3LjAnLCAnLXRuJywgJzgnLCAnLW1hJywgJzIwMCcsICctbWV0YWxfYmluZGluZycsICctaW1hZScsICc8aW5maWxlLm1hZT4nLCAnLW9tYWUnLCAnPG91dGZpbGUubWFlPic=

> <r_lp_tautomer_probability>
1

> <r_epik_Ionization_Penalty>
0.00321247

> <r_epik_Ionization_Penalty_Charging>
0

> <r_epik_Ionization_Penalty_Neutral>
0.00321247

> <r_epik_State_Penalty>
-0

> <r_epik_Charging_Adjusted_Penalty>
0

> <i_epik_Tot_Q>
0

> <i_epik_Tot_abs_Q>
0

> <r_epik_Metal_State_Penalty>
0.363968

> <b_epik_Metal_Only>
0

> <s_lp_Force_Field>
OPLS_2005

> <r_lp_Energy>
16.3209

> <b_lp_Chiralities_Consistent>
1

> <s_lp_Variant>
AV-unprocessed.smi:813-1

> <Gold.Version>
5.8.1

> <Gold.Id.Protein>
6NUR|6NUR_protein|mol2

> <Gold.PLP.Fitness>
41.2786

> <Gold.PLP.PLP>
-32.5653

> <Gold.PLP.part.hbond>
-4.8244

> <Gold.PLP.part.metal>
0.0000

> <Gold.PLP.part.buried>
-3.9320

> <Gold.PLP.part.nonpolar>
-22.8570

> <Gold.PLP.part.repulsive>
0.1947

> <Gold.PLP.ligand.clash>
0.0000

> <Gold.PLP.ligand.torsion>
0.8912

> <Gold.PLP.Chemscore.Hbond>
3.4863

> <Gold.PLP.Chemscore.CHOScore>
0.0000

> <Gold.PLP.Chemscore.Metal>
0.0000

> <Gold.Chemscore.Hbonds>
donor molecule, donor type, donor heavy atom, donor atom, acceptor molecule, acceptor atom, score
      L1  H     3    24       P1  8028  1.00
      L1  H     6    25       P1  8029  0.96
      P1  H  6934  6946       L1     8  0.81
      P1  H  7989  7998       L1    13  0.77

> <Gold.PLP.Chemscore.Internal.Correction>
0.0369

> <Gold.Rescore>
     Score         DG    S(hbond)    S(metal)    S(lipo)     H(rot)  DE(clash)    DE(int)     intcor
     16.19     -18.53       2.72        0.00      72.12       1.74       0.18       2.16       ----

> <Gold.Chemscore.Fitness>
16.1946

> <Gold.Chemscore.DG>
-18.5331

> <Gold.Chemscore.ZeroCoef>
-5.4800

> <Gold.Chemscore.Hbond>
2.7179

> <Gold.Chemscore.Metal>
0.0000

> <Gold.Chemscore.Lipo>
72.1209

> <Gold.Chemscore.Internal_Hbond>
0.0000

> <Gold.Chemscore.DEClash>
0.1792

> <Gold.Chemscore.DEInternal>
2.1593

> <Gold.Chemscore.Rot>
1.7433

> <Gold.Chemscore.Internal.Correction>
   9.000000E+99

> <Gold.Chemscore.Hbonds>
donor molecule, donor type, donor heavy atom, donor atom, acceptor molecule, acceptor atom, score
      L1  H     3    24       P1  8028  0.39
      L1  H     6    25       P1  8029  0.23
      P1  H  6934  6946       L1     8  0.37
      P1  H  7989  7998       L1    13  0.76

> <Gold.Chemscore.Hbond.Weighted>
-9.0777

> <Gold.Chemscore.Metal.Weighted>
-0.0000

> <Gold.Chemscore.Lipo.Weighted>
-8.4382

> <Gold.Chemscore.Internal_Hbond.Weighted>
0.0000

> <Gold.Chemscore.DEClash.Weighted>
0.1792

> <Gold.Chemscore.DEInternal.Weighted>
2.1593

> <Gold.Chemscore.Rot.Weighted>
4.4628

> <Gold.Chemscore.Internal.Correction.Weighted>
   9.000000E+99

> <Gold.Protein.RotatedTorsions>
[ 6907 6896 6895 6894 ] final -175.50 input  -60.11 | X-H torsion
[ 7974 7965 7964 7962 ] final   54.49 input  175.53 | X-H torsion
[ 8008 7997 7996 7995 ] final  117.39 input   59.86 | X-H torsion
[ 10167 10162 10161 10158 ] final   16.87 input  -65.29 | X-H torsion
[ 10718 10713 10712 10709 ] final  -27.71 input   66.30 | X-H torsion
[ 10763 10752 10751 10750 ] final  121.85 input  -60.55 | X-H torsion
[ 11005 11000 10999 10996 ] final -172.10 input  -57.11 | X-H torsion

> <Gold.Protein.ActiveResidues>
 VAL166  LYS551  ARG553  GLY616  TRP617  ASP618  TYR619  PRO620  LYS621  CYS622 
 ASP623  PHE694  ASN695  SER759  ASP760  ASP761  ALA762  ILE779  LEU786  VAL792 
 PHE793  MET794  SER795  GLU796  ALA797  LYS798  CYS799  TRP800  GLU811  SER814 

> <Gold.Protein.RotatedAtoms>
  151.5896  133.3368  159.3024 H   0  0  0  0  0  0  0  0  0  0  0  0  # atno 6907 bound_to 6896
  150.8267  134.7505  159.6830 H   0  0  0  0  0  0  0  0  0  0  0  0  # atno 6908 bound_to 6896
  152.4356  134.5699  159.9970 H   0  0  0  0  0  0  0  0  0  0  0  0  # atno 6909 bound_to 6896
  145.9603  139.4053  143.0252 H   0  0  0  0  0  0  0  0  0  0  0  0  # atno 7974 bound_to 7965
  156.2491  140.2897  156.0670 H   0  0  0  0  0  0  0  0  0  0  0  0  # atno 8008 bound_to 7997
  155.1712  140.0402  157.2880 H   0  0  0  0  0  0  0  0  0  0  0  0  # atno 8009 bound_to 7997
  154.6324  140.2502  155.7425 H   0  0  0  0  0  0  0  0  0  0  0  0  # atno 8010 bound_to 7997
  140.5766  143.9060  150.6755 H   0  0  0  0  0  0  0  0  0  0  0  0  # atno 10167 bound_to 10162
  156.4346  130.4452  149.7094 H   0  0  0  0  0  0  0  0  0  0  0  0  # atno 10718 bound_to 10713
  153.6205  135.3414  155.3009 H   0  0  0  0  0  0  0  0  0  0  0  0  # atno 10763 bound_to 10752
  154.8601  135.4271  154.2213 H   0  0  0  0  0  0  0  0  0  0  0  0  # atno 10764 bound_to 10752
  153.3085  135.7030  153.7210 H   0  0  0  0  0  0  0  0  0  0  0  0  # atno 10765 bound_to 10752
  140.5008  134.5895  157.4987 H   0  0  0  0  0  0  0  0  0  0  0  0  # atno 11005 bound_to 11000
  145.8049  140.9753  143.0979 LP  0  0  0  0  0  0  0  0  0  0  0  0  # atno 17320 bound_to 7965
  144.6813  139.9848  143.7484 LP  0  0  0  0  0  0  0  0  0  0  0  0  # atno 17321 bound_to 7965
  140.2549  143.3566  152.1373 LP  0  0  0  0  0  0  0  0  0  0  0  0  # atno 17342 bound_to 10162
  139.5146  144.6950  151.5654 LP  0  0  0  0  0  0  0  0  0  0  0  0  # atno 17343 bound_to 10162
  156.3983  130.7662  151.2668 LP  0  0  0  0  0  0  0  0  0  0  0  0  # atno 17370 bound_to 10713
  157.7507  131.0247  150.3889 LP  0  0  0  0  0  0  0  0  0  0  0  0  # atno 17371 bound_to 10713
  139.9714  134.7286  156.0033 LP  0  0  0  0  0  0  0  0  0  0  0  0  # atno 17394 bound_to 11000
  141.1436  133.6560  156.3802 LP  0  0  0  0  0  0  0  0  0  0  0  0  # atno 17395 bound_to 11000

$$$$
