AV-unprocessed.smi:2949|AV-procd|sdf|11285|dock3
  -GOLD-   2272016173D 1   1.00000     0.00000
 Structure written by MMmdl.
 35 36  0  0  0  0  0  0  0  0  2 V2000
  148.5473  138.0943  152.6032 N   0  0  0  0  0  0  0  0  0  0  0  0
  147.6187  138.3306  153.5332 C   0  0  0  0  0  0  0  0  0  0  0  0
  146.4747  137.1545  154.1069 S   0  0  0  0  0  0  0  0  0  0  0  0
  145.7965  138.3298  155.1925 C   0  0  0  0  0  0  0  0  0  0  0  0
  146.4379  139.5359  155.0902 C   0  0  0  0  0  0  0  0  0  0  0  0
  147.4643  139.5224  154.1477 N   0  3  0  0  0  0  0  0  0  0  0  0
  148.3076  140.7017  153.8653 C   0  0  0  0  0  0  0  0  0  0  0  0
  149.6336  140.6991  154.6393 C   0  0  0  0  0  0  0  0  0  0  0  0
  150.5242  139.9014  154.3338 O   0  0  0  0  0  0  0  0  0  0  0  0
  149.7057  141.6185  155.6289 N   0  0  0  0  0  0  0  0  0  0  0  0
  150.6938  141.9021  156.5112 C   0  0  0  0  0  0  0  0  0  0  0  0
  151.6095  141.1037  156.7019 O   0  0  0  0  0  0  0  0  0  0  0  0
  150.6221  143.0819  157.1559 N   0  0  0  0  0  0  0  0  0  0  0  0
  151.7361  143.7529  157.8195 C   0  0  0  0  0  0  0  0  0  0  0  0
  152.3791  142.8615  158.9028 C   0  0  0  0  0  0  0  0  0  0  0  0
  152.4474  143.7152  160.1705 C   0  0  0  0  0  0  0  0  0  0  0  0
  151.2781  144.6852  160.0360 C   0  0  0  0  0  0  0  0  0  0  0  0
  151.2435  145.0181  158.5446 C   0  0  0  0  0  0  0  0  0  0  0  0
  149.1999  138.8020  152.2982 H   0  0  0  0  0  0  0  0  0  0  0  0
  144.9733  138.0619  155.8387 H   0  0  0  0  0  0  0  0  0  0  0  0
  146.2478  140.4493  155.6357 H   0  0  0  0  0  0  0  0  0  0  0  0
  148.4949  140.7591  152.7920 H   0  0  0  0  0  0  0  0  0  0  0  0
  147.7391  141.5940  154.1316 H   0  0  0  0  0  0  0  0  0  0  0  0
  148.8817  142.1927  155.7325 H   0  0  0  0  0  0  0  0  0  0  0  0
  149.7287  143.5530  157.1798 H   0  0  0  0  0  0  0  0  0  0  0  0
  152.4798  144.0403  157.0739 H   0  0  0  0  0  0  0  0  0  0  0  0
  151.7602  141.9843  159.0989 H   0  0  0  0  0  0  0  0  0  0  0  0
  153.3634  142.4992  158.6042 H   0  0  0  0  0  0  0  0  0  0  0  0
  152.3972  143.1189  161.0820 H   0  0  0  0  0  0  0  0  0  0  0  0
  153.3848  144.2727  160.1882 H   0  0  0  0  0  0  0  0  0  0  0  0
  150.3516  144.1864  160.3237 H   0  0  0  0  0  0  0  0  0  0  0  0
  151.3901  145.5705  160.6624 H   0  0  0  0  0  0  0  0  0  0  0  0
  151.9361  145.8373  158.3459 H   0  0  0  0  0  0  0  0  0  0  0  0
  150.2559  145.3491  158.2197 H   0  0  0  0  0  0  0  0  0  0  0  0
  148.6620  137.1881  152.1722 H   0  0  0  0  0  0  0  0  0  0  0  0
  1  2  1  0  0  0  0
  1 19  1  0  0  0  0
  1 35  1  0  0  0  0
  2  6  2  0  0  0  0
  2  3  1  0  0  0  0
  3  4  1  0  0  0  0
  4  5  2  0  0  0  0
  4 20  1  0  0  0  0
  5  6  1  0  0  0  0
  5 21  1  0  0  0  0
  6  7  1  0  0  0  0
  7  8  1  0  0  0  0
  7 22  1  0  0  0  0
  7 23  1  0  0  0  0
  8  9  2  0  0  0  0
  8 10  1  0  0  0  0
 10 11  1  0  0  0  0
 10 24  1  0  0  0  0
 11 12  2  0  0  0  0
 11 13  1  0  0  0  0
 13 14  1  0  0  0  0
 13 25  1  0  0  0  0
 14 18  1  0  0  0  0
 14 15  1  0  0  0  0
 14 26  1  0  0  0  0
 15 16  1  0  0  0  0
 15 27  1  0  0  0  0
 15 28  1  0  0  0  0
 16 17  1  0  0  0  0
 16 29  1  0  0  0  0
 16 30  1  0  0  0  0
 17 18  1  0  0  0  0
 17 31  1  0  0  0  0
 17 32  1  0  0  0  0
 18 33  1  0  0  0  0
 18 34  1  0  0  0  0
M  CHG  1   6   1
M  END
> <s_m_source_file>
AV-unprocessed.smi

> <i_m_source_file_index>
2949

> <i_lp_mmshare_version>
43012

> <i_f3d_flags>
0

> <s_epik_input>
W0hdL049YzFcc1tjSF1bY0hdbjFbQ0gyXUMoPU8pW05IXUMoPU8pW05IXVtDSF0yW0NIMl1bQ0gyXVtDSDJdW0NIMl0y

> <s_epik_cmdline>
J2VwaWtfcHl0aG9uJywgJy1waCcsICc3LjAnLCAnLXRuJywgJzgnLCAnLW1hJywgJzIwMCcsICctbWV0YWxfYmluZGluZycsICctaW1hZScsICc8aW5maWxlLm1hZT4nLCAnLW9tYWUnLCAnPG91dGZpbGUubWFlPic=

> <r_lp_tautomer_probability>
1

> <r_epik_Ionization_Penalty>
0.019454

> <r_epik_Ionization_Penalty_Charging>
0

> <r_epik_Ionization_Penalty_Neutral>
0.019454

> <r_epik_State_Penalty>
0.0306361

> <r_epik_Charging_Adjusted_Penalty>
0.0306361

> <i_epik_Tot_Q>
1

> <i_epik_Tot_abs_Q>
1

> <r_epik_Metal_State_Penalty>
0.0306361

> <b_epik_Metal_Only>
0

> <s_lp_Force_Field>
OPLS_2005

> <r_lp_Energy>
26.5716

> <b_lp_Chiralities_Consistent>
1

> <s_lp_Variant>
AV-unprocessed.smi:2949-1

> <Gold.Version>
5.8.1

> <Gold.Id.Protein>
6NUR|6NUR_protein|mol2

> <Gold.PLP.Fitness>
54.3822

> <Gold.PLP.PLP>
-39.6174

> <Gold.PLP.part.hbond>
-4.7274

> <Gold.PLP.part.metal>
0.0000

> <Gold.PLP.part.buried>
-3.6031

> <Gold.PLP.part.nonpolar>
-30.3452

> <Gold.PLP.part.repulsive>
0.3477

> <Gold.PLP.ligand.clash>
0.0000

> <Gold.PLP.ligand.torsion>
0.6086

> <Gold.PLP.Chemscore.Hbond>
5.3200

> <Gold.PLP.Chemscore.CHOScore>
0.0000

> <Gold.PLP.Chemscore.Metal>
0.0000

> <Gold.Chemscore.Hbonds>
donor molecule, donor type, donor heavy atom, donor atom, acceptor molecule, acceptor atom, score
      L1  H     1    19       P1  7957  0.96
      L1  H    13    25       P1  8028  0.48
      P1  H  7989  7998       L1     9  1.00

> <Gold.PLP.Chemscore.Internal.Correction>
0.0219

> <Gold.Rescore>
     Score         DG    S(hbond)    S(metal)    S(lipo)     H(rot)  DE(clash)    DE(int)     intcor
     17.93     -21.09       3.32        0.00      76.51       1.73       0.14       3.02       ----

> <Gold.Chemscore.Fitness>
17.9293

> <Gold.Chemscore.DG>
-21.0888

> <Gold.Chemscore.ZeroCoef>
-5.4800

> <Gold.Chemscore.Hbond>
3.3186

> <Gold.Chemscore.Metal>
0.0000

> <Gold.Chemscore.Lipo>
76.5064

> <Gold.Chemscore.Internal_Hbond>
0.0000

> <Gold.Chemscore.DEClash>
0.1380

> <Gold.Chemscore.DEInternal>
3.0215

> <Gold.Chemscore.Rot>
1.7291

> <Gold.Chemscore.Internal.Correction>
   9.000000E+99

> <Gold.Chemscore.Hbonds>
donor molecule, donor type, donor heavy atom, donor atom, acceptor molecule, acceptor atom, score
      L1  H     1    19       P1  7957  0.76
      L1  H    13    25       P1  8028  0.43
      P1  H  7989  7998       L1     9  0.40

> <Gold.Chemscore.Hbond.Weighted>
-11.0841

> <Gold.Chemscore.Metal.Weighted>
-0.0000

> <Gold.Chemscore.Lipo.Weighted>
-8.9513

> <Gold.Chemscore.Internal_Hbond.Weighted>
0.0000

> <Gold.Chemscore.DEClash.Weighted>
0.1380

> <Gold.Chemscore.DEInternal.Weighted>
3.0215

> <Gold.Chemscore.Rot.Weighted>
4.4265

> <Gold.Chemscore.Internal.Correction.Weighted>
   9.000000E+99

> <Gold.Protein.RotatedTorsions>
[ 6907 6896 6895 6894 ] final  -33.90 input  -60.11 | X-H torsion
[ 7974 7965 7964 7962 ] final   23.20 input  175.53 | X-H torsion
[ 8008 7997 7996 7995 ] final   -6.38 input   59.86 | X-H torsion
[ 10167 10162 10161 10158 ] final -101.90 input  -65.29 | X-H torsion
[ 10718 10713 10712 10709 ] final   77.65 input   66.30 | X-H torsion
[ 10763 10752 10751 10750 ] final   15.42 input  -60.55 | X-H torsion
[ 11005 11000 10999 10996 ] final -137.66 input  -57.11 | X-H torsion

> <Gold.Protein.ActiveResidues>
 VAL166  LYS551  ARG553  GLY616  TRP617  ASP618  TYR619  PRO620  LYS621  CYS622 
 ASP623  PHE694  ASN695  SER759  ASP760  ASP761  ALA762  ILE779  LEU786  VAL792 
 PHE793  MET794  SER795  GLU796  ALA797  LYS798  CYS799  TRP800  GLU811  SER814 

> <Gold.Protein.RotatedAtoms>
  151.0596  134.9727  159.8253 H   0  0  0  0  0  0  0  0  0  0  0  0  # atno 6907 bound_to 6896
  152.5393  134.2435  159.8881 H   0  0  0  0  0  0  0  0  0  0  0  0  # atno 6908 bound_to 6896
  151.2454  133.4334  159.2643 H   0  0  0  0  0  0  0  0  0  0  0  0  # atno 6909 bound_to 6896
  146.1995  139.7777  142.8772 H   0  0  0  0  0  0  0  0  0  0  0  0  # atno 7974 bound_to 7965
  154.5943  140.2434  155.7878 H   0  0  0  0  0  0  0  0  0  0  0  0  # atno 8008 bound_to 7997
  156.2268  140.2980  156.0042 H   0  0  0  0  0  0  0  0  0  0  0  0  # atno 8009 bound_to 7997
  155.2320  140.0404  157.2954 H   0  0  0  0  0  0  0  0  0  0  0  0  # atno 8010 bound_to 7997
  140.2363  143.3570  152.0841 H   0  0  0  0  0  0  0  0  0  0  0  0  # atno 10167 bound_to 10162
  157.6718  130.9831  150.1672 H   0  0  0  0  0  0  0  0  0  0  0  0  # atno 10718 bound_to 10713
  153.1527  135.6781  153.8858 H   0  0  0  0  0  0  0  0  0  0  0  0  # atno 10763 bound_to 10752
  153.8279  135.3121  155.3417 H   0  0  0  0  0  0  0  0  0  0  0  0  # atno 10764 bound_to 10752
  154.7874  135.4854  154.0064 H   0  0  0  0  0  0  0  0  0  0  0  0  # atno 10765 bound_to 10752
  140.8690  134.2074  157.4662 H   0  0  0  0  0  0  0  0  0  0  0  0  # atno 11005 bound_to 11000
  145.3533  141.0312  143.3326 LP  0  0  0  0  0  0  0  0  0  0  0  0  # atno 17320 bound_to 7965
  144.8651  139.5119  143.6794 LP  0  0  0  0  0  0  0  0  0  0  0  0  # atno 17321 bound_to 7965
  139.5092  144.6864  151.5877 LP  0  0  0  0  0  0  0  0  0  0  0  0  # atno 17342 bound_to 10162
  140.6147  143.9371  150.6479 LP  0  0  0  0  0  0  0  0  0  0  0  0  # atno 17343 bound_to 10162
  156.2434  130.3693  149.8311 LP  0  0  0  0  0  0  0  0  0  0  0  0  # atno 17370 bound_to 10713
  156.6105  130.8584  151.3453 LP  0  0  0  0  0  0  0  0  0  0  0  0  # atno 17371 bound_to 10713
  139.8711  134.9765  156.4924 LP  0  0  0  0  0  0  0  0  0  0  0  0  # atno 17394 bound_to 11000
  140.8595  133.8070  155.9251 LP  0  0  0  0  0  0  0  0  0  0  0  0  # atno 17395 bound_to 11000

$$$$
