AV-unprocessed.smi:970|AV-procd|sdf|4293|dock1
  -GOLD-   22720 2193D 1   1.00000     0.00000
 Structure written by MMmdl.
 31 31  0  0  0  0  0  0  0  0  1 V2000
  150.7918  137.0891  155.7555 C   0  0  0  0  0  0  0  0  0  0  0  0
  150.2836  138.4223  156.0385 N   0  0  0  0  0  0  0  0  0  0  0  0
  150.8150  139.5513  155.5487 C   0  0  0  0  0  0  0  0  0  0  0  0
  151.7893  139.5643  154.7940 O   0  0  0  0  0  0  0  0  0  0  0  0
  150.1283  140.8631  155.9644 C   0  0  2  0  0  0  0  0  0  0  0  0
  149.5719  141.5321  154.6968 C   0  0  0  0  0  0  0  0  0  0  0  0
  151.1000  141.7739  156.5660 N   0  0  0  0  0  0  0  0  0  0  0  0
  151.0061  142.3083  157.7947 C   0  0  0  0  0  0  0  0  0  0  0  0
  150.0392  142.1247  158.5353 O   0  0  0  0  0  0  0  0  0  0  0  0
  152.1953  143.1668  158.2511 C   0  0  1  0  0  0  0  0  0  0  0  0
  151.8738  144.6755  158.2611 C   0  0  0  0  0  0  0  0  0  0  0  0
  152.6812  142.6930  159.5417 N   0  0  0  0  0  0  0  0  0  0  0  0
  153.7816  141.9985  159.8399 C   0  0  0  0  0  0  0  0  0  0  0  0
  153.8883  141.6810  161.1223 N   0  0  0  0  0  0  0  0  0  0  0  0
  152.7313  142.2356  161.5908 C   0  0  0  0  0  0  0  0  0  0  0  0
  151.9668  142.8447  160.6848 N   0  0  0  0  0  0  0  0  0  0  0  0
  150.1972  136.3442  156.2847 H   0  0  0  0  0  0  0  0  0  0  0  0
  151.8285  136.9913  156.0805 H   0  0  0  0  0  0  0  0  0  0  0  0
  150.7391  136.8723  154.6878 H   0  0  0  0  0  0  0  0  0  0  0  0
  149.4829  138.4930  156.6496 H   0  0  0  0  0  0  0  0  0  0  0  0
  149.3136  140.6632  156.6632 H   0  0  0  0  0  0  0  0  0  0  0  0
  148.8370  140.8954  154.2027 H   0  0  0  0  0  0  0  0  0  0  0  0
  150.3590  141.7542  153.9743 H   0  0  0  0  0  0  0  0  0  0  0  0
  149.0745  142.4714  154.9398 H   0  0  0  0  0  0  0  0  0  0  0  0
  151.9290  141.9725  156.0252 H   0  0  0  0  0  0  0  0  0  0  0  0
  153.0017  143.0152  157.5315 H   0  0  0  0  0  0  0  0  0  0  0  0
  151.5662  145.0174  157.2723 H   0  0  0  0  0  0  0  0  0  0  0  0
  152.7503  145.2568  158.5486 H   0  0  0  0  0  0  0  0  0  0  0  0
  151.0721  144.9209  158.9587 H   0  0  0  0  0  0  0  0  0  0  0  0
  154.5172  141.7134  159.1020 H   0  0  0  0  0  0  0  0  0  0  0  0
  152.4407  142.1834  162.6297 H   0  0  0  0  0  0  0  0  0  0  0  0
  1  2  1  0  0  0  0
  1 17  1  0  0  0  0
  1 18  1  0  0  0  0
  1 19  1  0  0  0  0
  2  3  1  0  0  0  0
  2 20  1  0  0  0  0
  3  4  2  0  0  0  0
  3  5  1  0  0  0  0
  5  6  1  0  0  0  0
  5  7  1  0  0  0  0
  5 21  1  0  0  0  0
  6 22  1  0  0  0  0
  6 23  1  0  0  0  0
  6 24  1  0  0  0  0
  7  8  1  0  0  0  0
  7 25  1  0  0  0  0
  8  9  2  0  0  0  0
  8 10  1  0  0  0  0
 10 11  1  0  0  0  0
 10 12  1  0  0  0  0
 10 26  1  0  0  0  0
 11 27  1  0  0  0  0
 11 28  1  0  0  0  0
 11 29  1  0  0  0  0
 12 16  1  0  0  0  0
 12 13  1  0  0  0  0
 13 14  2  0  0  0  0
 13 30  1  0  0  0  0
 14 15  1  0  0  0  0
 15 16  2  0  0  0  0
 15 31  1  0  0  0  0
M  END
> <s_m_source_file>
AV-unprocessed.smi

> <i_m_source_file_index>
970

> <i_lp_mmshare_version>
43012

> <i_f3d_flags>
0

> <s_epik_input>
W0NIM11bTkhdQyg9TylbQ0BIXShbQ0gzXSlbTkhdQyg9TylbQ0BIXShbQ0gzXSluMVtjSF1uW2NIXW4x

> <s_epik_cmdline>
J2VwaWtfcHl0aG9uJywgJy1waCcsICc3LjAnLCAnLXRuJywgJzgnLCAnLW1hJywgJzIwMCcsICctbWV0YWxfYmluZGluZycsICctaW1hZScsICc8aW5maWxlLm1hZT4nLCAnLW9tYWUnLCAnPG91dGZpbGUubWFlPic=

> <r_lp_tautomer_probability>
1

> <r_epik_Ionization_Penalty>
1.07271e-05

> <r_epik_Ionization_Penalty_Charging>
0

> <r_epik_Ionization_Penalty_Neutral>
1.07271e-05

> <r_epik_State_Penalty>
-0

> <r_epik_Charging_Adjusted_Penalty>
0

> <i_epik_Tot_Q>
0

> <i_epik_Tot_abs_Q>
0

> <r_epik_Metal_State_Penalty>
-0

> <b_epik_Metal_Only>
0

> <s_lp_Force_Field>
OPLS_2005

> <r_lp_Energy>
8.21169

> <b_lp_Chiralities_Consistent>
1

> <s_lp_Variant>
AV-unprocessed.smi:970-3

> <Gold.Version>
5.8.1

> <Gold.Id.Protein>
6NUR|6NUR_protein|mol2

> <Gold.PLP.Fitness>
36.9780

> <Gold.PLP.PLP>
-34.7677

> <Gold.PLP.part.hbond>
-1.9057

> <Gold.PLP.part.metal>
0.0000

> <Gold.PLP.part.buried>
-4.3350

> <Gold.PLP.part.nonpolar>
-27.8605

> <Gold.PLP.part.repulsive>
0.3001

> <Gold.PLP.ligand.clash>
0.0000

> <Gold.PLP.ligand.torsion>
0.4149

> <Gold.PLP.Chemscore.Hbond>
0.9600

> <Gold.PLP.Chemscore.CHOScore>
0.0000

> <Gold.PLP.Chemscore.Metal>
0.0000

> <Gold.Chemscore.Hbonds>
donor molecule, donor type, donor heavy atom, donor atom, acceptor molecule, acceptor atom, score
      P1  H  7989  7998       L1     4  1.00

> <Gold.PLP.Chemscore.Internal.Correction>
0.1602

> <Gold.Rescore>
     Score         DG    S(hbond)    S(metal)    S(lipo)     H(rot)  DE(clash)    DE(int)     intcor
      5.93      -7.11       1.00        0.00      42.08       2.59       0.04       1.15       ----

> <Gold.Chemscore.Fitness>
5.9274

> <Gold.Chemscore.DG>
-7.1147

> <Gold.Chemscore.ZeroCoef>
-5.4800

> <Gold.Chemscore.Hbond>
0.9969

> <Gold.Chemscore.Metal>
0.0000

> <Gold.Chemscore.Lipo>
42.0794

> <Gold.Chemscore.Internal_Hbond>
0.0000

> <Gold.Chemscore.DEClash>
0.0405

> <Gold.Chemscore.DEInternal>
1.1467

> <Gold.Chemscore.Rot>
2.5852

> <Gold.Chemscore.Internal.Correction>
   9.000000E+99

> <Gold.Chemscore.Hbonds>
donor molecule, donor type, donor heavy atom, donor atom, acceptor molecule, acceptor atom, score
      P1  H  7989  7998       L1     4  0.82

> <Gold.Chemscore.Hbond.Weighted>
-3.3295

> <Gold.Chemscore.Metal.Weighted>
-0.0000

> <Gold.Chemscore.Lipo.Weighted>
-4.9233

> <Gold.Chemscore.Internal_Hbond.Weighted>
0.0000

> <Gold.Chemscore.DEClash.Weighted>
0.0405

> <Gold.Chemscore.DEInternal.Weighted>
1.1467

> <Gold.Chemscore.Rot.Weighted>
6.6182

> <Gold.Chemscore.Internal.Correction.Weighted>
   9.000000E+99

> <Gold.Protein.RotatedTorsions>
[ 6907 6896 6895 6894 ] final   93.11 input  -60.11 | X-H torsion
[ 7974 7965 7964 7962 ] final   61.86 input  175.53 | X-H torsion
[ 8008 7997 7996 7995 ] final   49.25 input   59.86 | X-H torsion
[ 10167 10162 10161 10158 ] final  -18.46 input  -65.29 | X-H torsion
[ 10718 10713 10712 10709 ] final   -8.44 input   66.30 | X-H torsion
[ 10763 10752 10751 10750 ] final   -4.95 input  -60.55 | X-H torsion
[ 11005 11000 10999 10996 ] final  -79.21 input  -57.11 | X-H torsion

> <Gold.Protein.ActiveResidues>
 VAL166  LYS551  ARG553  GLY616  TRP617  ASP618  TYR619  PRO620  LYS621  CYS622 
 ASP623  PHE694  ASN695  SER759  ASP760  ASP761  ALA762  ILE779  LEU786  VAL792 
 PHE793  MET794  SER795  GLU796  ALA797  LYS798  CYS799  TRP800  GLU811  SER814 

> <Gold.Protein.RotatedAtoms>
  152.5453  134.1399  159.8474 H   0  0  0  0  0  0  0  0  0  0  0  0  # atno 6907 bound_to 6896
  151.1436  133.4947  159.2604 H   0  0  0  0  0  0  0  0  0  0  0  0  # atno 6908 bound_to 6896
  151.1547  135.0254  159.8738 H   0  0  0  0  0  0  0  0  0  0  0  0  # atno 6909 bound_to 6896
  145.8799  139.3436  143.0712 H   0  0  0  0  0  0  0  0  0  0  0  0  # atno 7974 bound_to 7965
  155.3990  140.3437  155.4256 H   0  0  0  0  0  0  0  0  0  0  0  0  # atno 8008 bound_to 7997
  156.1514  140.1572  156.8795 H   0  0  0  0  0  0  0  0  0  0  0  0  # atno 8009 bound_to 7997
  154.5056  140.0803  156.7868 H   0  0  0  0  0  0  0  0  0  0  0  0  # atno 8010 bound_to 7997
  140.7259  143.4914  150.9987 H   0  0  0  0  0  0  0  0  0  0  0  0  # atno 10167 bound_to 10162
  156.7026  130.5098  149.5913 H   0  0  0  0  0  0  0  0  0  0  0  0  # atno 10718 bound_to 10713
  153.3918  135.7002  153.6489 H   0  0  0  0  0  0  0  0  0  0  0  0  # atno 10763 bound_to 10752
  153.5058  135.3642  155.2563 H   0  0  0  0  0  0  0  0  0  0  0  0  # atno 10764 bound_to 10752
  154.8703  135.4123  154.3237 H   0  0  0  0  0  0  0  0  0  0  0  0  # atno 10765 bound_to 10752
  141.1667  133.7096  156.8088 H   0  0  0  0  0  0  0  0  0  0  0  0  # atno 11005 bound_to 11000
  145.9036  140.9227  143.0490 LP  0  0  0  0  0  0  0  0  0  0  0  0  # atno 17320 bound_to 7965
  144.6727  140.1065  143.7458 LP  0  0  0  0  0  0  0  0  0  0  0  0  # atno 17321 bound_to 7965
  139.8619  143.7304  152.3173 LP  0  0  0  0  0  0  0  0  0  0  0  0  # atno 17342 bound_to 10162
  139.7522  144.7531  151.0489 LP  0  0  0  0  0  0  0  0  0  0  0  0  # atno 17343 bound_to 10162
  156.1718  130.6442  151.0846 LP  0  0  0  0  0  0  0  0  0  0  0  0  # atno 17370 bound_to 10713
  157.6967  131.0791  150.6947 LP  0  0  0  0  0  0  0  0  0  0  0  0  # atno 17371 bound_to 10713
  140.2203  134.8762  157.3370 LP  0  0  0  0  0  0  0  0  0  0  0  0  # atno 17394 bound_to 11000
  140.1995  134.4272  155.7670 LP  0  0  0  0  0  0  0  0  0  0  0  0  # atno 17395 bound_to 11000

$$$$
