AV-unprocessed.smi:3198|AV-procd|sdf|12230|dock3
  -GOLD-   2272018 63D 1   1.00000     0.00000
 Structure written by MMmdl.
 37 38  0  0  0  0  0  0  0  0  1 V2000
  153.5461  141.2724  160.3067 C   0  0  0  0  0  0  0  0  0  0  0  0
  152.7784  142.4224  159.6897 C   0  0  0  0  0  0  0  0  0  0  0  0
  152.8056  143.7073  160.2695 C   0  0  0  0  0  0  0  0  0  0  0  0
  152.0735  144.7355  159.6465 C   0  0  0  0  0  0  0  0  0  0  0  0
  151.3493  144.4409  158.4751 C   0  0  0  0  0  0  0  0  0  0  0  0
  151.3837  143.1255  157.9663 C   0  0  0  0  0  0  0  0  0  0  0  0
  150.6605  142.8390  156.7994 N   0  0  0  0  0  0  0  0  0  0  0  0
  151.0012  141.7012  155.9531 C   0  0  0  0  0  0  0  0  0  0  0  0
  149.7750  140.8485  155.5967 C   0  0  0  0  0  0  0  0  0  0  0  0
  149.9498  140.3068  154.2984 O   0  0  0  0  0  0  0  0  0  0  0  0
  149.6547  138.9205  154.2377 C   0  0  0  0  0  0  0  0  0  0  0  0
  150.8571  138.1096  154.7404 C   0  0  1  0  0  0  0  0  0  0  0  0
  152.1677  138.3302  153.9704 C   0  0  0  0  0  0  0  0  0  0  0  0
  153.2152  138.4951  155.0623 C   0  0  0  0  0  0  0  0  0  0  0  0
  152.4941  138.0470  156.3296 C   0  0  0  0  0  0  0  0  0  0  0  0
  151.1519  138.4350  156.0918 O   0  0  0  0  0  0  0  0  0  0  0  0
  152.0849  142.1341  158.5670 N   0  0  0  0  0  0  0  0  0  0  0  0
  153.9848  141.5574  161.2633 H   0  0  0  0  0  0  0  0  0  0  0  0
  154.3511  140.9565  159.6427 H   0  0  0  0  0  0  0  0  0  0  0  0
  152.8857  140.4213  160.4758 H   0  0  0  0  0  0  0  0  0  0  0  0
  153.3721  143.9031  161.1680 H   0  0  0  0  0  0  0  0  0  0  0  0
  152.0679  145.7334  160.0591 H   0  0  0  0  0  0  0  0  0  0  0  0
  150.7809  145.2134  157.9780 H   0  0  0  0  0  0  0  0  0  0  0  0
  150.0484  143.5462  156.4190 H   0  0  0  0  0  0  0  0  0  0  0  0
  151.4900  142.0550  155.0447 H   0  0  0  0  0  0  0  0  0  0  0  0
  151.7375  141.0893  156.4742 H   0  0  0  0  0  0  0  0  0  0  0  0
  149.6228  140.0555  156.3306 H   0  0  0  0  0  0  0  0  0  0  0  0
  148.8819  141.4747  155.6073 H   0  0  0  0  0  0  0  0  0  0  0  0
  148.7774  138.6949  154.8458 H   0  0  0  0  0  0  0  0  0  0  0  0
  149.4227  138.6370  153.2100 H   0  0  0  0  0  0  0  0  0  0  0  0
  150.6071  137.0477  154.7123 H   0  0  0  0  0  0  0  0  0  0  0  0
  152.3853  137.4732  153.3323 H   0  0  0  0  0  0  0  0  0  0  0  0
  152.1382  139.2152  153.3340 H   0  0  0  0  0  0  0  0  0  0  0  0
  154.1234  137.9227  154.8723 H   0  0  0  0  0  0  0  0  0  0  0  0
  153.4913  139.5467  155.1494 H   0  0  0  0  0  0  0  0  0  0  0  0
  152.5468  136.9633  156.4473 H   0  0  0  0  0  0  0  0  0  0  0  0
  152.8948  138.5128  157.2299 H   0  0  0  0  0  0  0  0  0  0  0  0
  1  2  1  0  0  0  0
  1 18  1  0  0  0  0
  1 19  1  0  0  0  0
  1 20  1  0  0  0  0
  2 17  1  0  0  0  0
  2  3  2  0  0  0  0
  3  4  1  0  0  0  0
  3 21  1  0  0  0  0
  4  5  2  0  0  0  0
  4 22  1  0  0  0  0
  5  6  1  0  0  0  0
  5 23  1  0  0  0  0
  6  7  1  0  0  0  0
  6 17  2  0  0  0  0
  7  8  1  0  0  0  0
  7 24  1  0  0  0  0
  8  9  1  0  0  0  0
  8 25  1  0  0  0  0
  8 26  1  0  0  0  0
  9 10  1  0  0  0  0
  9 27  1  0  0  0  0
  9 28  1  0  0  0  0
 10 11  1  0  0  0  0
 11 12  1  0  0  0  0
 11 29  1  0  0  0  0
 11 30  1  0  0  0  0
 12 16  1  0  0  0  0
 12 13  1  0  0  0  0
 12 31  1  0  0  0  0
 13 14  1  0  0  0  0
 13 32  1  0  0  0  0
 13 33  1  0  0  0  0
 14 15  1  0  0  0  0
 14 34  1  0  0  0  0
 14 35  1  0  0  0  0
 15 16  1  0  0  0  0
 15 36  1  0  0  0  0
 15 37  1  0  0  0  0
M  END
> <s_m_source_file>
AV-unprocessed.smi

> <i_m_source_file_index>
3198

> <i_lp_mmshare_version>
43012

> <i_f3d_flags>
0

> <s_epik_input>
W0NIM11jMVtjSF1bY0hdW2NIXWMobjEpW05IXVtDSDJdW0NIMl1PW0NIMl1bQ0BASF0yW0NIMl1bQ0gyXVtDSDJdTzI=

> <s_epik_cmdline>
J2VwaWtfcHl0aG9uJywgJy1waCcsICc3LjAnLCAnLXRuJywgJzgnLCAnLW1hJywgJzIwMCcsICctbWV0YWxfYmluZGluZycsICctaW1hZScsICc8aW5maWxlLm1hZT4nLCAnLW9tYWUnLCAnPG91dGZpbGUubWFlPic=

> <r_lp_tautomer_probability>
1

> <r_epik_Ionization_Penalty>
1.29225

> <r_epik_Ionization_Penalty_Charging>
0

> <r_epik_Ionization_Penalty_Neutral>
1.29225

> <r_epik_State_Penalty>
1.3654

> <r_epik_Charging_Adjusted_Penalty>
1.3654

> <i_epik_Tot_Q>
0

> <i_epik_Tot_abs_Q>
0

> <r_epik_Metal_State_Penalty>
0.00531989

> <b_epik_Metal_Only>
0

> <s_lp_Force_Field>
OPLS_2005

> <r_lp_Energy>
18.8909

> <b_lp_Chiralities_Consistent>
1

> <s_lp_Variant>
AV-unprocessed.smi:3198-4

> <Gold.Version>
5.8.1

> <Gold.Id.Protein>
6NUR|6NUR_protein|mol2

> <Gold.PLP.Fitness>
44.5765

> <Gold.PLP.PLP>
-40.2859

> <Gold.PLP.part.hbond>
-2.0000

> <Gold.PLP.part.metal>
0.0000

> <Gold.PLP.part.buried>
-5.4989

> <Gold.PLP.part.nonpolar>
-32.2260

> <Gold.PLP.part.repulsive>
0.1924

> <Gold.PLP.ligand.clash>
0.0000

> <Gold.PLP.ligand.torsion>
0.8211

> <Gold.PLP.Chemscore.Hbond>
1.9280

> <Gold.PLP.Chemscore.CHOScore>
0.0000

> <Gold.PLP.Chemscore.Metal>
0.0000

> <Gold.Chemscore.Hbonds>
donor molecule, donor type, donor heavy atom, donor atom, acceptor molecule, acceptor atom, score
      L1  H     7    24       P1  8028  1.00
      P1  H  7989  7998       L1    10  0.90

> <Gold.PLP.Chemscore.Internal.Correction>
0.1489

> <Gold.Rescore>
     Score         DG    S(hbond)    S(metal)    S(lipo)     H(rot)  DE(clash)    DE(int)     intcor
     19.07     -20.26       1.87        0.00     108.56       1.63       0.22       0.98       ----

> <Gold.Chemscore.Fitness>
19.0659

> <Gold.Chemscore.DG>
-20.2607

> <Gold.Chemscore.ZeroCoef>
-5.4800

> <Gold.Chemscore.Hbond>
1.8728

> <Gold.Chemscore.Metal>
0.0000

> <Gold.Chemscore.Lipo>
108.5588

> <Gold.Chemscore.Internal_Hbond>
0.0000

> <Gold.Chemscore.DEClash>
0.2171

> <Gold.Chemscore.DEInternal>
0.9777

> <Gold.Chemscore.Rot>
1.6311

> <Gold.Chemscore.Internal.Correction>
   9.000000E+99

> <Gold.Chemscore.Hbonds>
donor molecule, donor type, donor heavy atom, donor atom, acceptor molecule, acceptor atom, score
      L1  H     7    24       P1  8028  1.00
      P1  H  7989  7998       L1    10  0.67

> <Gold.Chemscore.Hbond.Weighted>
-6.2550

> <Gold.Chemscore.Metal.Weighted>
-0.0000

> <Gold.Chemscore.Lipo.Weighted>
-12.7014

> <Gold.Chemscore.Internal_Hbond.Weighted>
0.0000

> <Gold.Chemscore.DEClash.Weighted>
0.2171

> <Gold.Chemscore.DEInternal.Weighted>
0.9777

> <Gold.Chemscore.Rot.Weighted>
4.1757

> <Gold.Chemscore.Internal.Correction.Weighted>
   9.000000E+99

> <Gold.Protein.RotatedTorsions>
[ 6907 6896 6895 6894 ] final  162.29 input  -60.11 | X-H torsion
[ 7974 7965 7964 7962 ] final  115.62 input  175.53 | X-H torsion
[ 8008 7997 7996 7995 ] final   43.90 input   59.86 | X-H torsion
[ 10167 10162 10161 10158 ] final   73.99 input  -65.29 | X-H torsion
[ 10718 10713 10712 10709 ] final   15.44 input   66.30 | X-H torsion
[ 10763 10752 10751 10750 ] final -121.77 input  -60.55 | X-H torsion
[ 11005 11000 10999 10996 ] final  -47.24 input  -57.11 | X-H torsion

> <Gold.Protein.ActiveResidues>
 VAL166  LYS551  ARG553  GLY616  TRP617  ASP618  TYR619  PRO620  LYS621  CYS622 
 ASP623  PHE694  ASN695  SER759  ASP760  ASP761  ALA762  ILE779  LEU786  VAL792 
 PHE793  MET794  SER795  GLU796  ALA797  LYS798  CYS799  TRP800  GLU811  SER814 

> <Gold.Protein.RotatedAtoms>
  151.9426  133.3642  159.3970 H   0  0  0  0  0  0  0  0  0  0  0  0  # atno 6907 bound_to 6896
  150.6995  134.4423  159.5307 H   0  0  0  0  0  0  0  0  0  0  0  0  # atno 6908 bound_to 6896
  152.2083  134.8525  160.0551 H   0  0  0  0  0  0  0  0  0  0  0  0  # atno 6909 bound_to 6896
  145.1898  139.3006  143.4374 H   0  0  0  0  0  0  0  0  0  0  0  0  # atno 7974 bound_to 7965
  155.3104  140.3390  155.4244 H   0  0  0  0  0  0  0  0  0  0  0  0  # atno 8008 bound_to 7997
  156.1958  140.1714  156.8038 H   0  0  0  0  0  0  0  0  0  0  0  0  # atno 8009 bound_to 7997
  154.5497  140.0708  156.8632 H   0  0  0  0  0  0  0  0  0  0  0  0  # atno 8010 bound_to 7997
  140.0185  144.5559  150.7600 H   0  0  0  0  0  0  0  0  0  0  0  0  # atno 10167 bound_to 10162
  157.0535  130.6279  149.5772 H   0  0  0  0  0  0  0  0  0  0  0  0  # atno 10718 bound_to 10713
  154.8675  135.4156  154.2673 H   0  0  0  0  0  0  0  0  0  0  0  0  # atno 10763 bound_to 10752
  153.3590  135.7002  153.6733 H   0  0  0  0  0  0  0  0  0  0  0  0  # atno 10764 bound_to 10752
  153.5642  135.3604  155.2784 H   0  0  0  0  0  0  0  0  0  0  0  0  # atno 10765 bound_to 10752
  141.0628  133.6703  156.3269 H   0  0  0  0  0  0  0  0  0  0  0  0  # atno 11005 bound_to 11000
  146.3438  140.2106  142.8590 LP  0  0  0  0  0  0  0  0  0  0  0  0  # atno 17320 bound_to 7965
  145.0053  140.8667  143.5257 LP  0  0  0  0  0  0  0  0  0  0  0  0  # atno 17321 bound_to 7965
  140.7352  143.2738  151.3805 LP  0  0  0  0  0  0  0  0  0  0  0  0  # atno 17342 bound_to 10162
  139.6156  144.1010  152.2342 LP  0  0  0  0  0  0  0  0  0  0  0  0  # atno 17343 bound_to 10162
  156.0000  130.5077  150.7628 LP  0  0  0  0  0  0  0  0  0  0  0  0  # atno 17370 bound_to 10713
  157.5011  131.0918  151.0313 LP  0  0  0  0  0  0  0  0  0  0  0  0  # atno 17371 bound_to 10713
  140.5834  134.5723  157.5484 LP  0  0  0  0  0  0  0  0  0  0  0  0  # atno 17394 bound_to 11000
  139.9448  134.7721  156.0588 LP  0  0  0  0  0  0  0  0  0  0  0  0  # atno 17395 bound_to 11000

$$$$
