#       Name:                AV-unprocessed.smi:288
#       Creating user name   scv26
#       Creation time:       Thu Mar 26 22:04:30 2020


#       File generated by GOLD software.
#

@<TRIPOS>MOLECULE
AV-unprocessed.smi:288
    41    42     1
SMALL
NO_CHARGES


@<TRIPOS>ATOM
      1 ****         0.1342  -0.9300   3.3070 O.2            1 S1                 0.0000
      2 ****        -0.0384  -0.3546   2.2310 C.2            1 S1                 0.0000
      3 ****        -0.5934   0.9899   2.1189 C.2            1 S1                 0.0000
      4 ****        -0.9664   1.6489   3.2291 F              1 S1                 0.0000
      5 ****        -0.7383   1.5876   0.9164 C.2            1 S1                 0.0000
      6 ****        -0.3763   0.9824  -0.2764 N.am           1 S1                 0.0000
      7 ****        -0.5418   1.6765  -1.6115 C.3            1 S1                 0.0000
      8 ****        -1.7583   1.1110  -2.3664 C.3            1 S1                 0.0000
      9 ****        -2.5068   2.3637  -2.7741 C.3            1 S1                 0.0000
     10 ****        -2.1522   3.3203  -1.6454 C.3            1 S1                 0.0000
     11 ****        -0.7774   3.0418  -1.4125 O.3            1 S1                 0.0000
     12 ****         0.1688  -0.3200  -0.2630 C.2            1 S1                 0.0000
     13 ****         0.5133  -0.8690  -1.3122 O.2            1 S1                 0.0000
     14 ****         0.3055  -0.9539   0.9941 N.am           1 S1                 0.0000
     15 ****         0.8734  -2.2918   1.0257 C.3            1 S1                 0.0000
     16 ****         2.3983  -2.3022   1.2761 C.3            1 S1                 0.0000
     17 ****         3.0604  -2.2070   0.0295 O.3            1 S1                 0.0000
     18 ****         2.8723  -3.5959   1.9668 C.3            1 S1                 0.0000
     19 ****         4.1948  -3.5705   2.1347 F              1 S1                 0.0000
     20 ****         2.3092  -3.6876   3.1717 F              1 S1                 0.0000
     21 ****         2.5319  -4.6711   1.2545 F              1 S1                 0.0000
     22 ****        -1.1541   2.5832   0.9074 H              1 S1                 0.0000
     23 ****         0.4076   1.5504  -2.1351 H              1 S1                 0.0000
     24 ****        -1.4453   0.4984  -3.2124 H              1 S1                 0.0000
     25 ****        -2.3700   0.5052  -1.6955 H              1 S1                 0.0000
     26 ****        -2.1195   2.7418  -3.7212 H              1 S1                 0.0000
     27 ****        -3.5805   2.2060  -2.8800 H              1 S1                 0.0000
     28 ****        -2.3103   4.3655  -1.9113 H              1 S1                 0.0000
     29 ****        -2.7377   3.0991  -0.7520 H              1 S1                 0.0000
     30 ****         0.3401  -2.8319   1.8094 H              1 S1                 0.0000
     31 ****         0.5950  -2.8165   0.1101 H              1 S1                 0.0000
     32 ****         2.6915  -1.4506   1.8917 H              1 S1                 0.0000
     33 ****         2.7716  -1.4186  -0.4043 H              1 S1                 0.0000
     34 ****         0.5282  -1.8489   3.3250 LP             1 S1                 0.0000
     35 ****        -0.1198  -0.4780   4.1621 LP             1 S1                 0.0000
     36 ****        -0.2167   3.5735  -2.0472 LP             1 S1                 0.0000
     37 ****        -0.5413   3.2880  -0.4725 LP             1 S1                 0.0000
     38 ****         0.4077  -0.3915  -2.1845 LP             1 S1                 0.0000
     39 ****         0.8981  -1.7917  -1.2907 LP             1 S1                 0.0000
     40 ****         2.8363  -3.0029  -0.5330 LP             1 S1                 0.0000
     41 ****         4.0490  -2.1692   0.1747 LP             1 S1                 0.0000
@<TRIPOS>BOND
    1    1    2 2     
    2    2   14 am    
    3    2    3 1     
    4    3    4 1     
    5    3    5 2     
    6    5    6 1     
    7    5   22 1     
    8    6    7 1     
    9    6   12 am    
   10    7   11 1     
   11    7    8 1     
   12    7   23 1     
   13    8    9 1     
   14    8   24 1     
   15    8   25 1     
   16    9   10 1     
   17    9   26 1     
   18    9   27 1     
   19   10   11 1     
   20   10   28 1     
   21   10   29 1     
   22   12   13 2     
   23   12   14 am    
   24   14   15 1     
   25   15   16 1     
   26   15   30 1     
   27   15   31 1     
   28   16   17 1     
   29   16   18 1     
   30   16   32 1     
   31   17   33 1     
   32   18   19 1     
   33   18   20 1     
   34   18   21 1     
   35    1   34 1     
   36    1   35 1     
   37   11   36 1     
   38   11   37 1     
   39   13   38 1     
   40   13   39 1     
   41   17   40 1     
   42   17   41 1     
@<TRIPOS>SUBSTRUCTURE
      1 S1             1
@<TRIPOS>SET
LONE_PAIRS      STATIC     ATOMS    <user>   **** ""
8 34 35 36 37 38 39 40 41
DONOR_HYDROGENS      STATIC     ATOMS    <user>   **** ""
1 33
ATOM$BLUE        STATIC     ATOMS    COLORGROUP SYSTEM
8 34 35 36 37 38 39 40 41
ATOM$RED        STATIC     ATOMS    COLORGROUP SYSTEM
1 33
