#       Name:                AV-unprocessed.smi:3229
#       Creating user name   scv26
#       Creation time:       Fri Mar 27 18:17:47 2020


#       File generated by GOLD software.
#

@<TRIPOS>MOLECULE
AV-unprocessed.smi:3229
    40    41     1
SMALL
NO_CHARGES


@<TRIPOS>ATOM
      1 ****        -4.1768   2.9374   0.3928 C.3            1 S1                 0.0000
      2 ****        -3.7574   2.5338   1.8106 C.3            1 S1                 0.0000
      3 ****        -2.3841   1.9511   1.8760 C.2            1 S1                 0.0000
      4 ****        -2.0422   0.6326   2.0476 C.2            1 S1                 0.0000
      5 ****        -0.6650   0.4040   2.0669 N.2            1 S1                 0.0000
      6 ****         0.0417   1.5281   1.9213 C.2            1 S1                 0.0000
      7 ****         1.5358   1.5665   1.8706 C.3            1 S1                 0.0000
      8 ****         2.1156   1.4684   0.4456 C.3            1 S1                 0.0000
      9 ****         1.6105   0.3158  -0.2938 N.am           1 S1                 0.0000
     10 ****         2.0038  -0.9541  -0.1099 C.2            1 S1                 0.0000
     11 ****         2.8716  -1.2775   0.7016 O.2            1 S1                 0.0000
     12 ****         1.2871  -2.0220  -0.9464 C.3            1 S1                 0.0000
     13 ****         2.1227  -3.2746  -1.2293 C.3            1 S1                 0.0000
     14 ****         1.5108  -3.7640  -2.5224 C.3            1 S1                 0.0000
     15 ****         1.2241  -2.4540  -3.2485 C.3            1 S1                 0.0000
     16 ****         0.9494  -1.4951  -2.2307 O.3            1 S1                 0.0000
     17 ****        -0.9655   2.9575   1.7278 S.3            1 S1                 0.0000
     18 ****        -5.1874   3.3462   0.3888 H              1 S1                 0.0000
     19 ****        -4.1615   2.0797  -0.2805 H              1 S1                 0.0000
     20 ****        -3.5098   3.6969  -0.0157 H              1 S1                 0.0000
     21 ****        -3.8111   3.4042   2.4651 H              1 S1                 0.0000
     22 ****        -4.4763   1.8151   2.2057 H              1 S1                 0.0000
     23 ****        -2.7124  -0.2065   2.1625 H              1 S1                 0.0000
     24 ****         1.8746   2.4903   2.3401 H              1 S1                 0.0000
     25 ****         1.9236   0.7539   2.4863 H              1 S1                 0.0000
     26 ****         1.8447   2.3617  -0.1174 H              1 S1                 0.0000
     27 ****         3.2058   1.4455   0.4799 H              1 S1                 0.0000
     28 ****         0.8893   0.4905  -0.9789 H              1 S1                 0.0000
     29 ****         0.3598  -2.3038  -0.4451 H              1 S1                 0.0000
     30 ****         3.1743  -3.0266  -1.3847 H              1 S1                 0.0000
     31 ****         2.0589  -4.0138  -0.4301 H              1 S1                 0.0000
     32 ****         2.1660  -4.4301  -3.0845 H              1 S1                 0.0000
     33 ****         0.5784  -4.2920  -2.3178 H              1 S1                 0.0000
     34 ****         2.1053  -2.1265  -3.8016 H              1 S1                 0.0000
     35 ****         0.3956  -2.5393  -3.9519 H              1 S1                 0.0000
     36 ****        -0.2534  -0.5006   2.1774 LP             1 S1                 0.0000
     37 ****         3.3183  -0.5792   1.2609 LP             1 S1                 0.0000
     38 ****         3.1297  -2.2384   0.8014 LP             1 S1                 0.0000
     39 ****         1.4887  -0.6703  -2.4007 LP             1 S1                 0.0000
     40 ****        -0.0239  -1.2663  -2.2475 LP             1 S1                 0.0000
@<TRIPOS>BOND
    1    1    2 1     
    2    1   18 1     
    3    1   19 1     
    4    1   20 1     
    5    2    3 1     
    6    2   21 1     
    7    2   22 1     
    8    3   17 1     
    9    3    4 2     
   10    4    5 1     
   11    4   23 1     
   12    5    6 2     
   13    6    7 1     
   14    6   17 1     
   15    7    8 1     
   16    7   24 1     
   17    7   25 1     
   18    8    9 1     
   19    8   26 1     
   20    8   27 1     
   21    9   10 am    
   22    9   28 1     
   23   10   11 2     
   24   10   12 1     
   25   12   16 1     
   26   12   13 1     
   27   12   29 1     
   28   13   14 1     
   29   13   30 1     
   30   13   31 1     
   31   14   15 1     
   32   14   32 1     
   33   14   33 1     
   34   15   16 1     
   35   15   34 1     
   36   15   35 1     
   37    5   36 1     
   38   11   37 1     
   39   11   38 1     
   40   16   39 1     
   41   16   40 1     
@<TRIPOS>SUBSTRUCTURE
      1 S1             1
@<TRIPOS>SET
LONE_PAIRS      STATIC     ATOMS    <user>   **** ""
5 36 37 38 39 40
DONOR_HYDROGENS      STATIC     ATOMS    <user>   **** ""
1 28
ATOM$BLUE        STATIC     ATOMS    COLORGROUP SYSTEM
5 36 37 38 39 40
ATOM$RED        STATIC     ATOMS    COLORGROUP SYSTEM
1 28
