AV-unprocessed.smi:2748|AV-procd|sdf|10581|dock10
  -GOLD-   2272015 33D 1   1.00000     0.00000
 Structure written by MMmdl.
 30 32  0  0  0  0  0  0  0  0  1 V2000
  151.3144  136.2597  155.1802 O   0  0  0  0  0  0  0  0  0  0  0  0
  151.5664  137.0319  156.1032 C   0  0  0  0  0  0  0  0  0  0  0  0
  151.1581  136.7189  157.4032 N   0  0  0  0  0  0  0  0  0  0  0  0
  151.3776  137.5048  158.5349 C   0  0  0  0  0  0  0  0  0  0  0  0
  150.9803  137.1216  159.6353 O   0  0  0  0  0  0  0  0  0  0  0  0
  152.0653  138.7243  158.3390 N   0  0  0  0  0  0  0  0  0  0  0  0
  152.3234  139.5479  159.4944 C   0  0  0  0  0  0  0  0  0  0  0  0
  153.0965  140.8367  159.1537 C   0  0  2  0  0  0  0  0  0  0  0  0
  153.3638  141.7187  160.4026 C   0  0  0  0  0  0  0  0  0  0  0  0
  152.6694  142.9834  160.0373 C   0  0  0  0  0  0  0  0  0  0  0  0
  152.5617  144.1678  160.7860 C   0  0  0  0  0  0  0  0  0  0  0  0
  151.8380  145.2412  160.2211 C   0  0  0  0  0  0  0  0  0  0  0  0
  151.2465  145.1123  158.9412 C   0  0  0  0  0  0  0  0  0  0  0  0
  151.3708  143.9089  158.2106 C   0  0  0  0  0  0  0  0  0  0  0  0
  152.0941  142.8494  158.7863 C   0  0  0  0  0  0  0  0  0  0  0  0
  152.3197  141.6231  158.2288 O   0  0  0  0  0  0  0  0  0  0  0  0
  152.4983  139.0709  157.0684 C   0  0  0  0  0  0  0  0  0  0  0  0
  152.2837  138.2999  155.9752 C   0  0  0  0  0  0  0  0  0  0  0  0
  152.8558  138.7989  154.4236 Cl  0  0  0  0  0  0  0  0  0  0  0  0
  150.6661  135.8471  157.5349 H   0  0  0  0  0  0  0  0  0  0  0  0
  151.3502  139.7794  159.9308 H   0  0  0  0  0  0  0  0  0  0  0  0
  152.8451  138.9289  160.2275 H   0  0  0  0  0  0  0  0  0  0  0  0
  154.0477  140.5958  158.6773 H   0  0  0  0  0  0  0  0  0  0  0  0
  152.9378  141.3016  161.3158 H   0  0  0  0  0  0  0  0  0  0  0  0
  154.4286  141.8961  160.5561 H   0  0  0  0  0  0  0  0  0  0  0  0
  153.0164  144.2543  161.7618 H   0  0  0  0  0  0  0  0  0  0  0  0
  151.7349  146.1662  160.7692 H   0  0  0  0  0  0  0  0  0  0  0  0
  150.6963  145.9406  158.5195 H   0  0  0  0  0  0  0  0  0  0  0  0
  150.9219  143.8058  157.2338 H   0  0  0  0  0  0  0  0  0  0  0  0
  153.0373  139.9989  156.9398 H   0  0  0  0  0  0  0  0  0  0  0  0
  1  2  2  0  0  0  0
  2 18  1  0  0  0  0
  2  3  1  0  0  0  0
  3 20  1  0  0  0  0
  3  4  1  0  0  0  0
  4  5  2  0  0  0  0
  4  6  1  0  0  0  0
  6  7  1  0  0  0  0
  6 17  1  0  0  0  0
  7  8  1  0  0  0  0
  7 21  1  0  0  0  0
  7 22  1  0  0  0  0
  8 16  1  0  0  0  0
  8  9  1  0  0  0  0
  8 23  1  0  0  0  0
  9 10  1  0  0  0  0
  9 24  1  0  0  0  0
  9 25  1  0  0  0  0
 10 15  2  0  0  0  0
 10 11  1  0  0  0  0
 11 12  2  0  0  0  0
 11 26  1  0  0  0  0
 12 13  1  0  0  0  0
 12 27  1  0  0  0  0
 13 14  2  0  0  0  0
 13 28  1  0  0  0  0
 14 15  1  0  0  0  0
 14 29  1  0  0  0  0
 15 16  1  0  0  0  0
 17 18  2  0  0  0  0
 17 30  1  0  0  0  0
 18 19  1  0  0  0  0
M  END
> <s_m_source_file>
AV-unprocessed.smi

> <i_m_source_file_index>
2748

> <i_lp_mmshare_version>
43012

> <i_f3d_flags>
0

> <s_epik_input>
Tz1jMVtuSF1jKD1PKW4oW2NIXWMxQ2wpW0NIMl1bQ0BIXShbQ0gyXTIpT2MoYzIzKVtjSF1bY0hdW2NIXVtjSF0z

> <s_epik_cmdline>
J2VwaWtfcHl0aG9uJywgJy1waCcsICc3LjAnLCAnLXRuJywgJzgnLCAnLW1hJywgJzIwMCcsICctbWV0YWxfYmluZGluZycsICctaW1hZScsICc8aW5maWxlLm1hZT4nLCAnLW9tYWUnLCAnPG91dGZpbGUubWFlPic=

> <r_lp_tautomer_probability>
0.999537

> <r_epik_Ionization_Penalty>
0.0203523

> <r_epik_Ionization_Penalty_Charging>
0.0203523

> <r_epik_Ionization_Penalty_Neutral>
0

> <r_epik_State_Penalty>
0.0163078

> <r_epik_Charging_Adjusted_Penalty>
0.0366602

> <i_epik_Tot_Q>
0

> <i_epik_Tot_abs_Q>
0

> <r_epik_Metal_State_Penalty>
1.99317

> <b_epik_Metal_Only>
0

> <s_lp_Force_Field>
OPLS_2005

> <r_lp_Energy>
20.6728

> <b_lp_Chiralities_Consistent>
1

> <s_lp_Variant>
AV-unprocessed.smi:2748-1

> <Gold.Version>
5.8.1

> <Gold.Id.Protein>
6NUR|6NUR_protein|mol2

> <Gold.PLP.Fitness>
45.3422

> <Gold.PLP.PLP>
-39.4172

> <Gold.PLP.part.hbond>
-1.9414

> <Gold.PLP.part.metal>
0.0000

> <Gold.PLP.part.buried>
-4.7845

> <Gold.PLP.part.nonpolar>
-32.0395

> <Gold.PLP.part.repulsive>
0.2187

> <Gold.PLP.ligand.clash>
0.0000

> <Gold.PLP.ligand.torsion>
0.0010

> <Gold.PLP.Chemscore.Hbond>
1.9750

> <Gold.PLP.Chemscore.CHOScore>
0.0000

> <Gold.PLP.Chemscore.Metal>
0.0000

> <Gold.Chemscore.Hbonds>
donor molecule, donor type, donor heavy atom, donor atom, acceptor molecule, acceptor atom, score
      P1  H  6896  6909       L1     5  1.00
      P1  H 10752 10763       L1     1  1.00

> <Gold.PLP.Chemscore.Internal.Correction>
0.0019

> <Gold.Rescore>
     Score         DG    S(hbond)    S(metal)    S(lipo)     H(rot)  DE(clash)    DE(int)     intcor
     20.30     -21.63       1.85        0.00     113.91       1.31       0.06       1.27       ----

> <Gold.Chemscore.Fitness>
20.3010

> <Gold.Chemscore.DG>
-21.6332

> <Gold.Chemscore.ZeroCoef>
-5.4800

> <Gold.Chemscore.Hbond>
1.8523

> <Gold.Chemscore.Metal>
0.0000

> <Gold.Chemscore.Lipo>
113.9102

> <Gold.Chemscore.Internal_Hbond>
0.0000

> <Gold.Chemscore.DEClash>
0.0594

> <Gold.Chemscore.DEInternal>
1.2727

> <Gold.Chemscore.Rot>
1.3129

> <Gold.Chemscore.Internal.Correction>
   9.000000E+99

> <Gold.Chemscore.Hbonds>
donor molecule, donor type, donor heavy atom, donor atom, acceptor molecule, acceptor atom, score
      P1  H  6896  6909       L1     5  0.77
      P1  H 10752 10763       L1     1  0.55

> <Gold.Chemscore.Hbond.Weighted>
-6.1866

> <Gold.Chemscore.Metal.Weighted>
-0.0000

> <Gold.Chemscore.Lipo.Weighted>
-13.3275

> <Gold.Chemscore.Internal_Hbond.Weighted>
0.0000

> <Gold.Chemscore.DEClash.Weighted>
0.0594

> <Gold.Chemscore.DEInternal.Weighted>
1.2727

> <Gold.Chemscore.Rot.Weighted>
3.3610

> <Gold.Chemscore.Internal.Correction.Weighted>
   9.000000E+99

> <Gold.Protein.RotatedTorsions>
[ 6907 6896 6895 6894 ] final  100.57 input  -60.11 | X-H torsion
[ 7974 7965 7964 7962 ] final  -36.98 input  175.53 | X-H torsion
[ 8008 7997 7996 7995 ] final  107.13 input   59.86 | X-H torsion
[ 10167 10162 10161 10158 ] final   44.06 input  -65.29 | X-H torsion
[ 10718 10713 10712 10709 ] final -136.78 input   66.30 | X-H torsion
[ 10763 10752 10751 10750 ] final   60.67 input  -60.55 | X-H torsion
[ 11005 11000 10999 10996 ] final   20.93 input  -57.11 | X-H torsion

> <Gold.Protein.ActiveResidues>
 VAL166  LYS551  ARG553  GLY616  TRP617  ASP618  TYR619  PRO620  LYS621  CYS622 
 ASP623  PHE694  ASN695  SER759  ASP760  ASP761  ALA762  ILE779  LEU786  VAL792 
 PHE793  MET794  SER795  GLU796  ALA797  LYS798  CYS799  TRP800  GLU811  SER814 

> <Gold.Protein.RotatedAtoms>
  152.5369  134.0257  159.8001 H   0  0  0  0  0  0  0  0  0  0  0  0  # atno 6907 bound_to 6896
  151.0436  133.5677  159.2656 H   0  0  0  0  0  0  0  0  0  0  0  0  # atno 6908 bound_to 6896
  151.2637  135.0670  159.9161 H   0  0  0  0  0  0  0  0  0  0  0  0  # atno 6909 bound_to 6896
  146.0615  140.6342  142.8995 H   0  0  0  0  0  0  0  0  0  0  0  0  # atno 7974 bound_to 7965
  156.1799  140.3100  155.9129 H   0  0  0  0  0  0  0  0  0  0  0  0  # atno 8008 bound_to 7997
  155.3406  140.0465  157.3062 H   0  0  0  0  0  0  0  0  0  0  0  0  # atno 8009 bound_to 7997
  154.5331  140.2237  155.8779 H   0  0  0  0  0  0  0  0  0  0  0  0  # atno 8010 bound_to 7997
  140.3381  144.2504  150.6159 H   0  0  0  0  0  0  0  0  0  0  0  0  # atno 10167 bound_to 10162
  156.2808  130.7320  151.1316 H   0  0  0  0  0  0  0  0  0  0  0  0  # atno 10718 bound_to 10713
  152.9928  135.5528  154.5910 H   0  0  0  0  0  0  0  0  0  0  0  0  # atno 10763 bound_to 10752
  154.5272  135.2811  155.1214 H   0  0  0  0  0  0  0  0  0  0  0  0  # atno 10764 bound_to 10752
  154.2543  135.6393  153.5304 H   0  0  0  0  0  0  0  0  0  0  0  0  # atno 10765 bound_to 10752
  140.3971  134.1757  155.7663 H   0  0  0  0  0  0  0  0  0  0  0  0  # atno 11005 bound_to 11000
  144.7177  140.4268  143.7031 LP  0  0  0  0  0  0  0  0  0  0  0  0  # atno 17320 bound_to 7965
  145.6552  139.1572  143.2839 LP  0  0  0  0  0  0  0  0  0  0  0  0  # atno 17321 bound_to 7965
  140.5334  143.2238  151.8201 LP  0  0  0  0  0  0  0  0  0  0  0  0  # atno 17342 bound_to 10162
  139.4845  144.4691  151.9447 LP  0  0  0  0  0  0  0  0  0  0  0  0  # atno 17343 bound_to 10162
  157.7314  131.0608  150.5681 LP  0  0  0  0  0  0  0  0  0  0  0  0  # atno 17370 bound_to 10713
  156.5786  130.4298  149.5987 LP  0  0  0  0  0  0  0  0  0  0  0  0  # atno 17371 bound_to 10713
  141.1870  133.8290  157.1048 LP  0  0  0  0  0  0  0  0  0  0  0  0  # atno 17394 bound_to 11000
  140.0363  134.9876  157.0878 LP  0  0  0  0  0  0  0  0  0  0  0  0  # atno 17395 bound_to 11000

$$$$
