AV-unprocessed.smi:1677|AV-procd|sdf|6727|dock4
  -GOLD-   22720 7473D 1   1.00000     0.00000
 Structure written by MMmdl.
 36 37  0  0  0  0  0  0  0  0  1 V2000
  149.5435  138.5378  156.5547 C   0  0  0  0  0  0  0  0  0  0  0  0
  150.6643  139.4635  156.0537 C   0  0  1  0  0  0  0  0  0  0  0  0
  150.4799  139.9058  154.5860 C   0  0  0  0  0  0  0  0  0  0  0  0
  149.1120  140.2796  154.2800 N   0  0  0  0  0  0  0  0  0  0  0  0
  148.1739  139.5241  153.5891 C   0  0  0  0  0  0  0  0  0  0  0  0
  147.0232  140.2778  153.5370 C   0  0  0  0  0  0  0  0  0  0  0  0
  147.2300  141.4944  154.1833 N   0  0  0  0  0  0  0  0  0  0  0  0
  148.4896  141.4244  154.5941 C   0  0  0  0  0  0  0  0  0  0  0  0
  150.7399  140.6332  156.9237 N   0  0  0  0  0  0  0  0  0  0  0  0
  151.7735  140.9462  157.7209 C   0  0  0  0  0  0  0  0  0  0  0  0
  152.7992  140.2688  157.7949 O   0  0  0  0  0  0  0  0  0  0  0  0
  151.6262  142.2228  158.5593 C   0  0  1  0  0  0  0  0  0  0  0  0
  152.7707  142.3468  159.5907 C   0  0  0  0  0  0  0  0  0  0  0  0
  152.7891  143.7084  160.2627 C   0  0  0  0  0  0  0  0  0  0  0  0
  152.1315  144.7781  159.7832 C   0  0  0  0  0  0  0  0  0  0  0  0
  151.3011  144.7482  158.5120 C   0  0  0  0  0  0  0  0  0  0  0  0
  151.5638  143.4830  157.6724 C   0  0  0  0  0  0  0  0  0  0  0  0
  149.5097  137.6070  155.9883 H   0  0  0  0  0  0  0  0  0  0  0  0
  148.5668  139.0153  156.4705 H   0  0  0  0  0  0  0  0  0  0  0  0
  149.6948  138.2716  157.6014 H   0  0  0  0  0  0  0  0  0  0  0  0
  151.6015  138.9090  156.1334 H   0  0  0  0  0  0  0  0  0  0  0  0
  151.1299  140.7526  154.3603 H   0  0  0  0  0  0  0  0  0  0  0  0
  150.7680  139.1023  153.9066 H   0  0  0  0  0  0  0  0  0  0  0  0
  148.3971  138.5398  153.2041 H   0  0  0  0  0  0  0  0  0  0  0  0
  146.0703  140.0402  153.0873 H   0  0  0  0  0  0  0  0  0  0  0  0
  148.9694  142.2226  155.1415 H   0  0  0  0  0  0  0  0  0  0  0  0
  149.9405  141.2500  156.9249 H   0  0  0  0  0  0  0  0  0  0  0  0
  150.6837  142.1620  159.1070 H   0  0  0  0  0  0  0  0  0  0  0  0
  152.6587  141.5814  160.3595 H   0  0  0  0  0  0  0  0  0  0  0  0
  153.7443  142.1887  159.1245 H   0  0  0  0  0  0  0  0  0  0  0  0
  153.3771  143.7991  161.1644 H   0  0  0  0  0  0  0  0  0  0  0  0
  152.1728  145.7168  160.3161 H   0  0  0  0  0  0  0  0  0  0  0  0
  150.2494  144.8014  158.7952 H   0  0  0  0  0  0  0  0  0  0  0  0
  151.5165  145.6380  157.9201 H   0  0  0  0  0  0  0  0  0  0  0  0
  152.5092  143.6006  157.1398 H   0  0  0  0  0  0  0  0  0  0  0  0
  150.7916  143.3824  156.9085 H   0  0  0  0  0  0  0  0  0  0  0  0
  1  2  1  0  0  0  0
  1 18  1  0  0  0  0
  1 19  1  0  0  0  0
  1 20  1  0  0  0  0
  2  3  1  0  0  0  0
  2  9  1  0  0  0  0
  2 21  1  0  0  0  0
  3  4  1  0  0  0  0
  3 22  1  0  0  0  0
  3 23  1  0  0  0  0
  4  8  1  0  0  0  0
  4  5  1  0  0  0  0
  5  6  2  0  0  0  0
  5 24  1  0  0  0  0
  6  7  1  0  0  0  0
  6 25  1  0  0  0  0
  7  8  2  0  0  0  0
  8 26  1  0  0  0  0
  9 10  1  0  0  0  0
  9 27  1  0  0  0  0
 10 11  2  0  0  0  0
 10 12  1  0  0  0  0
 12 17  1  0  0  0  0
 12 13  1  0  0  0  0
 12 28  1  0  0  0  0
 13 14  1  0  0  0  0
 13 29  1  0  0  0  0
 13 30  1  0  0  0  0
 14 15  2  0  0  0  0
 14 31  1  0  0  0  0
 15 16  1  0  0  0  0
 15 32  1  0  0  0  0
 16 17  1  0  0  0  0
 16 33  1  0  0  0  0
 16 34  1  0  0  0  0
 17 35  1  0  0  0  0
 17 36  1  0  0  0  0
M  END
> <s_m_source_file>
AV-unprocessed.smi

> <i_m_source_file_index>
1677

> <i_lp_mmshare_version>
43012

> <i_f3d_flags>
0

> <s_epik_input>
W2NIXTFuW2NIXVtjSF1uMVtDSDJdW0NAQEhdKFtDSDNdKVtOSF1DKD1PKVtDQEBIXTJbQ0gyXVtDSF09W0NIXVtDSDJdW0NIMl0y

> <s_epik_cmdline>
J2VwaWtfcHl0aG9uJywgJy1waCcsICc3LjAnLCAnLXRuJywgJzgnLCAnLW1hJywgJzIwMCcsICctbWV0YWxfYmluZGluZycsICctaW1hZScsICc8aW5maWxlLm1hZT4nLCAnLW9tYWUnLCAnPG91dGZpbGUubWFlPic=

> <r_lp_tautomer_probability>
1

> <r_epik_Ionization_Penalty>
0.640435

> <r_epik_Ionization_Penalty_Charging>
0.640435

> <r_epik_Ionization_Penalty_Neutral>
2.11108e-08

> <r_epik_State_Penalty>
0.658069

> <r_epik_Charging_Adjusted_Penalty>
1.2985

> <i_epik_Tot_Q>
0

> <i_epik_Tot_abs_Q>
0

> <r_epik_Metal_State_Penalty>
0.311689

> <b_epik_Metal_Only>
0

> <s_lp_Force_Field>
OPLS_2005

> <r_lp_Energy>
10.2331

> <b_lp_Chiralities_Consistent>
1

> <s_lp_Variant>
AV-unprocessed.smi:1677-8

> <Gold.Version>
5.8.1

> <Gold.Id.Protein>
6NUR|6NUR_protein|mol2

> <Gold.PLP.Fitness>
44.4858

> <Gold.PLP.PLP>
-34.9998

> <Gold.PLP.part.hbond>
-1.0000

> <Gold.PLP.part.metal>
0.0000

> <Gold.PLP.part.buried>
-0.0942

> <Gold.PLP.part.nonpolar>
-33.6132

> <Gold.PLP.part.repulsive>
0.2019

> <Gold.PLP.ligand.clash>
0.0000

> <Gold.PLP.ligand.torsion>
0.5133

> <Gold.PLP.Chemscore.Hbond>
1.0000

> <Gold.PLP.Chemscore.CHOScore>
2.4889

> <Gold.PLP.Chemscore.Metal>
0.0000

> <Gold.Chemscore.Hbonds>
donor molecule, donor type, donor heavy atom, donor atom, acceptor molecule, acceptor atom, score
      P1  H  7997  8009       L1    11  0.96
      L1  C     5    24       P1  7948  0.56
      L1  C     5    24       P1  7957  0.02
      L1  C     6    25       P1 10175  1.00
      L1  C     8    26       P1  8028  0.97

> <Gold.PLP.Chemscore.Internal.Correction>
0.0458

> <Gold.Rescore>
     Score         DG    S(hbond)    S(metal)    S(lipo)     H(rot)  DE(clash)    DE(int)     intcor
     15.25     -15.50       0.97        0.00      96.19       1.75       0.04       0.21       ----

> <Gold.Chemscore.Fitness>
15.2548

> <Gold.Chemscore.DG>
-15.4983

> <Gold.Chemscore.ZeroCoef>
-5.4800

> <Gold.Chemscore.Hbond>
0.9692

> <Gold.Chemscore.Metal>
0.0000

> <Gold.Chemscore.Lipo>
96.1940

> <Gold.Chemscore.Internal_Hbond>
0.0000

> <Gold.Chemscore.DEClash>
0.0366

> <Gold.Chemscore.DEInternal>
0.2069

> <Gold.Chemscore.Rot>
1.7475

> <Gold.Chemscore.Internal.Correction>
   9.000000E+99

> <Gold.Chemscore.Hbonds>
donor molecule, donor type, donor heavy atom, donor atom, acceptor molecule, acceptor atom, score
      P1  H  7997  8009       L1    11  0.92

> <Gold.Chemscore.Hbond.Weighted>
-3.2371

> <Gold.Chemscore.Metal.Weighted>
-0.0000

> <Gold.Chemscore.Lipo.Weighted>
-11.2547

> <Gold.Chemscore.Internal_Hbond.Weighted>
0.0000

> <Gold.Chemscore.DEClash.Weighted>
0.0366

> <Gold.Chemscore.DEInternal.Weighted>
0.2069

> <Gold.Chemscore.Rot.Weighted>
4.4735

> <Gold.Chemscore.Internal.Correction.Weighted>
   9.000000E+99

> <Gold.Protein.RotatedTorsions>
[ 6907 6896 6895 6894 ] final -121.93 input  -60.11 | X-H torsion
[ 7974 7965 7964 7962 ] final  138.03 input  175.53 | X-H torsion
[ 8008 7997 7996 7995 ] final  166.76 input   59.86 | X-H torsion
[ 10167 10162 10161 10158 ] final   54.16 input  -65.29 | X-H torsion
[ 10718 10713 10712 10709 ] final  128.81 input   66.30 | X-H torsion
[ 10763 10752 10751 10750 ] final   94.81 input  -60.55 | X-H torsion
[ 11005 11000 10999 10996 ] final -131.87 input  -57.11 | X-H torsion

> <Gold.Protein.ActiveResidues>
 VAL166  LYS551  ARG553  GLY616  TRP617  ASP618  TYR619  PRO620  LYS621  CYS622 
 ASP623  PHE694  ASN695  SER759  ASP760  ASP761  ALA762  ILE779  LEU786  VAL792 
 PHE793  MET794  SER795  GLU796  ALA797  LYS798  CYS799  TRP800  GLU811  SER814 

> <Gold.Protein.RotatedAtoms>
  150.8529  133.7760  159.3018 H   0  0  0  0  0  0  0  0  0  0  0  0  # atno 6907 bound_to 6896
  151.5426  135.1066  159.9940 H   0  0  0  0  0  0  0  0  0  0  0  0  # atno 6908 bound_to 6896
  152.4567  133.7693  159.6846 H   0  0  0  0  0  0  0  0  0  0  0  0  # atno 6909 bound_to 6896
  144.9411  139.4930  143.5571 H   0  0  0  0  0  0  0  0  0  0  0  0  # atno 7974 bound_to 7965
  156.1691  140.1635  156.8479 H   0  0  0  0  0  0  0  0  0  0  0  0  # atno 8008 bound_to 7997
  154.5238  140.0772  156.8256 H   0  0  0  0  0  0  0  0  0  0  0  0  # atno 8009 bound_to 7997
  155.3549  140.3392  155.4242 H   0  0  0  0  0  0  0  0  0  0  0  0  # atno 8010 bound_to 7997
  140.2331  144.3665  150.6407 H   0  0  0  0  0  0  0  0  0  0  0  0  # atno 10167 bound_to 10162
  157.5211  131.1098  150.9151 H   0  0  0  0  0  0  0  0  0  0  0  0  # atno 10718 bound_to 10713
  153.2460  135.4276  155.0747 H   0  0  0  0  0  0  0  0  0  0  0  0  # atno 10763 bound_to 10752
  154.8361  135.3414  154.6581 H   0  0  0  0  0  0  0  0  0  0  0  0  # atno 10764 bound_to 10752
  153.7004  135.7028  153.5121 H   0  0  0  0  0  0  0  0  0  0  0  0  # atno 10765 bound_to 10752
  140.9221  134.1431  157.4306 H   0  0  0  0  0  0  0  0  0  0  0  0  # atno 11005 bound_to 11000
  146.3286  139.8431  142.8887 LP  0  0  0  0  0  0  0  0  0  0  0  0  # atno 17320 bound_to 7965
  145.2989  141.0189  143.3620 LP  0  0  0  0  0  0  0  0  0  0  0  0  # atno 17321 bound_to 7965
  140.6170  143.2173  151.6771 LP  0  0  0  0  0  0  0  0  0  0  0  0  # atno 17342 bound_to 10162
  139.5103  144.3547  152.0619 LP  0  0  0  0  0  0  0  0  0  0  0  0  # atno 17343 bound_to 10162
  156.9762  130.5509  149.5293 LP  0  0  0  0  0  0  0  0  0  0  0  0  # atno 17370 bound_to 10713
  156.0354  130.5442  150.8641 LP  0  0  0  0  0  0  0  0  0  0  0  0  # atno 17371 bound_to 10713
  139.8777  134.9975  156.5849 LP  0  0  0  0  0  0  0  0  0  0  0  0  # atno 17394 bound_to 11000
  140.7975  133.8532  155.8698 LP  0  0  0  0  0  0  0  0  0  0  0  0  # atno 17395 bound_to 11000

$$$$
