AV-unprocessed.smi:2153|AV-procd|sdf|8766|dock10
  -GOLD-   2272011543D 1   1.00000     0.00000
 Structure written by MMmdl.
 48 49  0  0  0  0  0  0  0  0  1 V2000
  153.4972  140.1068  159.9248 C   0  0  0  0  0  0  0  0  0  0  0  0
  153.0786  141.4397  159.2832 C   0  0  2  0  0  0  0  0  0  0  0  0
  152.8491  142.5143  160.3653 C   0  0  0  0  0  0  0  0  0  0  0  0
  152.4225  143.8573  159.7539 C   0  0  0  0  0  0  0  0  0  0  0  0
  151.1685  143.6920  158.8849 C   0  0  0  0  0  0  0  0  0  0  0  0
  151.3897  142.6329  157.7955 C   0  0  0  0  0  0  0  0  0  0  0  0
  151.8220  141.2787  158.3973 C   0  0  1  0  0  0  0  0  0  0  0  0
  152.1408  140.3773  157.3444 O   0  0  0  0  0  0  0  0  0  0  0  0
  151.0496  140.0586  156.4926 C   0  0  0  0  0  0  0  0  0  0  0  0
  151.3371  138.7261  155.7932 C   0  0  0  0  0  0  0  0  0  0  0  0
  150.4753  137.6753  156.3169 N   0  0  0  0  0  0  0  0  0  0  0  0
  150.8475  136.3981  156.4760 C   0  0  0  0  0  0  0  0  0  0  0  0
  151.9722  135.9852  156.1893 O   0  0  0  0  0  0  0  0  0  0  0  0
  149.7723  135.4520  157.0293 C   0  0  0  0  0  0  0  0  0  0  0  0
  149.5736  134.2493  156.2092 N   0  0  0  0  0  0  0  0  0  0  0  0
  149.1437  134.3806  154.9011 C   0  0  0  0  0  0  0  0  0  0  0  0
  148.9430  133.3322  154.0734 C   0  0  0  0  0  0  0  0  0  0  0  0
  149.1769  131.9676  154.5281 C   0  0  0  0  0  0  0  0  0  0  0  0
  149.0012  130.9767  153.8175 O   0  0  0  0  0  0  0  0  0  0  0  0
  149.6222  131.8601  155.8654 N   0  0  0  0  0  0  0  0  0  0  0  0
  149.8629  130.5193  156.3570 C   0  0  0  0  0  0  0  0  0  0  0  0
  149.8267  132.9611  156.7301 C   0  0  0  0  0  0  0  0  0  0  0  0
  150.2091  132.8261  157.8946 O   0  0  0  0  0  0  0  0  0  0  0  0
  152.7077  139.7092  160.5632 H   0  0  0  0  0  0  0  0  0  0  0  0
  154.3902  140.2303  160.5380 H   0  0  0  0  0  0  0  0  0  0  0  0
  153.7233  139.3545  159.1687 H   0  0  0  0  0  0  0  0  0  0  0  0
  153.9004  141.7746  158.6485 H   0  0  0  0  0  0  0  0  0  0  0  0
  152.0827  142.1761  161.0643 H   0  0  0  0  0  0  0  0  0  0  0  0
  153.7582  142.6548  160.9509 H   0  0  0  0  0  0  0  0  0  0  0  0
  152.2336  144.5836  160.5451 H   0  0  0  0  0  0  0  0  0  0  0  0
  153.2370  144.2609  159.1510 H   0  0  0  0  0  0  0  0  0  0  0  0
  150.3234  143.4029  159.5109 H   0  0  0  0  0  0  0  0  0  0  0  0
  150.9044  144.6461  158.4281 H   0  0  0  0  0  0  0  0  0  0  0  0
  150.4749  142.5211  157.2142 H   0  0  0  0  0  0  0  0  0  0  0  0
  152.1540  142.9834  157.1006 H   0  0  0  0  0  0  0  0  0  0  0  0
  151.0152  140.8744  159.0124 H   0  0  0  0  0  0  0  0  0  0  0  0
  150.1395  139.9691  157.0874 H   0  0  0  0  0  0  0  0  0  0  0  0
  150.8798  140.8416  155.7531 H   0  0  0  0  0  0  0  0  0  0  0  0
  151.1912  138.8266  154.7167 H   0  0  0  0  0  0  0  0  0  0  0  0
  152.3790  138.4446  155.9530 H   0  0  0  0  0  0  0  0  0  0  0  0
  149.5323  137.9365  156.5665 H   0  0  0  0  0  0  0  0  0  0  0  0
  150.0272  135.1744  158.0536 H   0  0  0  0  0  0  0  0  0  0  0  0
  148.8352  136.0059  157.1015 H   0  0  0  0  0  0  0  0  0  0  0  0
  148.9602  135.3738  154.5173 H   0  0  0  0  0  0  0  0  0  0  0  0
  148.6056  133.5055  153.0620 H   0  0  0  0  0  0  0  0  0  0  0  0
  150.3013  130.5338  157.3541 H   0  0  0  0  0  0  0  0  0  0  0  0
  150.5570  130.0364  155.6667 H   0  0  0  0  0  0  0  0  0  0  0  0
  148.8992  130.0075  156.3749 H   0  0  0  0  0  0  0  0  0  0  0  0
  1  2  1  0  0  0  0
  1 24  1  0  0  0  0
  1 25  1  0  0  0  0
  1 26  1  0  0  0  0
  2  7  1  0  0  0  0
  2  3  1  0  0  0  0
  2 27  1  0  0  0  0
  3  4  1  0  0  0  0
  3 28  1  0  0  0  0
  3 29  1  0  0  0  0
  4  5  1  0  0  0  0
  4 30  1  0  0  0  0
  4 31  1  0  0  0  0
  5  6  1  0  0  0  0
  5 32  1  0  0  0  0
  5 33  1  0  0  0  0
  6  7  1  0  0  0  0
  6 34  1  0  0  0  0
  6 35  1  0  0  0  0
  7  8  1  0  0  0  0
  7 36  1  0  0  0  0
  8  9  1  0  0  0  0
  9 10  1  0  0  0  0
  9 37  1  0  0  0  0
  9 38  1  0  0  0  0
 10 11  1  0  0  0  0
 10 39  1  0  0  0  0
 10 40  1  0  0  0  0
 11 12  1  0  0  0  0
 11 41  1  0  0  0  0
 12 13  2  0  0  0  0
 12 14  1  0  0  0  0
 14 15  1  0  0  0  0
 14 42  1  0  0  0  0
 14 43  1  0  0  0  0
 15 22  1  0  0  0  0
 15 16  1  0  0  0  0
 16 17  2  0  0  0  0
 16 44  1  0  0  0  0
 17 18  1  0  0  0  0
 17 45  1  0  0  0  0
 18 19  2  0  0  0  0
 18 20  1  0  0  0  0
 20 21  1  0  0  0  0
 20 22  1  0  0  0  0
 21 46  1  0  0  0  0
 21 47  1  0  0  0  0
 21 48  1  0  0  0  0
 22 23  2  0  0  0  0
M  END
> <s_m_source_file>
AV-unprocessed.smi

> <i_m_source_file_index>
2153

> <i_lp_mmshare_version>
43012

> <i_f3d_flags>
0

> <s_epik_input>
W0NIM11bQ0BASF0xW0NIMl1bQ0gyXVtDSDJdW0NIMl1bQ0BIXTFPW0NIMl1bQ0gyXVtOSF1DKD1PKVtDSDJdbjJbY0hdW2NIXWMoPU8pbihbQ0gzXSljMj1P

> <s_epik_cmdline>
J2VwaWtfcHl0aG9uJywgJy1waCcsICc3LjAnLCAnLXRuJywgJzgnLCAnLW1hJywgJzIwMCcsICctbWV0YWxfYmluZGluZycsICctaW1hZScsICc8aW5maWxlLm1hZT4nLCAnLW9tYWUnLCAnPG91dGZpbGUubWFlPic=

> <r_lp_tautomer_probability>
1

> <r_epik_Ionization_Penalty>
4.02205e-08

> <r_epik_Ionization_Penalty_Charging>
1.23606e-08

> <r_epik_Ionization_Penalty_Neutral>
2.78599e-08

> <r_epik_State_Penalty>
-0

> <r_epik_Charging_Adjusted_Penalty>
1.23606e-08

> <i_epik_Tot_Q>
0

> <i_epik_Tot_abs_Q>
0

> <r_epik_Metal_State_Penalty>
-0

> <b_epik_Metal_Only>
0

> <s_lp_Force_Field>
OPLS_2005

> <r_lp_Energy>
20.2875

> <b_lp_Chiralities_Consistent>
1

> <s_lp_Variant>
AV-unprocessed.smi:2153-1

> <Gold.Version>
5.8.1

> <Gold.Id.Protein>
6NUR|6NUR_protein|mol2

> <Gold.PLP.Fitness>
50.0847

> <Gold.PLP.PLP>
-40.1906

> <Gold.PLP.part.hbond>
-3.0000

> <Gold.PLP.part.metal>
0.0000

> <Gold.PLP.part.buried>
-1.8089

> <Gold.PLP.part.nonpolar>
-34.1458

> <Gold.PLP.part.repulsive>
0.1282

> <Gold.PLP.ligand.clash>
0.0000

> <Gold.PLP.ligand.torsion>
0.7020

> <Gold.PLP.Chemscore.Hbond>
2.7441

> <Gold.PLP.Chemscore.CHOScore>
0.9998

> <Gold.PLP.Chemscore.Metal>
0.0000

> <Gold.Chemscore.Hbonds>
donor molecule, donor type, donor heavy atom, donor atom, acceptor molecule, acceptor atom, score
      P1  H  6896  6907       L1    23  1.00
      P1  H  7997  8010       L1     8  0.17
      P1  H 10752 10764       L1    13  1.00
      L1  C    16    44       P1  7948  0.39

> <Gold.PLP.Chemscore.Internal.Correction>
0.0662

> <Gold.Rescore>
     Score         DG    S(hbond)    S(metal)    S(lipo)     H(rot)  DE(clash)    DE(int)     intcor
     19.32     -20.34       2.64        0.00      99.57       2.20       0.18       0.84       ----

> <Gold.Chemscore.Fitness>
19.3226

> <Gold.Chemscore.DG>
-20.3354

> <Gold.Chemscore.ZeroCoef>
-5.4800

> <Gold.Chemscore.Hbond>
2.6436

> <Gold.Chemscore.Metal>
0.0000

> <Gold.Chemscore.Lipo>
99.5671

> <Gold.Chemscore.Internal_Hbond>
0.0000

> <Gold.Chemscore.DEClash>
0.1760

> <Gold.Chemscore.DEInternal>
0.8367

> <Gold.Chemscore.Rot>
2.1968

> <Gold.Chemscore.Internal.Correction>
   9.000000E+99

> <Gold.Chemscore.Hbonds>
donor molecule, donor type, donor heavy atom, donor atom, acceptor molecule, acceptor atom, score
      P1  H  6896  6907       L1    23  1.00
      P1  H  7997  8010       L1     8  0.17
      P1  H 10752 10764       L1    13  1.00

> <Gold.Chemscore.Hbond.Weighted>
-8.8298

> <Gold.Chemscore.Metal.Weighted>
-0.0000

> <Gold.Chemscore.Lipo.Weighted>
-11.6494

> <Gold.Chemscore.Internal_Hbond.Weighted>
0.0000

> <Gold.Chemscore.DEClash.Weighted>
0.1760

> <Gold.Chemscore.DEInternal.Weighted>
0.8367

> <Gold.Chemscore.Rot.Weighted>
5.6238

> <Gold.Chemscore.Internal.Correction.Weighted>
   9.000000E+99

> <Gold.Protein.RotatedTorsions>
[ 6907 6896 6895 6894 ] final -139.46 input  -60.11 | X-H torsion
[ 7974 7965 7964 7962 ] final -101.58 input  175.53 | X-H torsion
[ 8008 7997 7996 7995 ] final   61.84 input   59.86 | X-H torsion
[ 10167 10162 10161 10158 ] final  -10.24 input  -65.29 | X-H torsion
[ 10718 10713 10712 10709 ] final -149.81 input   66.30 | X-H torsion
[ 10763 10752 10751 10750 ] final  -23.99 input  -60.55 | X-H torsion
[ 11005 11000 10999 10996 ] final -167.87 input  -57.11 | X-H torsion

> <Gold.Protein.ActiveResidues>
 VAL166  LYS551  ARG553  GLY616  TRP617  ASP618  TYR619  PRO620  LYS621  CYS622 
 ASP623  PHE694  ASN695  SER759  ASP760  ASP761  ALA762  ILE779  LEU786  VAL792 
 PHE793  MET794  SER795  GLU796  ALA797  LYS798  CYS799  TRP800  GLU811  SER814 

> <Gold.Protein.RotatedAtoms>
  151.0481  133.5648  159.2644 H   0  0  0  0  0  0  0  0  0  0  0  0  # atno 6907 bound_to 6896
  151.2669  135.0671  159.9129 H   0  0  0  0  0  0  0  0  0  0  0  0  # atno 6908 bound_to 6896
  152.5377  134.0217  159.8039 H   0  0  0  0  0  0  0  0  0  0  0  0  # atno 6909 bound_to 6896
  145.2798  140.9323  143.2938 H   0  0  0  0  0  0  0  0  0  0  0  0  # atno 7974 bound_to 7965
  155.6047  140.3494  155.4604 H   0  0  0  0  0  0  0  0  0  0  0  0  # atno 8008 bound_to 7997
  156.0201  140.1252  157.0391 H   0  0  0  0  0  0  0  0  0  0  0  0  # atno 8009 bound_to 7997
  154.4312  140.1064  156.5937 H   0  0  0  0  0  0  0  0  0  0  0  0  # atno 8010 bound_to 7997
  140.7109  143.5769  150.9033 H   0  0  0  0  0  0  0  0  0  0  0  0  # atno 10167 bound_to 10162
  156.4380  130.8108  151.2337 H   0  0  0  0  0  0  0  0  0  0  0  0  # atno 10718 bound_to 10713
  153.6766  135.6969  153.5130 H   0  0  0  0  0  0  0  0  0  0  0  0  # atno 10763 bound_to 10752
  153.2517  135.4273  155.0803 H   0  0  0  0  0  0  0  0  0  0  0  0  # atno 10764 bound_to 10752
  154.8412  135.3533  154.6310 H   0  0  0  0  0  0  0  0  0  0  0  0  # atno 10765 bound_to 10752
  140.5483  134.5453  157.5116 H   0  0  0  0  0  0  0  0  0  0  0  0  # atno 11005 bound_to 11000
  144.9263  139.4352  143.6517 LP  0  0  0  0  0  0  0  0  0  0  0  0  # atno 17320 bound_to 7965
  146.3220  139.8150  142.8938 LP  0  0  0  0  0  0  0  0  0  0  0  0  # atno 17321 bound_to 7965
  139.9495  143.6288  152.3033 LP  0  0  0  0  0  0  0  0  0  0  0  0  # atno 17342 bound_to 10162
  139.6802  144.7656  151.1623 LP  0  0  0  0  0  0  0  0  0  0  0  0  # atno 17343 bound_to 10162
  157.7507  131.0177  150.3597 LP  0  0  0  0  0  0  0  0  0  0  0  0  # atno 17370 bound_to 10713
  156.3948  130.3905  149.7003 LP  0  0  0  0  0  0  0  0  0  0  0  0  # atno 17371 bound_to 10713
  139.9468  134.7688  156.0543 LP  0  0  0  0  0  0  0  0  0  0  0  0  # atno 17394 bound_to 11000
  141.1186  133.6620  156.3158 LP  0  0  0  0  0  0  0  0  0  0  0  0  # atno 17395 bound_to 11000

$$$$
