AV-unprocessed.smi:3266|AV-procd|sdf|12502|dock1
  -GOLD-   2272018403D 1   1.00000     0.00000
 Structure written by MMmdl.
 39 40  0  0  0  0  0  0  0  0  2 V2000
  148.8339  137.9530  157.0809 O   0  0  0  0  0  0  0  0  0  0  0  0
  149.7196  138.1983  157.9007 C   0  0  0  0  0  0  0  0  0  0  0  0
  149.9559  137.2698  159.0955 C   0  0  0  0  0  0  0  0  0  0  0  0
  148.6853  136.5182  159.5337 C   0  0  0  0  0  0  0  0  0  0  0  0
  148.6773  136.1944  161.0349 C   0  0  2  0  0  0  0  0  0  0  0  0
  147.7038  135.0802  161.4194 C   0  0  0  0  0  0  0  0  0  0  0  0
  147.4065  135.4168  162.8621 C   0  0  0  0  0  0  0  0  0  0  0  0
  147.3506  136.9399  162.8148 C   0  0  0  0  0  0  0  0  0  0  0  0
  148.2651  137.3299  161.7937 O   0  0  0  0  0  0  0  0  0  0  0  0
  150.5206  139.2715  157.8135 N   0  0  0  0  0  0  0  0  0  0  0  0
  150.4540  140.2784  156.7608 C   0  0  0  0  0  0  0  0  0  0  0  0
  149.8090  141.5820  157.2612 C   0  0  0  0  0  0  0  0  0  0  0  0
  150.8414  142.6020  157.6999 C   0  0  0  0  0  0  0  0  0  0  0  0
  151.8076  142.3186  158.6896 C   0  0  0  0  0  0  0  0  0  0  0  0
  152.7368  143.3168  159.0501 C   0  0  0  0  0  0  0  0  0  0  0  0
  152.6801  144.5750  158.4151 C   0  0  0  0  0  0  0  0  0  0  0  0
  151.6933  144.8042  157.4346 C   0  0  0  0  0  0  0  0  0  0  0  0
  150.8206  143.8228  157.1170 N   0  3  0  0  0  0  0  0  0  0  0  0
  150.7372  136.5503  158.8449 H   0  0  0  0  0  0  0  0  0  0  0  0
  150.3376  137.8703  159.9219 H   0  0  0  0  0  0  0  0  0  0  0  0
  147.7988  137.1056  159.2899 H   0  0  0  0  0  0  0  0  0  0  0  0
  148.6044  135.5877  158.9697 H   0  0  0  0  0  0  0  0  0  0  0  0
  149.6795  135.9184  161.3665 H   0  0  0  0  0  0  0  0  0  0  0  0
  146.7889  135.1443  160.8284 H   0  0  0  0  0  0  0  0  0  0  0  0
  148.1251  134.0830  161.2900 H   0  0  0  0  0  0  0  0  0  0  0  0
  146.4839  134.9659  163.2285 H   0  0  0  0  0  0  0  0  0  0  0  0
  148.2278  135.0889  163.5010 H   0  0  0  0  0  0  0  0  0  0  0  0
  146.3522  137.2747  162.5301 H   0  0  0  0  0  0  0  0  0  0  0  0
  147.6008  137.3967  163.7724 H   0  0  0  0  0  0  0  0  0  0  0  0
  151.2195  139.4026  158.5309 H   0  0  0  0  0  0  0  0  0  0  0  0
  151.4550  140.4693  156.3701 H   0  0  0  0  0  0  0  0  0  0  0  0
  149.8712  139.8689  155.9351 H   0  0  0  0  0  0  0  0  0  0  0  0
  149.1871  142.0153  156.4765 H   0  0  0  0  0  0  0  0  0  0  0  0
  149.1446  141.3803  158.1026 H   0  0  0  0  0  0  0  0  0  0  0  0
  151.8383  141.3499  159.1672 H   0  0  0  0  0  0  0  0  0  0  0  0
  153.4842  143.1195  159.8048 H   0  0  0  0  0  0  0  0  0  0  0  0
  153.3829  145.3526  158.6766 H   0  0  0  0  0  0  0  0  0  0  0  0
  151.5763  145.7352  156.8992 H   0  0  0  0  0  0  0  0  0  0  0  0
  150.1137  144.0105  156.4053 H   0  0  0  0  0  0  0  0  0  0  0  0
  1  2  2  0  0  0  0
  2  3  1  0  0  0  0
  2 10  1  0  0  0  0
  3  4  1  0  0  0  0
  3 19  1  0  0  0  0
  3 20  1  0  0  0  0
  4  5  1  0  0  0  0
  4 21  1  0  0  0  0
  4 22  1  0  0  0  0
  5  9  1  0  0  0  0
  5  6  1  0  0  0  0
  5 23  1  0  0  0  0
  6  7  1  0  0  0  0
  6 24  1  0  0  0  0
  6 25  1  0  0  0  0
  7  8  1  0  0  0  0
  7 26  1  0  0  0  0
  7 27  1  0  0  0  0
  8  9  1  0  0  0  0
  8 28  1  0  0  0  0
  8 29  1  0  0  0  0
 10 11  1  0  0  0  0
 10 30  1  0  0  0  0
 11 12  1  0  0  0  0
 11 31  1  0  0  0  0
 11 32  1  0  0  0  0
 12 13  1  0  0  0  0
 12 33  1  0  0  0  0
 12 34  1  0  0  0  0
 13 18  1  0  0  0  0
 13 14  2  0  0  0  0
 14 15  1  0  0  0  0
 14 35  1  0  0  0  0
 15 16  2  0  0  0  0
 15 36  1  0  0  0  0
 16 17  1  0  0  0  0
 16 37  1  0  0  0  0
 17 18  2  0  0  0  0
 17 38  1  0  0  0  0
 18 39  1  0  0  0  0
M  CHG  1  18   1
M  END
> <s_m_source_file>
AV-unprocessed.smi

> <i_m_source_file_index>
3266

> <i_lp_mmshare_version>
43012

> <i_f3d_flags>
0

> <s_epik_input>
TzFbQ0gyXVtDSDJdW0NIMl1bQ0BIXTFbQ0gyXVtDSDJdQyg9TylbTkhdW0NIMl1bQ0gyXWMyW2NIXVtjSF1bY0hdW2NIXW4y

> <s_epik_cmdline>
J2VwaWtfcHl0aG9uJywgJy1waCcsICc3LjAnLCAnLXRuJywgJzgnLCAnLW1hJywgJzIwMCcsICctbWV0YWxfYmluZGluZycsICctaW1hZScsICc8aW5maWxlLm1hZT4nLCAnLW9tYWUnLCAnPG91dGZpbGUubWFlPic=

> <r_epik_Ionization_Penalty>
1.8495

> <r_epik_Ionization_Penalty_Charging>
1.8495

> <r_epik_Ionization_Penalty_Neutral>
1.53068e-08

> <r_epik_State_Penalty>
1.96688

> <r_epik_Charging_Adjusted_Penalty>
3.81638

> <i_epik_Tot_Q>
1

> <i_epik_Tot_abs_Q>
1

> <r_epik_Metal_State_Penalty>
1.99263

> <b_epik_Metal_Only>
0

> <s_lp_Force_Field>
OPLS_2005

> <r_lp_Energy>
20.4442

> <b_lp_Chiralities_Consistent>
1

> <s_lp_Variant>
AV-unprocessed.smi:3266-3

> <Gold.Version>
5.8.1

> <Gold.Id.Protein>
6NUR|6NUR_protein|mol2

> <Gold.PLP.Fitness>
48.5038

> <Gold.PLP.PLP>
-39.3286

> <Gold.PLP.part.hbond>
-3.0000

> <Gold.PLP.part.metal>
0.0000

> <Gold.PLP.part.buried>
-5.3203

> <Gold.PLP.part.nonpolar>
-30.7178

> <Gold.PLP.part.repulsive>
0.1049

> <Gold.PLP.ligand.clash>
0.0000

> <Gold.PLP.ligand.torsion>
1.0943

> <Gold.PLP.Chemscore.Hbond>
3.7520

> <Gold.PLP.Chemscore.CHOScore>
0.0000

> <Gold.PLP.Chemscore.Metal>
0.0000

> <Gold.Chemscore.Hbonds>
donor molecule, donor type, donor heavy atom, donor atom, acceptor molecule, acceptor atom, score
      L1  H    18    39       P1  8028  2.00
      P1  H  6931  6943       L1     9  0.18
      P1  H  6934  6947       L1     9  0.28

> <Gold.PLP.Chemscore.Internal.Correction>
0.1079

> <Gold.Rescore>
     Score         DG    S(hbond)    S(metal)    S(lipo)     H(rot)  DE(clash)    DE(int)     intcor
     18.58     -20.96       2.14        0.00     111.42       1.84       1.36       1.02       ----

> <Gold.Chemscore.Fitness>
18.5777

> <Gold.Chemscore.DG>
-20.9594

> <Gold.Chemscore.ZeroCoef>
-5.4800

> <Gold.Chemscore.Hbond>
2.1406

> <Gold.Chemscore.Metal>
0.0000

> <Gold.Chemscore.Lipo>
111.4169

> <Gold.Chemscore.Internal_Hbond>
0.0000

> <Gold.Chemscore.DEClash>
1.3583

> <Gold.Chemscore.DEInternal>
1.0235

> <Gold.Chemscore.Rot>
1.8382

> <Gold.Chemscore.Internal.Correction>
   9.000000E+99

> <Gold.Chemscore.Hbonds>
donor molecule, donor type, donor heavy atom, donor atom, acceptor molecule, acceptor atom, score
      L1  H    18    39       P1  8028  0.97
      P1  H  6931  6943       L1     9  0.19
      P1  H  6934  6947       L1     9  0.07

> <Gold.Chemscore.Hbond.Weighted>
-7.1494

> <Gold.Chemscore.Metal.Weighted>
-0.0000

> <Gold.Chemscore.Lipo.Weighted>
-13.0358

> <Gold.Chemscore.Internal_Hbond.Weighted>
0.0000

> <Gold.Chemscore.DEClash.Weighted>
1.3583

> <Gold.Chemscore.DEInternal.Weighted>
1.0235

> <Gold.Chemscore.Rot.Weighted>
4.7058

> <Gold.Chemscore.Internal.Correction.Weighted>
   9.000000E+99

> <Gold.Protein.RotatedTorsions>
[ 6907 6896 6895 6894 ] final  103.68 input  -60.11 | X-H torsion
[ 7974 7965 7964 7962 ] final  -90.77 input  175.53 | X-H torsion
[ 8008 7997 7996 7995 ] final  -77.42 input   59.86 | X-H torsion
[ 10167 10162 10161 10158 ] final   67.41 input  -65.29 | X-H torsion
[ 10718 10713 10712 10709 ] final   24.69 input   66.30 | X-H torsion
[ 10763 10752 10751 10750 ] final    1.68 input  -60.55 | X-H torsion
[ 11005 11000 10999 10996 ] final  -23.79 input  -57.11 | X-H torsion

> <Gold.Protein.ActiveResidues>
 VAL166  LYS551  ARG553  GLY616  TRP617  ASP618  TYR619  PRO620  LYS621  CYS622 
 ASP623  PHE694  ASN695  SER759  ASP760  ASP761  ALA762  ILE779  LEU786  VAL792 
 PHE793  MET794  SER795  GLU796  ALA797  LYS798  CYS799  TRP800  GLU811  SER814 

> <Gold.Protein.RotatedAtoms>
  152.5288  133.9789  159.7796 H   0  0  0  0  0  0  0  0  0  0  0  0  # atno 6907 bound_to 6896
  151.0046  133.6015  159.2697 H   0  0  0  0  0  0  0  0  0  0  0  0  # atno 6908 bound_to 6896
  151.3111  135.0801  159.9326 H   0  0  0  0  0  0  0  0  0  0  0  0  # atno 6909 bound_to 6896
  145.4220  140.9551  143.2175 H   0  0  0  0  0  0  0  0  0  0  0  0  # atno 7974 bound_to 7965
  154.5594  140.0711  156.8795 H   0  0  0  0  0  0  0  0  0  0  0  0  # atno 8008 bound_to 7997
  155.2840  140.3373  155.4238 H   0  0  0  0  0  0  0  0  0  0  0  0  # atno 8009 bound_to 7997
  156.2030  140.1729  156.7846 H   0  0  0  0  0  0  0  0  0  0  0  0  # atno 8010 bound_to 7997
  140.0898  144.4998  150.7106 H   0  0  0  0  0  0  0  0  0  0  0  0  # atno 10167 bound_to 10162
  157.1832  130.6812  149.6121 H   0  0  0  0  0  0  0  0  0  0  0  0  # atno 10718 bound_to 10713
  153.3050  135.6958  153.7168 H   0  0  0  0  0  0  0  0  0  0  0  0  # atno 10763 bound_to 10752
  153.6067  135.3452  155.2965 H   0  0  0  0  0  0  0  0  0  0  0  0  # atno 10764 bound_to 10752
  154.8560  135.4353  154.2172 H   0  0  0  0  0  0  0  0  0  0  0  0  # atno 10765 bound_to 10752
  140.8784  133.7671  156.0272 H   0  0  0  0  0  0  0  0  0  0  0  0  # atno 11005 bound_to 11000
  144.8239  139.5744  143.6974 LP  0  0  0  0  0  0  0  0  0  0  0  0  # atno 17320 bound_to 7965
  146.2651  139.6501  142.9335 LP  0  0  0  0  0  0  0  0  0  0  0  0  # atno 17321 bound_to 7965
  140.7034  143.2451  151.4797 LP  0  0  0  0  0  0  0  0  0  0  0  0  # atno 17342 bound_to 10162
  139.5731  144.1881  152.1865 LP  0  0  0  0  0  0  0  0  0  0  0  0  # atno 17343 bound_to 10162
  155.9721  130.4639  150.6200 LP  0  0  0  0  0  0  0  0  0  0  0  0  # atno 17370 bound_to 10713
  157.3932  131.0799  151.1375 LP  0  0  0  0  0  0  0  0  0  0  0  0  # atno 17371 bound_to 10713
  140.8490  134.2976  157.5283 LP  0  0  0  0  0  0  0  0  0  0  0  0  # atno 17394 bound_to 11000
  139.8717  134.9457  156.3918 LP  0  0  0  0  0  0  0  0  0  0  0  0  # atno 17395 bound_to 11000

$$$$
