#       Name:                AV-unprocessed.smi:2027
#       Creating user name   scv26
#       Creation time:       Fri Mar 27 10:47:47 2020


#       File generated by GOLD software.
#

@<TRIPOS>MOLECULE
AV-unprocessed.smi:2027
    54    56     1
SMALL
NO_CHARGES


@<TRIPOS>ATOM
      1 ****        -5.4388   3.0821   2.9715 C.3            1 S1                 0.0000
      2 ****        -4.3426   2.7474   1.9751 C.ar           1 S1                 0.0000
      3 ****        -4.6842   2.0836   0.7755 C.ar           1 S1                 0.0000
      4 ****        -3.6957   1.7561  -0.1779 C.ar           1 S1                 0.0000
      5 ****        -3.8032   1.1153  -1.4003 N.2            1 S1                 0.0000
      6 ****        -2.5392   1.1091  -1.8122 C.2            1 S1                 0.0000
      7 ****        -1.6223   1.6665  -0.9982 N.pl3          1 S1                 0.0000
      8 ****        -0.1934   1.7704  -1.2355 C.3            1 S1                 0.0000
      9 ****         0.5615   0.4817  -0.8580 C.3            1 S1                 0.0000
     10 ****         0.3720   0.2118   0.5179 O.3            1 S1                 0.0000
     11 ****         2.0742   0.6064  -1.1283 C.3            1 S1                 0.0000
     12 ****         2.7931  -0.6744  -0.9069 N.4            1 S1                 1.0000
     13 ****         4.1951  -0.4576  -0.4775 C.3            1 S1                 0.0000
     14 ****         2.6845  -1.6099  -2.0564 C.3            1 S1                 0.0000
     15 ****         2.9662  -3.0274  -1.6378 C.2            1 S1                 0.0000
     16 ****         4.1705  -3.7692  -1.8070 C.2            1 S1                 0.0000
     17 ****         4.0900  -4.9974  -1.3229 N.2            1 S1                 0.0000
     18 ****         2.8354  -5.0861  -0.8362 N.pl3          1 S1                 0.0000
     19 ****         2.3928  -6.3210  -0.2248 C.3            1 S1                 0.0000
     20 ****         2.1334  -3.9135  -1.0139 C.2            1 S1                 0.0000
     21 ****        -2.3446   2.1142   0.1032 C.ar           1 S1                 0.0000
     22 ****        -1.9920   2.7742   1.2938 C.ar           1 S1                 0.0000
     23 ****        -2.9923   3.0937   2.2358 C.ar           1 S1                 0.0000
     24 ****        -2.6016   3.8067   3.5183 C.3            1 S1                 0.0000
     25 ****        -6.4095   2.7202   2.6317 H              1 S1                 0.0000
     26 ****        -5.5132   4.1612   3.1078 H              1 S1                 0.0000
     27 ****        -5.2317   2.6234   3.9385 H              1 S1                 0.0000
     28 ****        -5.7125   1.8194   0.5765 H              1 S1                 0.0000
     29 ****        -2.2618   0.6705  -2.7597 H              1 S1                 0.0000
     30 ****        -0.0409   1.9993  -2.2912 H              1 S1                 0.0000
     31 ****         0.1941   2.6221  -0.6747 H              1 S1                 0.0000
     32 ****         0.1383  -0.3467  -1.4257 H              1 S1                 0.0000
     33 ****        -0.5568   0.1652   0.6908 H              1 S1                 0.0000
     34 ****         2.2583   0.9491  -2.1478 H              1 S1                 0.0000
     35 ****         2.4772   1.3807  -0.4731 H              1 S1                 0.0000
     36 ****         4.7727   0.0345  -1.2611 H              1 S1                 0.0000
     37 ****         4.6856  -1.3994  -0.2317 H              1 S1                 0.0000
     38 ****         4.2326   0.1659   0.4164 H              1 S1                 0.0000
     39 ****         1.6860  -1.5537  -2.4885 H              1 S1                 0.0000
     40 ****         3.3616  -1.2864  -2.8482 H              1 S1                 0.0000
     41 ****         5.0970  -3.4507  -2.2617 H              1 S1                 0.0000
     42 ****         1.3849  -6.2014   0.1729 H              1 S1                 0.0000
     43 ****         3.0646  -6.5927   0.5898 H              1 S1                 0.0000
     44 ****         2.3878  -7.1190  -0.9676 H              1 S1                 0.0000
     45 ****         1.1102  -3.8069  -0.6843 H              1 S1                 0.0000
     46 ****        -0.9601   3.0317   1.4812 H              1 S1                 0.0000
     47 ****        -1.5329   4.0217   3.5451 H              1 S1                 0.0000
     48 ****        -2.8407   3.1907   4.3854 H              1 S1                 0.0000
     49 ****        -3.1348   4.7534   3.6078 H              1 S1                 0.0000
     50 ****         2.3262  -1.1145  -0.1264 H              1 S1                 0.0000
     51 ****        -4.6172   0.7526  -1.8540 LP             1 S1                 0.0000
     52 ****         0.7802   0.9432   1.0641 LP             1 S1                 0.0000
     53 ****         0.8026  -0.6596   0.7528 LP             1 S1                 0.0000
     54 ****         4.7998  -5.7018  -1.3187 LP             1 S1                 0.0000
@<TRIPOS>BOND
    1    1    2 1     
    2    1   25 1     
    3    1   26 1     
    4    1   27 1     
    5    2   23 ar    
    6    2    3 ar    
    7    3    4 ar    
    8    3   28 1     
    9    4   21 ar    
   10    4    5 1     
   11    5    6 2     
   12    6    7 1     
   13    6   29 1     
   14    7    8 1     
   15    7   21 1     
   16    8    9 1     
   17    8   30 1     
   18    8   31 1     
   19    9   10 1     
   20    9   11 1     
   21    9   32 1     
   22   10   33 1     
   23   11   12 1     
   24   11   34 1     
   25   11   35 1     
   26   12   13 1     
   27   12   14 1     
   28   12   50 1     
   29   13   36 1     
   30   13   37 1     
   31   13   38 1     
   32   14   15 1     
   33   14   39 1     
   34   14   40 1     
   35   15   20 2     
   36   15   16 1     
   37   16   17 2     
   38   16   41 1     
   39   17   18 1     
   40   18   19 1     
   41   18   20 1     
   42   19   42 1     
   43   19   43 1     
   44   19   44 1     
   45   20   45 1     
   46   21   22 ar    
   47   22   23 ar    
   48   22   46 1     
   49   23   24 1     
   50   24   47 1     
   51   24   48 1     
   52   24   49 1     
   53    5   51 1     
   54   10   52 1     
   55   10   53 1     
   56   17   54 1     
@<TRIPOS>SUBSTRUCTURE
      1 S1             1
@<TRIPOS>SET
LONE_PAIRS      STATIC     ATOMS    <user>   **** ""
4 51 52 53 54
DONOR_HYDROGENS      STATIC     ATOMS    <user>   **** ""
2 33 50
ATOM$BLUE        STATIC     ATOMS    COLORGROUP SYSTEM
4 51 52 53 54
ATOM$RED        STATIC     ATOMS    COLORGROUP SYSTEM
2 33 50
