AV-unprocessed.smi:2068|AV-procd|sdf|8428|dock4
  -GOLD-   2272011123D 1   1.00000     0.00000
 Structure written by MMmdl.
 33 34  0  0  0  0  0  0  0  0  1 V2000
  147.9997  139.1643  151.1743 N   0  0  0  0  0  0  0  0  0  0  0  0
  147.5356  139.5044  152.3799 C   0  0  0  0  0  0  0  0  0  0  0  0
  146.6492  138.8688  152.9472 O   0  0  0  0  0  0  0  0  0  0  0  0
  148.1571  140.7331  153.0465 C   0  0  0  0  0  0  0  0  0  0  0  0
  149.3312  140.3292  153.8901 C   0  0  0  0  0  0  0  0  0  0  0  0
  150.2416  139.3370  153.6158 C   0  0  0  0  0  0  0  0  0  0  0  0
  151.4517  139.1954  154.8627 S   0  0  0  0  0  0  0  0  0  0  0  0
  150.6636  140.5090  155.7224 C   0  0  0  0  0  0  0  0  0  0  0  0
  151.1447  140.9876  156.9689 N   0  0  0  0  0  0  0  0  0  0  0  0
  152.2359  140.5902  157.6499 C   0  0  0  0  0  0  0  0  0  0  0  0
  153.0013  139.6968  157.2857 O   0  0  0  0  0  0  0  0  0  0  0  0
  152.5055  141.3259  158.9675 C   0  0  0  0  0  0  0  0  0  0  0  0
  151.6226  142.5770  159.1681 C   0  0  1  0  0  0  0  0  0  0  0  0
  151.8768  143.2927  160.4731 C   0  0  0  0  0  0  0  0  0  0  0  0
  152.1642  144.5813  160.3062 C   0  0  0  0  0  0  0  0  0  0  0  0
  152.1627  144.9892  158.8593 C   0  0  0  0  0  0  0  0  0  0  0  0
  151.8716  143.6743  158.1014 C   0  0  0  0  0  0  0  0  0  0  0  0
  149.5880  140.9950  155.0934 N   0  0  0  0  0  0  0  0  0  0  0  0
  147.6097  138.3673  150.6926 H   0  0  0  0  0  0  0  0  0  0  0  0
  148.7305  139.7123  150.7435 H   0  0  0  0  0  0  0  0  0  0  0  0
  148.4647  141.4410  152.2757 H   0  0  0  0  0  0  0  0  0  0  0  0
  147.4019  141.2428  153.6468 H   0  0  0  0  0  0  0  0  0  0  0  0
  150.2703  138.6805  152.7588 H   0  0  0  0  0  0  0  0  0  0  0  0
  150.6064  141.7341  157.3840 H   0  0  0  0  0  0  0  0  0  0  0  0
  152.3656  140.6407  159.8054 H   0  0  0  0  0  0  0  0  0  0  0  0
  153.5568  141.6152  158.9808 H   0  0  0  0  0  0  0  0  0  0  0  0
  150.5694  142.2922  159.1509 H   0  0  0  0  0  0  0  0  0  0  0  0
  151.8109  142.7932  161.4288 H   0  0  0  0  0  0  0  0  0  0  0  0
  152.3697  145.2817  161.1021 H   0  0  0  0  0  0  0  0  0  0  0  0
  151.3895  145.7375  158.6831 H   0  0  0  0  0  0  0  0  0  0  0  0
  153.1284  145.4122  158.5807 H   0  0  0  0  0  0  0  0  0  0  0  0
  152.7202  143.4190  157.4655 H   0  0  0  0  0  0  0  0  0  0  0  0
  151.0068  143.7840  157.4458 H   0  0  0  0  0  0  0  0  0  0  0  0
  1  2  1  0  0  0  0
  1 19  1  0  0  0  0
  1 20  1  0  0  0  0
  2  3  2  0  0  0  0
  2  4  1  0  0  0  0
  4  5  1  0  0  0  0
  4 21  1  0  0  0  0
  4 22  1  0  0  0  0
  5 18  1  0  0  0  0
  5  6  2  0  0  0  0
  6  7  1  0  0  0  0
  6 23  1  0  0  0  0
  7  8  1  0  0  0  0
  8  9  1  0  0  0  0
  8 18  2  0  0  0  0
  9 10  1  0  0  0  0
  9 24  1  0  0  0  0
 10 11  2  0  0  0  0
 10 12  1  0  0  0  0
 12 13  1  0  0  0  0
 12 25  1  0  0  0  0
 12 26  1  0  0  0  0
 13 17  1  0  0  0  0
 13 14  1  0  0  0  0
 13 27  1  0  0  0  0
 14 15  2  0  0  0  0
 14 28  1  0  0  0  0
 15 16  1  0  0  0  0
 15 29  1  0  0  0  0
 16 17  1  0  0  0  0
 16 30  1  0  0  0  0
 16 31  1  0  0  0  0
 17 32  1  0  0  0  0
 17 33  1  0  0  0  0
M  END
> <s_m_source_file>
AV-unprocessed.smi

> <i_m_source_file_index>
2068

> <i_lp_mmshare_version>
43012

> <i_f3d_flags>
0

> <s_epik_input>
W05IMl1DKD1PKVtDSDJdYzFbY0hdc2MobjEpW05IXUMoPU8pW0NIMl1bQ0BASF0yW0NIXT1bQ0hdW0NIMl1bQ0gyXTI=

> <s_epik_cmdline>
J2VwaWtfcHl0aG9uJywgJy1waCcsICc3LjAnLCAnLXRuJywgJzgnLCAnLW1hJywgJzIwMCcsICctbWV0YWxfYmluZGluZycsICctaW1hZScsICc8aW5maWxlLm1hZT4nLCAnLW9tYWUnLCAnPG91dGZpbGUubWFlPic=

> <r_lp_tautomer_probability>
1

> <r_epik_Ionization_Penalty>
0.000253249

> <r_epik_Ionization_Penalty_Charging>
0

> <r_epik_Ionization_Penalty_Neutral>
0.000253249

> <r_epik_State_Penalty>
-0

> <r_epik_Charging_Adjusted_Penalty>
0

> <i_epik_Tot_Q>
0

> <i_epik_Tot_abs_Q>
0

> <r_epik_Metal_State_Penalty>
0.148671

> <b_epik_Metal_Only>
0

> <s_lp_Force_Field>
OPLS_2005

> <r_lp_Energy>
16.4011

> <b_lp_Chiralities_Consistent>
1

> <s_lp_Variant>
AV-unprocessed.smi:2068-2

> <Gold.Version>
5.8.1

> <Gold.Id.Protein>
6NUR|6NUR_protein|mol2

> <Gold.PLP.Fitness>
46.4390

> <Gold.PLP.PLP>
-37.9459

> <Gold.PLP.part.hbond>
-3.0000

> <Gold.PLP.part.metal>
0.0000

> <Gold.PLP.part.buried>
-1.8080

> <Gold.PLP.part.nonpolar>
-33.8079

> <Gold.PLP.part.repulsive>
0.6704

> <Gold.PLP.ligand.clash>
0.0000

> <Gold.PLP.ligand.torsion>
0.8204

> <Gold.PLP.Chemscore.Hbond>
1.9760

> <Gold.PLP.Chemscore.CHOScore>
1.3906

> <Gold.PLP.Chemscore.Metal>
0.0000

> <Gold.Chemscore.Hbonds>
donor molecule, donor type, donor heavy atom, donor atom, acceptor molecule, acceptor atom, score
      P1  H  7997  8010       L1    11  1.00
      L1  C     6    23       P1  7948  0.15
      L1  C     6    23       P1  7957  0.45

> <Gold.PLP.Chemscore.Internal.Correction>
0.0339

> <Gold.Rescore>
     Score         DG    S(hbond)    S(metal)    S(lipo)     H(rot)  DE(clash)    DE(int)     intcor
     14.72     -16.94       1.75        0.00      96.13       2.21       0.21       2.01       ----

> <Gold.Chemscore.Fitness>
14.7231

> <Gold.Chemscore.DG>
-16.9428

> <Gold.Chemscore.ZeroCoef>
-5.4800

> <Gold.Chemscore.Hbond>
1.7549

> <Gold.Chemscore.Metal>
0.0000

> <Gold.Chemscore.Lipo>
96.1297

> <Gold.Chemscore.Internal_Hbond>
0.0000

> <Gold.Chemscore.DEClash>
0.2078

> <Gold.Chemscore.DEInternal>
2.0119

> <Gold.Chemscore.Rot>
2.2053

> <Gold.Chemscore.Internal.Correction>
   9.000000E+99

> <Gold.Chemscore.Hbonds>
donor molecule, donor type, donor heavy atom, donor atom, acceptor molecule, acceptor atom, score
      P1  H  7997  8010       L1    11  0.95

> <Gold.Chemscore.Hbond.Weighted>
-5.8612

> <Gold.Chemscore.Metal.Weighted>
-0.0000

> <Gold.Chemscore.Lipo.Weighted>
-11.2472

> <Gold.Chemscore.Internal_Hbond.Weighted>
0.0000

> <Gold.Chemscore.DEClash.Weighted>
0.2078

> <Gold.Chemscore.DEInternal.Weighted>
2.0119

> <Gold.Chemscore.Rot.Weighted>
5.6456

> <Gold.Chemscore.Internal.Correction.Weighted>
   9.000000E+99

> <Gold.Protein.RotatedTorsions>
[ 6907 6896 6895 6894 ] final   17.88 input  -60.11 | X-H torsion
[ 7974 7965 7964 7962 ] final   -1.40 input  175.53 | X-H torsion
[ 8008 7997 7996 7995 ] final   43.19 input   59.86 | X-H torsion
[ 10167 10162 10161 10158 ] final -143.99 input  -65.29 | X-H torsion
[ 10718 10713 10712 10709 ] final   -5.97 input   66.30 | X-H torsion
[ 10763 10752 10751 10750 ] final   12.41 input  -60.55 | X-H torsion
[ 11005 11000 10999 10996 ] final   45.42 input  -57.11 | X-H torsion

> <Gold.Protein.ActiveResidues>
 VAL166  LYS551  ARG553  GLY616  TRP617  ASP618  TYR619  PRO620  LYS621  CYS622 
 ASP623  PHE694  ASN695  SER759  ASP760  ASP761  ALA762  ILE779  LEU786  VAL792 
 PHE793  MET794  SER795  GLU796  ALA797  LYS798  CYS799  TRP800  GLU811  SER814 

> <Gold.Protein.RotatedAtoms>
  151.8565  135.0539  160.0464 H   0  0  0  0  0  0  0  0  0  0  0  0  # atno 6907 bound_to 6896
  152.2696  133.5366  159.5439 H   0  0  0  0  0  0  0  0  0  0  0  0  # atno 6908 bound_to 6896
  150.7146  134.0632  159.3881 H   0  0  0  0  0  0  0  0  0  0  0  0  # atno 6909 bound_to 6896
  146.2417  140.1415  142.8335 H   0  0  0  0  0  0  0  0  0  0  0  0  # atno 7974 bound_to 7965
  155.2986  140.3383  155.4249 H   0  0  0  0  0  0  0  0  0  0  0  0  # atno 8008 bound_to 7997
  156.2012  140.1733  156.7934 H   0  0  0  0  0  0  0  0  0  0  0  0  # atno 8009 bound_to 7997
  154.5562  140.0696  156.8730 H   0  0  0  0  0  0  0  0  0  0  0  0  # atno 8010 bound_to 7997
  139.7941  143.7925  152.2652 H   0  0  0  0  0  0  0  0  0  0  0  0  # atno 10167 bound_to 10162
  156.7387  130.5203  149.5829 H   0  0  0  0  0  0  0  0  0  0  0  0  # atno 10718 bound_to 10713
  153.1826  135.6830  153.8458 H   0  0  0  0  0  0  0  0  0  0  0  0  # atno 10763 bound_to 10752
  153.7785  135.3186  155.3363 H   0  0  0  0  0  0  0  0  0  0  0  0  # atno 10764 bound_to 10752
  154.8069  135.4743  154.0510 H   0  0  0  0  0  0  0  0  0  0  0  0  # atno 10765 bound_to 10752
  140.1462  134.4520  155.8414 H   0  0  0  0  0  0  0  0  0  0  0  0  # atno 11005 bound_to 11000
  145.0243  140.8819  143.5148 LP  0  0  0  0  0  0  0  0  0  0  0  0  # atno 17320 bound_to 7965
  145.1468  139.2538  143.5461 LP  0  0  0  0  0  0  0  0  0  0  0  0  # atno 17321 bound_to 7965
  139.8025  144.7368  150.9806 LP  0  0  0  0  0  0  0  0  0  0  0  0  # atno 17342 bound_to 10162
  140.7820  143.4331  151.0664 LP  0  0  0  0  0  0  0  0  0  0  0  0  # atno 17343 bound_to 10162
  156.1479  130.6290  151.0556 LP  0  0  0  0  0  0  0  0  0  0  0  0  # atno 17370 bound_to 10713
  157.6828  131.0833  150.7324 LP  0  0  0  0  0  0  0  0  0  0  0  0  # atno 17371 bound_to 10713
  141.2193  133.6853  156.7337 LP  0  0  0  0  0  0  0  0  0  0  0  0  # atno 17394 bound_to 11000
  140.2661  134.8429  157.3804 LP  0  0  0  0  0  0  0  0  0  0  0  0  # atno 17395 bound_to 11000

$$$$
