AV-unprocessed.smi:1626|AV-procd|sdf|6510|dock8
  -GOLD-   22720 7183D 1   1.00000     0.00000
 Structure written by MMmdl.
 49 51  0  0  0  0  0  0  0  0  3 V2000
  152.8384  144.1452  161.9614 C   0  0  0  0  0  0  0  0  0  0  0  0
  152.4555  143.4397  160.6716 C   0  0  0  0  0  0  0  0  0  0  0  0
  152.5552  142.0308  160.6183 C   0  0  0  0  0  0  0  0  0  0  0  0
  152.1942  141.4140  159.4265 C   0  0  0  0  0  0  0  0  0  0  0  0
  152.1744  140.0657  159.0622 N   0  3  0  0  0  0  0  0  0  0  0  0
  151.7361  139.9480  157.7780 C   0  0  0  0  0  0  0  0  0  0  0  0
  151.4878  141.2032  157.3130 N   0  0  0  0  0  0  0  0  0  0  0  0
  150.9924  141.6465  156.0033 C   0  0  0  0  0  0  0  0  0  0  0  0
  150.1215  140.5923  155.2887 C   0  0  2  0  0  0  0  0  0  0  0  0
  150.9770  139.8442  154.4490 O   0  0  0  0  0  0  0  0  0  0  0  0
  148.9881  141.2079  154.4379 C   0  0  0  0  0  0  0  0  0  0  0  0
  148.3444  140.2188  153.5352 N   0  3  2  0  0  0  0  0  0  0  0  0
  147.2983  140.8365  152.6791 C   0  0  0  0  0  0  0  0  0  0  0  0
  146.7501  139.8278  151.6558 C   0  0  0  0  0  0  0  0  0  0  0  0
  146.2067  138.5751  152.3584 C   0  0  1  0  0  0  0  0  0  0  0  0
  145.8055  137.6268  151.3930 O   0  0  0  0  0  0  0  0  0  0  0  0
  147.2928  137.9711  153.2606 C   0  0  0  0  0  0  0  0  0  0  0  0
  147.8273  139.0203  154.2502 C   0  0  0  0  0  0  0  0  0  0  0  0
  151.7489  142.1485  158.3105 C   0  0  0  0  0  0  0  0  0  0  0  0
  151.6426  143.5365  158.3461 C   0  0  0  0  0  0  0  0  0  0  0  0
  152.0064  144.1827  159.5492 C   0  0  0  0  0  0  0  0  0  0  0  0
  151.9036  145.6970  159.6172 C   0  0  0  0  0  0  0  0  0  0  0  0
  153.1173  143.4329  162.7384 H   0  0  0  0  0  0  0  0  0  0  0  0
  152.0035  144.7367  162.3381 H   0  0  0  0  0  0  0  0  0  0  0  0
  153.6873  144.8091  161.7966 H   0  0  0  0  0  0  0  0  0  0  0  0
  152.8942  141.4587  161.4697 H   0  0  0  0  0  0  0  0  0  0  0  0
  151.6097  139.0257  157.2289 H   0  0  0  0  0  0  0  0  0  0  0  0
  150.4203  142.5613  156.1664 H   0  0  0  0  0  0  0  0  0  0  0  0
  151.8524  141.9242  155.3919 H   0  0  0  0  0  0  0  0  0  0  0  0
  149.7136  139.9136  156.0362 H   0  0  0  0  0  0  0  0  0  0  0  0
  151.6131  139.3899  154.9799 H   0  0  0  0  0  0  0  0  0  0  0  0
  148.2178  141.6508  155.0702 H   0  0  0  0  0  0  0  0  0  0  0  0
  149.4058  142.0296  153.8538 H   0  0  0  0  0  0  0  0  0  0  0  0
  146.4895  141.2166  153.3056 H   0  0  0  0  0  0  0  0  0  0  0  0
  147.7157  141.6917  152.1458 H   0  0  0  0  0  0  0  0  0  0  0  0
  145.9653  140.2945  151.0592 H   0  0  0  0  0  0  0  0  0  0  0  0
  147.5443  139.5502  150.9608 H   0  0  0  0  0  0  0  0  0  0  0  0
  145.3357  138.8405  152.9592 H   0  0  0  0  0  0  0  0  0  0  0  0
  145.1942  138.0369  150.7996 H   0  0  0  0  0  0  0  0  0  0  0  0
  146.8942  137.1151  153.8068 H   0  0  0  0  0  0  0  0  0  0  0  0
  148.1167  137.5948  152.6519 H   0  0  0  0  0  0  0  0  0  0  0  0
  148.6124  138.5666  154.8540 H   0  0  0  0  0  0  0  0  0  0  0  0
  147.0362  139.3201  154.9394 H   0  0  0  0  0  0  0  0  0  0  0  0
  151.2943  144.1016  157.4941 H   0  0  0  0  0  0  0  0  0  0  0  0
  151.5832  146.1184  158.6641 H   0  0  0  0  0  0  0  0  0  0  0  0
  152.8695  146.1371  159.8665 H   0  0  0  0  0  0  0  0  0  0  0  0
  151.1792  145.9971  160.3747 H   0  0  0  0  0  0  0  0  0  0  0  0
  149.0647  139.8996  152.9034 H   0  0  0  0  0  0  0  0  0  0  0  0
  152.4313  139.2816  159.6485 H   0  0  0  0  0  0  0  0  0  0  0  0
  1  2  1  0  0  0  0
  1 23  1  0  0  0  0
  1 24  1  0  0  0  0
  1 25  1  0  0  0  0
  2 21  1  0  0  0  0
  2  3  2  0  0  0  0
  3  4  1  0  0  0  0
  3 26  1  0  0  0  0
  4 19  2  0  0  0  0
  4  5  1  0  0  0  0
  5  6  2  0  0  0  0
  5 49  1  0  0  0  0
  6  7  1  0  0  0  0
  6 27  1  0  0  0  0
  7  8  1  0  0  0  0
  7 19  1  0  0  0  0
  8  9  1  0  0  0  0
  8 28  1  0  0  0  0
  8 29  1  0  0  0  0
  9 10  1  0  0  0  0
  9 11  1  0  0  0  0
  9 30  1  0  0  0  0
 10 31  1  0  0  0  0
 11 12  1  0  0  0  0
 11 32  1  0  0  0  0
 11 33  1  0  0  0  0
 12 18  1  0  0  0  0
 12 13  1  0  0  0  0
 12 48  1  0  0  0  0
 13 14  1  0  0  0  0
 13 34  1  0  0  0  0
 13 35  1  0  0  0  0
 14 15  1  0  0  0  0
 14 36  1  0  0  0  0
 14 37  1  0  0  0  0
 15 16  1  0  0  0  0
 15 17  1  0  0  0  0
 15 38  1  0  0  0  0
 16 39  1  0  0  0  0
 17 18  1  0  0  0  0
 17 40  1  0  0  0  0
 17 41  1  0  0  0  0
 18 42  1  0  0  0  0
 18 43  1  0  0  0  0
 19 20  1  0  0  0  0
 20 21  2  0  0  0  0
 20 44  1  0  0  0  0
 21 22  1  0  0  0  0
 22 45  1  0  0  0  0
 22 46  1  0  0  0  0
 22 47  1  0  0  0  0
M  CHG  1   5   1
M  CHG  1  12   1
M  END
> <s_m_source_file>
AV-unprocessed.smi

> <i_m_source_file_index>
1626

> <i_lp_mmshare_version>
43012

> <i_f3d_flags>
0

> <s_epik_input>
W0NIM11jKFtjSF0xKWMoW0NIM10pW2NIXWMoYzEyKW4oW2NIXW4yKVtDSDJdW0NASF0oW09IXSlbQ0gyXU4zW0NIMl1bQ0gyXVtDSF0oW09IXSlbQ0gyXVtDSDJdMw==

> <s_epik_cmdline>
J2VwaWtfcHl0aG9uJywgJy1waCcsICc3LjAnLCAnLXRuJywgJzgnLCAnLW1hJywgJzIwMCcsICctbWV0YWxfYmluZGluZycsICctaW1hZScsICc8aW5maWxlLm1hZT4nLCAnLW9tYWUnLCAnPG91dGZpbGUubWFlPic=

> <r_epik_Ionization_Penalty>
1.19369

> <r_epik_Ionization_Penalty_Charging>
1.19369

> <r_epik_Ionization_Penalty_Neutral>
1.68219e-06

> <r_epik_State_Penalty>
1.27429

> <r_epik_Charging_Adjusted_Penalty>
2.46798

> <i_epik_Tot_Q>
2

> <i_epik_Tot_abs_Q>
2

> <r_epik_Metal_State_Penalty>
5.29157

> <b_epik_Metal_Only>
0

> <s_lp_Force_Field>
OPLS_2005

> <r_lp_Energy>
33.2617

> <b_lp_Chiralities_Consistent>
1

> <s_lp_Variant>
AV-unprocessed.smi:1626-5

> <Gold.Version>
5.8.1

> <Gold.Id.Protein>
6NUR|6NUR_protein|mol2

> <Gold.PLP.Fitness>
53.4543

> <Gold.PLP.PLP>
-46.3277

> <Gold.PLP.part.hbond>
-3.0909

> <Gold.PLP.part.metal>
0.0000

> <Gold.PLP.part.buried>
-0.8626

> <Gold.PLP.part.nonpolar>
-43.1858

> <Gold.PLP.part.repulsive>
0.2112

> <Gold.PLP.ligand.clash>
0.0000

> <Gold.PLP.ligand.torsion>
0.8893

> <Gold.PLP.Chemscore.Hbond>
2.9600

> <Gold.PLP.Chemscore.CHOScore>
0.0000

> <Gold.PLP.Chemscore.Metal>
0.0000

> <Gold.Chemscore.Hbonds>
donor molecule, donor type, donor heavy atom, donor atom, acceptor molecule, acceptor atom, score
      L1  H    12    48       P1  7957  0.83
      L1  H    16    39       P1 10171  1.00
      P1  H  7989  7998       L1    10  1.00

> <Gold.PLP.Chemscore.Internal.Correction>
0.0253

> <Gold.Rescore>
     Score         DG    S(hbond)    S(metal)    S(lipo)     H(rot)  DE(clash)    DE(int)     intcor
     20.05     -23.46       2.54        0.00     141.07       2.74       2.38       1.03       ----

> <Gold.Chemscore.Fitness>
20.0491

> <Gold.Chemscore.DG>
-23.4624

> <Gold.Chemscore.ZeroCoef>
-5.4800

> <Gold.Chemscore.Hbond>
2.5411

> <Gold.Chemscore.Metal>
0.0000

> <Gold.Chemscore.Lipo>
141.0717

> <Gold.Chemscore.Internal_Hbond>
0.0000

> <Gold.Chemscore.DEClash>
2.3848

> <Gold.Chemscore.DEInternal>
1.0286

> <Gold.Chemscore.Rot>
2.7384

> <Gold.Chemscore.Internal.Correction>
   9.000000E+99

> <Gold.Chemscore.Hbonds>
donor molecule, donor type, donor heavy atom, donor atom, acceptor molecule, acceptor atom, score
      L1  H    12    48       P1  7957  0.81
      L1  H    16    39       P1 10171  1.00
      P1  H  7989  7998       L1    10  0.43

> <Gold.Chemscore.Hbond.Weighted>
-8.4874

> <Gold.Chemscore.Metal.Weighted>
-0.0000

> <Gold.Chemscore.Lipo.Weighted>
-16.5054

> <Gold.Chemscore.Internal_Hbond.Weighted>
0.0000

> <Gold.Chemscore.DEClash.Weighted>
2.3848

> <Gold.Chemscore.DEInternal.Weighted>
1.0286

> <Gold.Chemscore.Rot.Weighted>
7.0103

> <Gold.Chemscore.Internal.Correction.Weighted>
   9.000000E+99

> <Gold.Protein.RotatedTorsions>
[ 6907 6896 6895 6894 ] final  -58.95 input  -60.11 | X-H torsion
[ 7974 7965 7964 7962 ] final  -93.06 input  175.53 | X-H torsion
[ 8008 7997 7996 7995 ] final  -37.80 input   59.86 | X-H torsion
[ 10167 10162 10161 10158 ] final  -55.74 input  -65.29 | X-H torsion
[ 10718 10713 10712 10709 ] final   64.35 input   66.30 | X-H torsion
[ 10763 10752 10751 10750 ] final  -10.12 input  -60.55 | X-H torsion
[ 11005 11000 10999 10996 ] final -130.57 input  -57.11 | X-H torsion

> <Gold.Protein.ActiveResidues>
 VAL166  LYS551  ARG553  GLY616  TRP617  ASP618  TYR619  PRO620  LYS621  CYS622 
 ASP623  PHE694  ASN695  SER759  ASP760  ASP761  ALA762  ILE779  LEU786  VAL792 
 PHE793  MET794  SER795  GLU796  ALA797  LYS798  CYS799  TRP800  GLU811  SER814 

> <Gold.Protein.RotatedAtoms>
  150.7967  134.7032  159.6561 H   0  0  0  0  0  0  0  0  0  0  0  0  # atno 6907 bound_to 6896
  152.4080  134.6170  160.0050 H   0  0  0  0  0  0  0  0  0  0  0  0  # atno 6908 bound_to 6896
  151.6422  133.3288  159.3169 H   0  0  0  0  0  0  0  0  0  0  0  0  # atno 6909 bound_to 6896
  145.3915  140.9528  143.2338 H   0  0  0  0  0  0  0  0  0  0  0  0  # atno 7974 bound_to 7965
  154.4047  140.1595  156.2595 H   0  0  0  0  0  0  0  0  0  0  0  0  # atno 8008 bound_to 7997
  155.9049  140.3431  155.6032 H   0  0  0  0  0  0  0  0  0  0  0  0  # atno 8009 bound_to 7997
  155.7405  140.0792  157.2238 H   0  0  0  0  0  0  0  0  0  0  0  0  # atno 8010 bound_to 7997
  140.6357  143.2481  151.5123 H   0  0  0  0  0  0  0  0  0  0  0  0  # atno 10167 bound_to 10162
  157.6033  130.9155  149.9834 H   0  0  0  0  0  0  0  0  0  0  0  0  # atno 10718 bound_to 10713
  153.4646  135.7016  153.6030 H   0  0  0  0  0  0  0  0  0  0  0  0  # atno 10763 bound_to 10752
  153.4310  135.3802  155.2170 H   0  0  0  0  0  0  0  0  0  0  0  0  # atno 10764 bound_to 10752
  154.8726  135.3951  154.4076 H   0  0  0  0  0  0  0  0  0  0  0  0  # atno 10765 bound_to 10752
  140.9334  134.1289  157.4215 H   0  0  0  0  0  0  0  0  0  0  0  0  # atno 11005 bound_to 11000
  144.8437  139.5431  143.6888 LP  0  0  0  0  0  0  0  0  0  0  0  0  # atno 17320 bound_to 7965
  146.2795  139.6840  142.9239 LP  0  0  0  0  0  0  0  0  0  0  0  0  # atno 17321 bound_to 7965
  139.5568  144.2256  152.1625 LP  0  0  0  0  0  0  0  0  0  0  0  0  # atno 17342 bound_to 10162
  140.1512  144.5113  150.6686 LP  0  0  0  0  0  0  0  0  0  0  0  0  # atno 17343 bound_to 10162
  156.1112  130.3650  150.0045 LP  0  0  0  0  0  0  0  0  0  0  0  0  # atno 17370 bound_to 10713
  156.8143  130.9336  151.3643 LP  0  0  0  0  0  0  0  0  0  0  0  0  # atno 17371 bound_to 10713
  139.8802  135.0012  156.6057 LP  0  0  0  0  0  0  0  0  0  0  0  0  # atno 17394 bound_to 11000
  140.7832  133.8643  155.8585 LP  0  0  0  0  0  0  0  0  0  0  0  0  # atno 17395 bound_to 11000

$$$$
