AV-unprocessed.smi:1603|AV-procd|sdf|6444|dock7
  -GOLD-   22720 7 93D 1   1.00000     0.00000
 Structure written by MMmdl.
 45 47  0  0  0  0  0  0  0  0  2 V2000
  153.2933  139.4172  158.5055 O   0  0  0  0  0  0  0  0  0  0  0  0
  153.0270  140.5108  159.0046 C   0  0  0  0  0  0  0  0  0  0  0  0
  153.6927  141.0403  160.2044 C   0  0  0  0  0  0  0  0  0  0  0  0
  154.7475  140.1690  160.8813 C   0  0  0  0  0  0  0  0  0  0  0  0
  155.9193  140.2307  160.2473 F   0  0  0  0  0  0  0  0  0  0  0  0
  154.9449  140.5607  162.1405 F   0  0  0  0  0  0  0  0  0  0  0  0
  154.3581  138.8940  160.8975 F   0  0  0  0  0  0  0  0  0  0  0  0
  153.3590  142.2641  160.6819 C   0  0  0  0  0  0  0  0  0  0  0  0
  152.3477  143.0594  160.0150 C   0  0  0  0  0  0  0  0  0  0  0  0
  151.9349  144.4242  160.4866 C   0  0  0  0  0  0  0  0  0  0  0  0
  150.6857  145.1079  159.9795 C   0  0  0  0  0  0  0  0  0  0  0  0
  152.0474  145.6402  159.5971 C   0  0  0  0  0  0  0  0  0  0  0  0
  151.7624  142.5906  158.9646 N   0  0  0  0  0  0  0  0  0  0  0  0
  152.0834  141.3411  158.4712 N   0  0  0  0  0  0  0  0  0  0  0  0
  151.3284  140.9625  157.2701 C   0  0  0  0  0  0  0  0  0  0  0  0
  150.2099  141.9789  156.9501 C   0  0  1  0  0  0  0  0  0  0  0  0
  150.3729  142.4238  155.6170 O   0  0  0  0  0  0  0  0  0  0  0  0
  148.8120  141.3331  157.0436 C   0  0  0  0  0  0  0  0  0  0  0  0
  147.7663  142.1226  156.3438 N   0  3  0  0  0  0  0  0  0  0  0  0
  147.5351  141.6530  154.9568 C   0  0  0  0  0  0  0  0  0  0  0  0
  146.4924  142.5392  154.2547 C   0  0  0  0  0  0  0  0  0  0  0  0
  145.2853  142.5416  155.0065 O   0  0  0  0  0  0  0  0  0  0  0  0
  145.4736  143.0724  156.3124 C   0  0  0  0  0  0  0  0  0  0  0  0
  146.4819  142.2035  157.0832 C   0  0  0  0  0  0  0  0  0  0  0  0
  153.8365  142.6697  161.5612 H   0  0  0  0  0  0  0  0  0  0  0  0
  152.1738  144.5561  161.5403 H   0  0  0  0  0  0  0  0  0  0  0  0
  150.1075  144.6170  159.1987 H   0  0  0  0  0  0  0  0  0  0  0  0
  150.1046  145.6847  160.6959 H   0  0  0  0  0  0  0  0  0  0  0  0
  152.3716  146.5706  160.0589 H   0  0  0  0  0  0  0  0  0  0  0  0
  152.3710  145.4931  158.5683 H   0  0  0  0  0  0  0  0  0  0  0  0
  151.9822  140.8051  156.4097 H   0  0  0  0  0  0  0  0  0  0  0  0
  150.8823  139.9833  157.4552 H   0  0  0  0  0  0  0  0  0  0  0  0
  150.2819  142.8292  157.6279 H   0  0  0  0  0  0  0  0  0  0  0  0
  149.7788  143.1443  155.4647 H   0  0  0  0  0  0  0  0  0  0  0  0
  148.8640  140.3313  156.6131 H   0  0  0  0  0  0  0  0  0  0  0  0
  148.5179  141.2005  158.0859 H   0  0  0  0  0  0  0  0  0  0  0  0
  148.4702  141.6760  154.3961 H   0  0  0  0  0  0  0  0  0  0  0  0
  147.1952  140.6162  154.9725 H   0  0  0  0  0  0  0  0  0  0  0  0
  146.8632  143.5587  154.1351 H   0  0  0  0  0  0  0  0  0  0  0  0
  146.2855  142.1563  153.2553 H   0  0  0  0  0  0  0  0  0  0  0  0
  145.8159  144.1069  156.2527 H   0  0  0  0  0  0  0  0  0  0  0  0
  144.5146  143.0842  156.8306 H   0  0  0  0  0  0  0  0  0  0  0  0
  146.0757  141.2005  157.2238 H   0  0  0  0  0  0  0  0  0  0  0  0
  146.6347  142.6277  158.0747 H   0  0  0  0  0  0  0  0  0  0  0  0
  148.1264  143.0637  156.2671 H   0  0  0  0  0  0  0  0  0  0  0  0
  1  2  2  0  0  0  0
  2 14  1  0  0  0  0
  2  3  1  0  0  0  0
  3  4  1  0  0  0  0
  3  8  2  0  0  0  0
  4  5  1  0  0  0  0
  4  6  1  0  0  0  0
  4  7  1  0  0  0  0
  8  9  1  0  0  0  0
  8 25  1  0  0  0  0
  9 10  1  0  0  0  0
  9 13  2  0  0  0  0
 10 12  1  0  0  0  0
 10 11  1  0  0  0  0
 10 26  1  0  0  0  0
 11 12  1  0  0  0  0
 11 27  1  0  0  0  0
 11 28  1  0  0  0  0
 12 29  1  0  0  0  0
 12 30  1  0  0  0  0
 13 14  1  0  0  0  0
 14 15  1  0  0  0  0
 15 16  1  0  0  0  0
 15 31  1  0  0  0  0
 15 32  1  0  0  0  0
 16 17  1  0  0  0  0
 16 18  1  0  0  0  0
 16 33  1  0  0  0  0
 17 34  1  0  0  0  0
 18 19  1  0  0  0  0
 18 35  1  0  0  0  0
 18 36  1  0  0  0  0
 19 24  1  0  0  0  0
 19 20  1  0  0  0  0
 19 45  1  0  0  0  0
 20 21  1  0  0  0  0
 20 37  1  0  0  0  0
 20 38  1  0  0  0  0
 21 22  1  0  0  0  0
 21 39  1  0  0  0  0
 21 40  1  0  0  0  0
 22 23  1  0  0  0  0
 23 24  1  0  0  0  0
 23 41  1  0  0  0  0
 23 42  1  0  0  0  0
 24 43  1  0  0  0  0
 24 44  1  0  0  0  0
M  CHG  1  19   1
M  END
> <s_m_source_file>
AV-unprocessed.smi

> <i_m_source_file_index>
1603

> <i_lp_mmshare_version>
43012

> <i_f3d_flags>
0

> <s_epik_input>
Tz1jMWMoQyhGKShGKUYpW2NIXWMoW0NIXTJbQ0gyXVtDSDJdMilubjFbQ0gyXVtDQEhdKFtPSF0pW0NIMl1OM1tDSDJdW0NIMl1PW0NIMl1bQ0gyXTM=

> <s_epik_cmdline>
J2VwaWtfcHl0aG9uJywgJy1waCcsICc3LjAnLCAnLXRuJywgJzgnLCAnLW1hJywgJzIwMCcsICctbWV0YWxfYmluZGluZycsICctaW1hZScsICc8aW5maWxlLm1hZT4nLCAnLW9tYWUnLCAnPG91dGZpbGUubWFlPic=

> <r_lp_tautomer_probability>
1

> <r_epik_Ionization_Penalty>
0.373533

> <r_epik_Ionization_Penalty_Charging>
0.373533

> <r_epik_Ionization_Penalty_Neutral>
6.58334e-07

> <r_epik_State_Penalty>
0.37113

> <r_epik_Charging_Adjusted_Penalty>
0.744662

> <i_epik_Tot_Q>
1

> <i_epik_Tot_abs_Q>
1

> <r_epik_Metal_State_Penalty>
0.37113

> <b_epik_Metal_Only>
0

> <s_lp_Force_Field>
OPLS_2005

> <r_lp_Energy>
42.0637

> <b_lp_Chiralities_Consistent>
1

> <s_lp_Variant>
AV-unprocessed.smi:1603-2

> <Gold.Version>
5.8.1

> <Gold.Id.Protein>
6NUR|6NUR_protein|mol2

> <Gold.PLP.Fitness>
57.9280

> <Gold.PLP.PLP>
-50.2539

> <Gold.PLP.part.hbond>
-3.1754

> <Gold.PLP.part.metal>
0.0000

> <Gold.PLP.part.buried>
-4.3091

> <Gold.PLP.part.nonpolar>
-42.6960

> <Gold.PLP.part.repulsive>
0.2125

> <Gold.PLP.ligand.clash>
0.1230

> <Gold.PLP.ligand.torsion>
2.4415

> <Gold.PLP.Chemscore.Hbond>
4.0000

> <Gold.PLP.Chemscore.CHOScore>
0.0000

> <Gold.PLP.Chemscore.Metal>
0.0000

> <Gold.Chemscore.Hbonds>
donor molecule, donor type, donor heavy atom, donor atom, acceptor molecule, acceptor atom, score
      L1  H    17    34       P1  8028  1.00
      L1  H    19    45       P1  8028  2.00
      P1  H  7997  8010       L1     1  0.90

> <Gold.PLP.Chemscore.Internal.Correction>
0.6801

> <Gold.Rescore>
     Score         DG    S(hbond)    S(metal)    S(lipo)     H(rot)  DE(clash)    DE(int)     intcor
     15.73     -21.06       2.91        0.00     105.18       2.52       1.63       3.70       ----

> <Gold.Chemscore.Fitness>
15.7295

> <Gold.Chemscore.DG>
-21.0630

> <Gold.Chemscore.ZeroCoef>
-5.4800

> <Gold.Chemscore.Hbond>
2.9096

> <Gold.Chemscore.Metal>
0.0000

> <Gold.Chemscore.Lipo>
105.1800

> <Gold.Chemscore.Internal_Hbond>
0.0000

> <Gold.Chemscore.DEClash>
1.6319

> <Gold.Chemscore.DEInternal>
3.7017

> <Gold.Chemscore.Rot>
2.5160

> <Gold.Chemscore.Internal.Correction>
   9.000000E+99

> <Gold.Chemscore.Hbonds>
donor molecule, donor type, donor heavy atom, donor atom, acceptor molecule, acceptor atom, score
      L1  H    17    34       P1  8028  1.00
      L1  H    19    45       P1  8028  0.55
      P1  H  7997  8010       L1     1  0.19

> <Gold.Chemscore.Hbond.Weighted>
-9.7180

> <Gold.Chemscore.Metal.Weighted>
-0.0000

> <Gold.Chemscore.Lipo.Weighted>
-12.3061

> <Gold.Chemscore.Internal_Hbond.Weighted>
0.0000

> <Gold.Chemscore.DEClash.Weighted>
1.6319

> <Gold.Chemscore.DEInternal.Weighted>
3.7017

> <Gold.Chemscore.Rot.Weighted>
6.4411

> <Gold.Chemscore.Internal.Correction.Weighted>
   9.000000E+99

> <Gold.Protein.RotatedTorsions>
[ 6907 6896 6895 6894 ] final -111.48 input  -60.11 | X-H torsion
[ 7974 7965 7964 7962 ] final   91.57 input  175.53 | X-H torsion
[ 8008 7997 7996 7995 ] final   29.40 input   59.86 | X-H torsion
[ 10167 10162 10161 10158 ] final -176.29 input  -65.29 | X-H torsion
[ 10718 10713 10712 10709 ] final  -65.33 input   66.30 | X-H torsion
[ 10763 10752 10751 10750 ] final -157.96 input  -60.55 | X-H torsion
[ 11005 11000 10999 10996 ] final -125.03 input  -57.11 | X-H torsion

> <Gold.Protein.ActiveResidues>
 VAL166  LYS551  ARG553  GLY616  TRP617  ASP618  TYR619  PRO620  LYS621  CYS622 
 ASP623  PHE694  ASN695  SER759  ASP760  ASP761  ALA762  ILE779  LEU786  VAL792 
 PHE793  MET794  SER795  GLU796  ALA797  LYS798  CYS799  TRP800  GLU811  SER814 

> <Gold.Protein.RotatedAtoms>
  150.7693  133.9228  159.3403 H   0  0  0  0  0  0  0  0  0  0  0  0  # atno 6907 bound_to 6896
  151.7119  135.0909  160.0278 H   0  0  0  0  0  0  0  0  0  0  0  0  # atno 6908 bound_to 6896
  152.3704  133.6373  159.6118 H   0  0  0  0  0  0  0  0  0  0  0  0  # atno 6909 bound_to 6896
  145.5039  139.2276  143.2762 H   0  0  0  0  0  0  0  0  0  0  0  0  # atno 7974 bound_to 7965
  155.0738  140.3203  155.4622 H   0  0  0  0  0  0  0  0  0  0  0  0  # atno 8008 bound_to 7997
  156.2784  140.2107  156.5811 H   0  0  0  0  0  0  0  0  0  0  0  0  # atno 8009 bound_to 7997
  154.7033  140.0505  157.0467 H   0  0  0  0  0  0  0  0  0  0  0  0  # atno 8010 bound_to 7997
  139.5537  144.2043  152.1123 H   0  0  0  0  0  0  0  0  0  0  0  0  # atno 10167 bound_to 10162
  156.0676  130.4246  150.1549 H   0  0  0  0  0  0  0  0  0  0  0  0  # atno 10718 bound_to 10713
  154.7595  135.3114  154.8406 H   0  0  0  0  0  0  0  0  0  0  0  0  # atno 10763 bound_to 10752
  153.9171  135.6799  153.4753 H   0  0  0  0  0  0  0  0  0  0  0  0  # atno 10764 bound_to 10752
  153.1194  135.4829  154.9101 H   0  0  0  0  0  0  0  0  0  0  0  0  # atno 10765 bound_to 10752
  140.9795  134.0694  157.3781 H   0  0  0  0  0  0  0  0  0  0  0  0  # atno 11005 bound_to 11000
  146.2209  140.5841  142.9017 LP  0  0  0  0  0  0  0  0  0  0  0  0  # atno 17320 bound_to 7965
  144.7765  140.5750  143.6635 LP  0  0  0  0  0  0  0  0  0  0  0  0  # atno 17321 bound_to 7965
  140.1543  144.5085  150.6669 LP  0  0  0  0  0  0  0  0  0  0  0  0  # atno 17342 bound_to 10162
  140.6806  143.2325  151.5395 LP  0  0  0  0  0  0  0  0  0  0  0  0  # atno 17343 bound_to 10162
  156.9606  130.9803  151.3480 LP  0  0  0  0  0  0  0  0  0  0  0  0  # atno 17370 bound_to 10713
  157.5727  130.8321  149.8413 LP  0  0  0  0  0  0  0  0  0  0  0  0  # atno 17371 bound_to 10713
  139.8944  135.0136  156.6949 LP  0  0  0  0  0  0  0  0  0  0  0  0  # atno 17394 bound_to 11000
  140.7209  133.9142  155.8146 LP  0  0  0  0  0  0  0  0  0  0  0  0  # atno 17395 bound_to 11000

$$$$
