AV-unprocessed.smi:1416|AV-procd|sdf|5764|dock9
  -GOLD-   22720 5403D 1   1.00000     0.00000
 Structure written by MMmdl.
 44 45  0  0  0  0  0  0  0  0  1 V2000
  151.9696  145.8427  160.0513 C   0  0  0  0  0  0  0  0  0  0  0  0
  152.2619  144.3632  160.3153 C   0  0  0  0  0  0  0  0  0  0  0  0
  153.1932  143.6147  158.9523 S   0  0  0  0  0  0  0  0  0  0  0  0
  152.9127  141.8590  159.3238 C   0  0  0  0  0  0  0  0  0  0  0  0
  153.7993  141.3547  160.4773 C   0  0  0  0  0  0  0  0  0  0  0  0
  154.4220  139.9775  160.2207 C   0  0  0  0  0  0  0  0  0  0  0  0
  155.1805  139.8004  159.2669 O   0  0  0  0  0  0  0  0  0  0  0  0
  154.0953  139.0086  161.0879 N   0  0  0  0  0  0  0  0  0  0  0  0
  154.5808  137.6356  161.0193 C   0  0  0  0  0  0  0  0  0  0  0  0
  154.1642  136.7941  162.2145 C   0  0  0  0  0  0  0  0  0  0  0  0
  153.5126  137.3656  163.3274 C   0  0  0  0  0  0  0  0  0  0  0  0
  153.1722  136.5284  164.4056 C   0  0  0  0  0  0  0  0  0  0  0  0
  153.4361  135.2054  164.4276 N   0  0  0  0  0  0  0  0  0  0  0  0
  154.0607  134.6429  163.3634 C   0  0  0  0  0  0  0  0  0  0  0  0
  154.3271  133.2566  163.3995 N   0  0  0  0  0  0  0  0  0  0  0  0
  155.0804  132.7284  162.2644 C   0  0  0  0  0  0  0  0  0  0  0  0
  155.5653  131.2988  162.5608 C   0  0  0  0  0  0  0  0  0  0  0  0
  154.4588  130.4778  162.9197 O   0  0  0  0  0  0  0  0  0  0  0  0
  153.8098  130.9500  164.0956 C   0  0  0  0  0  0  0  0  0  0  0  0
  153.2596  132.3651  163.8505 C   0  0  0  0  0  0  0  0  0  0  0  0
  154.4474  135.4128  162.2398 C   0  0  0  0  0  0  0  0  0  0  0  0
  151.4099  146.2811  160.8776 H   0  0  0  0  0  0  0  0  0  0  0  0
  151.3789  145.9709  159.1439 H   0  0  0  0  0  0  0  0  0  0  0  0
  152.8927  146.4112  159.9354 H   0  0  0  0  0  0  0  0  0  0  0  0
  152.8351  144.2547  161.2364 H   0  0  0  0  0  0  0  0  0  0  0  0
  151.3286  143.8157  160.4495 H   0  0  0  0  0  0  0  0  0  0  0  0
  151.8557  141.7006  159.5421 H   0  0  0  0  0  0  0  0  0  0  0  0
  153.1308  141.2846  158.4232 H   0  0  0  0  0  0  0  0  0  0  0  0
  154.6174  142.0584  160.6338 H   0  0  0  0  0  0  0  0  0  0  0  0
  153.2250  141.3406  161.4051 H   0  0  0  0  0  0  0  0  0  0  0  0
  153.4672  139.2344  161.8457 H   0  0  0  0  0  0  0  0  0  0  0  0
  154.2095  137.1794  160.1005 H   0  0  0  0  0  0  0  0  0  0  0  0
  155.6705  137.6266  160.9639 H   0  0  0  0  0  0  0  0  0  0  0  0
  153.2844  138.4206  163.3665 H   0  0  0  0  0  0  0  0  0  0  0  0
  152.6760  136.9324  165.2755 H   0  0  0  0  0  0  0  0  0  0  0  0
  154.4347  132.7278  161.3850 H   0  0  0  0  0  0  0  0  0  0  0  0
  155.9411  133.3510  162.0242 H   0  0  0  0  0  0  0  0  0  0  0  0
  156.0484  130.8769  161.6792 H   0  0  0  0  0  0  0  0  0  0  0  0
  156.3075  131.2984  163.3610 H   0  0  0  0  0  0  0  0  0  0  0  0
  152.9967  130.2702  164.3499 H   0  0  0  0  0  0  0  0  0  0  0  0
  154.5056  130.9431  164.9361 H   0  0  0  0  0  0  0  0  0  0  0  0
  152.8153  132.7438  164.7720 H   0  0  0  0  0  0  0  0  0  0  0  0
  152.4718  132.3335  163.0965 H   0  0  0  0  0  0  0  0  0  0  0  0
  154.9665  134.9603  161.4081 H   0  0  0  0  0  0  0  0  0  0  0  0
  1  2  1  0  0  0  0
  1 22  1  0  0  0  0
  1 23  1  0  0  0  0
  1 24  1  0  0  0  0
  2  3  1  0  0  0  0
  2 25  1  0  0  0  0
  2 26  1  0  0  0  0
  3  4  1  0  0  0  0
  4  5  1  0  0  0  0
  4 27  1  0  0  0  0
  4 28  1  0  0  0  0
  5  6  1  0  0  0  0
  5 29  1  0  0  0  0
  5 30  1  0  0  0  0
  6  7  2  0  0  0  0
  6  8  1  0  0  0  0
  8  9  1  0  0  0  0
  8 31  1  0  0  0  0
  9 10  1  0  0  0  0
  9 32  1  0  0  0  0
  9 33  1  0  0  0  0
 10 21  1  0  0  0  0
 10 11  2  0  0  0  0
 11 12  1  0  0  0  0
 11 34  1  0  0  0  0
 12 13  2  0  0  0  0
 12 35  1  0  0  0  0
 13 14  1  0  0  0  0
 14 15  1  0  0  0  0
 14 21  2  0  0  0  0
 15 20  1  0  0  0  0
 15 16  1  0  0  0  0
 16 17  1  0  0  0  0
 16 36  1  0  0  0  0
 16 37  1  0  0  0  0
 17 18  1  0  0  0  0
 17 38  1  0  0  0  0
 17 39  1  0  0  0  0
 18 19  1  0  0  0  0
 19 20  1  0  0  0  0
 19 40  1  0  0  0  0
 19 41  1  0  0  0  0
 20 42  1  0  0  0  0
 20 43  1  0  0  0  0
 21 44  1  0  0  0  0
M  END
> <s_m_source_file>
AV-unprocessed.smi

> <i_m_source_file_index>
1416

> <i_lp_mmshare_version>
43012

> <i_f3d_flags>
0

> <s_epik_input>
W0NIM11bQ0gyXVNbQ0gyXVtDSDJdQyg9TylbTkhdW0NIMl1jMVtjSF1bY0hdbmMoW2NIXTEpTjJbQ0gyXVtDSDJdT1tDSDJdW0NIMl0y

> <s_epik_cmdline>
J2VwaWtfcHl0aG9uJywgJy1waCcsICc3LjAnLCAnLXRuJywgJzgnLCAnLW1hJywgJzIwMCcsICctbWV0YWxfYmluZGluZycsICctaW1hZScsICc8aW5maWxlLm1hZT4nLCAnLW9tYWUnLCAnPG91dGZpbGUubWFlPic=

> <r_lp_tautomer_probability>
1

> <r_epik_Ionization_Penalty>
0.00571449

> <r_epik_Ionization_Penalty_Charging>
0

> <r_epik_Ionization_Penalty_Neutral>
0.00571449

> <r_epik_State_Penalty>
0.00419227

> <r_epik_Charging_Adjusted_Penalty>
0.00419227

> <i_epik_Tot_Q>
0

> <i_epik_Tot_abs_Q>
0

> <r_epik_Metal_State_Penalty>
-0

> <b_epik_Metal_Only>
0

> <s_lp_Force_Field>
OPLS_2005

> <r_lp_Energy>
16.5768

> <b_lp_Chiralities_Consistent>
1

> <s_lp_Variant>
AV-unprocessed.smi:1416-1

> <Gold.Version>
5.8.1

> <Gold.Id.Protein>
6NUR|6NUR_protein|mol2

> <Gold.PLP.Fitness>
42.2418

> <Gold.PLP.PLP>
-40.2429

> <Gold.PLP.part.hbond>
-1.0000

> <Gold.PLP.part.metal>
0.0000

> <Gold.PLP.part.buried>
-4.4365

> <Gold.PLP.part.nonpolar>
-35.1490

> <Gold.PLP.part.repulsive>
0.1075

> <Gold.PLP.ligand.clash>
0.0000

> <Gold.PLP.ligand.torsion>
0.7073

> <Gold.PLP.Chemscore.Hbond>
1.0000

> <Gold.PLP.Chemscore.CHOScore>
0.0000

> <Gold.PLP.Chemscore.Metal>
0.0000

> <Gold.Chemscore.Hbonds>
donor molecule, donor type, donor heavy atom, donor atom, acceptor molecule, acceptor atom, score
      P1  H  7997  8008       L1     7  1.00

> <Gold.PLP.Chemscore.Internal.Correction>
0.4135

> <Gold.Rescore>
     Score         DG    S(hbond)    S(metal)    S(lipo)     H(rot)  DE(clash)    DE(int)     intcor
     16.42     -17.18       0.99        0.00     112.55       1.87       0.03       0.73       ----

> <Gold.Chemscore.Fitness>
16.4213

> <Gold.Chemscore.DG>
-17.1795

> <Gold.Chemscore.ZeroCoef>
-5.4800

> <Gold.Chemscore.Hbond>
0.9937

> <Gold.Chemscore.Metal>
0.0000

> <Gold.Chemscore.Lipo>
112.5524

> <Gold.Chemscore.Internal_Hbond>
0.0000

> <Gold.Chemscore.DEClash>
0.0297

> <Gold.Chemscore.DEInternal>
0.7285

> <Gold.Chemscore.Rot>
1.8704

> <Gold.Chemscore.Internal.Correction>
   9.000000E+99

> <Gold.Chemscore.Hbonds>
donor molecule, donor type, donor heavy atom, donor atom, acceptor molecule, acceptor atom, score
      P1  H  7997  8008       L1     7  0.94

> <Gold.Chemscore.Hbond.Weighted>
-3.3190

> <Gold.Chemscore.Metal.Weighted>
-0.0000

> <Gold.Chemscore.Lipo.Weighted>
-13.1686

> <Gold.Chemscore.Internal_Hbond.Weighted>
0.0000

> <Gold.Chemscore.DEClash.Weighted>
0.0297

> <Gold.Chemscore.DEInternal.Weighted>
0.7285

> <Gold.Chemscore.Rot.Weighted>
4.7881

> <Gold.Chemscore.Internal.Correction.Weighted>
   9.000000E+99

> <Gold.Protein.RotatedTorsions>
[ 6907 6896 6895 6894 ] final  -51.19 input  -60.11 | X-H torsion
[ 7974 7965 7964 7962 ] final  177.92 input  175.53 | X-H torsion
[ 8008 7997 7996 7995 ] final -144.55 input   59.86 | X-H torsion
[ 10167 10162 10161 10158 ] final  -57.73 input  -65.29 | X-H torsion
[ 10718 10713 10712 10709 ] final  -60.68 input   66.30 | X-H torsion
[ 10763 10752 10751 10750 ] final  -10.69 input  -60.55 | X-H torsion
[ 11005 11000 10999 10996 ] final  -54.01 input  -57.11 | X-H torsion

> <Gold.Protein.ActiveResidues>
 VAL166  LYS551  ARG553  GLY616  TRP617  ASP618  TYR619  PRO620  LYS621  CYS622 
 ASP623  PHE694  ASN695  SER759  ASP760  ASP761  ALA762  ILE779  LEU786  VAL792 
 PHE793  MET794  SER795  GLU796  ALA797  LYS798  CYS799  TRP800  GLU811  SER814 

> <Gold.Protein.RotatedAtoms>
  150.8635  134.7993  159.7100 H   0  0  0  0  0  0  0  0  0  0  0  0  # atno 6907 bound_to 6896
  152.4664  134.5061  159.9749 H   0  0  0  0  0  0  0  0  0  0  0  0  # atno 6908 bound_to 6896
  151.5161  133.3437  159.2929 H   0  0  0  0  0  0  0  0  0  0  0  0  # atno 6909 bound_to 6896
  144.7162  140.0319  143.6439 H   0  0  0  0  0  0  0  0  0  0  0  0  # atno 7974 bound_to 7965
  155.5287  140.0598  157.2893 H   0  0  0  0  0  0  0  0  0  0  0  0  # atno 8008 bound_to 7997
  154.4492  140.1940  156.0517 H   0  0  0  0  0  0  0  0  0  0  0  0  # atno 8009 bound_to 7997
  156.0667  140.3265  155.7531 H   0  0  0  0  0  0  0  0  0  0  0  0  # atno 8010 bound_to 7997
  140.6240  143.2431  151.5409 H   0  0  0  0  0  0  0  0  0  0  0  0  # atno 10167 bound_to 10162
  156.0974  130.4191  150.0887 H   0  0  0  0  0  0  0  0  0  0  0  0  # atno 10718 bound_to 10713
  153.4729  135.7017  153.5983 H   0  0  0  0  0  0  0  0  0  0  0  0  # atno 10763 bound_to 10752
  153.4229  135.3821  155.2123 H   0  0  0  0  0  0  0  0  0  0  0  0  # atno 10764 bound_to 10752
  154.8724  135.3932  154.4169 H   0  0  0  0  0  0  0  0  0  0  0  0  # atno 10765 bound_to 10752
  141.1005  133.6618  156.4257 H   0  0  0  0  0  0  0  0  0  0  0  0  # atno 11005 bound_to 11000
  146.0095  139.3158  143.0879 LP  0  0  0  0  0  0  0  0  0  0  0  0  # atno 17320 bound_to 7965
  145.8698  140.9426  143.0656 LP  0  0  0  0  0  0  0  0  0  0  0  0  # atno 17321 bound_to 7965
  139.5463  144.2511  152.1449 LP  0  0  0  0  0  0  0  0  0  0  0  0  # atno 17342 bound_to 10162
  140.1738  144.4910  150.6565 LP  0  0  0  0  0  0  0  0  0  0  0  0  # atno 17343 bound_to 10162
  156.8883  130.9580  151.3591 LP  0  0  0  0  0  0  0  0  0  0  0  0  # atno 17370 bound_to 10713
  157.6137  130.8602  149.8994 LP  0  0  0  0  0  0  0  0  0  0  0  0  # atno 17371 bound_to 10713
  140.5034  134.6463  157.5257 LP  0  0  0  0  0  0  0  0  0  0  0  0  # atno 17394 bound_to 11000
  139.9855  134.7069  155.9783 LP  0  0  0  0  0  0  0  0  0  0  0  0  # atno 17395 bound_to 11000

$$$$
