#       Name:                AV-unprocessed.smi:221
#       Creating user name   scv26
#       Creation time:       Thu Mar 26 20:13:21 2020


#       File generated by GOLD software.
#

@<TRIPOS>MOLECULE
AV-unprocessed.smi:221
    60    63     1
SMALL
NO_CHARGES


@<TRIPOS>ATOM
      1 ****         0.8418   5.1176   0.8425 N.am           1 S1                 0.0000
      2 ****        -0.4420   4.8698   1.1125 C.2            1 S1                 0.0000
      3 ****        -0.9704   5.2313   2.1627 O.2            1 S1                 0.0000
      4 ****        -1.2437   4.1252   0.0351 C.3            1 S1                 0.0000
      5 ****        -2.0179   5.0918  -0.8711 C.3            1 S1                 0.0000
      6 ****        -3.1475   4.2254  -1.4163 C.3            1 S1                 0.0000
      7 ****        -2.7007   3.5062  -2.4472 F              1 S1                 0.0000
      8 ****        -3.4739   3.2956  -0.2453 C.3            1 S1                 0.0000
      9 ****        -2.2874   3.2711   0.6064 N.3            1 S1                 0.0000
     10 ****        -1.8899   2.0478   1.0207 C.ar           1 S1                 0.0000
     11 ****        -1.9301   1.8013   2.3525 N.ar           1 S1                 0.0000
     12 ****        -1.5483   0.6095   2.8222 C.ar           1 S1                 0.0000
     13 ****        -1.1035  -0.4519   2.1453 N.ar           1 S1                 0.0000
     14 ****        -1.0625  -0.2044   0.8045 C.ar           1 S1                 0.0000
     15 ****        -1.4344   1.0090   0.1612 C.ar           1 S1                 0.0000
     16 ****        -1.2580   0.8926  -1.2123 N.2            1 S1                 0.0000
     17 ****        -0.8068  -0.3214  -1.3725 C.2            1 S1                 0.0000
     18 ****        -0.6545  -1.0484  -0.2138 N.pl3          1 S1                 0.0000
     19 ****        -0.1721  -2.4145  -0.1091 C.3            1 S1                 0.0000
     20 ****         1.3617  -2.5319  -0.2887 C.3            1 S1                 0.0000
     21 ****         2.1456  -1.6310   0.6964 C.3            1 S1                 0.0000
     22 ****         1.9386  -2.0274   2.0367 O.3            1 S1                 0.0000
     23 ****         1.8300  -4.0086  -0.2399 C.3            1 S1                 0.0000
     24 ****         3.3081  -4.2218  -0.5160 C.3            1 S1                 0.0000
     25 ****         3.3599  -5.7050  -0.8643 C.3            1 S1                 0.0000
     26 ****         2.1219  -5.9913  -1.5044 O.3            1 S1                 0.0000
     27 ****         1.2145  -4.9096  -1.3162 C.3            1 S1                 0.0000
     28 ****        -0.5640   3.5283  -0.5761 H              1 S1                 0.0000
     29 ****        -4.0066   4.7992  -1.7643 H              1 S1                 0.0000
     30 ****         1.4105   5.6039   1.5204 H              1 S1                 0.0000
     31 ****         1.2399   4.8183  -0.0358 H              1 S1                 0.0000
     32 ****        -2.4400   5.9155  -0.2922 H              1 S1                 0.0000
     33 ****        -1.3986   5.5203  -1.6597 H              1 S1                 0.0000
     34 ****        -4.2903   3.7134   0.3445 H              1 S1                 0.0000
     35 ****        -3.7960   2.3103  -0.5874 H              1 S1                 0.0000
     36 ****        -1.6081   0.4894   3.8938 H              1 S1                 0.0000
     37 ****        -0.5674  -0.7222  -2.3468 H              1 S1                 0.0000
     38 ****        -0.4740  -2.8209   0.8568 H              1 S1                 0.0000
     39 ****        -0.6939  -3.0025  -0.8641 H              1 S1                 0.0000
     40 ****         1.5895  -2.1592  -1.2885 H              1 S1                 0.0000
     41 ****         3.2144  -1.6622   0.4855 H              1 S1                 0.0000
     42 ****         1.8519  -0.5866   0.5910 H              1 S1                 0.0000
     43 ****         2.3994  -1.4272   2.6029 H              1 S1                 0.0000
     44 ****         1.5979  -4.4343   0.7377 H              1 S1                 0.0000
     45 ****         3.6278  -3.6252  -1.3716 H              1 S1                 0.0000
     46 ****         3.9458  -3.9726   0.3326 H              1 S1                 0.0000
     47 ****         4.2076  -5.9553  -1.5022 H              1 S1                 0.0000
     48 ****         3.4288  -6.3060   0.0432 H              1 S1                 0.0000
     49 ****         0.2255  -5.2745  -1.0384 H              1 S1                 0.0000
     50 ****         1.1217  -4.3756  -2.2628 H              1 S1                 0.0000
     51 ****        -0.4356   5.7276   2.8466 LP             1 S1                 0.0000
     52 ****        -1.9348   5.0289   2.3327 LP             1 S1                 0.0000
     53 ****        -2.5438   3.6736   1.4851 LP             1 S1                 0.0000
     54 ****        -2.2451   2.5103   2.9834 LP             1 S1                 0.0000
     55 ****        -0.8347  -1.3177   2.5673 LP             1 S1                 0.0000
     56 ****        -1.4359   1.5806  -1.9159 LP             1 S1                 0.0000
     57 ****         2.2887  -2.9543   2.1719 LP             1 S1                 0.0000
     58 ****         0.9612  -2.0063   2.2472 LP             1 S1                 0.0000
     59 ****         1.7308  -6.8237  -1.1118 LP             1 S1                 0.0000
     60 ****         2.2783  -6.1259  -2.4829 LP             1 S1                 0.0000
@<TRIPOS>BOND
    1    1    2 am    
    2    1   30 1     
    3    1   31 1     
    4    2    3 2     
    5    2    4 1     
    6    4   28 1     
    7    4    9 1     
    8    4    5 1     
    9    5    6 1     
   10    5   32 1     
   11    5   33 1     
   12    6   29 1     
   13    6    7 1     
   14    6    8 1     
   15    8    9 1     
   16    8   34 1     
   17    8   35 1     
   18    9   10 1     
   19   10   15 ar    
   20   10   11 ar    
   21   11   12 ar    
   22   12   13 ar    
   23   12   36 1     
   24   13   14 ar    
   25   14   18 1     
   26   14   15 ar    
   27   15   16 1     
   28   16   17 2     
   29   17   18 1     
   30   17   37 1     
   31   18   19 1     
   32   19   20 1     
   33   19   38 1     
   34   19   39 1     
   35   20   21 1     
   36   20   23 1     
   37   20   40 1     
   38   21   22 1     
   39   21   41 1     
   40   21   42 1     
   41   22   43 1     
   42   23   27 1     
   43   23   24 1     
   44   23   44 1     
   45   24   25 1     
   46   24   45 1     
   47   24   46 1     
   48   25   26 1     
   49   25   47 1     
   50   25   48 1     
   51   26   27 1     
   52   27   49 1     
   53   27   50 1     
   54    3   51 1     
   55    3   52 1     
   56    9   53 1     
   57   11   54 1     
   58   13   55 1     
   59   16   56 1     
   60   22   57 1     
   61   22   58 1     
   62   26   59 1     
   63   26   60 1     
@<TRIPOS>SUBSTRUCTURE
      1 S1             1
@<TRIPOS>SET
LONE_PAIRS      STATIC     ATOMS    <user>   **** ""
10 51 52 53 54 55 56 57 58 59 60
DONOR_HYDROGENS      STATIC     ATOMS    <user>   **** ""
3 30 31 43
ATOM$BLUE        STATIC     ATOMS    COLORGROUP SYSTEM
10 51 52 53 54 55 56 57 58 59 60
ATOM$RED        STATIC     ATOMS    COLORGROUP SYSTEM
3 30 31 43
