AV-unprocessed.smi:212|AV-procd|sdf|1623|dock2
  -GOLD-   2262019563D 1   1.00000     0.00000
 Structure written by MMmdl.
 65 68  0  0  0  0  0  0  0  0  2 V2000
  146.4718  130.0378  153.5441 C   0  0  0  0  0  0  0  0  0  0  0  0
  146.8751  131.2747  154.3646 C   0  0  2  0  0  0  0  0  0  0  0  0
  146.2082  132.5644  153.8411 C   0  0  0  0  0  0  0  0  0  0  0  0
  146.8024  133.0035  152.5505 N   0  3  1  0  0  0  0  0  0  0  0  0
  146.1045  134.1687  151.9458 C   0  0  0  0  0  0  0  0  0  0  0  0
  145.0368  133.7501  150.9076 C   0  0  0  0  0  0  0  0  0  0  0  0
  145.5450  132.5582  150.0789 C   0  0  0  0  0  0  0  0  0  0  0  0
  143.6862  133.4065  151.5635 C   0  0  0  0  0  0  0  0  0  0  0  0
  144.8305  134.8132  149.9985 O   0  0  0  0  0  0  0  0  0  0  0  0
  148.2723  133.1872  152.6465 C   0  0  0  0  0  0  0  0  0  0  0  0
  148.9553  131.9113  153.1726 C   0  0  0  0  0  0  0  0  0  0  0  0
  148.3300  131.4429  154.4107 N   0  0  0  0  0  0  0  0  0  0  0  0
  148.8434  131.8564  155.5992 C   0  0  0  0  0  0  0  0  0  0  0  0
  150.1487  132.2284  155.6828 N   0  0  0  0  0  0  0  0  0  0  0  0
  150.6595  132.6479  156.8443 C   0  0  0  0  0  0  0  0  0  0  0  0
  150.0531  132.7700  158.0264 N   0  0  0  0  0  0  0  0  0  0  0  0
  148.7458  132.3904  157.9516 C   0  0  0  0  0  0  0  0  0  0  0  0
  148.0668  131.9252  156.7904 C   0  0  0  0  0  0  0  0  0  0  0  0
  146.7465  131.6233  157.1044 N   0  0  0  0  0  0  0  0  0  0  0  0
  146.6491  131.9007  158.3763 C   0  0  0  0  0  0  0  0  0  0  0  0
  147.8018  132.3733  158.9617 N   0  0  0  0  0  0  0  0  0  0  0  0
  147.9811  132.7600  160.3498 C   0  0  0  0  0  0  0  0  0  0  0  0
  146.8009  133.5942  160.9072 C   0  0  1  0  0  0  0  0  0  0  0  0
  145.7802  132.7340  161.6914 C   0  0  0  0  0  0  0  0  0  0  0  0
  144.4783  133.2782  161.6149 O   0  0  0  0  0  0  0  0  0  0  0  0
  147.3026  134.8100  161.7263 C   0  0  2  0  0  0  0  0  0  0  0  0
  146.2183  135.5862  162.4530 C   0  0  0  0  0  0  0  0  0  0  0  0
  146.9105  136.9139  162.7396 C   0  0  0  0  0  0  0  0  0  0  0  0
  147.8010  137.1249  161.6500 O   0  0  0  0  0  0  0  0  0  0  0  0
  147.9281  135.9291  160.8865 C   0  0  0  0  0  0  0  0  0  0  0  0
  145.3918  129.8902  153.5686 H   0  0  0  0  0  0  0  0  0  0  0  0
  146.9341  129.1366  153.9482 H   0  0  0  0  0  0  0  0  0  0  0  0
  146.7666  130.1234  152.4981 H   0  0  0  0  0  0  0  0  0  0  0  0
  146.4915  131.1130  155.3718 H   0  0  0  0  0  0  0  0  0  0  0  0
  145.1349  132.4086  153.7342 H   0  0  0  0  0  0  0  0  0  0  0  0
  146.3335  133.3622  154.5752 H   0  0  0  0  0  0  0  0  0  0  0  0
  145.6633  134.7907  152.7269 H   0  0  0  0  0  0  0  0  0  0  0  0
  146.8311  134.8097  151.4435 H   0  0  0  0  0  0  0  0  0  0  0  0
  145.7220  131.6864  150.7096 H   0  0  0  0  0  0  0  0  0  0  0  0
  146.4828  132.7938  149.5741 H   0  0  0  0  0  0  0  0  0  0  0  0
  144.8246  132.2671  149.3134 H   0  0  0  0  0  0  0  0  0  0  0  0
  143.7953  132.6000  152.2897 H   0  0  0  0  0  0  0  0  0  0  0  0
  142.9566  133.0814  150.8208 H   0  0  0  0  0  0  0  0  0  0  0  0
  143.2564  134.2634  152.0837 H   0  0  0  0  0  0  0  0  0  0  0  0
  145.2106  134.5762  149.1660 H   0  0  0  0  0  0  0  0  0  0  0  0
  148.6786  133.4341  151.6649 H   0  0  0  0  0  0  0  0  0  0  0  0
  148.4865  134.0331  153.3011 H   0  0  0  0  0  0  0  0  0  0  0  0
  148.8757  131.1196  152.4274 H   0  0  0  0  0  0  0  0  0  0  0  0
  150.0243  132.0780  153.3114 H   0  0  0  0  0  0  0  0  0  0  0  0
  151.7030  132.9257  156.8241 H   0  0  0  0  0  0  0  0  0  0  0  0
  145.7270  131.7734  158.9251 H   0  0  0  0  0  0  0  0  0  0  0  0
  148.1212  131.8570  160.9454 H   0  0  0  0  0  0  0  0  0  0  0  0
  148.9141  133.3200  160.4168 H   0  0  0  0  0  0  0  0  0  0  0  0
  146.2623  133.9919  160.0459 H   0  0  0  0  0  0  0  0  0  0  0  0
  145.7562  131.7140  161.3085 H   0  0  0  0  0  0  0  0  0  0  0  0
  146.0632  132.6498  162.7405 H   0  0  0  0  0  0  0  0  0  0  0  0
  144.4237  134.0122  162.2077 H   0  0  0  0  0  0  0  0  0  0  0  0
  148.0389  134.4784  162.4602 H   0  0  0  0  0  0  0  0  0  0  0  0
  145.3589  135.7456  161.8001 H   0  0  0  0  0  0  0  0  0  0  0  0
  145.8713  135.0949  163.3625 H   0  0  0  0  0  0  0  0  0  0  0  0
  146.2054  137.7386  162.8462 H   0  0  0  0  0  0  0  0  0  0  0  0
  147.4955  136.8466  163.6578 H   0  0  0  0  0  0  0  0  0  0  0  0
  148.9722  135.7322  160.6416 H   0  0  0  0  0  0  0  0  0  0  0  0
  147.3830  136.0635  159.9512 H   0  0  0  0  0  0  0  0  0  0  0  0
  146.6653  132.2393  151.9044 H   0  0  0  0  0  0  0  0  0  0  0  0
  1  2  1  0  0  0  0
  1 31  1  0  0  0  0
  1 32  1  0  0  0  0
  1 33  1  0  0  0  0
  2 12  1  0  0  0  0
  2  3  1  0  0  0  0
  2 34  1  0  0  0  0
  3  4  1  0  0  0  0
  3 35  1  0  0  0  0
  3 36  1  0  0  0  0
  4  5  1  0  0  0  0
  4 10  1  0  0  0  0
  4 65  1  0  0  0  0
  5  6  1  0  0  0  0
  5 37  1  0  0  0  0
  5 38  1  0  0  0  0
  6  7  1  0  0  0  0
  6  8  1  0  0  0  0
  6  9  1  0  0  0  0
  7 39  1  0  0  0  0
  7 40  1  0  0  0  0
  7 41  1  0  0  0  0
  8 42  1  0  0  0  0
  8 43  1  0  0  0  0
  8 44  1  0  0  0  0
  9 45  1  0  0  0  0
 10 11  1  0  0  0  0
 10 46  1  0  0  0  0
 10 47  1  0  0  0  0
 11 12  1  0  0  0  0
 11 48  1  0  0  0  0
 11 49  1  0  0  0  0
 12 13  1  0  0  0  0
 13 18  1  0  0  0  0
 13 14  2  0  0  0  0
 14 15  1  0  0  0  0
 15 16  2  0  0  0  0
 15 50  1  0  0  0  0
 16 17  1  0  0  0  0
 17 21  1  0  0  0  0
 17 18  2  0  0  0  0
 18 19  1  0  0  0  0
 19 20  2  0  0  0  0
 20 21  1  0  0  0  0
 20 51  1  0  0  0  0
 21 22  1  0  0  0  0
 22 23  1  0  0  0  0
 22 52  1  0  0  0  0
 22 53  1  0  0  0  0
 23 24  1  0  0  0  0
 23 26  1  0  0  0  0
 23 54  1  0  0  0  0
 24 25  1  0  0  0  0
 24 55  1  0  0  0  0
 24 56  1  0  0  0  0
 25 57  1  0  0  0  0
 26 30  1  0  0  0  0
 26 27  1  0  0  0  0
 26 58  1  0  0  0  0
 27 28  1  0  0  0  0
 27 59  1  0  0  0  0
 27 60  1  0  0  0  0
 28 29  1  0  0  0  0
 28 61  1  0  0  0  0
 28 62  1  0  0  0  0
 29 30  1  0  0  0  0
 30 63  1  0  0  0  0
 30 64  1  0  0  0  0
M  CHG  1   4   1
M  END
> <s_m_source_file>
AV-unprocessed.smi

> <i_m_source_file_index>
212

> <i_lp_mmshare_version>
43012

> <i_f3d_flags>
0

> <s_epik_input>
W0NIM11bQ0BASF0xW0NIMl1OKFtDSDJdQyhbQ0gzXSkoW0NIM10pW09IXSlbQ0gyXVtDSDJdTjFjKG5bY0hdbjIpYyhjMjMpbltjSF1uM1tDSDJdW0NASF0oW0NIMl1bT0hdKVtDQEBIXTRbQ0gyXVtDSDJdT1tDSDJdNA==

> <s_epik_cmdline>
J2VwaWtfcHl0aG9uJywgJy1waCcsICc3LjAnLCAnLXRuJywgJzgnLCAnLW1hJywgJzIwMCcsICctbWV0YWxfYmluZGluZycsICctaW1hZScsICc8aW5maWxlLm1hZT4nLCAnLW9tYWUnLCAnPG91dGZpbGUubWFlPic=

> <r_lp_tautomer_probability>
1

> <r_epik_Ionization_Penalty>
0.00182193

> <r_epik_Ionization_Penalty_Charging>
0.00173996

> <r_epik_Ionization_Penalty_Neutral>
8.19718e-05

> <r_epik_State_Penalty>
-0

> <r_epik_Charging_Adjusted_Penalty>
0.00173996

> <i_epik_Tot_Q>
1

> <i_epik_Tot_abs_Q>
1

> <r_epik_Metal_State_Penalty>
-0

> <b_epik_Metal_Only>
0

> <s_lp_Force_Field>
OPLS_2005

> <r_lp_Energy>
57.8669

> <b_lp_Chiralities_Consistent>
1

> <s_lp_Variant>
AV-unprocessed.smi:212-7

> <Gold.Version>
5.8.1

> <Gold.Id.Protein>
6NUR|6NUR_protein|mol2

> <Gold.PLP.Fitness>
50.2055

> <Gold.PLP.PLP>
-42.5437

> <Gold.PLP.part.hbond>
-4.0000

> <Gold.PLP.part.metal>
0.0000

> <Gold.PLP.part.buried>
-4.6946

> <Gold.PLP.part.nonpolar>
-32.5833

> <Gold.PLP.part.repulsive>
0.0250

> <Gold.PLP.ligand.clash>
0.0000

> <Gold.PLP.ligand.torsion>
2.3614

> <Gold.PLP.Chemscore.Hbond>
3.7040

> <Gold.PLP.Chemscore.CHOScore>
0.0000

> <Gold.PLP.Chemscore.Metal>
0.0000

> <Gold.Chemscore.Hbonds>
donor molecule, donor type, donor heavy atom, donor atom, acceptor molecule, acceptor atom, score
      L1  H     9    45       P1  7921  1.00
      P1  H  6896  6908       L1    16  1.00
      P1  H  6931  6943       L1    29  1.00
      P1  H  6934  6947       L1    29  0.56

> <Gold.PLP.Chemscore.Internal.Correction>
1.2726

> <Gold.Rescore>
     Score         DG    S(hbond)    S(metal)    S(lipo)     H(rot)  DE(clash)    DE(int)     intcor
     15.95     -20.09       3.40        0.00     102.14       3.40       0.14       4.00       ----

> <Gold.Chemscore.Fitness>
15.9502

> <Gold.Chemscore.DG>
-20.0855

> <Gold.Chemscore.ZeroCoef>
-5.4800

> <Gold.Chemscore.Hbond>
3.4000

> <Gold.Chemscore.Metal>
0.0000

> <Gold.Chemscore.Lipo>
102.1372

> <Gold.Chemscore.Internal_Hbond>
0.0000

> <Gold.Chemscore.DEClash>
0.1363

> <Gold.Chemscore.DEInternal>
3.9991

> <Gold.Chemscore.Rot>
3.3986

> <Gold.Chemscore.Internal.Correction>
   9.000000E+99

> <Gold.Chemscore.Hbonds>
donor molecule, donor type, donor heavy atom, donor atom, acceptor molecule, acceptor atom, score
      L1  H     9    45       P1  7921  0.99
      P1  H  6896  6908       L1    16  0.91
      P1  H  6931  6943       L1    29  0.91
      P1  H  6934  6947       L1    29  0.19

> <Gold.Chemscore.Hbond.Weighted>
-11.3560

> <Gold.Chemscore.Metal.Weighted>
-0.0000

> <Gold.Chemscore.Lipo.Weighted>
-11.9501

> <Gold.Chemscore.Internal_Hbond.Weighted>
0.0000

> <Gold.Chemscore.DEClash.Weighted>
0.1363

> <Gold.Chemscore.DEInternal.Weighted>
3.9991

> <Gold.Chemscore.Rot.Weighted>
8.7005

> <Gold.Chemscore.Internal.Correction.Weighted>
   9.000000E+99

> <Gold.Protein.RotatedTorsions>
[ 6907 6896 6895 6894 ] final  102.88 input  -60.11 | X-H torsion
[ 7974 7965 7964 7962 ] final  -66.37 input  175.53 | X-H torsion
[ 8008 7997 7996 7995 ] final   79.75 input   59.86 | X-H torsion
[ 10167 10162 10161 10158 ] final  -75.01 input  -65.29 | X-H torsion
[ 10718 10713 10712 10709 ] final   -8.43 input   66.30 | X-H torsion
[ 10763 10752 10751 10750 ] final  162.54 input  -60.55 | X-H torsion
[ 11005 11000 10999 10996 ] final  106.47 input  -57.11 | X-H torsion

> <Gold.Protein.ActiveResidues>
 VAL166  LYS551  ARG553  GLY616  TRP617  ASP618  TYR619  PRO620  LYS621  CYS622 
 ASP623  PHE694  ASN695  SER759  ASP760  ASP761  ALA762  ILE779  LEU786  VAL792 
 PHE793  MET794  SER795  GLU796  ALA797  LYS798  CYS799  TRP800  GLU811  SER814 

> <Gold.Protein.RotatedAtoms>
  152.5311  133.9910  159.7850 H   0  0  0  0  0  0  0  0  0  0  0  0  # atno 6907 bound_to 6896
  151.0146  133.5925  159.2685 H   0  0  0  0  0  0  0  0  0  0  0  0  # atno 6908 bound_to 6896
  151.2987  135.0769  159.9284 H   0  0  0  0  0  0  0  0  0  0  0  0  # atno 6909 bound_to 6896
  145.7426  140.8946  143.0522 H   0  0  0  0  0  0  0  0  0  0  0  0  # atno 7974 bound_to 7965
  155.8741  140.3447  155.5841 H   0  0  0  0  0  0  0  0  0  0  0  0  # atno 8008 bound_to 7997
  155.7795  140.0856  157.2086 H   0  0  0  0  0  0  0  0  0  0  0  0  # atno 8009 bound_to 7997
  154.4019  140.1503  156.3022 H   0  0  0  0  0  0  0  0  0  0  0  0  # atno 8010 bound_to 7997
  140.4979  143.2367  151.7800 H   0  0  0  0  0  0  0  0  0  0  0  0  # atno 10167 bound_to 10162
  156.7027  130.5098  149.5913 H   0  0  0  0  0  0  0  0  0  0  0  0  # atno 10718 bound_to 10713
  154.2799  135.2763  155.2701 H   0  0  0  0  0  0  0  0  0  0  0  0  # atno 10763 bound_to 10752
  154.5227  135.5752  153.6697 H   0  0  0  0  0  0  0  0  0  0  0  0  # atno 10764 bound_to 10752
  152.9931  135.6208  154.2958 H   0  0  0  0  0  0  0  0  0  0  0  0  # atno 10765 bound_to 10752
  139.8814  134.9370  156.5671 H   0  0  0  0  0  0  0  0  0  0  0  0  # atno 11005 bound_to 11000
  144.6867  139.9481  143.7477 LP  0  0  0  0  0  0  0  0  0  0  0  0  # atno 17320 bound_to 7965
  146.0434  139.3442  143.0684 LP  0  0  0  0  0  0  0  0  0  0  0  0  # atno 17321 bound_to 7965
  139.4865  144.4562  151.9596 LP  0  0  0  0  0  0  0  0  0  0  0  0  # atno 17342 bound_to 10162
  140.3650  144.2926  150.5928 LP  0  0  0  0  0  0  0  0  0  0  0  0  # atno 17343 bound_to 10162
  156.1717  130.6441  151.0845 LP  0  0  0  0  0  0  0  0  0  0  0  0  # atno 17370 bound_to 10713
  157.6967  131.0791  150.6948 LP  0  0  0  0  0  0  0  0  0  0  0  0  # atno 17371 bound_to 10713
  140.8126  133.8417  155.8823 LP  0  0  0  0  0  0  0  0  0  0  0  0  # atno 17394 bound_to 11000
  140.9492  134.1800  157.4740 LP  0  0  0  0  0  0  0  0  0  0  0  0  # atno 17395 bound_to 11000

$$$$
