AV-unprocessed.smi:1225|AV-procd|sdf|5141|dock5
  -GOLD-   22720 4203D 1   1.00000     0.00000
 Structure written by MMmdl.
 49 51  0  0  0  0  0  0  0  0  2 V2000
  142.5566  134.6814  152.6493 C   0  0  0  0  0  0  0  0  0  0  0  0
  143.7999  135.4767  152.4414 C   0  0  0  0  0  0  0  0  0  0  0  0
  144.8932  134.9970  151.8442 N   0  0  0  0  0  0  0  0  0  0  0  0
  145.9199  135.9407  151.7718 C   0  0  0  0  0  0  0  0  0  0  0  0
  145.5939  137.1572  152.3192 C   0  0  0  0  0  0  0  0  0  0  0  0
  146.4426  138.3832  152.3979 C   0  0  0  0  0  0  0  0  0  0  0  0
  147.5033  138.2619  153.4308 N   0  3  2  0  0  0  0  0  0  0  0  0
  147.0493  137.5153  154.6272 C   0  0  0  0  0  0  0  0  0  0  0  0
  148.1217  139.5638  153.7850 C   0  0  0  0  0  0  0  0  0  0  0  0
  149.1126  139.4320  154.9633 C   0  0  2  0  0  0  0  0  0  0  0  0
  148.4262  139.7150  156.1653 O   0  0  0  0  0  0  0  0  0  0  0  0
  150.3186  140.3881  154.8684 C   0  0  0  0  0  0  0  0  0  0  0  0
  151.1839  140.3140  156.0319 N   0  0  0  0  0  0  0  0  0  0  0  0
  152.0460  139.3256  156.3406 C   0  0  0  0  0  0  0  0  0  0  0  0
  152.7384  139.4523  157.4685 N   0  0  0  0  0  0  0  0  0  0  0  0
  152.2839  140.6714  157.9404 C   0  0  0  0  0  0  0  0  0  0  0  0
  152.6266  141.3879  159.1077 C   0  0  0  0  0  0  0  0  0  0  0  0
  152.0264  142.6343  159.3956 C   0  0  0  0  0  0  0  0  0  0  0  0
  152.4259  143.3712  160.6618 C   0  0  0  0  0  0  0  0  0  0  0  0
  151.0672  143.1832  158.5071 C   0  0  0  0  0  0  0  0  0  0  0  0
  150.4108  144.5219  158.7951 C   0  0  0  0  0  0  0  0  0  0  0  0
  150.7140  142.4811  157.3358 C   0  0  0  0  0  0  0  0  0  0  0  0
  151.3151  141.2397  157.0621 C   0  0  0  0  0  0  0  0  0  0  0  0
  143.9691  137.1504  152.9556 S   0  0  0  0  0  0  0  0  0  0  0  0
  142.7385  133.6247  152.4509 H   0  0  0  0  0  0  0  0  0  0  0  0
  141.7729  135.0339  151.9785 H   0  0  0  0  0  0  0  0  0  0  0  0
  142.2123  134.7884  153.6780 H   0  0  0  0  0  0  0  0  0  0  0  0
  146.8537  135.6623  151.3059 H   0  0  0  0  0  0  0  0  0  0  0  0
  146.8846  138.5551  151.4168 H   0  0  0  0  0  0  0  0  0  0  0  0
  145.8274  139.2606  152.6035 H   0  0  0  0  0  0  0  0  0  0  0  0
  146.2554  138.0547  155.1456 H   0  0  0  0  0  0  0  0  0  0  0  0
  147.8737  137.3665  155.3254 H   0  0  0  0  0  0  0  0  0  0  0  0
  146.6731  136.5283  154.3577 H   0  0  0  0  0  0  0  0  0  0  0  0
  148.6068  139.9681  152.8958 H   0  0  0  0  0  0  0  0  0  0  0  0
  147.3517  140.2858  154.0618 H   0  0  0  0  0  0  0  0  0  0  0  0
  149.4853  138.4110  155.0325 H   0  0  0  0  0  0  0  0  0  0  0  0
  148.7635  140.5228  156.5229 H   0  0  0  0  0  0  0  0  0  0  0  0
  150.9122  140.1611  153.9811 H   0  0  0  0  0  0  0  0  0  0  0  0
  149.9791  141.4194  154.7628 H   0  0  0  0  0  0  0  0  0  0  0  0
  152.1652  138.4587  155.7071 H   0  0  0  0  0  0  0  0  0  0  0  0
  153.3593  140.9709  159.7831 H   0  0  0  0  0  0  0  0  0  0  0  0
  151.5584  143.5313  161.3023 H   0  0  0  0  0  0  0  0  0  0  0  0
  152.8607  144.3408  160.4175 H   0  0  0  0  0  0  0  0  0  0  0  0
  153.1646  142.8090  161.2337 H   0  0  0  0  0  0  0  0  0  0  0  0
  149.7001  144.7934  158.0139 H   0  0  0  0  0  0  0  0  0  0  0  0
  151.1612  145.3108  158.8534 H   0  0  0  0  0  0  0  0  0  0  0  0
  149.8702  144.4869  159.7411 H   0  0  0  0  0  0  0  0  0  0  0  0
  149.9881  142.8920  156.6501 H   0  0  0  0  0  0  0  0  0  0  0  0
  148.2465  137.7128  153.0219 H   0  0  0  0  0  0  0  0  0  0  0  0
  1  2  1  0  0  0  0
  1 25  1  0  0  0  0
  1 26  1  0  0  0  0
  1 27  1  0  0  0  0
  2 24  1  0  0  0  0
  2  3  2  0  0  0  0
  3  4  1  0  0  0  0
  4  5  2  0  0  0  0
  4 28  1  0  0  0  0
  5  6  1  0  0  0  0
  5 24  1  0  0  0  0
  6  7  1  0  0  0  0
  6 29  1  0  0  0  0
  6 30  1  0  0  0  0
  7  8  1  0  0  0  0
  7  9  1  0  0  0  0
  7 49  1  0  0  0  0
  8 31  1  0  0  0  0
  8 32  1  0  0  0  0
  8 33  1  0  0  0  0
  9 10  1  0  0  0  0
  9 34  1  0  0  0  0
  9 35  1  0  0  0  0
 10 11  1  0  0  0  0
 10 12  1  0  0  0  0
 10 36  1  0  0  0  0
 11 37  1  0  0  0  0
 12 13  1  0  0  0  0
 12 38  1  0  0  0  0
 12 39  1  0  0  0  0
 13 23  1  0  0  0  0
 13 14  1  0  0  0  0
 14 15  2  0  0  0  0
 14 40  1  0  0  0  0
 15 16  1  0  0  0  0
 16 23  2  0  0  0  0
 16 17  1  0  0  0  0
 17 18  2  0  0  0  0
 17 41  1  0  0  0  0
 18 19  1  0  0  0  0
 18 20  1  0  0  0  0
 19 42  1  0  0  0  0
 19 43  1  0  0  0  0
 19 44  1  0  0  0  0
 20 21  1  0  0  0  0
 20 22  2  0  0  0  0
 21 45  1  0  0  0  0
 21 46  1  0  0  0  0
 21 47  1  0  0  0  0
 22 23  1  0  0  0  0
 22 48  1  0  0  0  0
M  CHG  1   7   1
M  END
> <s_m_source_file>
AV-unprocessed.smi

> <i_m_source_file_index>
1225

> <i_lp_mmshare_version>
43012

> <i_f3d_flags>
0

> <s_epik_input>
W0NIM11jMW5bY0hdYyhzMSlbQ0gyXU4oW0NIM10pW0NIMl1bQ0BIXShbT0hdKVtDSDJdbihbY0hdbjIpYyhjMjMpW2NIXWMoW0NIM10pYyhbY0hdMylbQ0gzXQ==

> <s_epik_cmdline>
J2VwaWtfcHl0aG9uJywgJy1waCcsICc3LjAnLCAnLXRuJywgJzgnLCAnLW1hJywgJzIwMCcsICctbWV0YWxfYmluZGluZycsICctaW1hZScsICc8aW5maWxlLm1hZT4nLCAnLW9tYWUnLCAnPG91dGZpbGUubWFlPic=

> <r_epik_Ionization_Penalty>
1.62543

> <r_epik_Ionization_Penalty_Charging>
1.53932

> <r_epik_Ionization_Penalty_Neutral>
0.0861152

> <r_epik_State_Penalty>
1.73127

> <r_epik_Charging_Adjusted_Penalty>
3.27059

> <i_epik_Tot_Q>
1

> <i_epik_Tot_abs_Q>
1

> <r_epik_Metal_State_Penalty>
1.71387

> <b_epik_Metal_Only>
0

> <s_lp_Force_Field>
OPLS_2005

> <r_lp_Energy>
11.3811

> <b_lp_Chiralities_Consistent>
1

> <s_lp_Variant>
AV-unprocessed.smi:1225-6

> <Gold.Version>
5.8.1

> <Gold.Id.Protein>
6NUR|6NUR_protein|mol2

> <Gold.PLP.Fitness>
51.3146

> <Gold.PLP.PLP>
-41.8959

> <Gold.PLP.part.hbond>
-2.0000

> <Gold.PLP.part.metal>
0.0000

> <Gold.PLP.part.buried>
-1.3148

> <Gold.PLP.part.nonpolar>
-39.4468

> <Gold.PLP.part.repulsive>
0.1640

> <Gold.PLP.ligand.clash>
0.0000

> <Gold.PLP.ligand.torsion>
1.0444

> <Gold.PLP.Chemscore.Hbond>
2.8000

> <Gold.PLP.Chemscore.CHOScore>
1.0000

> <Gold.PLP.Chemscore.Metal>
0.0000

> <Gold.Chemscore.Hbonds>
donor molecule, donor type, donor heavy atom, donor atom, acceptor molecule, acceptor atom, score
      L1  H     7    49       P1  7948  2.00
      P1  H  7997  8010       L1    15  0.85
      L1  C     4    28       P1  7948  1.00

> <Gold.PLP.Chemscore.Internal.Correction>
0.1076

> <Gold.Rescore>
     Score         DG    S(hbond)    S(metal)    S(lipo)     H(rot)  DE(clash)    DE(int)     intcor
     15.99     -17.21       0.99        0.00     123.98       2.37       0.23       1.00       ----

> <Gold.Chemscore.Fitness>
15.9864

> <Gold.Chemscore.DG>
-17.2134

> <Gold.Chemscore.ZeroCoef>
-5.4800

> <Gold.Chemscore.Hbond>
0.9903

> <Gold.Chemscore.Metal>
0.0000

> <Gold.Chemscore.Lipo>
123.9807

> <Gold.Chemscore.Internal_Hbond>
0.0000

> <Gold.Chemscore.DEClash>
0.2252

> <Gold.Chemscore.DEInternal>
1.0018

> <Gold.Chemscore.Rot>
2.3750

> <Gold.Chemscore.Internal.Correction>
   9.000000E+99

> <Gold.Chemscore.Hbonds>
donor molecule, donor type, donor heavy atom, donor atom, acceptor molecule, acceptor atom, score
      L1  H     7    49       P1  7948  0.94
      P1  H  7997  8010       L1    15  0.09

> <Gold.Chemscore.Hbond.Weighted>
-3.3076

> <Gold.Chemscore.Metal.Weighted>
-0.0000

> <Gold.Chemscore.Lipo.Weighted>
-14.5057

> <Gold.Chemscore.Internal_Hbond.Weighted>
0.0000

> <Gold.Chemscore.DEClash.Weighted>
0.2252

> <Gold.Chemscore.DEInternal.Weighted>
1.0018

> <Gold.Chemscore.Rot.Weighted>
6.0800

> <Gold.Chemscore.Internal.Correction.Weighted>
   9.000000E+99

> <Gold.Protein.RotatedTorsions>
[ 6907 6896 6895 6894 ] final  -54.12 input  -60.11 | X-H torsion
[ 7974 7965 7964 7962 ] final  148.93 input  175.53 | X-H torsion
[ 8008 7997 7996 7995 ] final   37.99 input   59.86 | X-H torsion
[ 10167 10162 10161 10158 ] final  -39.30 input  -65.29 | X-H torsion
[ 10718 10713 10712 10709 ] final  -99.88 input   66.30 | X-H torsion
[ 10763 10752 10751 10750 ] final  -56.75 input  -60.55 | X-H torsion
[ 11005 11000 10999 10996 ] final   21.40 input  -57.11 | X-H torsion

> <Gold.Protein.ActiveResidues>
 VAL166  LYS551  ARG553  GLY616  TRP617  ASP618  TYR619  PRO620  LYS621  CYS622 
 ASP623  PHE694  ASN695  SER759  ASP760  ASP761  ALA762  ILE779  LEU786  VAL792 
 PHE793  MET794  SER795  GLU796  ALA797  LYS798  CYS799  TRP800  GLU811  SER814 

> <Gold.Protein.RotatedAtoms>
  150.8366  134.7641  159.6897 H   0  0  0  0  0  0  0  0  0  0  0  0  # atno 6907 bound_to 6896
  152.4461  134.5487  159.9870 H   0  0  0  0  0  0  0  0  0  0  0  0  # atno 6908 bound_to 6896
  151.5636  133.3362  159.3012 H   0  0  0  0  0  0  0  0  0  0  0  0  # atno 6909 bound_to 6896
  144.8476  139.6216  143.5988 H   0  0  0  0  0  0  0  0  0  0  0  0  # atno 7974 bound_to 7965
  155.2128  140.3325  155.4326 H   0  0  0  0  0  0  0  0  0  0  0  0  # atno 8008 bound_to 7997
  156.2364  140.1874  156.7156 H   0  0  0  0  0  0  0  0  0  0  0  0  # atno 8009 bound_to 7997
  154.6067  140.0615  156.9425 H   0  0  0  0  0  0  0  0  0  0  0  0  # atno 8010 bound_to 7997
  140.7068  143.3223  151.2763 H   0  0  0  0  0  0  0  0  0  0  0  0  # atno 10167 bound_to 10162
  156.0146  130.5302  150.6734 H   0  0  0  0  0  0  0  0  0  0  0  0  # atno 10718 bound_to 10713
  154.2116  135.6393  153.5117 H   0  0  0  0  0  0  0  0  0  0  0  0  # atno 10763 bound_to 10752
  152.9989  135.5475  154.6209 H   0  0  0  0  0  0  0  0  0  0  0  0  # atno 10764 bound_to 10752
  154.5647  135.2912  155.0859 H   0  0  0  0  0  0  0  0  0  0  0  0  # atno 10765 bound_to 10752
  140.3919  134.1810  155.7662 H   0  0  0  0  0  0  0  0  0  0  0  0  # atno 11005 bound_to 11000
  146.2758  139.6748  142.9264 LP  0  0  0  0  0  0  0  0  0  0  0  0  # atno 17320 bound_to 7965
  145.4565  141.0431  143.2775 LP  0  0  0  0  0  0  0  0  0  0  0  0  # atno 17321 bound_to 7965
  139.6681  144.0070  152.2735 LP  0  0  0  0  0  0  0  0  0  0  0  0  # atno 17342 bound_to 10162
  139.9659  144.6526  150.8035 LP  0  0  0  0  0  0  0  0  0  0  0  0  # atno 17343 bound_to 10162
  157.4452  131.0866  151.0903 LP  0  0  0  0  0  0  0  0  0  0  0  0  # atno 17370 bound_to 10713
  157.1435  130.6153  149.5562 LP  0  0  0  0  0  0  0  0  0  0  0  0  # atno 17371 bound_to 10713
  141.1887  133.8253  157.0983 LP  0  0  0  0  0  0  0  0  0  0  0  0  # atno 17394 bound_to 11000
  140.0400  134.9859  157.0943 LP  0  0  0  0  0  0  0  0  0  0  0  0  # atno 17395 bound_to 11000

$$$$
