AV-unprocessed.smi:100|AV-procd|sdf|909|dock5
  -GOLD-   2262017403D 1   1.00000     0.00000
 Structure written by MMmdl.
 31 33  0  0  0  0  0  0  0  0  1 V2000
  150.4014  136.1634  155.9020 N   0  0  0  0  0  0  0  0  0  0  0  0
  151.1381  137.2813  155.8438 C   0  0  0  0  0  0  0  0  0  0  0  0
  152.0646  137.3901  154.8632 N   0  0  0  0  0  0  0  0  0  0  0  0
  152.8120  138.4955  154.7849 C   0  0  0  0  0  0  0  0  0  0  0  0
  152.7876  139.5769  155.5680 N   0  0  0  0  0  0  0  0  0  0  0  0
  151.8531  139.4677  156.5573 C   0  0  0  0  0  0  0  0  0  0  0  0
  150.9929  138.3525  156.7612 C   0  0  0  0  0  0  0  0  0  0  0  0
  150.1751  138.5787  157.8592 N   0  0  0  0  0  0  0  0  0  0  0  0
  150.5344  139.7619  158.2781 C   0  0  0  0  0  0  0  0  0  0  0  0
  151.5369  140.3713  157.5545 N   0  0  0  0  0  0  0  0  0  0  0  0
  152.1401  141.7213  157.8124 C   0  0  2  0  0  0  0  0  0  0  0  0
  152.4783  141.8407  159.1642 O   0  0  0  0  0  0  0  0  0  0  0  0
  151.7316  142.8975  159.7618 C   0  0  1  0  0  0  0  0  0  0  0  0
  152.4965  143.5057  160.9473 C   0  0  0  0  0  0  0  0  0  0  0  0
  151.7077  144.4842  161.5907 O   0  0  0  0  0  0  0  0  0  0  0  0
  151.4404  143.8497  158.5995 C   0  0  1  0  0  0  0  0  0  0  0  0
  152.5066  144.6035  158.3212 F   0  0  0  0  0  0  0  0  0  0  0  0
  151.1956  142.8872  157.4522 C   0  0  2  0  0  0  0  0  0  0  0  0
  149.8263  142.5320  157.3695 O   0  0  0  0  0  0  0  0  0  0  0  0
  149.7043  136.0582  156.6251 H   0  0  0  0  0  0  0  0  0  0  0  0
  150.5438  135.4299  155.2230 H   0  0  0  0  0  0  0  0  0  0  0  0
  153.5329  138.5174  153.9812 H   0  0  0  0  0  0  0  0  0  0  0  0
  150.0738  140.2278  159.1371 H   0  0  0  0  0  0  0  0  0  0  0  0
  153.0596  141.7280  157.2253 H   0  0  0  0  0  0  0  0  0  0  0  0
  150.7886  142.4832  160.1194 H   0  0  0  0  0  0  0  0  0  0  0  0
  152.7363  142.7279  161.6727 H   0  0  0  0  0  0  0  0  0  0  0  0
  153.4409  143.9467  160.6273 H   0  0  0  0  0  0  0  0  0  0  0  0
  151.3829  145.0853  160.9379 H   0  0  0  0  0  0  0  0  0  0  0  0
  150.6069  144.5264  158.7927 H   0  0  0  0  0  0  0  0  0  0  0  0
  151.4905  143.3136  156.4926 H   0  0  0  0  0  0  0  0  0  0  0  0
  149.4084  143.0962  156.7367 H   0  0  0  0  0  0  0  0  0  0  0  0
  1  2  1  0  0  0  0
  1 20  1  0  0  0  0
  1 21  1  0  0  0  0
  2  7  1  0  0  0  0
  2  3  2  0  0  0  0
  3  4  1  0  0  0  0
  4  5  2  0  0  0  0
  4 22  1  0  0  0  0
  5  6  1  0  0  0  0
  6 10  1  0  0  0  0
  6  7  2  0  0  0  0
  7  8  1  0  0  0  0
  8  9  2  0  0  0  0
  9 10  1  0  0  0  0
  9 23  1  0  0  0  0
 10 11  1  0  0  0  0
 11 18  1  0  0  0  0
 11 12  1  0  0  0  0
 11 24  1  0  0  0  0
 12 13  1  0  0  0  0
 13 14  1  0  0  0  0
 13 16  1  0  0  0  0
 13 25  1  0  0  0  0
 14 15  1  0  0  0  0
 14 26  1  0  0  0  0
 14 27  1  0  0  0  0
 15 28  1  0  0  0  0
 16 17  1  0  0  0  0
 16 18  1  0  0  0  0
 16 29  1  0  0  0  0
 18 19  1  0  0  0  0
 18 30  1  0  0  0  0
 19 31  1  0  0  0  0
M  END
> <s_m_source_file>
AV-unprocessed.smi

> <i_m_source_file_index>
100

> <i_lp_mmshare_version>
43012

> <i_f3d_flags>
0

> <s_epik_input>
bjFbY0hdbmMoW05IMl0pYyhjMTIpbltjSF1uMltDQEBIXTNPW0NAQEhdKFtDSDJdW09IXSlbQ0BIXShGKVtDQEhdM1tPSF0=

> <s_epik_cmdline>
J2VwaWtfcHl0aG9uJywgJy1waCcsICc3LjAnLCAnLXRuJywgJzgnLCAnLW1hJywgJzIwMCcsICctbWV0YWxfYmluZGluZycsICctaW1hZScsICc8aW5maWxlLm1hZT4nLCAnLW9tYWUnLCAnPG91dGZpbGUubWFlPic=

> <r_lp_tautomer_probability>
1

> <r_epik_Ionization_Penalty>
0.000750324

> <r_epik_Ionization_Penalty_Charging>
0

> <r_epik_Ionization_Penalty_Neutral>
0.000750324

> <r_epik_State_Penalty>
-0

> <r_epik_Charging_Adjusted_Penalty>
0

> <i_epik_Tot_Q>
0

> <i_epik_Tot_abs_Q>
0

> <r_epik_Metal_State_Penalty>
-0

> <b_epik_Metal_Only>
0

> <s_epik_Chemistry_Notes>
This compound contains an acetal/aminal-like group ( X-CH(R)-Y where X, Y are N, S, or O) that may be acid/base labile, releasing an aldehyde.

> <s_lp_Force_Field>
OPLS_2005

> <r_lp_Energy>
35.7638

> <b_lp_Chiralities_Consistent>
1

> <s_lp_Variant>
AV-unprocessed.smi:100-13

> <Gold.Version>
5.8.1

> <Gold.Id.Protein>
6NUR|6NUR_protein|mol2

> <Gold.PLP.Fitness>
42.4487

> <Gold.PLP.PLP>
-34.4770

> <Gold.PLP.part.hbond>
-4.0000

> <Gold.PLP.part.metal>
0.0000

> <Gold.PLP.part.buried>
-7.1687

> <Gold.PLP.part.nonpolar>
-23.3613

> <Gold.PLP.part.repulsive>
0.1707

> <Gold.PLP.ligand.clash>
0.0000

> <Gold.PLP.ligand.torsion>
0.2630

> <Gold.PLP.Chemscore.Hbond>
2.8320

> <Gold.PLP.Chemscore.CHOScore>
0.0000

> <Gold.PLP.Chemscore.Metal>
0.0000

> <Gold.Chemscore.Hbonds>
donor molecule, donor type, donor heavy atom, donor atom, acceptor molecule, acceptor atom, score
      L1  H    19    31       P1  8028  1.00
      P1  H  7997  8009       L1     5  1.00
      P1  H 10752 10764       L1     3  0.83

> <Gold.PLP.Chemscore.Internal.Correction>
0.0016

> <Gold.Rescore>
     Score         DG    S(hbond)    S(metal)    S(lipo)     H(rot)  DE(clash)    DE(int)     intcor
      9.75     -11.21       2.56        0.00      45.58       3.19       0.14       1.32       ----

> <Gold.Chemscore.Fitness>
9.7505

> <Gold.Chemscore.DG>
-11.2106

> <Gold.Chemscore.ZeroCoef>
-5.4800

> <Gold.Chemscore.Hbond>
2.5641

> <Gold.Chemscore.Metal>
0.0000

> <Gold.Chemscore.Lipo>
45.5820

> <Gold.Chemscore.Internal_Hbond>
0.0000

> <Gold.Chemscore.DEClash>
0.1400

> <Gold.Chemscore.DEInternal>
1.3200

> <Gold.Chemscore.Rot>
3.1901

> <Gold.Chemscore.Internal.Correction>
   9.000000E+99

> <Gold.Chemscore.Hbonds>
donor molecule, donor type, donor heavy atom, donor atom, acceptor molecule, acceptor atom, score
      L1  H    19    31       P1  8028  0.94
      P1  H  7997  8009       L1     5  0.82
      P1  H 10752 10764       L1     3  0.63

> <Gold.Chemscore.Hbond.Weighted>
-8.5642

> <Gold.Chemscore.Metal.Weighted>
-0.0000

> <Gold.Chemscore.Lipo.Weighted>
-5.3331

> <Gold.Chemscore.Internal_Hbond.Weighted>
0.0000

> <Gold.Chemscore.DEClash.Weighted>
0.1400

> <Gold.Chemscore.DEInternal.Weighted>
1.3200

> <Gold.Chemscore.Rot.Weighted>
8.1667

> <Gold.Chemscore.Internal.Correction.Weighted>
   9.000000E+99

> <Gold.Protein.RotatedTorsions>
[ 6907 6896 6895 6894 ] final  -73.89 input  -60.11 | X-H torsion
[ 7974 7965 7964 7962 ] final -129.14 input  175.53 | X-H torsion
[ 8008 7997 7996 7995 ] final -149.61 input   59.86 | X-H torsion
[ 10167 10162 10161 10158 ] final  -40.67 input  -65.29 | X-H torsion
[ 10718 10713 10712 10709 ] final  -66.37 input   66.30 | X-H torsion
[ 10763 10752 10751 10750 ] final  -65.75 input  -60.55 | X-H torsion
[ 11005 11000 10999 10996 ] final    4.19 input  -57.11 | X-H torsion

> <Gold.Protein.ActiveResidues>
 VAL166  LYS551  ARG553  GLY616  TRP617  ASP618  TYR619  PRO620  LYS621  CYS622 
 ASP623  PHE694  ASN695  SER759  ASP760  ASP761  ALA762  ILE779  LEU786  VAL792 
 PHE793  MET794  SER795  GLU796  ALA797  LYS798  CYS799  TRP800  GLU811  SER814 

> <Gold.Protein.RotatedAtoms>
  150.7113  134.4950  159.5533 H   0  0  0  0  0  0  0  0  0  0  0  0  # atno 6907 bound_to 6896
  152.2560  134.8081  160.0447 H   0  0  0  0  0  0  0  0  0  0  0  0  # atno 6908 bound_to 6896
  151.8811  133.3460  159.3803 H   0  0  0  0  0  0  0  0  0  0  0  0  # atno 6909 bound_to 6896
  144.9601  140.7437  143.4734 H   0  0  0  0  0  0  0  0  0  0  0  0  # atno 7974 bound_to 7965
  155.6103  140.0671  157.2708 H   0  0  0  0  0  0  0  0  0  0  0  0  # atno 8008 bound_to 7997
  154.4255  140.1802  156.1313 H   0  0  0  0  0  0  0  0  0  0  0  0  # atno 8009 bound_to 7997
  156.0090  140.3328  155.6924 H   0  0  0  0  0  0  0  0  0  0  0  0  # atno 8010 bound_to 7997
  140.7027  143.3139  151.2958 H   0  0  0  0  0  0  0  0  0  0  0  0  # atno 10167 bound_to 10162
  156.0616  130.4261  150.1699 H   0  0  0  0  0  0  0  0  0  0  0  0  # atno 10718 bound_to 10713
  154.3497  135.6139  153.5636 H   0  0  0  0  0  0  0  0  0  0  0  0  # atno 10763 bound_to 10752
  152.9799  135.5789  154.4758 H   0  0  0  0  0  0  0  0  0  0  0  0  # atno 10764 bound_to 10752
  154.4476  135.2852  155.1781 H   0  0  0  0  0  0  0  0  0  0  0  0  # atno 10765 bound_to 10752
  140.5847  133.9980  155.8062 H   0  0  0  0  0  0  0  0  0  0  0  0  # atno 11005 bound_to 11000
  145.2713  139.1953  143.4840 LP  0  0  0  0  0  0  0  0  0  0  0  0  # atno 17320 bound_to 7965
  146.3350  140.2660  142.8604 LP  0  0  0  0  0  0  0  0  0  0  0  0  # atno 17321 bound_to 7965
  139.6571  144.0256  152.2667 LP  0  0  0  0  0  0  0  0  0  0  0  0  # atno 17342 bound_to 10162
  139.9811  144.6427  150.7900 LP  0  0  0  0  0  0  0  0  0  0  0  0  # atno 17343 bound_to 10162
  156.9766  130.9851  151.3447 LP  0  0  0  0  0  0  0  0  0  0  0  0  # atno 17370 bound_to 10713
  157.5629  130.8258  149.8289 LP  0  0  0  0  0  0  0  0  0  0  0  0  # atno 17371 bound_to 10713
  141.0974  133.9822  157.3137 LP  0  0  0  0  0  0  0  0  0  0  0  0  # atno 17394 bound_to 11000
  139.9301  135.0200  156.8372 LP  0  0  0  0  0  0  0  0  0  0  0  0  # atno 17395 bound_to 11000

$$$$
