AV-unprocessed.smi:3321|AV-procd|sdf|12771|dock1
  -GOLD-   2272019113D 1   1.00000     0.00000
 Structure written by MMmdl.
 40 41  0  0  0  0  0  0  0  0  1 V2000
  148.5953  141.7196  154.4201 C   0  0  0  0  0  0  0  0  0  0  0  0
  148.7851  140.5690  155.4207 C   0  0  2  0  0  0  0  0  0  0  0  0
  148.8667  141.1153  156.7887 N   0  0  0  0  0  0  0  0  0  0  0  0
  150.0321  141.9650  157.0104 C   0  0  0  0  0  0  0  0  0  0  0  0
  150.4333  141.9043  158.4905 C   0  0  0  0  0  0  0  0  0  0  0  0
  151.2316  143.0534  158.8709 N   0  0  0  0  0  0  0  0  0  0  0  0
  151.5551  144.1602  158.1149 C   0  0  0  0  0  0  0  0  0  0  0  0
  152.3321  144.9700  158.8929 C   0  0  0  0  0  0  0  0  0  0  0  0
  152.4306  144.2626  160.1239 C   0  0  0  0  0  0  0  0  0  0  0  0
  151.7715  143.1153  160.1074 N   0  0  0  0  0  0  0  0  0  0  0  0
  150.0158  139.7201  155.0219 C   0  0  0  0  0  0  0  0  0  0  0  0
  151.1204  140.2679  155.0228 O   0  0  0  0  0  0  0  0  0  0  0  0
  149.8667  138.4125  154.6904 N   0  0  0  0  0  0  0  0  0  0  0  0
  151.0137  137.5176  154.4867 C   0  0  0  0  0  0  0  0  0  0  0  0
  151.0913  136.5489  155.6825 C   0  0  0  0  0  0  0  0  0  0  0  0
  149.7669  135.7795  155.8627 C   0  0  0  0  0  0  0  0  0  0  0  0
  148.5467  136.7222  155.8522 C   0  0  0  0  0  0  0  0  0  0  0  0
  148.6034  137.6649  154.6371 C   0  0  0  0  0  0  0  0  0  0  0  0
  148.4900  141.3497  153.3995 H   0  0  0  0  0  0  0  0  0  0  0  0
  149.4418  142.4078  154.4371 H   0  0  0  0  0  0  0  0  0  0  0  0
  147.6978  142.2942  154.6510 H   0  0  0  0  0  0  0  0  0  0  0  0
  147.8896  139.9501  155.4025 H   0  0  0  0  0  0  0  0  0  0  0  0
  148.0232  141.6101  157.0416 H   0  0  0  0  0  0  0  0  0  0  0  0
  150.8592  141.6256  156.3849 H   0  0  0  0  0  0  0  0  0  0  0  0
  149.8188  142.9983  156.7358 H   0  0  0  0  0  0  0  0  0  0  0  0
  149.5465  141.8754  159.1255 H   0  0  0  0  0  0  0  0  0  0  0  0
  151.0031  140.9972  158.6995 H   0  0  0  0  0  0  0  0  0  0  0  0
  151.2107  144.2772  157.0977 H   0  0  0  0  0  0  0  0  0  0  0  0
  152.7654  145.9218  158.6235 H   0  0  0  0  0  0  0  0  0  0  0  0
  152.9585  144.5465  161.0226 H   0  0  0  0  0  0  0  0  0  0  0  0
  150.8843  136.9608  153.5576 H   0  0  0  0  0  0  0  0  0  0  0  0
  151.9591  138.0510  154.3805 H   0  0  0  0  0  0  0  0  0  0  0  0
  151.9153  135.8480  155.5464 H   0  0  0  0  0  0  0  0  0  0  0  0
  151.3114  137.1125  156.5905 H   0  0  0  0  0  0  0  0  0  0  0  0
  149.6639  135.0587  155.0506 H   0  0  0  0  0  0  0  0  0  0  0  0
  149.7889  135.2006  156.7863 H   0  0  0  0  0  0  0  0  0  0  0  0
  147.6252  136.1398  155.8356 H   0  0  0  0  0  0  0  0  0  0  0  0
  148.5269  137.3105  156.7708 H   0  0  0  0  0  0  0  0  0  0  0  0
  147.7166  138.2934  154.5889 H   0  0  0  0  0  0  0  0  0  0  0  0
  148.5738  137.0787  153.7174 H   0  0  0  0  0  0  0  0  0  0  0  0
  1  2  1  0  0  0  0
  1 19  1  0  0  0  0
  1 20  1  0  0  0  0
  1 21  1  0  0  0  0
  2  3  1  0  0  0  0
  2 11  1  0  0  0  0
  2 22  1  0  0  0  0
  3  4  1  0  0  0  0
  3 23  1  0  0  0  0
  4  5  1  0  0  0  0
  4 24  1  0  0  0  0
  4 25  1  0  0  0  0
  5  6  1  0  0  0  0
  5 26  1  0  0  0  0
  5 27  1  0  0  0  0
  6 10  1  0  0  0  0
  6  7  1  0  0  0  0
  7  8  2  0  0  0  0
  7 28  1  0  0  0  0
  8  9  1  0  0  0  0
  8 29  1  0  0  0  0
  9 10  2  0  0  0  0
  9 30  1  0  0  0  0
 11 12  2  0  0  0  0
 11 13  1  0  0  0  0
 13 18  1  0  0  0  0
 13 14  1  0  0  0  0
 14 15  1  0  0  0  0
 14 31  1  0  0  0  0
 14 32  1  0  0  0  0
 15 16  1  0  0  0  0
 15 33  1  0  0  0  0
 15 34  1  0  0  0  0
 16 17  1  0  0  0  0
 16 35  1  0  0  0  0
 16 36  1  0  0  0  0
 17 18  1  0  0  0  0
 17 37  1  0  0  0  0
 17 38  1  0  0  0  0
 18 39  1  0  0  0  0
 18 40  1  0  0  0  0
M  END
> <s_m_source_file>
AV-unprocessed.smi

> <i_m_source_file_index>
3321

> <i_lp_mmshare_version>
43012

> <i_f3d_flags>
0

> <s_epik_input>
W0NIMl0xW0NIMl1bQ0gyXVtDSDJdW0NIMl1OMUMoPU8pW0NASF0oW0NIM10pW05IXVtDSDJdW0NIMl1uMltjSF1bY0hdW2NIXW4y

> <s_epik_cmdline>
J2VwaWtfcHl0aG9uJywgJy1waCcsICc3LjAnLCAnLXRuJywgJzgnLCAnLW1hJywgJzIwMCcsICctbWV0YWxfYmluZGluZycsICctaW1hZScsICc8aW5maWxlLm1hZT4nLCAnLW9tYWUnLCAnPG91dGZpbGUubWFlPic=

> <r_lp_tautomer_probability>
1

> <r_epik_Ionization_Penalty>
0.736446

> <r_epik_Ionization_Penalty_Charging>
0

> <r_epik_Ionization_Penalty_Neutral>
0.736446

> <r_epik_State_Penalty>
0.761204

> <r_epik_Charging_Adjusted_Penalty>
0.761204

> <i_epik_Tot_Q>
0

> <i_epik_Tot_abs_Q>
0

> <r_epik_Metal_State_Penalty>
0.760551

> <b_epik_Metal_Only>
0

> <s_lp_Force_Field>
OPLS_2005

> <r_lp_Energy>
27.234

> <b_lp_Chiralities_Consistent>
1

> <s_lp_Variant>
AV-unprocessed.smi:3321-3

> <Gold.Version>
5.8.1

> <Gold.Id.Protein>
6NUR|6NUR_protein|mol2

> <Gold.PLP.Fitness>
39.0296

> <Gold.PLP.PLP>
-33.5880

> <Gold.PLP.part.hbond>
-1.0000

> <Gold.PLP.part.metal>
0.0000

> <Gold.PLP.part.buried>
-2.5901

> <Gold.PLP.part.nonpolar>
-30.1509

> <Gold.PLP.part.repulsive>
0.0857

> <Gold.PLP.ligand.clash>
0.0000

> <Gold.PLP.ligand.torsion>
0.3289

> <Gold.PLP.Chemscore.Hbond>
1.0000

> <Gold.PLP.Chemscore.CHOScore>
0.9856

> <Gold.PLP.Chemscore.Metal>
0.0000

> <Gold.Chemscore.Hbonds>
donor molecule, donor type, donor heavy atom, donor atom, acceptor molecule, acceptor atom, score
      P1  H  7989  7998       L1    12  1.00
      L1  C     7    28       P1  8028  0.48

> <Gold.PLP.Chemscore.Internal.Correction>
0.1426

> <Gold.Rescore>
     Score         DG    S(hbond)    S(metal)    S(lipo)     H(rot)  DE(clash)    DE(int)     intcor
     12.53     -14.32       0.96        0.00      86.01       1.73       0.09       1.71       ----

> <Gold.Chemscore.Fitness>
12.5268

> <Gold.Chemscore.DG>
-14.3241

> <Gold.Chemscore.ZeroCoef>
-5.4800

> <Gold.Chemscore.Hbond>
0.9593

> <Gold.Chemscore.Metal>
0.0000

> <Gold.Chemscore.Lipo>
86.0057

> <Gold.Chemscore.Internal_Hbond>
0.0000

> <Gold.Chemscore.DEClash>
0.0867

> <Gold.Chemscore.DEInternal>
1.7106

> <Gold.Chemscore.Rot>
1.7277

> <Gold.Chemscore.Internal.Correction>
   9.000000E+99

> <Gold.Chemscore.Hbonds>
donor molecule, donor type, donor heavy atom, donor atom, acceptor molecule, acceptor atom, score
      P1  H  7989  7998       L1    12  0.92

> <Gold.Chemscore.Hbond.Weighted>
-3.2042

> <Gold.Chemscore.Metal.Weighted>
-0.0000

> <Gold.Chemscore.Lipo.Weighted>
-10.0627

> <Gold.Chemscore.Internal_Hbond.Weighted>
0.0000

> <Gold.Chemscore.DEClash.Weighted>
0.0867

> <Gold.Chemscore.DEInternal.Weighted>
1.7106

> <Gold.Chemscore.Rot.Weighted>
4.4228

> <Gold.Chemscore.Internal.Correction.Weighted>
   9.000000E+99

> <Gold.Protein.RotatedTorsions>
[ 6907 6896 6895 6894 ] final -151.41 input  -60.11 | X-H torsion
[ 7974 7965 7964 7962 ] final  -80.20 input  175.53 | X-H torsion
[ 8008 7997 7996 7995 ] final    9.50 input   59.86 | X-H torsion
[ 10167 10162 10161 10158 ] final   45.97 input  -65.29 | X-H torsion
[ 10718 10713 10712 10709 ] final -136.77 input   66.30 | X-H torsion
[ 10763 10752 10751 10750 ] final  111.06 input  -60.55 | X-H torsion
[ 11005 11000 10999 10996 ] final   15.58 input  -57.11 | X-H torsion

> <Gold.Protein.ActiveResidues>
 VAL166  LYS551  ARG553  GLY616  TRP617  ASP618  TYR619  PRO620  LYS621  CYS622 
 ASP623  PHE694  ASN695  SER759  ASP760  ASP761  ALA762  ILE779  LEU786  VAL792 
 PHE793  MET794  SER795  GLU796  ALA797  LYS798  CYS799  TRP800  GLU811  SER814 

> <Gold.Protein.RotatedAtoms>
  151.2128  133.4546  159.2598 H   0  0  0  0  0  0  0  0  0  0  0  0  # atno 6907 bound_to 6896
  151.0960  134.9944  159.8436 H   0  0  0  0  0  0  0  0  0  0  0  0  # atno 6908 bound_to 6896
  152.5439  134.2058  159.8783 H   0  0  0  0  0  0  0  0  0  0  0  0  # atno 6909 bound_to 6896
  145.5631  140.9479  143.1436 H   0  0  0  0  0  0  0  0  0  0  0  0  # atno 7974 bound_to 7965
  154.7809  140.2818  155.6065 H   0  0  0  0  0  0  0  0  0  0  0  0  # atno 8008 bound_to 7997
  156.2949  140.2623  156.2562 H   0  0  0  0  0  0  0  0  0  0  0  0  # atno 8009 bound_to 7997
  154.9786  140.0375  157.2257 H   0  0  0  0  0  0  0  0  0  0  0  0  # atno 8010 bound_to 7997
  140.3187  144.2732  150.6186 H   0  0  0  0  0  0  0  0  0  0  0  0  # atno 10167 bound_to 10162
  156.2808  130.7319  151.1316 H   0  0  0  0  0  0  0  0  0  0  0  0  # atno 10718 bound_to 10713
  153.4579  135.3729  155.2321 H   0  0  0  0  0  0  0  0  0  0  0  0  # atno 10763 bound_to 10752
  154.8757  135.3901  154.3960 H   0  0  0  0  0  0  0  0  0  0  0  0  # atno 10764 bound_to 10752
  153.4529  135.7086  153.6162 H   0  0  0  0  0  0  0  0  0  0  0  0  # atno 10765 bound_to 10752
  140.4567  134.1169  155.7710 H   0  0  0  0  0  0  0  0  0  0  0  0  # atno 11005 bound_to 11000
  144.7473  139.7286  143.7287 LP  0  0  0  0  0  0  0  0  0  0  0  0  # atno 17320 bound_to 7965
  146.1837  139.5042  142.9850 LP  0  0  0  0  0  0  0  0  0  0  0  0  # atno 17321 bound_to 7965
  140.5503  143.2207  151.7937 LP  0  0  0  0  0  0  0  0  0  0  0  0  # atno 17342 bound_to 10162
  139.4879  144.4485  151.9682 LP  0  0  0  0  0  0  0  0  0  0  0  0  # atno 17343 bound_to 10162
  157.7313  131.0609  150.5682 LP  0  0  0  0  0  0  0  0  0  0  0  0  # atno 17370 bound_to 10713
  156.5787  130.4299  149.5987 LP  0  0  0  0  0  0  0  0  0  0  0  0  # atno 17371 bound_to 10713
  141.1640  133.8739  157.1769 LP  0  0  0  0  0  0  0  0  0  0  0  0  # atno 17394 bound_to 11000
  139.9971  135.0042  157.0108 LP  0  0  0  0  0  0  0  0  0  0  0  0  # atno 17395 bound_to 11000

$$$$
