AV-unprocessed.smi:2114|AV-procd|sdf|8618|dock2
  -GOLD-   2272011363D 1   1.00000     0.00000
 Structure written by MMmdl.
 47 48  0  0  0  0  0  0  0  0  1 V2000
  152.5935  138.9289  154.5820 C   0  0  0  0  0  0  0  0  0  0  0  0
  152.5603  138.0896  155.7227 O   0  0  0  0  0  0  0  0  0  0  0  0
  151.5579  138.4719  156.6512 C   0  0  0  0  0  0  0  0  0  0  0  0
  151.1075  137.2403  157.4513 C   0  0  1  0  0  0  0  0  0  0  0  0
  150.2034  137.6346  158.6306 C   0  0  0  0  0  0  0  0  0  0  0  0
  150.4079  136.3150  156.5644 N   0  0  0  0  0  0  0  0  0  0  0  0
  150.6764  135.0056  156.4352 C   0  0  0  0  0  0  0  0  0  0  0  0
  151.5293  134.4154  157.0988 O   0  0  0  0  0  0  0  0  0  0  0  0
  149.8114  134.2628  155.4593 C   0  0  0  0  0  0  0  0  0  0  0  0
  150.0379  132.8968  155.1923 C   0  0  0  0  0  0  0  0  0  0  0  0
  149.2204  132.2361  154.2554 C   0  0  0  0  0  0  0  0  0  0  0  0
  148.1979  132.9605  153.5986 C   0  0  0  0  0  0  0  0  0  0  0  0
  147.3654  132.3161  152.6588 N   0  0  0  0  0  0  0  0  0  0  0  0
  146.2905  133.0952  152.0487 C   0  0  0  0  0  0  0  0  0  0  0  0
  145.6849  132.3339  150.8551 C   0  0  2  0  0  0  0  0  0  0  0  0
  144.4758  133.0637  150.2611 C   0  0  0  0  0  0  0  0  0  0  0  0
  145.2613  131.0449  151.2901 O   0  0  0  0  0  0  0  0  0  0  0  0
  146.3405  130.2543  151.7810 C   0  0  2  0  0  0  0  0  0  0  0  0
  145.7976  128.8649  152.1293 C   0  0  0  0  0  0  0  0  0  0  0  0
  146.9668  130.9540  153.0019 C   0  0  0  0  0  0  0  0  0  0  0  0
  147.9943  134.2786  153.8420 N   0  0  0  0  0  0  0  0  0  0  0  0
  148.7792  134.9074  154.7421 C   0  0  0  0  0  0  0  0  0  0  0  0
  153.3757  138.5915  153.9020 H   0  0  0  0  0  0  0  0  0  0  0  0
  152.8100  139.9615  154.8582 H   0  0  0  0  0  0  0  0  0  0  0  0
  151.6450  138.9013  154.0442 H   0  0  0  0  0  0  0  0  0  0  0  0
  151.9612  139.2272  157.3279 H   0  0  0  0  0  0  0  0  0  0  0  0
  150.7093  138.9200  156.1309 H   0  0  0  0  0  0  0  0  0  0  0  0
  151.9990  136.7510  157.8482 H   0  0  0  0  0  0  0  0  0  0  0  0
  150.7168  138.3214  159.3041 H   0  0  0  0  0  0  0  0  0  0  0  0
  149.9115  136.7621  159.2159 H   0  0  0  0  0  0  0  0  0  0  0  0
  149.2923  138.1250  158.2864 H   0  0  0  0  0  0  0  0  0  0  0  0
  149.6735  136.7059  155.9919 H   0  0  0  0  0  0  0  0  0  0  0  0
  150.8246  132.3542  155.6964 H   0  0  0  0  0  0  0  0  0  0  0  0
  149.3962  131.1924  154.0412 H   0  0  0  0  0  0  0  0  0  0  0  0
  145.5221  133.2951  152.7972 H   0  0  0  0  0  0  0  0  0  0  0  0
  146.6730  134.0581  151.7075 H   0  0  0  0  0  0  0  0  0  0  0  0
  146.4377  132.2177  150.0734 H   0  0  0  0  0  0  0  0  0  0  0  0
  144.7529  134.0559  149.9042 H   0  0  0  0  0  0  0  0  0  0  0  0
  143.6841  133.1827  151.0013 H   0  0  0  0  0  0  0  0  0  0  0  0
  144.0629  132.5108  149.4172 H   0  0  0  0  0  0  0  0  0  0  0  0
  147.0908  130.1454  150.9955 H   0  0  0  0  0  0  0  0  0  0  0  0
  146.5913  128.2140  152.4969 H   0  0  0  0  0  0  0  0  0  0  0  0
  145.3564  128.3891  151.2533 H   0  0  0  0  0  0  0  0  0  0  0  0
  145.0281  128.9235  152.8996 H   0  0  0  0  0  0  0  0  0  0  0  0
  147.8120  130.3655  153.3559 H   0  0  0  0  0  0  0  0  0  0  0  0
  146.2465  130.9972  153.8199 H   0  0  0  0  0  0  0  0  0  0  0  0
  148.5719  135.9581  154.8834 H   0  0  0  0  0  0  0  0  0  0  0  0
  1  2  1  0  0  0  0
  1 23  1  0  0  0  0
  1 24  1  0  0  0  0
  1 25  1  0  0  0  0
  2  3  1  0  0  0  0
  3  4  1  0  0  0  0
  3 26  1  0  0  0  0
  3 27  1  0  0  0  0
  4  5  1  0  0  0  0
  4  6  1  0  0  0  0
  4 28  1  0  0  0  0
  5 29  1  0  0  0  0
  5 30  1  0  0  0  0
  5 31  1  0  0  0  0
  6  7  1  0  0  0  0
  6 32  1  0  0  0  0
  7  8  2  0  0  0  0
  7  9  1  0  0  0  0
  9 22  1  0  0  0  0
  9 10  2  0  0  0  0
 10 11  1  0  0  0  0
 10 33  1  0  0  0  0
 11 12  2  0  0  0  0
 11 34  1  0  0  0  0
 12 13  1  0  0  0  0
 12 21  1  0  0  0  0
 13 20  1  0  0  0  0
 13 14  1  0  0  0  0
 14 15  1  0  0  0  0
 14 35  1  0  0  0  0
 14 36  1  0  0  0  0
 15 16  1  0  0  0  0
 15 17  1  0  0  0  0
 15 37  1  0  0  0  0
 16 38  1  0  0  0  0
 16 39  1  0  0  0  0
 16 40  1  0  0  0  0
 17 18  1  0  0  0  0
 18 19  1  0  0  0  0
 18 20  1  0  0  0  0
 18 41  1  0  0  0  0
 19 42  1  0  0  0  0
 19 43  1  0  0  0  0
 19 44  1  0  0  0  0
 20 45  1  0  0  0  0
 20 46  1  0  0  0  0
 21 22  2  0  0  0  0
 22 47  1  0  0  0  0
M  END
> <s_m_source_file>
AV-unprocessed.smi

> <i_m_source_file_index>
2114

> <i_lp_mmshare_version>
43012

> <i_f3d_flags>
0

> <s_epik_input>
W0NIM11PW0NIMl1bQ0BIXShbQ0gzXSlbTkhdQyg9TyljMVtjSF1bY0hdYyhuW2NIXTEpTjJbQ0gyXVtDQEBIXShbQ0gzXSlPW0NAQEhdKFtDSDNdKVtDSDJdMg==

> <s_epik_cmdline>
J2VwaWtfcHl0aG9uJywgJy1waCcsICc3LjAnLCAnLXRuJywgJzgnLCAnLW1hJywgJzIwMCcsICctbWV0YWxfYmluZGluZycsICctaW1hZScsICc8aW5maWxlLm1hZT4nLCAnLW9tYWUnLCAnPG91dGZpbGUubWFlPic=

> <r_lp_tautomer_probability>
1

> <r_epik_Ionization_Penalty>
1.92915e-05

> <r_epik_Ionization_Penalty_Charging>
0

> <r_epik_Ionization_Penalty_Neutral>
1.92915e-05

> <r_epik_State_Penalty>
-0

> <r_epik_Charging_Adjusted_Penalty>
0

> <i_epik_Tot_Q>
0

> <i_epik_Tot_abs_Q>
0

> <r_epik_Metal_State_Penalty>
-0

> <b_epik_Metal_Only>
0

> <s_lp_Force_Field>
OPLS_2005

> <r_lp_Energy>
18.3403

> <b_lp_Chiralities_Consistent>
1

> <s_lp_Variant>
AV-unprocessed.smi:2114-2

> <Gold.Version>
5.8.1

> <Gold.Id.Protein>
6NUR|6NUR_protein|mol2

> <Gold.PLP.Fitness>
38.3791

> <Gold.PLP.PLP>
-37.7473

> <Gold.PLP.part.hbond>
-2.0000

> <Gold.PLP.part.metal>
0.0000

> <Gold.PLP.part.buried>
-6.2606

> <Gold.PLP.part.nonpolar>
-30.9239

> <Gold.PLP.part.repulsive>
1.3910

> <Gold.PLP.ligand.clash>
0.0000

> <Gold.PLP.ligand.torsion>
0.6110

> <Gold.PLP.Chemscore.Hbond>
0.5015

> <Gold.PLP.Chemscore.CHOScore>
0.0000

> <Gold.PLP.Chemscore.Metal>
0.0000

> <Gold.Chemscore.Hbonds>
donor molecule, donor type, donor heavy atom, donor atom, acceptor molecule, acceptor atom, score
      P1  H  6896  6907       L1     8  0.04

> <Gold.PLP.Chemscore.Internal.Correction>
0.3491

> <Gold.Rescore>
     Score         DG    S(hbond)    S(metal)    S(lipo)     H(rot)  DE(clash)    DE(int)     intcor
     13.45     -14.15       0.55        0.00      91.77       1.52       0.14       0.56       ----

> <Gold.Chemscore.Fitness>
13.4528

> <Gold.Chemscore.DG>
-14.1505

> <Gold.Chemscore.ZeroCoef>
-5.4800

> <Gold.Chemscore.Hbond>
0.5484

> <Gold.Chemscore.Metal>
0.0000

> <Gold.Chemscore.Lipo>
91.7677

> <Gold.Chemscore.Internal_Hbond>
0.0000

> <Gold.Chemscore.DEClash>
0.1359

> <Gold.Chemscore.DEInternal>
0.5619

> <Gold.Chemscore.Rot>
1.5226

> <Gold.Chemscore.Internal.Correction>
   9.000000E+99

> <Gold.Chemscore.Hbonds>
donor molecule, donor type, donor heavy atom, donor atom, acceptor molecule, acceptor atom, score
      P1  H  6896  6907       L1     8  0.05

> <Gold.Chemscore.Hbond.Weighted>
-1.8317

> <Gold.Chemscore.Metal.Weighted>
-0.0000

> <Gold.Chemscore.Lipo.Weighted>
-10.7368

> <Gold.Chemscore.Internal_Hbond.Weighted>
0.0000

> <Gold.Chemscore.DEClash.Weighted>
0.1359

> <Gold.Chemscore.DEInternal.Weighted>
0.5619

> <Gold.Chemscore.Rot.Weighted>
3.8980

> <Gold.Chemscore.Internal.Correction.Weighted>
   9.000000E+99

> <Gold.Protein.RotatedTorsions>
[ 6907 6896 6895 6894 ] final -158.40 input  -60.11 | X-H torsion
[ 7974 7965 7964 7962 ] final  -47.10 input  175.53 | X-H torsion
[ 8008 7997 7996 7995 ] final  126.69 input   59.86 | X-H torsion
[ 10167 10162 10161 10158 ] final -134.18 input  -65.29 | X-H torsion
[ 10718 10713 10712 10709 ] final  118.66 input   66.30 | X-H torsion
[ 10763 10752 10751 10750 ] final  -41.76 input  -60.55 | X-H torsion
[ 11005 11000 10999 10996 ] final -130.82 input  -57.11 | X-H torsion

> <Gold.Protein.ActiveResidues>
 VAL166  LYS551  ARG553  GLY616  TRP617  ASP618  TYR619  PRO620  LYS621  CYS622 
 ASP623  PHE694  ASN695  SER759  ASP760  ASP761  ALA762  ILE779  LEU786  VAL792 
 PHE793  MET794  SER795  GLU796  ALA797  LYS798  CYS799  TRP800  GLU811  SER814 

> <Gold.Protein.RotatedAtoms>
  151.3175  133.4054  159.2651 H   0  0  0  0  0  0  0  0  0  0  0  0  # atno 6907 bound_to 6896
  151.0062  134.9362  159.7992 H   0  0  0  0  0  0  0  0  0  0  0  0  # atno 6908 bound_to 6896
  152.5288  134.3140  159.9176 H   0  0  0  0  0  0  0  0  0  0  0  0  # atno 6909 bound_to 6896
  145.9651  140.7440  142.9438 H   0  0  0  0  0  0  0  0  0  0  0  0  # atno 7974 bound_to 7965
  156.2871  140.2686  156.2152 H   0  0  0  0  0  0  0  0  0  0  0  0  # atno 8008 bound_to 7997
  155.0224  140.0386  157.2460 H   0  0  0  0  0  0  0  0  0  0  0  0  # atno 8009 bound_to 7997
  154.7424  140.2727  155.6366 H   0  0  0  0  0  0  0  0  0  0  0  0  # atno 8010 bound_to 7997
  139.8907  143.6726  152.2612 H   0  0  0  0  0  0  0  0  0  0  0  0  # atno 10167 bound_to 10162
  157.6015  131.1050  150.7788 H   0  0  0  0  0  0  0  0  0  0  0  0  # atno 10718 bound_to 10713
  153.9679  135.6732  153.4746 H   0  0  0  0  0  0  0  0  0  0  0  0  # atno 10763 bound_to 10752
  153.0807  135.4925  154.8493 H   0  0  0  0  0  0  0  0  0  0  0  0  # atno 10764 bound_to 10752
  154.7236  135.3122  154.8968 H   0  0  0  0  0  0  0  0  0  0  0  0  # atno 10765 bound_to 10752
  140.9313  134.1316  157.4232 H   0  0  0  0  0  0  0  0  0  0  0  0  # atno 11005 bound_to 11000
  144.6824  140.2655  143.7313 LP  0  0  0  0  0  0  0  0  0  0  0  0  # atno 17320 bound_to 7965
  145.7985  139.1955  143.2062 LP  0  0  0  0  0  0  0  0  0  0  0  0  # atno 17321 bound_to 7965
  139.7112  144.7620  151.1109 LP  0  0  0  0  0  0  0  0  0  0  0  0  # atno 17342 bound_to 10162
  140.7727  143.5328  150.9403 LP  0  0  0  0  0  0  0  0  0  0  0  0  # atno 17343 bound_to 10162
  156.8186  130.4976  149.5346 LP  0  0  0  0  0  0  0  0  0  0  0  0  # atno 17370 bound_to 10713
  156.1089  130.6025  151.0016 LP  0  0  0  0  0  0  0  0  0  0  0  0  # atno 17371 bound_to 10713
  139.8797  135.0006  156.6019 LP  0  0  0  0  0  0  0  0  0  0  0  0  # atno 17394 bound_to 11000
  140.7859  133.8622  155.8605 LP  0  0  0  0  0  0  0  0  0  0  0  0  # atno 17395 bound_to 11000

$$$$
