AV-unprocessed.smi:480|AV-procd|sdf|2677|dock7
  -GOLD-   2262023103D 1   1.00000     0.00000
 Structure written by MMmdl.
 46 48  0  0  0  0  0  0  0  0  1 V2000
  149.0869  141.2607  155.6026 C   0  0  0  0  0  0  0  0  0  0  0  0
  150.6122  141.2243  155.7508 C   0  0  0  0  0  0  0  0  0  0  0  0
  151.0885  141.9241  156.9881 C   0  0  0  0  0  0  0  0  0  0  0  0
  150.7763  143.1970  157.2341 N   0  0  0  0  0  0  0  0  0  0  0  0
  151.3828  143.4301  158.4528 C   0  0  0  0  0  0  0  0  0  0  0  0
  151.4257  144.5964  159.2498 C   0  0  0  0  0  0  0  0  0  0  0  0
  152.1146  144.5950  160.4804 C   0  0  0  0  0  0  0  0  0  0  0  0
  152.7686  143.4300  160.9309 C   0  0  0  0  0  0  0  0  0  0  0  0
  152.7384  142.2573  160.1519 C   0  0  0  0  0  0  0  0  0  0  0  0
  152.0505  142.2647  158.9237 C   0  0  0  0  0  0  0  0  0  0  0  0
  151.8324  141.3047  157.9407 N   0  0  0  0  0  0  0  0  0  0  0  0
  152.3121  139.9291  157.9751 C   0  0  0  0  0  0  0  0  0  0  0  0
  151.8685  139.1692  159.2422 C   0  0  1  0  0  0  0  0  0  0  0  0
  150.5972  138.6162  158.9716 O   0  0  0  0  0  0  0  0  0  0  0  0
  152.8152  138.0270  159.6523 C   0  0  0  0  0  0  0  0  0  0  0  0
  154.1008  138.5741  159.9125 O   0  0  0  0  0  0  0  0  0  0  0  0
  154.5792  138.5312  161.2044 C   0  0  0  0  0  0  0  0  0  0  0  0
  155.5353  139.5030  161.5645 C   0  0  0  0  0  0  0  0  0  0  0  0
  156.0754  139.5373  162.8641 C   0  0  0  0  0  0  0  0  0  0  0  0
  155.6645  138.5927  163.8244 C   0  0  0  0  0  0  0  0  0  0  0  0
  156.2405  138.6334  165.2244 C   0  0  0  0  0  0  0  0  0  0  0  0
  156.2166  139.9910  165.7894 C   0  0  0  0  0  0  0  0  0  0  0  0
  156.1981  141.0591  166.2339 N   0  0  0  0  0  0  0  0  0  0  0  0
  154.7124  137.6149  163.4758 C   0  0  0  0  0  0  0  0  0  0  0  0
  154.1720  137.5816  162.1754 C   0  0  0  0  0  0  0  0  0  0  0  0
  148.7729  140.7536  154.6902 H   0  0  0  0  0  0  0  0  0  0  0  0
  148.7215  142.2871  155.5562 H   0  0  0  0  0  0  0  0  0  0  0  0
  148.5964  140.7685  156.4426 H   0  0  0  0  0  0  0  0  0  0  0  0
  150.9722  140.1960  155.7400 H   0  0  0  0  0  0  0  0  0  0  0  0
  151.0687  141.7050  154.8848 H   0  0  0  0  0  0  0  0  0  0  0  0
  150.9269  145.4937  158.9143 H   0  0  0  0  0  0  0  0  0  0  0  0
  152.1402  145.4917  161.0820 H   0  0  0  0  0  0  0  0  0  0  0  0
  153.2929  143.4364  161.8753 H   0  0  0  0  0  0  0  0  0  0  0  0
  153.2377  141.3632  160.4941 H   0  0  0  0  0  0  0  0  0  0  0  0
  151.9279  139.4227  157.0884 H   0  0  0  0  0  0  0  0  0  0  0  0
  153.3970  139.9130  157.8772 H   0  0  0  0  0  0  0  0  0  0  0  0
  151.7730  139.8771  160.0665 H   0  0  0  0  0  0  0  0  0  0  0  0
  150.6674  137.6744  159.0116 H   0  0  0  0  0  0  0  0  0  0  0  0
  152.4203  137.4913  160.5176 H   0  0  0  0  0  0  0  0  0  0  0  0
  152.9169  137.3132  158.8346 H   0  0  0  0  0  0  0  0  0  0  0  0
  155.8561  140.2332  160.8361 H   0  0  0  0  0  0  0  0  0  0  0  0
  156.8035  140.2918  163.1234 H   0  0  0  0  0  0  0  0  0  0  0  0
  155.6771  137.9743  165.8854 H   0  0  0  0  0  0  0  0  0  0  0  0
  157.2724  138.2822  165.2124 H   0  0  0  0  0  0  0  0  0  0  0  0
  154.3910  136.8873  164.2066 H   0  0  0  0  0  0  0  0  0  0  0  0
  153.4451  136.8164  161.9486 H   0  0  0  0  0  0  0  0  0  0  0  0
  1  2  1  0  0  0  0
  1 26  1  0  0  0  0
  1 27  1  0  0  0  0
  1 28  1  0  0  0  0
  2  3  1  0  0  0  0
  2 29  1  0  0  0  0
  2 30  1  0  0  0  0
  3 11  1  0  0  0  0
  3  4  2  0  0  0  0
  4  5  1  0  0  0  0
  5 10  2  0  0  0  0
  5  6  1  0  0  0  0
  6  7  2  0  0  0  0
  6 31  1  0  0  0  0
  7  8  1  0  0  0  0
  7 32  1  0  0  0  0
  8  9  2  0  0  0  0
  8 33  1  0  0  0  0
  9 10  1  0  0  0  0
  9 34  1  0  0  0  0
 10 11  1  0  0  0  0
 11 12  1  0  0  0  0
 12 13  1  0  0  0  0
 12 35  1  0  0  0  0
 12 36  1  0  0  0  0
 13 14  1  0  0  0  0
 13 15  1  0  0  0  0
 13 37  1  0  0  0  0
 14 38  1  0  0  0  0
 15 16  1  0  0  0  0
 15 39  1  0  0  0  0
 15 40  1  0  0  0  0
 16 17  1  0  0  0  0
 17 25  1  0  0  0  0
 17 18  2  0  0  0  0
 18 19  1  0  0  0  0
 18 41  1  0  0  0  0
 19 20  2  0  0  0  0
 19 42  1  0  0  0  0
 20 21  1  0  0  0  0
 20 24  1  0  0  0  0
 21 22  1  0  0  0  0
 21 43  1  0  0  0  0
 21 44  1  0  0  0  0
 22 23  3  0  0  0  0
 24 25  2  0  0  0  0
 24 45  1  0  0  0  0
 25 46  1  0  0  0  0
M  END
> <s_m_source_file>
AV-unprocessed.smi

> <i_m_source_file_index>
480

> <i_lp_mmshare_version>
43012

> <i_f3d_flags>
0

> <s_epik_input>
W2NIXTFbY0hdW2NIXVtjSF1jKGMxMiluKGMobjIpW0NIMl1bQ0gzXSlbQ0gyXVtDQEhdKFtPSF0pW0NIMl1PYzNbY0hdW2NIXWMoW0NIMl1DI04pW2NIXVtjSF0z

> <s_epik_cmdline>
J2VwaWtfcHl0aG9uJywgJy1waCcsICc3LjAnLCAnLXRuJywgJzgnLCAnLW1hJywgJzIwMCcsICctbWV0YWxfYmluZGluZycsICctaW1hZScsICc8aW5maWxlLm1hZT4nLCAnLW9tYWUnLCAnPG91dGZpbGUubWFlPic=

> <r_lp_tautomer_probability>
1

> <r_epik_Ionization_Penalty>
0.114213

> <r_epik_Ionization_Penalty_Charging>
0

> <r_epik_Ionization_Penalty_Neutral>
0.114213

> <r_epik_State_Penalty>
0.103875

> <r_epik_Charging_Adjusted_Penalty>
0.103875

> <i_epik_Tot_Q>
0

> <i_epik_Tot_abs_Q>
0

> <r_epik_Metal_State_Penalty>
0.000113526

> <b_epik_Metal_Only>
0

> <s_lp_Force_Field>
OPLS_2005

> <r_lp_Energy>
15.7981

> <b_lp_Chiralities_Consistent>
1

> <s_lp_Variant>
AV-unprocessed.smi:480-2

> <Gold.Version>
5.8.1

> <Gold.Id.Protein>
6NUR|6NUR_protein|mol2

> <Gold.PLP.Fitness>
49.6751

> <Gold.PLP.PLP>
-51.9209

> <Gold.PLP.part.hbond>
-0.1972

> <Gold.PLP.part.metal>
0.0000

> <Gold.PLP.part.buried>
-7.4081

> <Gold.PLP.part.nonpolar>
-42.7425

> <Gold.PLP.part.repulsive>
0.2605

> <Gold.PLP.ligand.clash>
0.0000

> <Gold.PLP.ligand.torsion>
1.1917

> <Gold.PLP.Chemscore.Hbond>
0.0000

> <Gold.PLP.Chemscore.CHOScore>
0.0000

> <Gold.PLP.Chemscore.Metal>
0.0000

> <Gold.PLP.Chemscore.Internal.Correction>
0.1377

> <Gold.Rescore>
     Score         DG    S(hbond)    S(metal)    S(lipo)     H(rot)  DE(clash)    DE(int)     intcor
     14.68     -15.76       0.00        0.00     144.24       2.58       0.12       0.96       ----

> <Gold.Chemscore.Fitness>
14.6764

> <Gold.Chemscore.DG>
-15.7616

> <Gold.Chemscore.ZeroCoef>
-5.4800

> <Gold.Chemscore.Hbond>
0.0000

> <Gold.Chemscore.Metal>
0.0000

> <Gold.Chemscore.Lipo>
144.2390

> <Gold.Chemscore.Internal_Hbond>
0.0000

> <Gold.Chemscore.DEClash>
0.1249

> <Gold.Chemscore.DEInternal>
0.9603

> <Gold.Chemscore.Rot>
2.5759

> <Gold.Chemscore.Internal.Correction>
   9.000000E+99

> <Gold.Chemscore.Hbond.Weighted>
-0.0000

> <Gold.Chemscore.Metal.Weighted>
-0.0000

> <Gold.Chemscore.Lipo.Weighted>
-16.8760

> <Gold.Chemscore.Internal_Hbond.Weighted>
0.0000

> <Gold.Chemscore.DEClash.Weighted>
0.1249

> <Gold.Chemscore.DEInternal.Weighted>
0.9603

> <Gold.Chemscore.Rot.Weighted>
6.5943

> <Gold.Chemscore.Internal.Correction.Weighted>
   9.000000E+99

> <Gold.Protein.RotatedTorsions>
[ 6907 6896 6895 6894 ] final -166.56 input  -60.11 | X-H torsion
[ 7974 7965 7964 7962 ] final  163.09 input  175.53 | X-H torsion
[ 8008 7997 7996 7995 ] final -116.95 input   59.86 | X-H torsion
[ 10167 10162 10161 10158 ] final   60.70 input  -65.29 | X-H torsion
[ 10718 10713 10712 10709 ] final -116.72 input   66.30 | X-H torsion
[ 10763 10752 10751 10750 ] final   52.74 input  -60.55 | X-H torsion
[ 11005 11000 10999 10996 ] final  147.93 input  -57.11 | X-H torsion

> <Gold.Protein.ActiveResidues>
 VAL166  LYS551  ARG553  GLY616  TRP617  ASP618  TYR619  PRO620  LYS621  CYS622 
 ASP623  PHE694  ASN695  SER759  ASP760  ASP761  ALA762  ILE779  LEU786  VAL792 
 PHE793  MET794  SER795  GLU796  ALA797  LYS798  CYS799  TRP800  GLU811  SER814 

> <Gold.Protein.RotatedAtoms>
  151.4456  133.3631  159.2787 H   0  0  0  0  0  0  0  0  0  0  0  0  # atno 6907 bound_to 6896
  150.9127  134.8545  159.7446 H   0  0  0  0  0  0  0  0  0  0  0  0  # atno 6908 bound_to 6896
  152.4940  134.4387  159.9588 H   0  0  0  0  0  0  0  0  0  0  0  0  # atno 6909 bound_to 6896
  144.7606  139.8132  143.6334 H   0  0  0  0  0  0  0  0  0  0  0  0  # atno 7974 bound_to 7965
  155.0760  140.0394  157.2624 H   0  0  0  0  0  0  0  0  0  0  0  0  # atno 8008 bound_to 7997
  154.6944  140.2660  155.6756 H   0  0  0  0  0  0  0  0  0  0  0  0  # atno 8009 bound_to 7997
  156.2740  140.2753  156.1534 H   0  0  0  0  0  0  0  0  0  0  0  0  # atno 8010 bound_to 7997
  140.1628  144.4353  150.6700 H   0  0  0  0  0  0  0  0  0  0  0  0  # atno 10167 bound_to 10162
  156.0983  130.6151  150.9072 H   0  0  0  0  0  0  0  0  0  0  0  0  # atno 10718 bound_to 10713
  152.9790  135.5802  154.4627 H   0  0  0  0  0  0  0  0  0  0  0  0  # atno 10763 bound_to 10752
  154.4201  135.2771  155.1983 H   0  0  0  0  0  0  0  0  0  0  0  0  # atno 10764 bound_to 10752
  154.3736  135.6162  153.5807 H   0  0  0  0  0  0  0  0  0  0  0  0  # atno 10765 bound_to 10752
  140.0917  134.9037  157.1661 H   0  0  0  0  0  0  0  0  0  0  0  0  # atno 11005 bound_to 11000
  146.1665  139.4798  142.9955 LP  0  0  0  0  0  0  0  0  0  0  0  0  # atno 17320 bound_to 7965
  145.6632  141.0235  143.1697 LP  0  0  0  0  0  0  0  0  0  0  0  0  # atno 17321 bound_to 7965
  140.6632  143.2259  151.5806 LP  0  0  0  0  0  0  0  0  0  0  0  0  # atno 17342 bound_to 10162
  139.5373  144.2745  152.1278 LP  0  0  0  0  0  0  0  0  0  0  0  0  # atno 17343 bound_to 10162
  157.6149  131.0934  150.8729 LP  0  0  0  0  0  0  0  0  0  0  0  0  # atno 17370 bound_to 10713
  156.8862  130.5197  149.5288 LP  0  0  0  0  0  0  0  0  0  0  0  0  # atno 17371 bound_to 10713
  140.3343  134.2775  155.7222 LP  0  0  0  0  0  0  0  0  0  0  0  0  # atno 17394 bound_to 11000
  141.2080  133.7790  157.0086 LP  0  0  0  0  0  0  0  0  0  0  0  0  # atno 17395 bound_to 11000

$$$$
