AV-unprocessed.smi:564|AV-procd|sdf|2948|dock6
  -GOLD-   2262023443D 1   1.00000     0.00000
 Structure written by MMmdl.
 50 51  0  0  0  0  0  0  0  0  2 V2000
  153.1015  138.3481  155.1133 C   0  0  0  0  0  0  0  0  0  0  0  0
  151.9808  139.2880  155.4551 C   0  0  0  0  0  0  0  0  0  0  0  0
  152.2260  140.3447  156.2118 N   0  0  0  0  0  0  0  0  0  0  0  0
  151.0372  140.9703  156.3248 N   0  0  0  0  0  0  0  0  0  0  0  0
  150.9470  142.1885  157.1063 C   0  0  0  0  0  0  0  0  0  0  0  0
  150.0384  140.3062  155.6393 C   0  0  0  0  0  0  0  0  0  0  0  0
  148.6284  140.8010  155.6086 C   0  0  0  0  0  0  0  0  0  0  0  0
  150.6125  139.2044  155.0630 C   0  0  0  0  0  0  0  0  0  0  0  0
  149.9691  138.1390  154.2113 C   0  0  0  0  0  0  0  0  0  0  0  0
  149.9158  136.8100  154.9694 C   0  0  0  0  0  0  0  0  0  0  0  0
  150.3858  136.7212  156.1041 O   0  0  0  0  0  0  0  0  0  0  0  0
  149.3363  135.7816  154.3330 N   0  0  0  0  0  0  0  0  0  0  0  0
  149.1933  134.4431  154.8888 C   0  0  0  0  0  0  0  0  0  0  0  0
  148.8361  133.4379  153.7808 C   0  0  0  0  0  0  0  0  0  0  0  0
  147.8357  133.9594  152.8101 N   0  3  1  0  0  0  0  0  0  0  0  0
  147.4165  132.9205  151.8303 C   0  0  0  0  0  0  0  0  0  0  0  0
  146.5601  133.5222  150.7049 C   0  0  0  0  0  0  0  0  0  0  0  0
  145.3424  134.2581  151.2733 C   0  0  0  0  0  0  0  0  0  0  0  0
  145.7994  135.3104  152.2925 C   0  0  0  0  0  0  0  0  0  0  0  0
  146.6796  134.7023  153.4055 C   0  0  1  0  0  0  0  0  0  0  0  0
  145.8547  133.8659  154.4075 C   0  0  0  0  0  0  0  0  0  0  0  0
  153.1546  138.1820  154.0372 H   0  0  0  0  0  0  0  0  0  0  0  0
  152.9560  137.3798  155.5920 H   0  0  0  0  0  0  0  0  0  0  0  0
  154.0688  138.7359  155.4349 H   0  0  0  0  0  0  0  0  0  0  0  0
  150.3523  142.0051  158.0012 H   0  0  0  0  0  0  0  0  0  0  0  0
  150.4712  142.9712  156.5153 H   0  0  0  0  0  0  0  0  0  0  0  0
  151.9394  142.5293  157.4043 H   0  0  0  0  0  0  0  0  0  0  0  0
  148.0017  140.1708  154.9779 H   0  0  0  0  0  0  0  0  0  0  0  0
  148.5821  141.8161  155.2140 H   0  0  0  0  0  0  0  0  0  0  0  0
  148.1981  140.8063  156.6102 H   0  0  0  0  0  0  0  0  0  0  0  0
  148.9504  138.4136  153.9364 H   0  0  0  0  0  0  0  0  0  0  0  0
  150.5080  138.0118  153.2715 H   0  0  0  0  0  0  0  0  0  0  0  0
  148.9755  135.9390  153.4029 H   0  0  0  0  0  0  0  0  0  0  0  0
  150.1351  134.1826  155.3712 H   0  0  0  0  0  0  0  0  0  0  0  0
  148.4190  134.4377  155.6579 H   0  0  0  0  0  0  0  0  0  0  0  0
  149.7520  133.2058  153.2352 H   0  0  0  0  0  0  0  0  0  0  0  0
  148.4971  132.4937  154.2075 H   0  0  0  0  0  0  0  0  0  0  0  0
  148.2993  132.4580  151.3873 H   0  0  0  0  0  0  0  0  0  0  0  0
  146.8725  132.1235  152.3380 H   0  0  0  0  0  0  0  0  0  0  0  0
  147.1636  134.2137  150.1155 H   0  0  0  0  0  0  0  0  0  0  0  0
  146.2355  132.7363  150.0222 H   0  0  0  0  0  0  0  0  0  0  0  0
  144.7821  134.7340  150.4678 H   0  0  0  0  0  0  0  0  0  0  0  0
  144.6630  133.5470  151.7443 H   0  0  0  0  0  0  0  0  0  0  0  0
  146.3653  136.0842  151.7718 H   0  0  0  0  0  0  0  0  0  0  0  0
  144.9330  135.8124  152.7250 H   0  0  0  0  0  0  0  0  0  0  0  0
  147.0794  135.5518  153.9578 H   0  0  0  0  0  0  0  0  0  0  0  0
  145.0107  134.4430  154.7865 H   0  0  0  0  0  0  0  0  0  0  0  0
  146.4456  133.5738  155.2751 H   0  0  0  0  0  0  0  0  0  0  0  0
  145.4494  132.9596  153.9587 H   0  0  0  0  0  0  0  0  0  0  0  0
  148.3350  134.6452  152.2613 H   0  0  0  0  0  0  0  0  0  0  0  0
  1  2  1  0  0  0  0
  1 22  1  0  0  0  0
  1 23  1  0  0  0  0
  1 24  1  0  0  0  0
  2  8  1  0  0  0  0
  2  3  2  0  0  0  0
  3  4  1  0  0  0  0
  4  5  1  0  0  0  0
  4  6  1  0  0  0  0
  5 25  1  0  0  0  0
  5 26  1  0  0  0  0
  5 27  1  0  0  0  0
  6  7  1  0  0  0  0
  6  8  2  0  0  0  0
  7 28  1  0  0  0  0
  7 29  1  0  0  0  0
  7 30  1  0  0  0  0
  8  9  1  0  0  0  0
  9 10  1  0  0  0  0
  9 31  1  0  0  0  0
  9 32  1  0  0  0  0
 10 11  2  0  0  0  0
 10 12  1  0  0  0  0
 12 13  1  0  0  0  0
 12 33  1  0  0  0  0
 13 14  1  0  0  0  0
 13 34  1  0  0  0  0
 13 35  1  0  0  0  0
 14 15  1  0  0  0  0
 14 36  1  0  0  0  0
 14 37  1  0  0  0  0
 15 20  1  0  0  0  0
 15 16  1  0  0  0  0
 15 50  1  0  0  0  0
 16 17  1  0  0  0  0
 16 38  1  0  0  0  0
 16 39  1  0  0  0  0
 17 18  1  0  0  0  0
 17 40  1  0  0  0  0
 17 41  1  0  0  0  0
 18 19  1  0  0  0  0
 18 42  1  0  0  0  0
 18 43  1  0  0  0  0
 19 20  1  0  0  0  0
 19 44  1  0  0  0  0
 19 45  1  0  0  0  0
 20 21  1  0  0  0  0
 20 46  1  0  0  0  0
 21 47  1  0  0  0  0
 21 48  1  0  0  0  0
 21 49  1  0  0  0  0
M  CHG  1  15   1
M  END
> <s_m_source_file>
AV-unprocessed.smi

> <i_m_source_file_index>
564

> <i_lp_mmshare_version>
43012

> <i_f3d_flags>
0

> <s_epik_input>
W0NIM11jMW5uKFtDSDNdKWMoW0NIM10pYzFbQ0gyXUMoPU8pW05IXVtDSDJdW0NIMl1OMltDSDJdW0NIMl1bQ0gyXVtDSDJdW0NASF0yW0NIM10=

> <s_epik_cmdline>
J2VwaWtfcHl0aG9uJywgJy1waCcsICc3LjAnLCAnLXRuJywgJzgnLCAnLW1hJywgJzIwMCcsICctbWV0YWxfYmluZGluZycsICctaW1hZScsICc8aW5maWxlLm1hZT4nLCAnLW9tYWUnLCAnPG91dGZpbGUubWFlPic=

> <r_lp_tautomer_probability>
1

> <r_epik_Ionization_Penalty>
0.00456826

> <r_epik_Ionization_Penalty_Charging>
0.00240401

> <r_epik_Ionization_Penalty_Neutral>
0.00216425

> <r_epik_State_Penalty>
-0

> <r_epik_Charging_Adjusted_Penalty>
0.00240401

> <i_epik_Tot_Q>
1

> <i_epik_Tot_abs_Q>
1

> <r_epik_Metal_State_Penalty>
-0

> <b_epik_Metal_Only>
0

> <s_lp_Force_Field>
OPLS_2005

> <r_lp_Energy>
16.0318

> <b_lp_Chiralities_Consistent>
1

> <s_lp_Variant>
AV-unprocessed.smi:564-2

> <Gold.Version>
5.8.1

> <Gold.Id.Protein>
6NUR|6NUR_protein|mol2

> <Gold.PLP.Fitness>
45.6996

> <Gold.PLP.PLP>
-34.3458

> <Gold.PLP.part.hbond>
-3.0000

> <Gold.PLP.part.metal>
0.0000

> <Gold.PLP.part.buried>
-0.2666

> <Gold.PLP.part.nonpolar>
-31.8381

> <Gold.PLP.part.repulsive>
0.0434

> <Gold.PLP.ligand.clash>
0.0000

> <Gold.PLP.ligand.torsion>
0.3361

> <Gold.PLP.Chemscore.Hbond>
3.9913

> <Gold.PLP.Chemscore.CHOScore>
0.0000

> <Gold.PLP.Chemscore.Metal>
0.0000

> <Gold.Chemscore.Hbonds>
donor molecule, donor type, donor heavy atom, donor atom, acceptor molecule, acceptor atom, score
      L1  H    12    33       P1  7948  1.00
      L1  H    15    50       P1  7948  1.60
      P1  H  7997  8009       L1     3  0.56

> <Gold.PLP.Chemscore.Internal.Correction>
0.0524

> <Gold.Rescore>
     Score         DG    S(hbond)    S(metal)    S(lipo)     H(rot)  DE(clash)    DE(int)     intcor
     18.23     -19.64       2.65        0.00      80.58       1.61       0.94       0.46       ----

> <Gold.Chemscore.Fitness>
18.2274

> <Gold.Chemscore.DG>
-19.6367

> <Gold.Chemscore.ZeroCoef>
-5.4800

> <Gold.Chemscore.Hbond>
2.6530

> <Gold.Chemscore.Metal>
0.0000

> <Gold.Chemscore.Lipo>
80.5814

> <Gold.Chemscore.Internal_Hbond>
0.0000

> <Gold.Chemscore.DEClash>
0.9445

> <Gold.Chemscore.DEInternal>
0.4647

> <Gold.Chemscore.Rot>
1.6142

> <Gold.Chemscore.Internal.Correction>
   9.000000E+99

> <Gold.Chemscore.Hbonds>
donor molecule, donor type, donor heavy atom, donor atom, acceptor molecule, acceptor atom, score
      L1  H    12    33       P1  7948  0.89
      L1  H    15    50       P1  7948  0.12
      P1  H  7997  8009       L1     3  0.08

> <Gold.Chemscore.Hbond.Weighted>
-8.8611

> <Gold.Chemscore.Metal.Weighted>
-0.0000

> <Gold.Chemscore.Lipo.Weighted>
-9.4280

> <Gold.Chemscore.Internal_Hbond.Weighted>
0.0000

> <Gold.Chemscore.DEClash.Weighted>
0.9445

> <Gold.Chemscore.DEInternal.Weighted>
0.4647

> <Gold.Chemscore.Rot.Weighted>
4.1324

> <Gold.Chemscore.Internal.Correction.Weighted>
   9.000000E+99

> <Gold.Protein.RotatedTorsions>
[ 6907 6896 6895 6894 ] final   31.82 input  -60.11 | X-H torsion
[ 7974 7965 7964 7962 ] final  101.99 input  175.53 | X-H torsion
[ 8008 7997 7996 7995 ] final -148.78 input   59.86 | X-H torsion
[ 10167 10162 10161 10158 ] final  143.55 input  -65.29 | X-H torsion
[ 10718 10713 10712 10709 ] final -103.25 input   66.30 | X-H torsion
[ 10763 10752 10751 10750 ] final  -37.27 input  -60.55 | X-H torsion
[ 11005 11000 10999 10996 ] final   12.79 input  -57.11 | X-H torsion

> <Gold.Protein.ActiveResidues>
 VAL166  LYS551  ARG553  GLY616  TRP617  ASP618  TYR619  PRO620  LYS621  CYS622 
 ASP623  PHE694  ASN695  SER759  ASP760  ASP761  ALA762  ILE779  LEU786  VAL792 
 PHE793  MET794  SER795  GLU796  ALA797  LYS798  CYS799  TRP800  GLU811  SER814 

> <Gold.Protein.RotatedAtoms>
  152.0657  134.9566  160.0574 H   0  0  0  0  0  0  0  0  0  0  0  0  # atno 6907 bound_to 6896
  152.0911  133.4196  159.4552 H   0  0  0  0  0  0  0  0  0  0  0  0  # atno 6908 bound_to 6896
  150.6837  134.2789  159.4662 H   0  0  0  0  0  0  0  0  0  0  0  0  # atno 6909 bound_to 6896
  145.3651  139.2410  143.3486 H   0  0  0  0  0  0  0  0  0  0  0  0  # atno 7974 bound_to 7965
  155.5971  140.0658  157.2743 H   0  0  0  0  0  0  0  0  0  0  0  0  # atno 8008 bound_to 7997
  154.4289  140.1825  156.1182 H   0  0  0  0  0  0  0  0  0  0  0  0  # atno 8009 bound_to 7997
  156.0188  140.3319  155.7020 H   0  0  0  0  0  0  0  0  0  0  0  0  # atno 8010 bound_to 7997
  139.4967  144.6032  151.6435 H   0  0  0  0  0  0  0  0  0  0  0  0  # atno 10167 bound_to 10162
  156.0258  130.5458  150.7226 H   0  0  0  0  0  0  0  0  0  0  0  0  # atno 10718 bound_to 10713
  153.8935  135.6809  153.4759 H   0  0  0  0  0  0  0  0  0  0  0  0  # atno 10763 bound_to 10752
  153.1168  135.4758  154.9126 H   0  0  0  0  0  0  0  0  0  0  0  0  # atno 10764 bound_to 10752
  154.7610  135.3211  154.8331 H   0  0  0  0  0  0  0  0  0  0  0  0  # atno 10765 bound_to 10752
  140.4881  134.0868  155.7765 H   0  0  0  0  0  0  0  0  0  0  0  0  # atno 11005 bound_to 11000
  146.2910  140.4291  142.8739 LP  0  0  0  0  0  0  0  0  0  0  0  0  # atno 17320 bound_to 7965
  144.8618  140.7150  143.6103 LP  0  0  0  0  0  0  0  0  0  0  0  0  # atno 17321 bound_to 7965
  140.5687  144.0145  150.6206 LP  0  0  0  0  0  0  0  0  0  0  0  0  # atno 17342 bound_to 10162
  140.3256  143.3110  152.0740 LP  0  0  0  0  0  0  0  0  0  0  0  0  # atno 17343 bound_to 10162
  157.4838  131.0905  151.0506 LP  0  0  0  0  0  0  0  0  0  0  0  0  # atno 17370 bound_to 10713
  157.0932  130.5951  149.5444 LP  0  0  0  0  0  0  0  0  0  0  0  0  # atno 17371 bound_to 10713
  141.1498  133.8989  157.2126 LP  0  0  0  0  0  0  0  0  0  0  0  0  # atno 17394 bound_to 11000
  139.9786  135.0106  156.9693 LP  0  0  0  0  0  0  0  0  0  0  0  0  # atno 17395 bound_to 11000

$$$$
