AV-unprocessed.smi:101|AV-procd|sdf|920|dock10
  -GOLD-   2262017423D 1   1.00000     0.00000
 Structure written by MMmdl.
 44 46  0  0  0  0  0  0  0  0  1 V2000
  147.8482  137.5726  157.6401 C   0  0  0  0  0  0  0  0  0  0  0  0
  149.0317  137.5768  156.6861 C   0  0  0  0  0  0  0  0  0  0  0  0
  150.2592  138.0268  157.0526 C   0  0  0  0  0  0  0  0  0  0  0  0
  151.3592  138.0469  156.2026 N   0  0  0  0  0  0  0  0  0  0  0  0
  152.7188  138.5720  156.6324 C   0  0  1  0  0  0  0  0  0  0  0  0
  152.6000  139.2421  157.8523 O   0  0  0  0  0  0  0  0  0  0  0  0
  153.1360  138.4378  158.8968 C   0  0  2  0  0  0  0  0  0  0  0  0
  153.4503  139.2821  160.1383 C   0  0  0  0  0  0  0  0  0  0  0  0
  153.4225  140.6465  159.7545 O   0  0  0  0  0  0  0  0  0  0  0  0
  153.5138  141.6189  160.6795 C   0  0  0  0  0  0  0  0  0  0  0  0
  153.8985  141.4297  161.8351 O   0  0  0  0  0  0  0  0  0  0  0  0
  153.1019  142.9525  160.1528 C   0  0  0  0  0  0  0  0  0  0  0  0
  152.6780  143.9554  161.0558 C   0  0  0  0  0  0  0  0  0  0  0  0
  152.2852  145.2238  160.5856 C   0  0  0  0  0  0  0  0  0  0  0  0
  152.3103  145.5043  159.2069 C   0  0  0  0  0  0  0  0  0  0  0  0
  152.7297  144.5153  158.2984 C   0  0  0  0  0  0  0  0  0  0  0  0
  153.1241  143.2469  158.7665 C   0  0  0  0  0  0  0  0  0  0  0  0
  154.3248  137.7532  158.2204 C   0  0  2  0  0  0  0  0  0  0  0  0
  155.4379  138.6259  158.1544 O   0  0  0  0  0  0  0  0  0  0  0  0
  153.7809  137.4568  156.8269 C   0  0  1  0  0  0  0  0  0  0  0  0
  153.2472  136.1437  156.8018 O   0  0  0  0  0  0  0  0  0  0  0  0
  151.2119  137.5884  154.8773 C   0  0  0  0  0  0  0  0  0  0  0  0
  152.1412  137.5798  154.0708 O   0  0  0  0  0  0  0  0  0  0  0  0
  149.9533  137.1240  154.5012 N   0  0  0  0  0  0  0  0  0  0  0  0
  148.8250  137.0786  155.3234 C   0  0  0  0  0  0  0  0  0  0  0  0
  147.7653  136.6427  154.8768 O   0  0  0  0  0  0  0  0  0  0  0  0
  149.8468  136.7925  153.5535 H   0  0  0  0  0  0  0  0  0  0  0  0
  148.1106  137.9846  158.6152 H   0  0  0  0  0  0  0  0  0  0  0  0
  147.4865  136.5553  157.7930 H   0  0  0  0  0  0  0  0  0  0  0  0
  147.0306  138.1700  157.2355 H   0  0  0  0  0  0  0  0  0  0  0  0
  150.3650  138.3895  158.0633 H   0  0  0  0  0  0  0  0  0  0  0  0
  152.9993  139.3104  155.8788 H   0  0  0  0  0  0  0  0  0  0  0  0
  152.4109  137.6658  159.1608 H   0  0  0  0  0  0  0  0  0  0  0  0
  152.6976  139.1148  160.9096 H   0  0  0  0  0  0  0  0  0  0  0  0
  154.4222  139.0120  160.5539 H   0  0  0  0  0  0  0  0  0  0  0  0
  152.6509  143.7632  162.1188 H   0  0  0  0  0  0  0  0  0  0  0  0
  151.9644  145.9821  161.2843 H   0  0  0  0  0  0  0  0  0  0  0  0
  152.0081  146.4768  158.8467 H   0  0  0  0  0  0  0  0  0  0  0  0
  152.7491  144.7289  157.2398 H   0  0  0  0  0  0  0  0  0  0  0  0
  153.4405  142.5115  158.0412 H   0  0  0  0  0  0  0  0  0  0  0  0
  154.6343  136.8528  158.7532 H   0  0  0  0  0  0  0  0  0  0  0  0
  156.2213  138.1076  158.0505 H   0  0  0  0  0  0  0  0  0  0  0  0
  154.5466  137.5338  156.0537 H   0  0  0  0  0  0  0  0  0  0  0  0
  153.4702  135.7168  157.6152 H   0  0  0  0  0  0  0  0  0  0  0  0
  1  2  1  0  0  0  0
  1 28  1  0  0  0  0
  1 29  1  0  0  0  0
  1 30  1  0  0  0  0
  2 25  1  0  0  0  0
  2  3  2  0  0  0  0
  3  4  1  0  0  0  0
  3 31  1  0  0  0  0
  4  5  1  0  0  0  0
  4 22  1  0  0  0  0
  5 20  1  0  0  0  0
  5  6  1  0  0  0  0
  5 32  1  0  0  0  0
  6  7  1  0  0  0  0
  7  8  1  0  0  0  0
  7 18  1  0  0  0  0
  7 33  1  0  0  0  0
  8  9  1  0  0  0  0
  8 34  1  0  0  0  0
  8 35  1  0  0  0  0
  9 10  1  0  0  0  0
 10 11  2  0  0  0  0
 10 12  1  0  0  0  0
 12 17  1  0  0  0  0
 12 13  2  0  0  0  0
 13 14  1  0  0  0  0
 13 36  1  0  0  0  0
 14 15  2  0  0  0  0
 14 37  1  0  0  0  0
 15 16  1  0  0  0  0
 15 38  1  0  0  0  0
 16 17  2  0  0  0  0
 16 39  1  0  0  0  0
 17 40  1  0  0  0  0
 18 19  1  0  0  0  0
 18 20  1  0  0  0  0
 18 41  1  0  0  0  0
 19 42  1  0  0  0  0
 20 21  1  0  0  0  0
 20 43  1  0  0  0  0
 21 44  1  0  0  0  0
 22 23  2  0  0  0  0
 22 24  1  0  0  0  0
 24 27  1  0  0  0  0
 24 25  1  0  0  0  0
 25 26  2  0  0  0  0
M  END
> <s_m_source_file>
AV-unprocessed.smi

> <i_m_source_file_index>
101

> <i_lp_mmshare_version>
43012

> <i_f3d_flags>
0

> <s_epik_input>
Tz1jMVtuSF1jKD1PKW4oW2NIXWMxW0NIM10pW0NAQEhdMk9bQ0BIXShbQ0BASF0oW09IXSlbQ0BIXTJbT0hdKVtDSDJdT0MoPU8pYzNbY0hdW2NIXVtjSF1bY0hdW2NIXTM=

> <s_epik_cmdline>
J2VwaWtfcHl0aG9uJywgJy1waCcsICc3LjAnLCAnLXRuJywgJzgnLCAnLW1hJywgJzIwMCcsICctbWV0YWxfYmluZGluZycsICctaW1hZScsICc8aW5maWxlLm1hZT4nLCAnLW9tYWUnLCAnPG91dGZpbGUubWFlPic=

> <r_lp_tautomer_probability>
0.999537

> <r_epik_Ionization_Penalty>
0.00263537

> <r_epik_Ionization_Penalty_Charging>
0.00263428

> <r_epik_Ionization_Penalty_Neutral>
1.09111e-06

> <r_epik_State_Penalty>
0.00183335

> <r_epik_Charging_Adjusted_Penalty>
0.00446763

> <i_epik_Tot_Q>
0

> <i_epik_Tot_abs_Q>
0

> <r_epik_Metal_State_Penalty>
1.00528

> <b_epik_Metal_Only>
0

> <s_epik_Chemistry_Notes>
This compound has an ester and may undergo hydrolysis at high or low pH. This compound contains an acetal/aminal-like group ( X-CH(R)-Y where X, Y are N, S, or O) that may be acid/base labile, releasing an aldehyde.

> <s_lp_Force_Field>
OPLS_2005

> <r_lp_Energy>
36.6069

> <b_lp_Chiralities_Consistent>
1

> <s_lp_Variant>
AV-unprocessed.smi:101-8

> <Gold.Version>
5.8.1

> <Gold.Id.Protein>
6NUR|6NUR_protein|mol2

> <Gold.PLP.Fitness>
52.3642

> <Gold.PLP.PLP>
-43.5358

> <Gold.PLP.part.hbond>
-3.7611

> <Gold.PLP.part.metal>
0.0000

> <Gold.PLP.part.buried>
-7.3163

> <Gold.PLP.part.nonpolar>
-33.9543

> <Gold.PLP.part.repulsive>
0.3109

> <Gold.PLP.ligand.clash>
0.0000

> <Gold.PLP.ligand.torsion>
1.3420

> <Gold.PLP.Chemscore.Hbond>
3.8160

> <Gold.PLP.Chemscore.CHOScore>
0.0000

> <Gold.PLP.Chemscore.Metal>
0.0000

> <Gold.Chemscore.Hbonds>
donor molecule, donor type, donor heavy atom, donor atom, acceptor molecule, acceptor atom, score
      L1  H    24    27       P1  7948  1.00
      P1  H  7997  8008       L1    19  0.96
      P1  H 10752 10763       L1    23  0.76
      P1  H 10752 10764       L1    21  0.91

> <Gold.PLP.Chemscore.Internal.Correction>
0.0643

> <Gold.Rescore>
     Score         DG    S(hbond)    S(metal)    S(lipo)     H(rot)  DE(clash)    DE(int)     intcor
     15.42     -16.87       2.46        0.00      99.78       3.32       0.04       1.40       ----

> <Gold.Chemscore.Fitness>
15.4245

> <Gold.Chemscore.DG>
-16.8665

> <Gold.Chemscore.ZeroCoef>
-5.4800

> <Gold.Chemscore.Hbond>
2.4563

> <Gold.Chemscore.Metal>
0.0000

> <Gold.Chemscore.Lipo>
99.7807

> <Gold.Chemscore.Internal_Hbond>
0.0000

> <Gold.Chemscore.DEClash>
0.0385

> <Gold.Chemscore.DEInternal>
1.4034

> <Gold.Chemscore.Rot>
3.3172

> <Gold.Chemscore.Internal.Correction>
   9.000000E+99

> <Gold.Chemscore.Hbonds>
donor molecule, donor type, donor heavy atom, donor atom, acceptor molecule, acceptor atom, score
      L1  H    24    27       P1  7948  0.39
      P1  H  7997  8008       L1    19  0.77
      P1  H 10752 10763       L1    23  0.57
      P1  H 10752 10764       L1    21  0.46

> <Gold.Chemscore.Hbond.Weighted>
-8.2042

> <Gold.Chemscore.Metal.Weighted>
-0.0000

> <Gold.Chemscore.Lipo.Weighted>
-11.6743

> <Gold.Chemscore.Internal_Hbond.Weighted>
0.0000

> <Gold.Chemscore.DEClash.Weighted>
0.0385

> <Gold.Chemscore.DEInternal.Weighted>
1.4034

> <Gold.Chemscore.Rot.Weighted>
8.4920

> <Gold.Chemscore.Internal.Correction.Weighted>
   9.000000E+99

> <Gold.Protein.RotatedTorsions>
[ 6907 6896 6895 6894 ] final -128.31 input  -60.11 | X-H torsion
[ 7974 7965 7964 7962 ] final  176.70 input  175.53 | X-H torsion
[ 8008 7997 7996 7995 ] final -141.32 input   59.86 | X-H torsion
[ 10167 10162 10161 10158 ] final  101.55 input  -65.29 | X-H torsion
[ 10718 10713 10712 10709 ] final  -25.40 input   66.30 | X-H torsion
[ 10763 10752 10751 10750 ] final   23.08 input  -60.55 | X-H torsion
[ 11005 11000 10999 10996 ] final   56.51 input  -57.11 | X-H torsion

> <Gold.Protein.ActiveResidues>
 VAL166  LYS551  ARG553  GLY616  TRP617  ASP618  TYR619  PRO620  LYS621  CYS622 
 ASP623  PHE694  ASN695  SER759  ASP760  ASP761  ALA762  ILE779  LEU786  VAL792 
 PHE793  MET794  SER795  GLU796  ALA797  LYS798  CYS799  TRP800  GLU811  SER814 

> <Gold.Protein.RotatedAtoms>
  150.9166  133.6932  159.2841 H   0  0  0  0  0  0  0  0  0  0  0  0  # atno 6907 bound_to 6896
  151.4401  135.1018  159.9677 H   0  0  0  0  0  0  0  0  0  0  0  0  # atno 6908 bound_to 6896
  152.4958  133.8576  159.7288 H   0  0  0  0  0  0  0  0  0  0  0  0  # atno 6909 bound_to 6896
  144.7180  140.0136  143.6440 H   0  0  0  0  0  0  0  0  0  0  0  0  # atno 7974 bound_to 7965
  155.4759  140.0556  157.2973 H   0  0  0  0  0  0  0  0  0  0  0  0  # atno 8008 bound_to 7997
  154.4679  140.2027  156.0022 H   0  0  0  0  0  0  0  0  0  0  0  0  # atno 8009 bound_to 7997
  156.1006  140.3219  155.7942 H   0  0  0  0  0  0  0  0  0  0  0  0  # atno 8010 bound_to 7997
  139.7428  144.7006  151.0550 H   0  0  0  0  0  0  0  0  0  0  0  0  # atno 10167 bound_to 10162
  156.4649  130.4512  149.6906 H   0  0  0  0  0  0  0  0  0  0  0  0  # atno 10718 bound_to 10713
  153.0866  135.6634  153.9938 H   0  0  0  0  0  0  0  0  0  0  0  0  # atno 10763 bound_to 10752
  153.9546  135.2980  155.3438 H   0  0  0  0  0  0  0  0  0  0  0  0  # atno 10764 bound_to 10752
  154.7274  135.5138  153.8981 H   0  0  0  0  0  0  0  0  0  0  0  0  # atno 10765 bound_to 10752
  140.0523  134.5719  155.9248 H   0  0  0  0  0  0  0  0  0  0  0  0  # atno 11005 bound_to 11000
  146.0238  139.3274  143.0797 LP  0  0  0  0  0  0  0  0  0  0  0  0  # atno 17320 bound_to 7965
  145.8536  140.9515  143.0737 LP  0  0  0  0  0  0  0  0  0  0  0  0  # atno 17321 bound_to 7965
  140.7788  143.4904  150.9901 LP  0  0  0  0  0  0  0  0  0  0  0  0  # atno 17342 bound_to 10162
  139.8592  143.7337  152.3174 LP  0  0  0  0  0  0  0  0  0  0  0  0  # atno 17343 bound_to 10162
  156.3678  130.7515  151.2495 LP  0  0  0  0  0  0  0  0  0  0  0  0  # atno 17370 bound_to 10713
  157.7495  131.0331  150.4259 LP  0  0  0  0  0  0  0  0  0  0  0  0  # atno 17371 bound_to 10713
  141.1936  133.6579  156.5556 LP  0  0  0  0  0  0  0  0  0  0  0  0  # atno 17394 bound_to 11000
  140.3897  134.7451  157.4714 LP  0  0  0  0  0  0  0  0  0  0  0  0  # atno 17395 bound_to 11000

$$$$
