AV-unprocessed.smi:74|AV-procd|sdf|764|dock5
  -GOLD-   2262017103D 1   1.00000     0.00000
 Structure written by MMmdl.
 58 62  0  0  0  0  0  0  0  0  1 V2000
  147.2041  132.4151  151.3926 O   0  0  0  0  0  0  0  0  0  0  0  0
  145.8466  132.1715  151.0844 C   0  0  0  0  0  0  0  0  0  0  0  0
  144.9722  133.3908  151.4202 C   0  0  0  0  0  0  0  0  0  0  0  0
  143.4997  133.0610  151.1006 C   0  0  0  0  0  0  0  0  0  0  0  0
  143.3298  132.7238  149.7387 O   0  0  0  0  0  0  0  0  0  0  0  0
  145.2188  134.0252  152.8079 C   0  0  0  0  0  0  0  0  0  0  0  0
  145.1022  135.4169  152.1828 C   0  0  0  0  0  0  0  0  0  0  0  0
  145.8547  136.5228  152.6973 N   0  0  0  0  0  0  0  0  0  0  0  0
  146.0867  137.7269  152.0720 C   0  0  0  0  0  0  0  0  0  0  0  0
  146.7616  138.5967  152.7729 N   0  0  0  0  0  0  0  0  0  0  0  0
  146.9876  137.9559  153.9856 C   0  0  0  0  0  0  0  0  0  0  0  0
  147.6344  138.3269  155.1988 C   0  0  0  0  0  0  0  0  0  0  0  0
  148.2382  139.5307  155.3721 N   0  0  0  0  0  0  0  0  0  0  0  0
  148.7116  140.1680  154.1474 C   0  0  0  0  0  0  0  0  0  0  0  0
  149.0744  141.6370  154.4214 C   0  0  0  0  0  0  0  0  0  0  0  0
  150.0270  141.7103  155.4774 O   0  0  0  0  0  0  0  0  0  0  0  0
  149.5290  141.1601  156.6943 C   0  0  2  0  0  0  0  0  0  0  0  0
  150.5717  141.3769  157.7997 C   0  0  0  0  0  0  0  0  0  0  0  0
  151.0569  142.7089  157.7468 O   0  0  0  0  0  0  0  0  0  0  0  0
  152.1608  142.9269  158.6067 C   0  0  0  0  0  0  0  0  0  0  0  0
  152.3076  144.4146  158.8446 C   0  0  0  0  0  0  0  0  0  0  0  0
  151.8916  145.0299  160.1618 C   0  0  0  0  0  0  0  0  0  0  0  0
  151.0850  145.3008  158.9175 C   0  0  0  0  0  0  0  0  0  0  0  0
  149.1684  139.6755  156.4894 C   0  0  0  0  0  0  0  0  0  0  0  0
  147.6229  137.4206  156.2134 N   0  0  0  0  0  0  0  0  0  0  0  0
  147.0313  136.2334  156.0543 C   0  0  0  0  0  0  0  0  0  0  0  0
  146.4008  135.7532  154.9813 N   0  0  0  0  0  0  0  0  0  0  0  0
  146.4042  136.6572  153.9603 C   0  0  0  0  0  0  0  0  0  0  0  0
  145.4807  134.7393  150.8634 C   0  0  0  0  0  0  0  0  0  0  0  0
  147.7412  131.9551  150.7659 H   0  0  0  0  0  0  0  0  0  0  0  0
  145.7654  131.8951  150.0332 H   0  0  0  0  0  0  0  0  0  0  0  0
  145.5286  131.2977  151.6542 H   0  0  0  0  0  0  0  0  0  0  0  0
  143.1452  132.2200  151.6969 H   0  0  0  0  0  0  0  0  0  0  0  0
  142.8418  133.8970  151.3394 H   0  0  0  0  0  0  0  0  0  0  0  0
  142.5706  133.1797  149.4086 H   0  0  0  0  0  0  0  0  0  0  0  0
  144.4605  133.8064  153.5606 H   0  0  0  0  0  0  0  0  0  0  0  0
  146.2195  133.8281  153.1974 H   0  0  0  0  0  0  0  0  0  0  0  0
  144.0615  135.7452  152.1647 H   0  0  0  0  0  0  0  0  0  0  0  0
  145.7418  137.9421  151.0712 H   0  0  0  0  0  0  0  0  0  0  0  0
  149.5888  139.6300  153.7857 H   0  0  0  0  0  0  0  0  0  0  0  0
  147.9651  140.1227  153.3558 H   0  0  0  0  0  0  0  0  0  0  0  0
  149.5013  142.0913  153.5275 H   0  0  0  0  0  0  0  0  0  0  0  0
  148.1847  142.2142  154.6783 H   0  0  0  0  0  0  0  0  0  0  0  0
  148.6285  141.7107  156.9730 H   0  0  0  0  0  0  0  0  0  0  0  0
  150.1316  141.1702  158.7763 H   0  0  0  0  0  0  0  0  0  0  0  0
  151.4008  140.6811  157.6619 H   0  0  0  0  0  0  0  0  0  0  0  0
  152.0001  142.4281  159.5634 H   0  0  0  0  0  0  0  0  0  0  0  0
  153.0775  142.5290  158.1680 H   0  0  0  0  0  0  0  0  0  0  0  0
  153.1780  144.8533  158.3603 H   0  0  0  0  0  0  0  0  0  0  0  0
  151.4536  144.3744  160.9120 H   0  0  0  0  0  0  0  0  0  0  0  0
  152.5036  145.8408  160.5518 H   0  0  0  0  0  0  0  0  0  0  0  0
  151.1578  146.2934  158.4775 H   0  0  0  0  0  0  0  0  0  0  0  0
  150.1086  144.8267  158.8394 H   0  0  0  0  0  0  0  0  0  0  0  0
  148.7231  139.2773  157.4021 H   0  0  0  0  0  0  0  0  0  0  0  0
  150.0672  139.0923  156.2831 H   0  0  0  0  0  0  0  0  0  0  0  0
  147.0692  135.5743  156.9090 H   0  0  0  0  0  0  0  0  0  0  0  0
  146.5579  134.7443  150.6844 H   0  0  0  0  0  0  0  0  0  0  0  0
  144.9383  135.1102  149.9932 H   0  0  0  0  0  0  0  0  0  0  0  0
  1  2  1  0  0  0  0
  1 30  1  0  0  0  0
  2  3  1  0  0  0  0
  2 31  1  0  0  0  0
  2 32  1  0  0  0  0
  3 29  1  0  0  0  0
  3  4  1  0  0  0  0
  3  6  1  0  0  0  0
  4  5  1  0  0  0  0
  4 33  1  0  0  0  0
  4 34  1  0  0  0  0
  5 35  1  0  0  0  0
  6  7  1  0  0  0  0
  6 36  1  0  0  0  0
  6 37  1  0  0  0  0
  7  8  1  0  0  0  0
  7 29  1  0  0  0  0
  7 38  1  0  0  0  0
  8 28  1  0  0  0  0
  8  9  1  0  0  0  0
  9 10  2  0  0  0  0
  9 39  1  0  0  0  0
 10 11  1  0  0  0  0
 11 28  2  0  0  0  0
 11 12  1  0  0  0  0
 12 13  1  0  0  0  0
 12 25  2  0  0  0  0
 13 24  1  0  0  0  0
 13 14  1  0  0  0  0
 14 15  1  0  0  0  0
 14 40  1  0  0  0  0
 14 41  1  0  0  0  0
 15 16  1  0  0  0  0
 15 42  1  0  0  0  0
 15 43  1  0  0  0  0
 16 17  1  0  0  0  0
 17 18  1  0  0  0  0
 17 24  1  0  0  0  0
 17 44  1  0  0  0  0
 18 19  1  0  0  0  0
 18 45  1  0  0  0  0
 18 46  1  0  0  0  0
 19 20  1  0  0  0  0
 20 21  1  0  0  0  0
 20 47  1  0  0  0  0
 20 48  1  0  0  0  0
 21 23  1  0  0  0  0
 21 22  1  0  0  0  0
 21 49  1  0  0  0  0
 22 23  1  0  0  0  0
 22 50  1  0  0  0  0
 22 51  1  0  0  0  0
 23 52  1  0  0  0  0
 23 53  1  0  0  0  0
 24 54  1  0  0  0  0
 24 55  1  0  0  0  0
 25 26  1  0  0  0  0
 26 27  2  0  0  0  0
 26 56  1  0  0  0  0
 27 28  1  0  0  0  0
 29 57  1  0  0  0  0
 29 58  1  0  0  0  0
M  END
> <s_m_source_file>
AV-unprocessed.smi

> <i_m_source_file_index>
74

> <i_lp_mmshare_version>
43012

> <i_f3d_flags>
0

> <s_epik_input>
W09IXVtDSDJdQzEoW0NIMl1bT0hdKVtDSDJdW0NIXShbQ0gyXTEpbihbY0hdbjIpYyhjMjMpbltjSF1uYzNONFtDSDJdW0NIMl1PW0NASF0oW0NIMl00KVtDSDJdT1tDSDJdW0NIXTVbQ0gyXVtDSDJdNQ==

> <s_epik_cmdline>
J2VwaWtfcHl0aG9uJywgJy1waCcsICc3LjAnLCAnLXRuJywgJzgnLCAnLW1hJywgJzIwMCcsICctbWV0YWxfYmluZGluZycsICctaW1hZScsICc8aW5maWxlLm1hZT4nLCAnLW9tYWUnLCAnPG91dGZpbGUubWFlPic=

> <r_lp_tautomer_probability>
1

> <r_epik_Ionization_Penalty>
5.89322e-05

> <r_epik_Ionization_Penalty_Charging>
0

> <r_epik_Ionization_Penalty_Neutral>
5.89322e-05

> <r_epik_State_Penalty>
-0

> <r_epik_Charging_Adjusted_Penalty>
0

> <i_epik_Tot_Q>
0

> <i_epik_Tot_abs_Q>
0

> <r_epik_Metal_State_Penalty>
-0

> <b_epik_Metal_Only>
0

> <s_lp_Force_Field>
OPLS_2005

> <r_lp_Energy>
49.4071

> <b_lp_Chiralities_Consistent>
1

> <s_lp_Variant>
AV-unprocessed.smi:74-2

> <Gold.Version>
5.8.1

> <Gold.Id.Protein>
6NUR|6NUR_protein|mol2

> <Gold.PLP.Fitness>
52.1043

> <Gold.PLP.PLP>
-44.9728

> <Gold.PLP.part.hbond>
-2.1323

> <Gold.PLP.part.metal>
0.0000

> <Gold.PLP.part.buried>
-3.8920

> <Gold.PLP.part.nonpolar>
-38.5530

> <Gold.PLP.part.repulsive>
0.5912

> <Gold.PLP.ligand.clash>
0.0000

> <Gold.PLP.ligand.torsion>
1.6566

> <Gold.PLP.Chemscore.Hbond>
2.0000

> <Gold.PLP.Chemscore.CHOScore>
1.0000

> <Gold.PLP.Chemscore.Metal>
0.0000

> <Gold.Chemscore.Hbonds>
donor molecule, donor type, donor heavy atom, donor atom, acceptor molecule, acceptor atom, score
      L1  H     1    30       P1 10747  1.00
      L1  H     5    35       P1 10186  1.00
      L1  C     9    39       P1 10171  1.00

> <Gold.PLP.Chemscore.Internal.Correction>
1.4446

> <Gold.Rescore>
     Score         DG    S(hbond)    S(metal)    S(lipo)     H(rot)  DE(clash)    DE(int)     intcor
     10.91     -15.31       1.99        0.00     113.95       3.97       0.43       3.97       ----

> <Gold.Chemscore.Fitness>
10.9113

> <Gold.Chemscore.DG>
-15.3112

> <Gold.Chemscore.ZeroCoef>
-5.4800

> <Gold.Chemscore.Hbond>
1.9915

> <Gold.Chemscore.Metal>
0.0000

> <Gold.Chemscore.Lipo>
113.9530

> <Gold.Chemscore.Internal_Hbond>
0.0000

> <Gold.Chemscore.DEClash>
0.4291

> <Gold.Chemscore.DEInternal>
3.9707

> <Gold.Chemscore.Rot>
3.9660

> <Gold.Chemscore.Internal.Correction>
   9.000000E+99

> <Gold.Chemscore.Hbonds>
donor molecule, donor type, donor heavy atom, donor atom, acceptor molecule, acceptor atom, score
      L1  H     1    30       P1 10747  0.99
      L1  H     5    35       P1 10186  0.94

> <Gold.Chemscore.Hbond.Weighted>
-6.6515

> <Gold.Chemscore.Metal.Weighted>
-0.0000

> <Gold.Chemscore.Lipo.Weighted>
-13.3325

> <Gold.Chemscore.Internal_Hbond.Weighted>
0.0000

> <Gold.Chemscore.DEClash.Weighted>
0.4291

> <Gold.Chemscore.DEInternal.Weighted>
3.9707

> <Gold.Chemscore.Rot.Weighted>
10.1529

> <Gold.Chemscore.Internal.Correction.Weighted>
   9.000000E+99

> <Gold.Protein.RotatedTorsions>
[ 6907 6896 6895 6894 ] final  -83.84 input  -60.11 | X-H torsion
[ 7974 7965 7964 7962 ] final  -47.96 input  175.53 | X-H torsion
[ 8008 7997 7996 7995 ] final   25.46 input   59.86 | X-H torsion
[ 10167 10162 10161 10158 ] final  120.96 input  -65.29 | X-H torsion
[ 10718 10713 10712 10709 ] final -118.72 input   66.30 | X-H torsion
[ 10763 10752 10751 10750 ] final   10.17 input  -60.55 | X-H torsion
[ 11005 11000 10999 10996 ] final   20.06 input  -57.11 | X-H torsion

> <Gold.Protein.ActiveResidues>
 VAL166  LYS551  ARG553  GLY616  TRP617  ASP618  TYR619  PRO620  LYS621  CYS622 
 ASP623  PHE694  ASN695  SER759  ASP760  ASP761  ALA762  ILE779  LEU786  VAL792 
 PHE793  MET794  SER795  GLU796  ALA797  LYS798  CYS799  TRP800  GLU811  SER814 

> <Gold.Protein.RotatedAtoms>
  150.6881  134.3450  159.4884 H   0  0  0  0  0  0  0  0  0  0  0  0  # atno 6907 bound_to 6896
  152.1299  134.9140  160.0568 H   0  0  0  0  0  0  0  0  0  0  0  0  # atno 6908 bound_to 6896
  152.0314  133.3904  159.4336 H   0  0  0  0  0  0  0  0  0  0  0  0  # atno 6909 bound_to 6896
  145.9561  140.7525  142.9480 H   0  0  0  0  0  0  0  0  0  0  0  0  # atno 7974 bound_to 7965
  155.0121  140.3138  155.4825 H   0  0  0  0  0  0  0  0  0  0  0  0  # atno 8008 bound_to 7997
  156.2907  140.2212  156.5177 H   0  0  0  0  0  0  0  0  0  0  0  0  # atno 8009 bound_to 7997
  154.7525  140.0465  157.0893 H   0  0  0  0  0  0  0  0  0  0  0  0  # atno 8010 bound_to 7997
  139.5949  144.7038  151.3199 H   0  0  0  0  0  0  0  0  0  0  0  0  # atno 10167 bound_to 10162
  156.1127  130.6262  150.9327 H   0  0  0  0  0  0  0  0  0  0  0  0  # atno 10718 bound_to 10713
  153.2061  135.6862  153.8171 H   0  0  0  0  0  0  0  0  0  0  0  0  # atno 10763 bound_to 10752
  153.7420  135.3236  155.3307 H   0  0  0  0  0  0  0  0  0  0  0  0  # atno 10764 bound_to 10752
  154.8197  135.4660  154.0848 H   0  0  0  0  0  0  0  0  0  0  0  0  # atno 10765 bound_to 10752
  140.4068  134.1660  155.7665 H   0  0  0  0  0  0  0  0  0  0  0  0  # atno 11005 bound_to 11000
  144.6805  140.2514  143.7331 LP  0  0  0  0  0  0  0  0  0  0  0  0  # atno 17320 bound_to 7965
  145.8104  139.2001  143.1996 LP  0  0  0  0  0  0  0  0  0  0  0  0  # atno 17321 bound_to 7965
  140.7204  143.7151  150.7739 LP  0  0  0  0  0  0  0  0  0  0  0  0  # atno 17342 bound_to 10162
  140.0716  143.5056  152.2577 LP  0  0  0  0  0  0  0  0  0  0  0  0  # atno 17343 bound_to 10162
  157.6309  131.0921  150.8442 LP  0  0  0  0  0  0  0  0  0  0  0  0  # atno 17370 bound_to 10713
  156.8550  130.5093  149.5308 LP  0  0  0  0  0  0  0  0  0  0  0  0  # atno 17371 bound_to 10713
  141.1836  133.8361  157.1169 LP  0  0  0  0  0  0  0  0  0  0  0  0  # atno 17394 bound_to 11000
  140.0296  134.9907  157.0754 LP  0  0  0  0  0  0  0  0  0  0  0  0  # atno 17395 bound_to 11000

$$$$
