AV-unprocessed.smi:2583|AV-procd|sdf|10138|dock2
  -GOLD-   2272014153D 1   1.00000     0.00000
 Structure written by MMmdl.
 55 57  0  0  0  0  0  0  0  0  3 V2000
  154.9238  130.3660  156.4689 C   0  0  0  0  0  0  0  0  0  0  0  0
  154.3194  129.4039  155.4678 C   0  0  0  0  0  0  0  0  0  0  0  0
  155.0593  128.3121  154.9692 C   0  0  0  0  0  0  0  0  0  0  0  0
  154.5694  127.4367  154.0666 N   0  0  0  0  0  0  0  0  0  0  0  0
  153.3049  127.6193  153.6307 C   0  0  0  0  0  0  0  0  0  0  0  0
  152.4677  128.6654  154.0727 C   0  0  0  0  0  0  0  0  0  0  0  0
  151.1612  128.7536  153.5199 N   0  0  0  0  0  0  0  0  0  0  0  0
  150.1283  129.5064  153.9358 C   0  0  0  0  0  0  0  0  0  0  0  0
  150.1326  130.2292  154.9319 O   0  0  0  0  0  0  0  0  0  0  0  0
  149.0645  129.3558  153.1325 N   0  0  0  0  0  0  0  0  0  0  0  0
  147.7730  130.0192  153.2967 C   0  0  2  0  0  0  0  0  0  0  0  0
  146.9813  129.9792  151.9768 C   0  0  0  0  0  0  0  0  0  0  0  0
  145.6817  130.8007  152.0866 C   0  0  0  0  0  0  0  0  0  0  0  0
  145.9460  132.2148  152.4815 N   0  3  2  0  0  0  0  0  0  0  0  0
  146.5653  133.0769  151.4141 C   0  0  2  0  0  0  0  0  0  0  0  0
  145.7936  134.3944  151.1579 C   0  0  0  0  0  0  0  0  0  0  0  0
  144.4090  134.1361  150.5350 C   0  0  0  0  0  0  0  0  0  0  0  0
  144.5281  133.3838  149.2605 N   0  3  2  0  0  0  0  0  0  0  0  0
  143.2190  133.1788  148.6038 C   0  0  0  0  0  0  0  0  0  0  0  0
  145.2852  132.1164  149.4182 C   0  0  0  0  0  0  0  0  0  0  0  0
  146.6711  132.3710  150.0405 C   0  0  0  0  0  0  0  0  0  0  0  0
  146.6394  132.2318  153.8019 C   0  0  0  0  0  0  0  0  0  0  0  0
  147.9800  131.4734  153.7568 C   0  0  0  0  0  0  0  0  0  0  0  0
  152.9995  129.5855  155.0083 C   0  0  0  0  0  0  0  0  0  0  0  0
  155.9362  130.0687  156.7439 H   0  0  0  0  0  0  0  0  0  0  0  0
  154.3194  130.3975  157.3757 H   0  0  0  0  0  0  0  0  0  0  0  0
  154.9657  131.3712  156.0483 H   0  0  0  0  0  0  0  0  0  0  0  0
  156.0740  128.1381  155.2962 H   0  0  0  0  0  0  0  0  0  0  0  0
  152.9483  126.9015  152.9063 H   0  0  0  0  0  0  0  0  0  0  0  0
  150.9794  128.1361  152.7422 H   0  0  0  0  0  0  0  0  0  0  0  0
  149.1579  128.7330  152.3433 H   0  0  0  0  0  0  0  0  0  0  0  0
  147.1791  129.5121  154.0596 H   0  0  0  0  0  0  0  0  0  0  0  0
  147.5927  130.3549  151.1558 H   0  0  0  0  0  0  0  0  0  0  0  0
  146.7398  128.9458  151.7245 H   0  0  0  0  0  0  0  0  0  0  0  0
  145.0972  130.7286  151.1724 H   0  0  0  0  0  0  0  0  0  0  0  0
  145.0471  130.3510  152.8517 H   0  0  0  0  0  0  0  0  0  0  0  0
  147.5735  133.3398  151.7332 H   0  0  0  0  0  0  0  0  0  0  0  0
  145.7089  135.0087  152.0523 H   0  0  0  0  0  0  0  0  0  0  0  0
  146.3719  135.0088  150.4661 H   0  0  0  0  0  0  0  0  0  0  0  0
  143.7755  133.5852  151.2316 H   0  0  0  0  0  0  0  0  0  0  0  0
  143.9134  135.0890  150.3446 H   0  0  0  0  0  0  0  0  0  0  0  0
  142.5662  132.5551  149.2161 H   0  0  0  0  0  0  0  0  0  0  0  0
  143.3458  132.6935  147.6355 H   0  0  0  0  0  0  0  0  0  0  0  0
  142.7194  134.1333  148.4344 H   0  0  0  0  0  0  0  0  0  0  0  0
  144.7149  131.4192  150.0338 H   0  0  0  0  0  0  0  0  0  0  0  0
  145.4071  131.6471  148.4413 H   0  0  0  0  0  0  0  0  0  0  0  0
  147.2399  133.0094  149.3625 H   0  0  0  0  0  0  0  0  0  0  0  0
  147.2485  131.4500  150.0877 H   0  0  0  0  0  0  0  0  0  0  0  0
  146.7725  133.2399  154.1872 H   0  0  0  0  0  0  0  0  0  0  0  0
  145.9877  131.7469  154.5302 H   0  0  0  0  0  0  0  0  0  0  0  0
  148.4393  131.4835  154.7461 H   0  0  0  0  0  0  0  0  0  0  0  0
  148.6777  131.9863  153.0940 H   0  0  0  0  0  0  0  0  0  0  0  0
  152.4304  130.4290  155.3671 H   0  0  0  0  0  0  0  0  0  0  0  0
  145.0370  132.6204  152.6519 H   0  0  0  0  0  0  0  0  0  0  0  0
  145.0698  133.9644  148.6357 H   0  0  0  0  0  0  0  0  0  0  0  0
  1  2  1  0  0  0  0
  1 25  1  0  0  0  0
  1 26  1  0  0  0  0
  1 27  1  0  0  0  0
  2 24  1  0  0  0  0
  2  3  2  0  0  0  0
  3  4  1  0  0  0  0
  3 28  1  0  0  0  0
  4  5  2  0  0  0  0
  5  6  1  0  0  0  0
  5 29  1  0  0  0  0
  6  7  1  0  0  0  0
  6 24  2  0  0  0  0
  7  8  1  0  0  0  0
  7 30  1  0  0  0  0
  8  9  2  0  0  0  0
  8 10  1  0  0  0  0
 10 11  1  0  0  0  0
 10 31  1  0  0  0  0
 11 23  1  0  0  0  0
 11 12  1  0  0  0  0
 11 32  1  0  0  0  0
 12 13  1  0  0  0  0
 12 33  1  0  0  0  0
 12 34  1  0  0  0  0
 13 14  1  0  0  0  0
 13 35  1  0  0  0  0
 13 36  1  0  0  0  0
 14 15  1  0  0  0  0
 14 22  1  0  0  0  0
 14 54  1  0  0  0  0
 15 21  1  0  0  0  0
 15 16  1  0  0  0  0
 15 37  1  0  0  0  0
 16 17  1  0  0  0  0
 16 38  1  0  0  0  0
 16 39  1  0  0  0  0
 17 18  1  0  0  0  0
 17 40  1  0  0  0  0
 17 41  1  0  0  0  0
 18 19  1  0  0  0  0
 18 20  1  0  0  0  0
 18 55  1  0  0  0  0
 19 42  1  0  0  0  0
 19 43  1  0  0  0  0
 19 44  1  0  0  0  0
 20 21  1  0  0  0  0
 20 45  1  0  0  0  0
 20 46  1  0  0  0  0
 21 47  1  0  0  0  0
 21 48  1  0  0  0  0
 22 23  1  0  0  0  0
 22 49  1  0  0  0  0
 22 50  1  0  0  0  0
 23 51  1  0  0  0  0
 23 52  1  0  0  0  0
 24 53  1  0  0  0  0
M  CHG  1  14   1
M  CHG  1  18   1
M  END
> <s_m_source_file>
AV-unprocessed.smi

> <i_m_source_file_index>
2583

> <i_lp_mmshare_version>
43012

> <i_f3d_flags>
0

> <s_epik_input>
W0NIM11jMVtjSF1uW2NIXWMoW2NIXTEpW05IXUMoPU8pW05IXVtDSF0yW0NIMl1bQ0gyXU4oW0NIMl1bQ0gyXTIpW0NIXTNbQ0gyXVtDSDJdTihbQ0gzXSlbQ0gyXVtDSDJdMw==

> <s_epik_cmdline>
J2VwaWtfcHl0aG9uJywgJy1waCcsICc3LjAnLCAnLXRuJywgJzgnLCAnLW1hJywgJzIwMCcsICctbWV0YWxfYmluZGluZycsICctaW1hZScsICc8aW5maWxlLm1hZT4nLCAnLW9tYWUnLCAnPG91dGZpbGUubWFlPic=

> <r_epik_Ionization_Penalty>
0.188357

> <r_epik_Ionization_Penalty_Charging>
0.180787

> <r_epik_Ionization_Penalty_Neutral>
0.00756971

> <r_epik_State_Penalty>
0.157948

> <r_epik_Charging_Adjusted_Penalty>
0.338735

> <i_epik_Tot_Q>
2

> <i_epik_Tot_abs_Q>
2

> <r_epik_Metal_State_Penalty>
0.153874

> <b_epik_Metal_Only>
0

> <s_lp_Force_Field>
OPLS_2005

> <r_lp_Energy>
50.7645

> <b_lp_Chiralities_Consistent>
1

> <s_lp_Variant>
AV-unprocessed.smi:2583-4

> <Gold.Version>
5.8.1

> <Gold.Id.Protein>
6NUR|6NUR_protein|mol2

> <Gold.PLP.Fitness>
39.6011

> <Gold.PLP.PLP>
-33.9008

> <Gold.PLP.part.hbond>
-2.0000

> <Gold.PLP.part.metal>
0.0000

> <Gold.PLP.part.buried>
4.9067

> <Gold.PLP.part.nonpolar>
-36.2679

> <Gold.PLP.part.repulsive>
0.3318

> <Gold.PLP.ligand.clash>
0.0029

> <Gold.PLP.ligand.torsion>
1.6702

> <Gold.PLP.Chemscore.Hbond>
2.0000

> <Gold.PLP.Chemscore.CHOScore>
0.9993

> <Gold.PLP.Chemscore.Metal>
0.0000

> <Gold.Chemscore.Hbonds>
donor molecule, donor type, donor heavy atom, donor atom, acceptor molecule, acceptor atom, score
      L1  H     7    30       P1 10737  0.46
      L1  H    18    55       P1  7921  1.00
      L1  C     5    29       P1 10737  0.01

> <Gold.PLP.Chemscore.Internal.Correction>
0.0458

> <Gold.Rescore>
     Score         DG    S(hbond)    S(metal)    S(lipo)     H(rot)  DE(clash)    DE(int)     intcor
     13.83     -21.59       1.67        0.00     116.59       1.21       3.76       4.00       ----

> <Gold.Chemscore.Fitness>
13.8308

> <Gold.Chemscore.DG>
-21.5933

> <Gold.Chemscore.ZeroCoef>
-5.4800

> <Gold.Chemscore.Hbond>
1.6671

> <Gold.Chemscore.Metal>
0.0000

> <Gold.Chemscore.Lipo>
116.5867

> <Gold.Chemscore.Internal_Hbond>
0.0000

> <Gold.Chemscore.DEClash>
3.7586

> <Gold.Chemscore.DEInternal>
4.0038

> <Gold.Chemscore.Rot>
1.2092

> <Gold.Chemscore.Internal.Correction>
   9.000000E+99

> <Gold.Chemscore.Hbonds>
donor molecule, donor type, donor heavy atom, donor atom, acceptor molecule, acceptor atom, score
      L1  H     7    30       P1 10737  0.43
      L1  H    18    55       P1  7921  0.98

> <Gold.Chemscore.Hbond.Weighted>
-5.5681

> <Gold.Chemscore.Metal.Weighted>
-0.0000

> <Gold.Chemscore.Lipo.Weighted>
-13.6406

> <Gold.Chemscore.Internal_Hbond.Weighted>
0.0000

> <Gold.Chemscore.DEClash.Weighted>
3.7586

> <Gold.Chemscore.DEInternal.Weighted>
4.0038

> <Gold.Chemscore.Rot.Weighted>
3.0955

> <Gold.Chemscore.Internal.Correction.Weighted>
   9.000000E+99

> <Gold.Protein.RotatedTorsions>
[ 6907 6896 6895 6894 ] final  -58.93 input  -60.11 | X-H torsion
[ 7974 7965 7964 7962 ] final   54.34 input  175.53 | X-H torsion
[ 8008 7997 7996 7995 ] final  116.93 input   59.86 | X-H torsion
[ 10167 10162 10161 10158 ] final -104.70 input  -65.29 | X-H torsion
[ 10718 10713 10712 10709 ] final  -70.38 input   66.30 | X-H torsion
[ 10763 10752 10751 10750 ] final  105.00 input  -60.55 | X-H torsion
[ 11005 11000 10999 10996 ] final  -30.02 input  -57.11 | X-H torsion

> <Gold.Protein.ActiveResidues>
 VAL166  LYS551  ARG553  GLY616  TRP617  ASP618  TYR619  PRO620  LYS621  CYS622 
 ASP623  PHE694  ASN695  SER759  ASP760  ASP761  ALA762  ILE779  LEU786  VAL792 
 PHE793  MET794  SER795  GLU796  ALA797  LYS798  CYS799  TRP800  GLU811  SER814 

> <Gold.Protein.RotatedAtoms>
  150.7969  134.7035  159.6562 H   0  0  0  0  0  0  0  0  0  0  0  0  # atno 6907 bound_to 6896
  152.4082  134.6167  160.0050 H   0  0  0  0  0  0  0  0  0  0  0  0  # atno 6908 bound_to 6896
  151.6418  133.3288  159.3168 H   0  0  0  0  0  0  0  0  0  0  0  0  # atno 6909 bound_to 6896
  145.9619  139.4067  143.0243 H   0  0  0  0  0  0  0  0  0  0  0  0  # atno 7974 bound_to 7965
  156.2467  140.2907  156.0600 H   0  0  0  0  0  0  0  0  0  0  0  0  # atno 8008 bound_to 7997
  155.1786  140.0403  157.2895 H   0  0  0  0  0  0  0  0  0  0  0  0  # atno 8009 bound_to 7997
  154.6275  140.2491  155.7480 H   0  0  0  0  0  0  0  0  0  0  0  0  # atno 8010 bound_to 7997
  140.2065  143.3779  152.1086 H   0  0  0  0  0  0  0  0  0  0  0  0  # atno 10167 bound_to 10162
  156.0411  130.4330  150.2286 H   0  0  0  0  0  0  0  0  0  0  0  0  # atno 10718 bound_to 10713
  153.3735  135.3924  155.1805 H   0  0  0  0  0  0  0  0  0  0  0  0  # atno 10763 bound_to 10752
  154.8697  135.3708  154.4948 H   0  0  0  0  0  0  0  0  0  0  0  0  # atno 10764 bound_to 10752
  153.5418  135.7084  153.5694 H   0  0  0  0  0  0  0  0  0  0  0  0  # atno 10765 bound_to 10752
  140.9347  133.7316  156.0987 H   0  0  0  0  0  0  0  0  0  0  0  0  # atno 11005 bound_to 11000
  145.8028  140.9763  143.0990 LP  0  0  0  0  0  0  0  0  0  0  0  0  # atno 17320 bound_to 7965
  144.6817  139.9823  143.7483 LP  0  0  0  0  0  0  0  0  0  0  0  0  # atno 17321 bound_to 7965
  139.5196  144.7022  151.5459 LP  0  0  0  0  0  0  0  0  0  0  0  0  # atno 17342 bound_to 10162
  140.6354  143.8995  150.6642 LP  0  0  0  0  0  0  0  0  0  0  0  0  # atno 17343 bound_to 10162
  157.0381  131.0027  151.3292 LP  0  0  0  0  0  0  0  0  0  0  0  0  # atno 17370 bound_to 10713
  157.5229  130.8009  149.7829 LP  0  0  0  0  0  0  0  0  0  0  0  0  # atno 17371 bound_to 10713
  140.7816  134.3719  157.5486 LP  0  0  0  0  0  0  0  0  0  0  0  0  # atno 17394 bound_to 11000
  139.8805  134.9085  156.2969 LP  0  0  0  0  0  0  0  0  0  0  0  0  # atno 17395 bound_to 11000

$$$$
