AV-unprocessed.smi:256|AV-procd|sdf|1960|dock4
  -GOLD-   2262021103D 1   1.00000     0.00000
 Structure written by MMmdl.
 62 65  0  0  0  0  0  0  0  0  2 V2000
  147.2522  135.3540  156.3102 C   0  0  0  0  0  0  0  0  0  0  0  0
  147.0342  135.1939  154.7984 C   0  0  0  0  0  0  0  0  0  0  0  0
  146.4635  136.4596  154.1042 C   0  0  1  0  0  0  0  0  0  0  0  0
  147.4175  137.6527  154.3730 C   0  0  0  0  0  0  0  0  0  0  0  0
  147.0799  138.8305  153.5829 N   0  0  0  0  0  0  0  0  0  0  0  0
  147.5999  140.0300  153.9483 C   0  0  0  0  0  0  0  0  0  0  0  0
  146.9990  141.1813  153.5445 N   0  0  0  0  0  0  0  0  0  0  0  0
  147.5045  142.3666  153.8986 C   0  0  0  0  0  0  0  0  0  0  0  0
  148.5865  142.6256  154.6348 N   0  0  0  0  0  0  0  0  0  0  0  0
  149.2002  141.4760  155.0358 C   0  0  0  0  0  0  0  0  0  0  0  0
  148.7755  140.1492  154.7426 C   0  0  0  0  0  0  0  0  0  0  0  0
  149.6538  139.2352  155.3125 N   0  0  0  0  0  0  0  0  0  0  0  0
  150.5406  139.9784  155.9159 C   0  0  0  0  0  0  0  0  0  0  0  0
  150.3525  141.3365  155.7906 N   0  0  0  0  0  0  0  0  0  0  0  0
  151.1918  142.3866  156.3494 C   0  0  0  0  0  0  0  0  0  0  0  0
  150.7083  142.9169  157.7272 C   0  0  0  0  0  0  0  0  0  0  0  0
  149.2966  143.0146  157.6759 O   0  0  0  0  0  0  0  0  0  0  0  0
  151.0686  141.9993  158.9157 C   0  0  0  0  0  0  0  0  0  0  0  0
  152.5680  142.0800  159.2516 C   0  0  0  0  0  0  0  0  0  0  0  0
  152.9306  143.4287  159.5268 O   0  0  0  0  0  0  0  0  0  0  0  0
  152.7401  144.2960  158.4140 C   0  0  0  0  0  0  0  0  0  0  0  0
  151.2523  144.3298  158.0193 C   0  0  0  0  0  0  0  0  0  0  0  0
  147.0187  138.5773  152.1529 C   0  0  0  0  0  0  0  0  0  0  0  0
  145.9803  137.4896  151.8742 C   0  0  0  0  0  0  0  0  0  0  0  0
  146.2489  136.2394  152.6365 N   0  3  2  0  0  0  0  0  0  0  0  0
  145.2271  135.2040  152.3117 C   0  0  0  0  0  0  0  0  0  0  0  0
  145.2144  134.8931  150.8104 C   0  0  0  0  0  0  0  0  0  0  0  0
  146.1559  133.8675  150.5437 O   0  0  0  0  0  0  0  0  0  0  0  0
  145.8032  132.6364  151.1494 C   0  0  0  0  0  0  0  0  0  0  0  0
  147.5675  134.4097  156.7547 H   0  0  0  0  0  0  0  0  0  0  0  0
  146.3342  135.6640  156.8104 H   0  0  0  0  0  0  0  0  0  0  0  0
  148.0249  136.0890  156.5349 H   0  0  0  0  0  0  0  0  0  0  0  0
  147.9761  134.9109  154.3269 H   0  0  0  0  0  0  0  0  0  0  0  0
  146.3785  134.3358  154.6679 H   0  0  0  0  0  0  0  0  0  0  0  0
  145.4902  136.6991  154.5362 H   0  0  0  0  0  0  0  0  0  0  0  0
  147.3873  137.9120  155.4319 H   0  0  0  0  0  0  0  0  0  0  0  0
  148.4451  137.3674  154.1427 H   0  0  0  0  0  0  0  0  0  0  0  0
  146.9658  143.2315  153.5399 H   0  0  0  0  0  0  0  0  0  0  0  0
  151.3687  139.5539  156.4648 H   0  0  0  0  0  0  0  0  0  0  0  0
  152.2090  142.0021  156.4187 H   0  0  0  0  0  0  0  0  0  0  0  0
  151.2326  143.2032  155.6271 H   0  0  0  0  0  0  0  0  0  0  0  0
  149.0658  143.7333  157.1071 H   0  0  0  0  0  0  0  0  0  0  0  0
  150.5078  142.3100  159.7986 H   0  0  0  0  0  0  0  0  0  0  0  0
  150.7759  140.9664  158.7267 H   0  0  0  0  0  0  0  0  0  0  0  0
  152.7848  141.4734  160.1309 H   0  0  0  0  0  0  0  0  0  0  0  0
  153.1806  141.6870  158.4400 H   0  0  0  0  0  0  0  0  0  0  0  0
  153.0722  145.2963  158.6921 H   0  0  0  0  0  0  0  0  0  0  0  0
  153.3675  143.9797  157.5801 H   0  0  0  0  0  0  0  0  0  0  0  0
  151.1043  144.9849  157.1599 H   0  0  0  0  0  0  0  0  0  0  0  0
  150.6927  144.7758  158.8431 H   0  0  0  0  0  0  0  0  0  0  0  0
  146.7674  139.4747  151.5889 H   0  0  0  0  0  0  0  0  0  0  0  0
  148.0021  138.2561  151.8065 H   0  0  0  0  0  0  0  0  0  0  0  0
  144.9917  137.8695  152.1379 H   0  0  0  0  0  0  0  0  0  0  0  0
  145.9616  137.2689  150.8063 H   0  0  0  0  0  0  0  0  0  0  0  0
  145.3679  134.2829  152.8742 H   0  0  0  0  0  0  0  0  0  0  0  0
  144.2364  135.5489  152.6113 H   0  0  0  0  0  0  0  0  0  0  0  0
  144.2182  134.5584  150.5170 H   0  0  0  0  0  0  0  0  0  0  0  0
  145.4430  135.7877  150.2289 H   0  0  0  0  0  0  0  0  0  0  0  0
  146.5517  131.8819  150.9080 H   0  0  0  0  0  0  0  0  0  0  0  0
  144.8376  132.2806  150.7879 H   0  0  0  0  0  0  0  0  0  0  0  0
  145.7578  132.7296  152.2352 H   0  0  0  0  0  0  0  0  0  0  0  0
  147.1302  135.8848  152.2931 H   0  0  0  0  0  0  0  0  0  0  0  0
  1  2  1  0  0  0  0
  1 30  1  0  0  0  0
  1 31  1  0  0  0  0
  1 32  1  0  0  0  0
  2  3  1  0  0  0  0
  2 33  1  0  0  0  0
  2 34  1  0  0  0  0
  3 25  1  0  0  0  0
  3  4  1  0  0  0  0
  3 35  1  0  0  0  0
  4  5  1  0  0  0  0
  4 36  1  0  0  0  0
  4 37  1  0  0  0  0
  5  6  1  0  0  0  0
  5 23  1  0  0  0  0
  6 11  1  0  0  0  0
  6  7  2  0  0  0  0
  7  8  1  0  0  0  0
  8  9  2  0  0  0  0
  8 38  1  0  0  0  0
  9 10  1  0  0  0  0
 10 14  1  0  0  0  0
 10 11  2  0  0  0  0
 11 12  1  0  0  0  0
 12 13  2  0  0  0  0
 13 14  1  0  0  0  0
 13 39  1  0  0  0  0
 14 15  1  0  0  0  0
 15 16  1  0  0  0  0
 15 40  1  0  0  0  0
 15 41  1  0  0  0  0
 16 22  1  0  0  0  0
 16 17  1  0  0  0  0
 16 18  1  0  0  0  0
 17 42  1  0  0  0  0
 18 19  1  0  0  0  0
 18 43  1  0  0  0  0
 18 44  1  0  0  0  0
 19 20  1  0  0  0  0
 19 45  1  0  0  0  0
 19 46  1  0  0  0  0
 20 21  1  0  0  0  0
 21 22  1  0  0  0  0
 21 47  1  0  0  0  0
 21 48  1  0  0  0  0
 22 49  1  0  0  0  0
 22 50  1  0  0  0  0
 23 24  1  0  0  0  0
 23 51  1  0  0  0  0
 23 52  1  0  0  0  0
 24 25  1  0  0  0  0
 24 53  1  0  0  0  0
 24 54  1  0  0  0  0
 25 26  1  0  0  0  0
 25 62  1  0  0  0  0
 26 27  1  0  0  0  0
 26 55  1  0  0  0  0
 26 56  1  0  0  0  0
 27 28  1  0  0  0  0
 27 57  1  0  0  0  0
 27 58  1  0  0  0  0
 28 29  1  0  0  0  0
 29 59  1  0  0  0  0
 29 60  1  0  0  0  0
 29 61  1  0  0  0  0
M  CHG  1  25   1
M  END
> <s_m_source_file>
AV-unprocessed.smi

> <i_m_source_file_index>
256

> <i_lp_mmshare_version>
43012

> <i_f3d_flags>
0

> <s_epik_input>
W0NIM11PW0NIMl1bQ0gyXU4xW0NIMl1bQ0gyXU4oW0NIMl1bQ0BIXTFbQ0gyXVtDSDNdKWMobltjSF1uMiljKGMyMyluW2NIXW4zW0NIMl1DNChbT0hdKVtDSDJdW0NIMl1PW0NIMl1bQ0gyXTQ=

> <s_epik_cmdline>
J2VwaWtfcHl0aG9uJywgJy1waCcsICc3LjAnLCAnLXRuJywgJzgnLCAnLW1hJywgJzIwMCcsICctbWV0YWxfYmluZGluZycsICctaW1hZScsICc8aW5maWxlLm1hZT4nLCAnLW9tYWUnLCAnPG91dGZpbGUubWFlPic=

> <r_lp_tautomer_probability>
1

> <r_epik_Ionization_Penalty>
0.233023

> <r_epik_Ionization_Penalty_Charging>
0.23295

> <r_epik_Ionization_Penalty_Neutral>
7.2493e-05

> <r_epik_State_Penalty>
0.223667

> <r_epik_Charging_Adjusted_Penalty>
0.456618

> <i_epik_Tot_Q>
1

> <i_epik_Tot_abs_Q>
1

> <r_epik_Metal_State_Penalty>
0.226879

> <b_epik_Metal_Only>
0

> <s_lp_Force_Field>
OPLS_2005

> <r_lp_Energy>
45.9613

> <b_lp_Chiralities_Consistent>
1

> <s_lp_Variant>
AV-unprocessed.smi:256-4

> <Gold.Version>
5.8.1

> <Gold.Id.Protein>
6NUR|6NUR_protein|mol2

> <Gold.PLP.Fitness>
48.8750

> <Gold.PLP.PLP>
-41.4480

> <Gold.PLP.part.hbond>
-2.4812

> <Gold.PLP.part.metal>
0.0000

> <Gold.PLP.part.buried>
-5.6625

> <Gold.PLP.part.nonpolar>
-39.4050

> <Gold.PLP.part.repulsive>
6.5949

> <Gold.PLP.ligand.clash>
0.0000

> <Gold.PLP.ligand.torsion>
1.1417

> <Gold.PLP.Chemscore.Hbond>
3.0000

> <Gold.PLP.Chemscore.CHOScore>
0.0000

> <Gold.PLP.Chemscore.Metal>
0.0000

> <Gold.Chemscore.Hbonds>
donor molecule, donor type, donor heavy atom, donor atom, acceptor molecule, acceptor atom, score
      L1  H    17    42       P1  8028  1.00
      L1  H    25    62       P1  7948  1.95
      P1  H  8022  8030       L1     9  0.05

> <Gold.PLP.Chemscore.Internal.Correction>
0.7105

> <Gold.Rescore>
     Score         DG    S(hbond)    S(metal)    S(lipo)     H(rot)  DE(clash)    DE(int)     intcor
     10.18     -14.40       1.37        0.00     101.10       2.92       2.08       2.14       ----

> <Gold.Chemscore.Fitness>
10.1778

> <Gold.Chemscore.DG>
-14.3965

> <Gold.Chemscore.ZeroCoef>
-5.4800

> <Gold.Chemscore.Hbond>
1.3697

> <Gold.Chemscore.Metal>
0.0000

> <Gold.Chemscore.Lipo>
101.1036

> <Gold.Chemscore.Internal_Hbond>
0.0000

> <Gold.Chemscore.DEClash>
2.0775

> <Gold.Chemscore.DEInternal>
2.1412

> <Gold.Chemscore.Rot>
2.9247

> <Gold.Chemscore.Internal.Correction>
   9.000000E+99

> <Gold.Chemscore.Hbonds>
donor molecule, donor type, donor heavy atom, donor atom, acceptor molecule, acceptor atom, score
      L1  H    17    42       P1  8028  0.40
      L1  H    25    62       P1  7948  0.93

> <Gold.Chemscore.Hbond.Weighted>
-4.5747

> <Gold.Chemscore.Metal.Weighted>
-0.0000

> <Gold.Chemscore.Lipo.Weighted>
-11.8291

> <Gold.Chemscore.Internal_Hbond.Weighted>
0.0000

> <Gold.Chemscore.DEClash.Weighted>
2.0775

> <Gold.Chemscore.DEInternal.Weighted>
2.1412

> <Gold.Chemscore.Rot.Weighted>
7.4873

> <Gold.Chemscore.Internal.Correction.Weighted>
   9.000000E+99

> <Gold.Protein.RotatedTorsions>
[ 6907 6896 6895 6894 ] final  -37.53 input  -60.11 | X-H torsion
[ 7974 7965 7964 7962 ] final -163.34 input  175.53 | X-H torsion
[ 8008 7997 7996 7995 ] final  -56.83 input   59.86 | X-H torsion
[ 10167 10162 10161 10158 ] final  106.98 input  -65.29 | X-H torsion
[ 10718 10713 10712 10709 ] final  -37.77 input   66.30 | X-H torsion
[ 10763 10752 10751 10750 ] final  -51.83 input  -60.55 | X-H torsion
[ 11005 11000 10999 10996 ] final  107.16 input  -57.11 | X-H torsion

> <Gold.Protein.ActiveResidues>
 VAL166  LYS551  ARG553  GLY616  TRP617  ASP618  TYR619  PRO620  LYS621  CYS622 
 ASP623  PHE694  ASN695  SER759  ASP760  ASP761  ALA762  ILE779  LEU786  VAL792 
 PHE793  MET794  SER795  GLU796  ALA797  LYS798  CYS799  TRP800  GLU811  SER814 

> <Gold.Protein.RotatedAtoms>
  151.0136  134.9415  159.8020 H   0  0  0  0  0  0  0  0  0  0  0  0  # atno 6907 bound_to 6896
  152.5308  134.2996  159.9083 H   0  0  0  0  0  0  0  0  0  0  0  0  # atno 6908 bound_to 6896
  151.3002  133.4084  159.2673 H   0  0  0  0  0  0  0  0  0  0  0  0  # atno 6909 bound_to 6896
  144.7329  140.3121  143.6186 H   0  0  0  0  0  0  0  0  0  0  0  0  # atno 7974 bound_to 7965
  154.4245  140.1120  156.5700 H   0  0  0  0  0  0  0  0  0  0  0  0  # atno 8008 bound_to 7997
  155.6222  140.3495  155.4636 H   0  0  0  0  0  0  0  0  0  0  0  0  # atno 8009 bound_to 7997
  156.0015  140.1200  157.0532 H   0  0  0  0  0  0  0  0  0  0  0  0  # atno 8010 bound_to 7997
  139.6964  144.7101  151.1259 H   0  0  0  0  0  0  0  0  0  0  0  0  # atno 10167 bound_to 10162
  156.3114  130.4253  149.8047 H   0  0  0  0  0  0  0  0  0  0  0  0  # atno 10718 bound_to 10713
  154.1330  135.6517  153.4926 H   0  0  0  0  0  0  0  0  0  0  0  0  # atno 10763 bound_to 10752
  153.0189  135.5297  154.6982 H   0  0  0  0  0  0  0  0  0  0  0  0  # atno 10764 bound_to 10752
  154.6222  135.2966  155.0283 H   0  0  0  0  0  0  0  0  0  0  0  0  # atno 10765 bound_to 10752
  139.8824  134.9392  156.5777 H   0  0  0  0  0  0  0  0  0  0  0  0  # atno 11005 bound_to 11000
  145.7654  139.1839  143.2243 LP  0  0  0  0  0  0  0  0  0  0  0  0  # atno 17320 bound_to 7965
  146.0953  140.7608  142.9575 LP  0  0  0  0  0  0  0  0  0  0  0  0  # atno 17321 bound_to 7965
  140.7697  143.5485  150.9231 LP  0  0  0  0  0  0  0  0  0  0  0  0  # atno 17342 bound_to 10162
  139.9165  143.6657  152.3105 LP  0  0  0  0  0  0  0  0  0  0  0  0  # atno 17343 bound_to 10162
  156.5389  130.8291  151.3262 LP  0  0  0  0  0  0  0  0  0  0  0  0  # atno 17370 bound_to 10713
  157.7392  130.9826  150.2297 LP  0  0  0  0  0  0  0  0  0  0  0  0  # atno 17371 bound_to 10713
  140.8051  133.8474  155.8760 LP  0  0  0  0  0  0  0  0  0  0  0  0  # atno 17394 bound_to 11000
  140.9557  134.1720  157.4693 LP  0  0  0  0  0  0  0  0  0  0  0  0  # atno 17395 bound_to 11000

$$$$
