AV-unprocessed.smi:2083|AV-procd|sdf|8493|dock3
  -GOLD-   2272011203D 1   1.00000     0.00000
 Structure written by MMmdl.
 45 46  0  0  0  0  0  0  0  0  2 V2000
  138.2600  136.8610  154.7170 C   0  0  0  0  0  0  0  0  0  0  0  0
  139.7063  136.8616  154.3578 C   0  0  0  0  0  0  0  0  0  0  0  0
  140.5418  137.8228  153.8617 C   0  0  0  0  0  0  0  0  0  0  0  0
  141.7841  137.1428  153.7558 C   0  0  0  0  0  0  0  0  0  0  0  0
  142.9372  137.8046  153.2611 N   0  0  0  0  0  0  0  0  0  0  0  0
  144.1448  137.2684  153.0153 C   0  0  0  0  0  0  0  0  0  0  0  0
  144.4594  136.0973  153.2294 O   0  0  0  0  0  0  0  0  0  0  0  0
  144.9875  138.1739  152.4977 N   0  0  0  0  0  0  0  0  0  0  0  0
  146.3719  137.9057  152.1181 C   0  0  0  0  0  0  0  0  0  0  0  0
  147.3756  138.8906  152.7648 C   0  0  1  0  0  0  0  0  0  0  0  0
  146.6876  140.1271  153.3834 C   0  0  0  0  0  0  0  0  0  0  0  0
  148.2705  138.1790  153.7246 N   0  3  2  0  0  0  0  0  0  0  0  0
  147.5759  137.3401  154.7397 C   0  0  0  0  0  0  0  0  0  0  0  0
  148.5810  136.4659  155.5052 C   0  0  0  0  0  0  0  0  0  0  0  0
  149.6706  137.3279  156.1593 C   0  0  0  0  0  0  0  0  0  0  0  0
  150.3483  138.2513  155.1293 C   0  0  1  0  0  0  0  0  0  0  0  0
  151.3110  137.4952  154.1969 C   0  0  0  0  0  0  0  0  0  0  0  0
  149.2940  139.0628  154.3470 C   0  0  0  0  0  0  0  0  0  0  0  0
  141.7136  135.8808  154.1505 N   0  0  0  0  0  0  0  0  0  0  0  0
  140.3815  135.6941  154.5381 O   0  0  0  0  0  0  0  0  0  0  0  0
  137.8411  137.8651  154.6496 H   0  0  0  0  0  0  0  0  0  0  0  0
  138.1146  136.5021  155.7359 H   0  0  0  0  0  0  0  0  0  0  0  0
  137.6962  136.2131  154.0456 H   0  0  0  0  0  0  0  0  0  0  0  0
  140.2989  138.8457  153.6151 H   0  0  0  0  0  0  0  0  0  0  0  0
  142.8245  138.7868  153.0587 H   0  0  0  0  0  0  0  0  0  0  0  0
  144.6500  139.1154  152.3587 H   0  0  0  0  0  0  0  0  0  0  0  0
  146.5908  136.8813  152.4169 H   0  0  0  0  0  0  0  0  0  0  0  0
  146.4607  137.9336  151.0306 H   0  0  0  0  0  0  0  0  0  0  0  0
  148.0132  139.2528  151.9574 H   0  0  0  0  0  0  0  0  0  0  0  0
  146.1651  140.7073  152.6227 H   0  0  0  0  0  0  0  0  0  0  0  0
  147.4086  140.7979  153.8502 H   0  0  0  0  0  0  0  0  0  0  0  0
  145.9510  139.8474  154.1368 H   0  0  0  0  0  0  0  0  0  0  0  0
  147.0376  137.9752  155.4445 H   0  0  0  0  0  0  0  0  0  0  0  0
  146.8366  136.6963  154.2651 H   0  0  0  0  0  0  0  0  0  0  0  0
  148.0616  135.8861  156.2690 H   0  0  0  0  0  0  0  0  0  0  0  0
  149.0328  135.7413  154.8270 H   0  0  0  0  0  0  0  0  0  0  0  0
  149.2188  137.9366  156.9439 H   0  0  0  0  0  0  0  0  0  0  0  0
  150.4094  136.6954  156.6526 H   0  0  0  0  0  0  0  0  0  0  0  0
  150.9595  138.9632  155.6857 H   0  0  0  0  0  0  0  0  0  0  0  0
  150.7897  136.7688  153.5734 H   0  0  0  0  0  0  0  0  0  0  0  0
  152.0680  136.9580  154.7692 H   0  0  0  0  0  0  0  0  0  0  0  0
  151.8329  138.1842  153.5322 H   0  0  0  0  0  0  0  0  0  0  0  0
  149.7931  139.6602  153.5829 H   0  0  0  0  0  0  0  0  0  0  0  0
  148.8017  139.7669  155.0192 H   0  0  0  0  0  0  0  0  0  0  0  0
  148.8003  137.5363  153.1531 H   0  0  0  0  0  0  0  0  0  0  0  0
  1  2  1  0  0  0  0
  1 21  1  0  0  0  0
  1 22  1  0  0  0  0
  1 23  1  0  0  0  0
  2 20  1  0  0  0  0
  2  3  2  0  0  0  0
  3  4  1  0  0  0  0
  3 24  1  0  0  0  0
  4  5  1  0  0  0  0
  4 19  2  0  0  0  0
  5  6  1  0  0  0  0
  5 25  1  0  0  0  0
  6  7  2  0  0  0  0
  6  8  1  0  0  0  0
  8  9  1  0  0  0  0
  8 26  1  0  0  0  0
  9 10  1  0  0  0  0
  9 27  1  0  0  0  0
  9 28  1  0  0  0  0
 10 11  1  0  0  0  0
 10 12  1  0  0  0  0
 10 29  1  0  0  0  0
 11 30  1  0  0  0  0
 11 31  1  0  0  0  0
 11 32  1  0  0  0  0
 12 18  1  0  0  0  0
 12 13  1  0  0  0  0
 12 45  1  0  0  0  0
 13 14  1  0  0  0  0
 13 33  1  0  0  0  0
 13 34  1  0  0  0  0
 14 15  1  0  0  0  0
 14 35  1  0  0  0  0
 14 36  1  0  0  0  0
 15 16  1  0  0  0  0
 15 37  1  0  0  0  0
 15 38  1  0  0  0  0
 16 17  1  0  0  0  0
 16 18  1  0  0  0  0
 16 39  1  0  0  0  0
 17 40  1  0  0  0  0
 17 41  1  0  0  0  0
 17 42  1  0  0  0  0
 18 43  1  0  0  0  0
 18 44  1  0  0  0  0
 19 20  1  0  0  0  0
M  CHG  1  12   1
M  END
> <s_m_source_file>
AV-unprocessed.smi

> <i_m_source_file_index>
2083

> <i_lp_mmshare_version>
43012

> <i_f3d_flags>
0

> <s_epik_input>
W0NIM11jMVtjSF1jKG5vMSlbTkhdQyg9TylbTkhdW0NIMl1bQ0BIXShbQ0gzXSlOMltDSDJdW0NIMl1bQ0gyXVtDQEBIXShbQ0gzXSlbQ0gyXTI=

> <s_epik_cmdline>
J2VwaWtfcHl0aG9uJywgJy1waCcsICc3LjAnLCAnLXRuJywgJzgnLCAnLW1hJywgJzIwMCcsICctbWV0YWxfYmluZGluZycsICctaW1hZScsICc8aW5maWxlLm1hZT4nLCAnLW9tYWUnLCAnPG91dGZpbGUubWFlPic=

> <r_epik_Ionization_Penalty>
0.00216453

> <r_epik_Ionization_Penalty_Charging>
0.00212879

> <r_epik_Ionization_Penalty_Neutral>
3.57418e-05

> <r_epik_State_Penalty>
0.00146033

> <r_epik_Charging_Adjusted_Penalty>
0.00358912

> <i_epik_Tot_Q>
1

> <i_epik_Tot_abs_Q>
1

> <r_epik_Metal_State_Penalty>
0.0215827

> <b_epik_Metal_Only>
0

> <s_lp_Force_Field>
OPLS_2005

> <r_lp_Energy>
19.7178

> <b_lp_Chiralities_Consistent>
1

> <s_lp_Variant>
AV-unprocessed.smi:2083-4

> <Gold.Version>
5.8.1

> <Gold.Id.Protein>
6NUR|6NUR_protein|mol2

> <Gold.PLP.Fitness>
42.5321

> <Gold.PLP.PLP>
-29.5794

> <Gold.PLP.part.hbond>
-5.0000

> <Gold.PLP.part.metal>
0.0000

> <Gold.PLP.part.buried>
-0.3357

> <Gold.PLP.part.nonpolar>
-25.8298

> <Gold.PLP.part.repulsive>
0.3493

> <Gold.PLP.ligand.clash>
0.4805

> <Gold.PLP.ligand.torsion>
0.8147

> <Gold.PLP.Chemscore.Hbond>
4.9760

> <Gold.PLP.Chemscore.CHOScore>
0.0000

> <Gold.PLP.Chemscore.Metal>
0.0000

> <Gold.Chemscore.Hbonds>
donor molecule, donor type, donor heavy atom, donor atom, acceptor molecule, acceptor atom, score
      L1  H     5    25       P1 10175  0.98
      L1  H     8    26       P1 10175  1.00
      L1  H    12    45       P1  7948  2.00
      P1  H 11000 11005       L1    20  1.00

> <Gold.PLP.Chemscore.Internal.Correction>
0.1345

> <Gold.Rescore>
     Score         DG    S(hbond)    S(metal)    S(lipo)     H(rot)  DE(clash)    DE(int)     intcor
     18.97     -22.32       3.86        0.00      67.73       1.55       1.33       2.02       ----

> <Gold.Chemscore.Fitness>
18.9711

> <Gold.Chemscore.DG>
-22.3205

> <Gold.Chemscore.ZeroCoef>
-5.4800

> <Gold.Chemscore.Hbond>
3.8554

> <Gold.Chemscore.Metal>
0.0000

> <Gold.Chemscore.Lipo>
67.7311

> <Gold.Chemscore.Internal_Hbond>
0.0000

> <Gold.Chemscore.DEClash>
1.3321

> <Gold.Chemscore.DEInternal>
2.0173

> <Gold.Chemscore.Rot>
1.5474

> <Gold.Chemscore.Internal.Correction>
   9.000000E+99

> <Gold.Chemscore.Hbonds>
donor molecule, donor type, donor heavy atom, donor atom, acceptor molecule, acceptor atom, score
      L1  H     5    25       P1 10175  0.93
      L1  H     8    26       P1 10175  0.99
      L1  H    12    45       P1  7948  0.98
      P1  H 11000 11005       L1    20  0.90

> <Gold.Chemscore.Hbond.Weighted>
-12.8772

> <Gold.Chemscore.Metal.Weighted>
-0.0000

> <Gold.Chemscore.Lipo.Weighted>
-7.9245

> <Gold.Chemscore.Internal_Hbond.Weighted>
0.0000

> <Gold.Chemscore.DEClash.Weighted>
1.3321

> <Gold.Chemscore.DEInternal.Weighted>
2.0173

> <Gold.Chemscore.Rot.Weighted>
3.9612

> <Gold.Chemscore.Internal.Correction.Weighted>
   9.000000E+99

> <Gold.Protein.RotatedTorsions>
[ 6907 6896 6895 6894 ] final  -23.58 input  -60.11 | X-H torsion
[ 7974 7965 7964 7962 ] final  112.50 input  175.53 | X-H torsion
[ 8008 7997 7996 7995 ] final  -73.23 input   59.86 | X-H torsion
[ 10167 10162 10161 10158 ] final -135.73 input  -65.29 | X-H torsion
[ 10718 10713 10712 10709 ] final  -12.92 input   66.30 | X-H torsion
[ 10763 10752 10751 10750 ] final -138.68 input  -60.55 | X-H torsion
[ 11005 11000 10999 10996 ] final   50.52 input  -57.11 | X-H torsion

> <Gold.Protein.ActiveResidues>
 VAL166  LYS551  ARG553  GLY616  TRP617  ASP618  TYR619  PRO620  LYS621  CYS622 
 ASP623  PHE694  ASN695  SER759  ASP760  ASP761  ALA762  ILE779  LEU786  VAL792 
 PHE793  MET794  SER795  GLU796  ALA797  LYS798  CYS799  TRP800  GLU811  SER814 

> <Gold.Protein.RotatedAtoms>
  151.2019  135.0446  159.8875 H   0  0  0  0  0  0  0  0  0  0  0  0  # atno 6907 bound_to 6896
  152.5432  134.0841  159.8258 H   0  0  0  0  0  0  0  0  0  0  0  0  # atno 6908 bound_to 6896
  151.0982  133.5216  159.2643 H   0  0  0  0  0  0  0  0  0  0  0  0  # atno 6909 bound_to 6896
  145.2287  139.2829  143.4179 H   0  0  0  0  0  0  0  0  0  0  0  0  # atno 7974 bound_to 7965
  154.5230  140.0783  156.8207 H   0  0  0  0  0  0  0  0  0  0  0  0  # atno 8008 bound_to 7997
  155.3535  140.3414  155.4221 H   0  0  0  0  0  0  0  0  0  0  0  0  # atno 8009 bound_to 7997
  156.1701  140.1617  156.8448 H   0  0  0  0  0  0  0  0  0  0  0  0  # atno 8010 bound_to 7997
  139.8749  143.6911  152.2635 H   0  0  0  0  0  0  0  0  0  0  0  0  # atno 10167 bound_to 10162
  156.6377  130.4919  149.6106 H   0  0  0  0  0  0  0  0  0  0  0  0  # atno 10718 bound_to 10713
  154.8630  135.3605  154.5424 H   0  0  0  0  0  0  0  0  0  0  0  0  # atno 10763 bound_to 10752
  153.6045  135.7011  153.5376 H   0  0  0  0  0  0  0  0  0  0  0  0  # atno 10764 bound_to 10752
  153.3262  135.4137  155.1419 H   0  0  0  0  0  0  0  0  0  0  0  0  # atno 10765 bound_to 10752
  140.1010  134.5081  155.8762 H   0  0  0  0  0  0  0  0  0  0  0  0  # atno 11005 bound_to 11000
  146.3358  140.2615  142.8602 LP  0  0  0  0  0  0  0  0  0  0  0  0  # atno 17320 bound_to 7965
  144.9697  140.8356  143.5463 LP  0  0  0  0  0  0  0  0  0  0  0  0  # atno 17321 bound_to 7965
  139.7249  144.7595  151.0895 LP  0  0  0  0  0  0  0  0  0  0  0  0  # atno 17342 bound_to 10162
  140.7754  143.5160  150.9594 LP  0  0  0  0  0  0  0  0  0  0  0  0  # atno 17343 bound_to 10162
  156.2184  130.6722  151.1342 LP  0  0  0  0  0  0  0  0  0  0  0  0  # atno 17370 bound_to 10713
  157.7180  131.0698  150.6249 LP  0  0  0  0  0  0  0  0  0  0  0  0  # atno 17371 bound_to 10713
  141.2106  133.6696  156.6518 LP  0  0  0  0  0  0  0  0  0  0  0  0  # atno 17394 bound_to 11000
  140.3220  134.8000  157.4259 LP  0  0  0  0  0  0  0  0  0  0  0  0  # atno 17395 bound_to 11000

$$$$
