AV-unprocessed.smi:648|AV-procd|sdf|3170|dock5
  -GOLD-   22720 0 93D 1   1.00000     0.00000
 Structure written by MMmdl.
 46 47  0  0  0  0  0  0  0  0  2 V2000
  144.6750  134.0596  150.2532 C   0  0  0  0  0  0  0  0  0  0  0  0
  144.8522  134.8318  151.5686 C   0  0  2  0  0  0  0  0  0  0  0  0
  143.4988  135.0463  152.2727 C   0  0  0  0  0  0  0  0  0  0  0  0
  143.6085  135.8245  153.6056 C   0  0  0  0  0  0  0  0  0  0  0  0
  142.1872  136.2061  154.0674 C   0  0  0  0  0  0  0  0  0  0  0  0
  144.2153  134.9350  154.7147 C   0  0  0  0  0  0  0  0  0  0  0  0
  144.4153  137.1360  153.3844 C   0  0  0  0  0  0  0  0  0  0  0  0
  145.7718  137.0009  152.6280 C   0  0  1  0  0  0  0  0  0  0  0  0
  146.3392  138.4040  152.2718 C   0  0  0  0  0  0  0  0  0  0  0  0
  147.4729  138.3470  151.4290 O   0  0  0  0  0  0  0  0  0  0  0  0
  146.7875  136.2695  153.4338 N   0  3  0  0  0  0  0  0  0  0  0  0
  147.1227  136.7735  154.7876 C   0  0  0  0  0  0  0  0  0  0  0  0
  148.6441  136.8155  155.0005 C   0  0  0  0  0  0  0  0  0  0  0  0
  149.1957  138.1404  154.7837 N   0  0  0  0  0  0  0  0  0  0  0  0
  150.4619  138.5449  154.6722 C   0  0  0  0  0  0  0  0  0  0  0  0
  150.5911  139.8505  154.4836 N   0  0  0  0  0  0  0  0  0  0  0  0
  149.2742  140.2138  154.4826 C   0  0  0  0  0  0  0  0  0  0  0  0
  148.3965  139.2264  154.6619 N   0  0  0  0  0  0  0  0  0  0  0  0
  145.5487  136.1857  151.3282 C   0  0  0  0  0  0  0  0  0  0  0  0
  144.0481  134.6090  149.5499 H   0  0  0  0  0  0  0  0  0  0  0  0
  144.2081  133.0899  150.4270 H   0  0  0  0  0  0  0  0  0  0  0  0
  145.6362  133.8790  149.7711 H   0  0  0  0  0  0  0  0  0  0  0  0
  145.4871  134.2178  152.2069 H   0  0  0  0  0  0  0  0  0  0  0  0
  142.8406  135.5899  151.5928 H   0  0  0  0  0  0  0  0  0  0  0  0
  143.0155  134.0834  152.4453 H   0  0  0  0  0  0  0  0  0  0  0  0
  142.2098  136.7610  155.0060 H   0  0  0  0  0  0  0  0  0  0  0  0
  141.5680  135.3221  154.2245 H   0  0  0  0  0  0  0  0  0  0  0  0
  141.6779  136.8306  153.3323 H   0  0  0  0  0  0  0  0  0  0  0  0
  144.3365  135.4911  155.6447 H   0  0  0  0  0  0  0  0  0  0  0  0
  145.1857  134.5202  154.4520 H   0  0  0  0  0  0  0  0  0  0  0  0
  143.5674  134.0848  154.9309 H   0  0  0  0  0  0  0  0  0  0  0  0
  143.7814  137.7985  152.7936 H   0  0  0  0  0  0  0  0  0  0  0  0
  144.5427  137.6632  154.3294 H   0  0  0  0  0  0  0  0  0  0  0  0
  145.5936  139.0115  151.7594 H   0  0  0  0  0  0  0  0  0  0  0  0
  146.6210  138.9424  153.1777 H   0  0  0  0  0  0  0  0  0  0  0  0
  148.0779  139.0258  151.6876 H   0  0  0  0  0  0  0  0  0  0  0  0
  146.4589  135.3200  153.5362 H   0  0  0  0  0  0  0  0  0  0  0  0
  146.7101  137.7698  154.9428 H   0  0  0  0  0  0  0  0  0  0  0  0
  146.6889  136.1239  155.5456 H   0  0  0  0  0  0  0  0  0  0  0  0
  148.8814  136.5140  156.0216 H   0  0  0  0  0  0  0  0  0  0  0  0
  149.1483  136.1065  154.3418 H   0  0  0  0  0  0  0  0  0  0  0  0
  151.3053  137.8729  154.7325 H   0  0  0  0  0  0  0  0  0  0  0  0
  148.9534  141.2363  154.3496 H   0  0  0  0  0  0  0  0  0  0  0  0
  146.5029  136.0260  150.8235 H   0  0  0  0  0  0  0  0  0  0  0  0
  144.9354  136.7549  150.6286 H   0  0  0  0  0  0  0  0  0  0  0  0
  147.6440  136.2438  152.8986 H   0  0  0  0  0  0  0  0  0  0  0  0
  1  2  1  0  0  0  0
  1 20  1  0  0  0  0
  1 21  1  0  0  0  0
  1 22  1  0  0  0  0
  2 19  1  0  0  0  0
  2  3  1  0  0  0  0
  2 23  1  0  0  0  0
  3  4  1  0  0  0  0
  3 24  1  0  0  0  0
  3 25  1  0  0  0  0
  4  5  1  0  0  0  0
  4  6  1  0  0  0  0
  4  7  1  0  0  0  0
  5 26  1  0  0  0  0
  5 27  1  0  0  0  0
  5 28  1  0  0  0  0
  6 29  1  0  0  0  0
  6 30  1  0  0  0  0
  6 31  1  0  0  0  0
  7  8  1  0  0  0  0
  7 32  1  0  0  0  0
  7 33  1  0  0  0  0
  8  9  1  0  0  0  0
  8 11  1  0  0  0  0
  8 19  1  0  0  0  0
  9 10  1  0  0  0  0
  9 34  1  0  0  0  0
  9 35  1  0  0  0  0
 10 36  1  0  0  0  0
 11 12  1  0  0  0  0
 11 37  1  0  0  0  0
 11 46  1  0  0  0  0
 12 13  1  0  0  0  0
 12 38  1  0  0  0  0
 12 39  1  0  0  0  0
 13 14  1  0  0  0  0
 13 40  1  0  0  0  0
 13 41  1  0  0  0  0
 14 18  1  0  0  0  0
 14 15  1  0  0  0  0
 15 16  2  0  0  0  0
 15 42  1  0  0  0  0
 16 17  1  0  0  0  0
 17 18  2  0  0  0  0
 17 43  1  0  0  0  0
 19 44  1  0  0  0  0
 19 45  1  0  0  0  0
M  CHG  1  11   1
M  END
> <s_m_source_file>
AV-unprocessed.smi

> <i_m_source_file_index>
648

> <i_lp_mmshare_version>
43012

> <i_f3d_flags>
0

> <s_epik_input>
W0NIM11DMShbQ0gzXSlbQ0gyXVtDQEBIXShbQ0gzXSlbQ0gyXVtDQF0oW0NIMl0xKShbQ0gyXVtPSF0pW05IXVtDSDJdW0NIMl1uMltjSF1uW2NIXW4y

> <s_epik_cmdline>
J2VwaWtfcHl0aG9uJywgJy1waCcsICc3LjAnLCAnLXRuJywgJzgnLCAnLW1hJywgJzIwMCcsICctbWV0YWxfYmluZGluZycsICctaW1hZScsICc8aW5maWxlLm1hZT4nLCAnLW9tYWUnLCAnPG91dGZpbGUubWFlPic=

> <r_lp_tautomer_probability>
1

> <r_epik_Ionization_Penalty>
0.00942316

> <r_epik_Ionization_Penalty_Charging>
0.00942185

> <r_epik_Ionization_Penalty_Neutral>
1.31257e-06

> <r_epik_State_Penalty>
0.00715409

> <r_epik_Charging_Adjusted_Penalty>
0.0165759

> <i_epik_Tot_Q>
1

> <i_epik_Tot_abs_Q>
1

> <r_epik_Metal_State_Penalty>
0.00715563

> <b_epik_Metal_Only>
0

> <s_lp_Force_Field>
OPLS_2005

> <r_lp_Energy>
29.4172

> <b_lp_Chiralities_Consistent>
1

> <s_lp_Variant>
AV-unprocessed.smi:648-1

> <Gold.Version>
5.8.1

> <Gold.Id.Protein>
6NUR|6NUR_protein|mol2

> <Gold.PLP.Fitness>
44.1709

> <Gold.PLP.PLP>
-30.9611

> <Gold.PLP.part.hbond>
-5.0000

> <Gold.PLP.part.metal>
0.0000

> <Gold.PLP.part.buried>
-3.4111

> <Gold.PLP.part.nonpolar>
-22.9777

> <Gold.PLP.part.repulsive>
0.2155

> <Gold.PLP.ligand.clash>
0.0000

> <Gold.PLP.ligand.torsion>
0.7708

> <Gold.PLP.Chemscore.Hbond>
4.8960

> <Gold.PLP.Chemscore.CHOScore>
0.0000

> <Gold.PLP.Chemscore.Metal>
0.0000

> <Gold.Chemscore.Hbonds>
donor molecule, donor type, donor heavy atom, donor atom, acceptor molecule, acceptor atom, score
      L1  H    10    36       P1  7957  0.86
      L1  H    11    46       P1  7948  2.00
      P1  H  7954  7966       L1    10  1.00
      P1  H  7989  7998       L1    16  1.00

> <Gold.PLP.Chemscore.Internal.Correction>
0.0634

> <Gold.Rescore>
     Score         DG    S(hbond)    S(metal)    S(lipo)     H(rot)  DE(clash)    DE(int)     intcor
     13.38     -14.18       3.23        0.00      51.55       3.17       0.10       0.70       ----

> <Gold.Chemscore.Fitness>
13.3819

> <Gold.Chemscore.DG>
-14.1835

> <Gold.Chemscore.ZeroCoef>
-5.4800

> <Gold.Chemscore.Hbond>
3.2335

> <Gold.Chemscore.Metal>
0.0000

> <Gold.Chemscore.Lipo>
51.5527

> <Gold.Chemscore.Internal_Hbond>
0.0000

> <Gold.Chemscore.DEClash>
0.1033

> <Gold.Chemscore.DEInternal>
0.6983

> <Gold.Chemscore.Rot>
3.1750

> <Gold.Chemscore.Internal.Correction>
   9.000000E+99

> <Gold.Chemscore.Hbonds>
donor molecule, donor type, donor heavy atom, donor atom, acceptor molecule, acceptor atom, score
      L1  H    10    36       P1  7957  0.77
      L1  H    11    46       P1  7948  1.00
      P1  H  7954  7966       L1    10  0.25
      P1  H  7989  7998       L1    16  0.88

> <Gold.Chemscore.Hbond.Weighted>
-10.7998

> <Gold.Chemscore.Metal.Weighted>
-0.0000

> <Gold.Chemscore.Lipo.Weighted>
-6.0317

> <Gold.Chemscore.Internal_Hbond.Weighted>
0.0000

> <Gold.Chemscore.DEClash.Weighted>
0.1033

> <Gold.Chemscore.DEInternal.Weighted>
0.6983

> <Gold.Chemscore.Rot.Weighted>
8.1279

> <Gold.Chemscore.Internal.Correction.Weighted>
   9.000000E+99

> <Gold.Protein.RotatedTorsions>
[ 6907 6896 6895 6894 ] final -168.46 input  -60.11 | X-H torsion
[ 7974 7965 7964 7962 ] final   39.17 input  175.53 | X-H torsion
[ 8008 7997 7996 7995 ] final -164.96 input   59.86 | X-H torsion
[ 10167 10162 10161 10158 ] final  -34.94 input  -65.29 | X-H torsion
[ 10718 10713 10712 10709 ] final  144.83 input   66.30 | X-H torsion
[ 10763 10752 10751 10750 ] final  -67.57 input  -60.55 | X-H torsion
[ 11005 11000 10999 10996 ] final -143.89 input  -57.11 | X-H torsion

> <Gold.Protein.ActiveResidues>
 VAL166  LYS551  ARG553  GLY616  TRP617  ASP618  TYR619  PRO620  LYS621  CYS622 
 ASP623  PHE694  ASN695  SER759  ASP760  ASP761  ALA762  ILE779  LEU786  VAL792 
 PHE793  MET794  SER795  GLU796  ALA797  LYS798  CYS799  TRP800  GLU811  SER814 

> <Gold.Protein.RotatedAtoms>
  151.4759  133.3558  159.2830 H   0  0  0  0  0  0  0  0  0  0  0  0  # atno 6907 bound_to 6896
  150.8930  134.8337  159.7317 H   0  0  0  0  0  0  0  0  0  0  0  0  # atno 6908 bound_to 6896
  152.4834  134.4670  159.9675 H   0  0  0  0  0  0  0  0  0  0  0  0  # atno 6909 bound_to 6896
  146.1005  139.5684  142.9417 H   0  0  0  0  0  0  0  0  0  0  0  0  # atno 7974 bound_to 7965
  155.8430  140.0951  157.1722 H   0  0  0  0  0  0  0  0  0  0  0  0  # atno 8008 bound_to 7997
  154.3982  140.1397  156.3813 H   0  0  0  0  0  0  0  0  0  0  0  0  # atno 8009 bound_to 7997
  155.8043  140.3452  155.5423 H   0  0  0  0  0  0  0  0  0  0  0  0  # atno 8010 bound_to 7997
  140.7175  143.3512  151.2151 H   0  0  0  0  0  0  0  0  0  0  0  0  # atno 10167 bound_to 10162
  157.3526  131.0953  151.0987 H   0  0  0  0  0  0  0  0  0  0  0  0  # atno 10718 bound_to 10713
  154.3764  135.6084  153.5767 H   0  0  0  0  0  0  0  0  0  0  0  0  # atno 10763 bound_to 10752
  152.9789  135.5850  154.4461 H   0  0  0  0  0  0  0  0  0  0  0  0  # atno 10764 bound_to 10752
  154.4223  135.2846  155.1945 H   0  0  0  0  0  0  0  0  0  0  0  0  # atno 10765 bound_to 10752
  140.8079  134.2779  157.4953 H   0  0  0  0  0  0  0  0  0  0  0  0  # atno 11005 bound_to 11000
  145.5863  141.0376  143.2094 LP  0  0  0  0  0  0  0  0  0  0  0  0  # atno 17320 bound_to 7965
  144.7429  139.7399  143.7303 LP  0  0  0  0  0  0  0  0  0  0  0  0  # atno 17321 bound_to 7965
  139.7044  143.9480  152.2920 LP  0  0  0  0  0  0  0  0  0  0  0  0  # atno 17342 bound_to 10162
  139.9184  144.6814  150.8488 LP  0  0  0  0  0  0  0  0  0  0  0  0  # atno 17343 bound_to 10162
  157.2157  130.6458  149.5791 LP  0  0  0  0  0  0  0  0  0  0  0  0  # atno 17370 bound_to 10713
  155.9724  130.4645  150.6222 LP  0  0  0  0  0  0  0  0  0  0  0  0  # atno 17371 bound_to 10713
  139.8716  134.9466  156.3945 LP  0  0  0  0  0  0  0  0  0  0  0  0  # atno 17394 bound_to 11000
  140.9228  133.7633  155.9927 LP  0  0  0  0  0  0  0  0  0  0  0  0  # atno 17395 bound_to 11000

$$$$
