AV-unprocessed.smi:910|AV-procd|sdf|4122|dock7
  -GOLD-   22720 2 23D 1   1.00000     0.00000
 Structure written by MMmdl.
 46 47  0  0  0  0  0  0  0  0  1 V2000
  149.1223  133.2614  153.6769 C   0  0  0  0  0  0  0  0  0  0  0  0
  149.7460  134.2076  154.6793 C   0  0  0  0  0  0  0  0  0  0  0  0
  149.9046  135.5413  154.4163 N   0  0  0  0  0  0  0  0  0  0  0  0
  150.5081  136.1302  155.5164 C   0  0  0  0  0  0  0  0  0  0  0  0
  150.8256  137.3772  155.6771 N   0  0  0  0  0  0  0  0  0  0  0  0
  151.4389  137.7476  156.8622 C   0  0  0  0  0  0  0  0  0  0  0  0
  151.7657  137.0146  157.8011 O   0  0  0  0  0  0  0  0  0  0  0  0
  151.5978  139.0789  156.9115 N   0  0  0  0  0  0  0  0  0  0  0  0
  152.1208  139.8295  158.0486 C   0  0  0  0  0  0  0  0  0  0  0  0
  151.2007  141.0044  158.4078 C   0  0  0  0  0  0  0  0  0  0  0  0
  151.5903  141.5346  159.6653 O   0  0  0  0  0  0  0  0  0  0  0  0
  152.8337  142.2249  159.6597 C   0  0  2  0  0  0  0  0  0  0  0  0
  153.5246  141.9528  161.0089 C   0  0  0  0  0  0  0  0  0  0  0  0
  152.7539  142.5743  162.1862 C   0  0  0  0  0  0  0  0  0  0  0  0
  152.5295  144.0785  161.9732 C   0  0  0  0  0  0  0  0  0  0  0  0
  151.8231  144.3485  160.6365 C   0  0  0  0  0  0  0  0  0  0  0  0
  152.5962  143.7400  159.4507 C   0  0  2  0  0  0  0  0  0  0  0  0
  151.9128  144.0573  158.1118 C   0  0  0  0  0  0  0  0  0  0  0  0
  150.7027  135.1260  156.4369 O   0  0  0  0  0  0  0  0  0  0  0  0
  150.2286  133.9699  155.8966 C   0  0  0  0  0  0  0  0  0  0  0  0
  150.3316  132.6953  156.7037 C   0  0  0  0  0  0  0  0  0  0  0  0
  149.8220  132.4642  153.4258 H   0  0  0  0  0  0  0  0  0  0  0  0
  148.8534  133.7851  152.7594 H   0  0  0  0  0  0  0  0  0  0  0  0
  148.2212  132.8115  154.0934 H   0  0  0  0  0  0  0  0  0  0  0  0
  149.6190  135.9776  153.5521 H   0  0  0  0  0  0  0  0  0  0  0  0
  151.2980  139.6171  156.1115 H   0  0  0  0  0  0  0  0  0  0  0  0
  152.2775  139.1818  158.9128 H   0  0  0  0  0  0  0  0  0  0  0  0
  153.1022  140.2111  157.7672 H   0  0  0  0  0  0  0  0  0  0  0  0
  151.2792  141.7860  157.6512 H   0  0  0  0  0  0  0  0  0  0  0  0
  150.1619  140.6722  158.4257 H   0  0  0  0  0  0  0  0  0  0  0  0
  153.4833  141.8477  158.8671 H   0  0  0  0  0  0  0  0  0  0  0  0
  153.6332  140.8786  161.1616 H   0  0  0  0  0  0  0  0  0  0  0  0
  154.5351  142.3625  160.9854 H   0  0  0  0  0  0  0  0  0  0  0  0
  151.7906  142.0751  162.2997 H   0  0  0  0  0  0  0  0  0  0  0  0
  153.2983  142.4078  163.1160 H   0  0  0  0  0  0  0  0  0  0  0  0
  151.9383  144.4861  162.7939 H   0  0  0  0  0  0  0  0  0  0  0  0
  153.4878  144.5987  161.9932 H   0  0  0  0  0  0  0  0  0  0  0  0
  150.8169  143.9316  160.6714 H   0  0  0  0  0  0  0  0  0  0  0  0
  151.7076  145.4234  160.4946 H   0  0  0  0  0  0  0  0  0  0  0  0
  153.5765  144.2181  159.4228 H   0  0  0  0  0  0  0  0  0  0  0  0
  150.9000  143.6560  158.0752 H   0  0  0  0  0  0  0  0  0  0  0  0
  152.4716  143.6372  157.2754 H   0  0  0  0  0  0  0  0  0  0  0  0
  151.8440  145.1338  157.9539 H   0  0  0  0  0  0  0  0  0  0  0  0
  149.5952  131.9653  156.3675 H   0  0  0  0  0  0  0  0  0  0  0  0
  150.1583  132.8979  157.7601 H   0  0  0  0  0  0  0  0  0  0  0  0
  151.3254  132.2613  156.5944 H   0  0  0  0  0  0  0  0  0  0  0  0
  1 22  1  0  0  0  0
  1 23  1  0  0  0  0
  1 24  1  0  0  0  0
  1  2  1  0  0  0  0
  2  3  1  0  0  0  0
  2 20  2  0  0  0  0
  3 25  1  0  0  0  0
  3  4  1  0  0  0  0
  4 19  1  0  0  0  0
  4  5  2  0  0  0  0
  5  6  1  0  0  0  0
  6  8  1  0  0  0  0
  6  7  2  0  0  0  0
  8  9  1  0  0  0  0
  8 26  1  0  0  0  0
  9 10  1  0  0  0  0
  9 27  1  0  0  0  0
  9 28  1  0  0  0  0
 10 11  1  0  0  0  0
 10 29  1  0  0  0  0
 10 30  1  0  0  0  0
 11 12  1  0  0  0  0
 12 17  1  0  0  0  0
 12 13  1  0  0  0  0
 12 31  1  0  0  0  0
 13 14  1  0  0  0  0
 13 32  1  0  0  0  0
 13 33  1  0  0  0  0
 14 15  1  0  0  0  0
 14 34  1  0  0  0  0
 14 35  1  0  0  0  0
 15 16  1  0  0  0  0
 15 36  1  0  0  0  0
 15 37  1  0  0  0  0
 16 17  1  0  0  0  0
 16 38  1  0  0  0  0
 16 39  1  0  0  0  0
 17 18  1  0  0  0  0
 17 40  1  0  0  0  0
 18 41  1  0  0  0  0
 18 42  1  0  0  0  0
 18 43  1  0  0  0  0
 19 20  1  0  0  0  0
 20 21  1  0  0  0  0
 21 44  1  0  0  0  0
 21 45  1  0  0  0  0
 21 46  1  0  0  0  0
M  END
> <s_m_source_file>
AV-unprocessed.smi

> <i_m_source_file_index>
910

> <i_lp_mmshare_version>
43012

> <i_f3d_flags>
0

> <s_epik_input>
W0NIM11jMW5jKG9jMVtDSDNdKVtOSF1DKD1PKVtOSF1bQ0gyXVtDSDJdT1tDQEBIXTJbQ0gyXVtDSDJdW0NIMl1bQ0gyXVtDQEhdMltDSDNd

> <s_epik_cmdline>
J2VwaWtfcHl0aG9uJywgJy1waCcsICc3LjAnLCAnLXRuJywgJzgnLCAnLW1hJywgJzIwMCcsICctbWV0YWxfYmluZGluZycsICctaW1hZScsICc8aW5maWxlLm1hZT4nLCAnLW9tYWUnLCAnPG91dGZpbGUubWFlPic=

> <r_lp_tautomer_probability>
0.107061

> <r_epik_Ionization_Penalty>
0.727192

> <r_epik_Ionization_Penalty_Charging>
0.726719

> <r_epik_Ionization_Penalty_Neutral>
0.000473387

> <r_epik_State_Penalty>
2.53712

> <r_epik_Charging_Adjusted_Penalty>
3.26383

> <i_epik_Tot_Q>
0

> <i_epik_Tot_abs_Q>
0

> <r_epik_Metal_State_Penalty>
3.71015

> <b_epik_Metal_Only>
0

> <s_lp_Force_Field>
OPLS_2005

> <r_lp_Energy>
29.3715

> <b_lp_Chiralities_Consistent>
1

> <s_lp_Variant>
AV-unprocessed.smi:910-7

> <Gold.Version>
5.8.1

> <Gold.Id.Protein>
6NUR|6NUR_protein|mol2

> <Gold.PLP.Fitness>
47.4337

> <Gold.PLP.PLP>
-45.5256

> <Gold.PLP.part.hbond>
-1.9479

> <Gold.PLP.part.metal>
0.0000

> <Gold.PLP.part.buried>
-5.7295

> <Gold.PLP.part.nonpolar>
-37.6012

> <Gold.PLP.part.repulsive>
0.1848

> <Gold.PLP.ligand.clash>
0.0000

> <Gold.PLP.ligand.torsion>
0.5747

> <Gold.PLP.Chemscore.Hbond>
1.0000

> <Gold.PLP.Chemscore.CHOScore>
0.0000

> <Gold.PLP.Chemscore.Metal>
0.0000

> <Gold.Chemscore.Hbonds>
donor molecule, donor type, donor heavy atom, donor atom, acceptor molecule, acceptor atom, score
      L1  H     3    25       P1  7948  1.00

> <Gold.PLP.Chemscore.Internal.Correction>
0.0575

> <Gold.Rescore>
     Score         DG    S(hbond)    S(metal)    S(lipo)     H(rot)  DE(clash)    DE(int)     intcor
     14.96     -17.36       0.88        0.00     112.59       1.66       0.06       2.33       ----

> <Gold.Chemscore.Fitness>
14.9636

> <Gold.Chemscore.DG>
-17.3588

> <Gold.Chemscore.ZeroCoef>
-5.4800

> <Gold.Chemscore.Hbond>
0.8830

> <Gold.Chemscore.Metal>
0.0000

> <Gold.Chemscore.Lipo>
112.5908

> <Gold.Chemscore.Internal_Hbond>
0.0000

> <Gold.Chemscore.DEClash>
0.0609

> <Gold.Chemscore.DEInternal>
2.3343

> <Gold.Chemscore.Rot>
1.6576

> <Gold.Chemscore.Internal.Correction>
   9.000000E+99

> <Gold.Chemscore.Hbonds>
donor molecule, donor type, donor heavy atom, donor atom, acceptor molecule, acceptor atom, score
      L1  H     3    25       P1  7948  0.26

> <Gold.Chemscore.Hbond.Weighted>
-2.9492

> <Gold.Chemscore.Metal.Weighted>
-0.0000

> <Gold.Chemscore.Lipo.Weighted>
-13.1731

> <Gold.Chemscore.Internal_Hbond.Weighted>
0.0000

> <Gold.Chemscore.DEClash.Weighted>
0.0609

> <Gold.Chemscore.DEInternal.Weighted>
2.3343

> <Gold.Chemscore.Rot.Weighted>
4.2436

> <Gold.Chemscore.Internal.Correction.Weighted>
   9.000000E+99

> <Gold.Protein.RotatedTorsions>
[ 6907 6896 6895 6894 ] final  109.47 input  -60.11 | X-H torsion
[ 7974 7965 7964 7962 ] final    4.59 input  175.53 | X-H torsion
[ 8008 7997 7996 7995 ] final  -28.55 input   59.86 | X-H torsion
[ 10167 10162 10161 10158 ] final  103.27 input  -65.29 | X-H torsion
[ 10718 10713 10712 10709 ] final  -34.00 input   66.30 | X-H torsion
[ 10763 10752 10751 10750 ] final   -8.89 input  -60.55 | X-H torsion
[ 11005 11000 10999 10996 ] final    3.02 input  -57.11 | X-H torsion

> <Gold.Protein.ActiveResidues>
 VAL166  LYS551  ARG553  GLY616  TRP617  ASP618  TYR619  PRO620  LYS621  CYS622 
 ASP623  PHE694  ASN695  SER759  ASP760  ASP761  ALA762  ILE779  LEU786  VAL792 
 PHE793  MET794  SER795  GLU796  ALA797  LYS798  CYS799  TRP800  GLU811  SER814 

> <Gold.Protein.RotatedAtoms>
  152.5066  133.8940  159.7407 H   0  0  0  0  0  0  0  0  0  0  0  0  # atno 6907 bound_to 6896
  150.9372  133.6690  159.2805 H   0  0  0  0  0  0  0  0  0  0  0  0  # atno 6908 bound_to 6896
  151.4014  135.0976  159.9609 H   0  0  0  0  0  0  0  0  0  0  0  0  # atno 6909 bound_to 6896
  146.2443  140.0512  142.8375 H   0  0  0  0  0  0  0  0  0  0  0  0  # atno 7974 bound_to 7965
  154.4327  140.1842  156.1107 H   0  0  0  0  0  0  0  0  0  0  0  0  # atno 8008 bound_to 7997
  156.0220  140.3340  155.7023 H   0  0  0  0  0  0  0  0  0  0  0  0  # atno 8009 bound_to 7997
  155.5963  140.0636  157.2736 H   0  0  0  0  0  0  0  0  0  0  0  0  # atno 8010 bound_to 7997
  139.7278  144.7043  151.0770 H   0  0  0  0  0  0  0  0  0  0  0  0  # atno 10167 bound_to 10162
  156.3558  130.4316  149.7665 H   0  0  0  0  0  0  0  0  0  0  0  0  # atno 10718 bound_to 10713
  153.4470  135.7014  153.6133 H   0  0  0  0  0  0  0  0  0  0  0  0  # atno 10763 bound_to 10752
  153.4484  135.3764  155.2269 H   0  0  0  0  0  0  0  0  0  0  0  0  # atno 10764 bound_to 10752
  154.8728  135.3991  154.3877 H   0  0  0  0  0  0  0  0  0  0  0  0  # atno 10765 bound_to 10752
  140.5977  133.9864  155.8118 H   0  0  0  0  0  0  0  0  0  0  0  0  # atno 11005 bound_to 11000
  145.0983  140.9329  143.4728 LP  0  0  0  0  0  0  0  0  0  0  0  0  # atno 17320 bound_to 7965
  145.0699  139.3039  143.5837 LP  0  0  0  0  0  0  0  0  0  0  0  0  # atno 17321 bound_to 7965
  140.7766  143.5083  150.9685 LP  0  0  0  0  0  0  0  0  0  0  0  0  # atno 17342 bound_to 10162
  139.8770  143.7119  152.3161 LP  0  0  0  0  0  0  0  0  0  0  0  0  # atno 17343 bound_to 10162
  156.4848  130.8058  151.3070 LP  0  0  0  0  0  0  0  0  0  0  0  0  # atno 17370 bound_to 10713
  157.7467  130.9994  150.2888 LP  0  0  0  0  0  0  0  0  0  0  0  0  # atno 17371 bound_to 10713
  141.0893  133.9942  157.3263 LP  0  0  0  0  0  0  0  0  0  0  0  0  # atno 17394 bound_to 11000
  139.9246  135.0201  156.8187 LP  0  0  0  0  0  0  0  0  0  0  0  0  # atno 17395 bound_to 11000

$$$$
