AV-unprocessed.smi:2021|AV-procd|sdf|8175|dock2
  -GOLD-   2272010423D 1   1.00000     0.00000
 Structure written by MMmdl.
 42 43  0  0  0  0  0  0  0  0  2 V2000
  145.7848  131.7647  149.9237 C   0  0  0  0  0  0  0  0  0  0  0  0
  145.4494  132.8537  150.9536 C   0  0  0  0  0  0  0  0  0  0  0  0
  144.0201  133.3773  150.7344 C   0  0  0  0  0  0  0  0  0  0  0  0
  146.4918  133.9916  150.9001 C   0  0  0  0  0  0  0  0  0  0  0  0
  146.3445  134.9678  152.0103 N   0  3  1  0  0  0  0  0  0  0  0  0
  145.4283  136.0914  151.6945 C   0  0  0  0  0  0  0  0  0  0  0  0
  145.3578  137.0740  152.8741 C   0  0  0  0  0  0  0  0  0  0  0  0
  144.9472  136.3807  154.0453 O   0  0  0  0  0  0  0  0  0  0  0  0
  145.8672  135.3623  154.4223 C   0  0  1  0  0  0  0  0  0  0  0  0
  145.3758  134.7674  155.7563 C   0  0  0  0  0  0  0  0  0  0  0  0
  145.6080  135.6515  156.8946 N   0  0  0  0  0  0  0  0  0  0  0  0
  146.1670  135.2791  158.0548 C   0  0  0  0  0  0  0  0  0  0  0  0
  146.5222  134.1250  158.2941 O   0  0  0  0  0  0  0  0  0  0  0  0
  146.2809  136.3202  158.8981 N   0  0  0  0  0  0  0  0  0  0  0  0
  146.8189  136.3336  160.2124 C   0  0  0  0  0  0  0  0  0  0  0  0
  147.0388  137.4556  160.9152 N   0  0  0  0  0  0  0  0  0  0  0  0
  147.5714  137.1867  162.1695 N   0  0  0  0  0  0  0  0  0  0  0  0
  147.7325  135.8744  162.3627 C   0  0  0  0  0  0  0  0  0  0  0  0
  147.2502  134.8385  161.0305 S   0  0  0  0  0  0  0  0  0  0  0  0
  145.9503  134.3213  153.2850 C   0  0  0  0  0  0  0  0  0  0  0  0
  145.7633  132.1583  148.9070 H   0  0  0  0  0  0  0  0  0  0  0  0
  145.0732  130.9400  149.9761 H   0  0  0  0  0  0  0  0  0  0  0  0
  146.7781  131.3499  150.0989 H   0  0  0  0  0  0  0  0  0  0  0  0
  145.4862  132.3782  151.9334 H   0  0  0  0  0  0  0  0  0  0  0  0
  143.9179  133.8538  149.7584 H   0  0  0  0  0  0  0  0  0  0  0  0
  143.7406  134.1090  151.4925 H   0  0  0  0  0  0  0  0  0  0  0  0
  143.2936  132.5655  150.7839 H   0  0  0  0  0  0  0  0  0  0  0  0
  147.5053  133.5873  150.9119 H   0  0  0  0  0  0  0  0  0  0  0  0
  146.3844  134.5078  149.9446 H   0  0  0  0  0  0  0  0  0  0  0  0
  145.7639  136.6236  150.8053 H   0  0  0  0  0  0  0  0  0  0  0  0
  144.4322  135.7023  151.4774 H   0  0  0  0  0  0  0  0  0  0  0  0
  146.3220  137.5574  153.0392 H   0  0  0  0  0  0  0  0  0  0  0  0
  144.6377  137.8647  152.6626 H   0  0  0  0  0  0  0  0  0  0  0  0
  146.8479  135.8170  154.5736 H   0  0  0  0  0  0  0  0  0  0  0  0
  144.3124  134.5312  155.6923 H   0  0  0  0  0  0  0  0  0  0  0  0
  145.8869  133.8244  155.9517 H   0  0  0  0  0  0  0  0  0  0  0  0
  145.3468  136.6200  156.7794 H   0  0  0  0  0  0  0  0  0  0  0  0
  145.9521  137.2116  158.5576 H   0  0  0  0  0  0  0  0  0  0  0  0
  148.1388  135.5137  163.2960 H   0  0  0  0  0  0  0  0  0  0  0  0
  144.9887  133.8212  153.1586 H   0  0  0  0  0  0  0  0  0  0  0  0
  146.6817  133.5532  153.5392 H   0  0  0  0  0  0  0  0  0  0  0  0
  147.2598  135.3650  152.1683 H   0  0  0  0  0  0  0  0  0  0  0  0
  1  2  1  0  0  0  0
  1 21  1  0  0  0  0
  1 22  1  0  0  0  0
  1 23  1  0  0  0  0
  2  3  1  0  0  0  0
  2  4  1  0  0  0  0
  2 24  1  0  0  0  0
  3 25  1  0  0  0  0
  3 26  1  0  0  0  0
  3 27  1  0  0  0  0
  4  5  1  0  0  0  0
  4 28  1  0  0  0  0
  4 29  1  0  0  0  0
  5 20  1  0  0  0  0
  5  6  1  0  0  0  0
  5 42  1  0  0  0  0
  6  7  1  0  0  0  0
  6 30  1  0  0  0  0
  6 31  1  0  0  0  0
  7  8  1  0  0  0  0
  7 32  1  0  0  0  0
  7 33  1  0  0  0  0
  8  9  1  0  0  0  0
  9 10  1  0  0  0  0
  9 20  1  0  0  0  0
  9 34  1  0  0  0  0
 10 11  1  0  0  0  0
 10 35  1  0  0  0  0
 10 36  1  0  0  0  0
 11 12  1  0  0  0  0
 11 37  1  0  0  0  0
 12 13  2  0  0  0  0
 12 14  1  0  0  0  0
 14 15  1  0  0  0  0
 14 38  1  0  0  0  0
 15 19  1  0  0  0  0
 15 16  2  0  0  0  0
 16 17  1  0  0  0  0
 17 18  2  0  0  0  0
 18 19  1  0  0  0  0
 18 39  1  0  0  0  0
 20 40  1  0  0  0  0
 20 41  1  0  0  0  0
M  CHG  1   5   1
M  END
> <s_m_source_file>
AV-unprocessed.smi

> <i_m_source_file_index>
2021

> <i_lp_mmshare_version>
43012

> <i_f3d_flags>
0

> <s_epik_input>
W0NIM11bQ0hdKFtDSDNdKVtDSDJdTjFbQ0gyXVtDSDJdT1tDQEhdKFtDSDJdMSlbQ0gyXVtOSF1DKD1PKVtOSF1jMm5uW2NIXXMy

> <s_epik_cmdline>
J2VwaWtfcHl0aG9uJywgJy1waCcsICc3LjAnLCAnLXRuJywgJzgnLCAnLW1hJywgJzIwMCcsICctbWV0YWxfYmluZGluZycsICctaW1hZScsICc8aW5maWxlLm1hZT4nLCAnLW9tYWUnLCAnPG91dGZpbGUubWFlPic=

> <r_lp_tautomer_probability>
1

> <r_epik_Ionization_Penalty>
0.102019

> <r_epik_Ionization_Penalty_Charging>
0.098413

> <r_epik_Ionization_Penalty_Neutral>
0.00360555

> <r_epik_State_Penalty>
0.0884988

> <r_epik_Charging_Adjusted_Penalty>
0.186912

> <i_epik_Tot_Q>
1

> <i_epik_Tot_abs_Q>
1

> <r_epik_Metal_State_Penalty>
0.454709

> <b_epik_Metal_Only>
0

> <s_lp_Force_Field>
OPLS_2005

> <r_lp_Energy>
17.0767

> <b_lp_Chiralities_Consistent>
1

> <s_lp_Variant>
AV-unprocessed.smi:2021-1

> <Gold.Version>
5.8.1

> <Gold.Id.Protein>
6NUR|6NUR_protein|mol2

> <Gold.PLP.Fitness>
37.0805

> <Gold.PLP.PLP>
-27.1165

> <Gold.PLP.part.hbond>
-4.7135

> <Gold.PLP.part.metal>
0.0000

> <Gold.PLP.part.buried>
-4.5415

> <Gold.PLP.part.nonpolar>
-17.6694

> <Gold.PLP.part.repulsive>
0.1000

> <Gold.PLP.ligand.clash>
0.0000

> <Gold.PLP.ligand.torsion>
0.5069

> <Gold.PLP.Chemscore.Hbond>
3.6460

> <Gold.PLP.Chemscore.CHOScore>
0.0000

> <Gold.PLP.Chemscore.Metal>
0.0000

> <Gold.Chemscore.Hbonds>
donor molecule, donor type, donor heavy atom, donor atom, acceptor molecule, acceptor atom, score
      L1  H     5    42       P1  7948  2.00
      P1  H  6931  6943       L1    17  0.65
      P1  H  6934  6947       L1    16  0.95

> <Gold.PLP.Chemscore.Internal.Correction>
0.0398

> <Gold.Rescore>
     Score         DG    S(hbond)    S(metal)    S(lipo)     H(rot)  DE(clash)    DE(int)     intcor
     12.34     -14.17       1.66        0.00      68.14       1.88       0.11       1.72       ----

> <Gold.Chemscore.Fitness>
12.3352

> <Gold.Chemscore.DG>
-14.1679

> <Gold.Chemscore.ZeroCoef>
-5.4800

> <Gold.Chemscore.Hbond>
1.6561

> <Gold.Chemscore.Metal>
0.0000

> <Gold.Chemscore.Lipo>
68.1404

> <Gold.Chemscore.Internal_Hbond>
0.0000

> <Gold.Chemscore.DEClash>
0.1123

> <Gold.Chemscore.DEInternal>
1.7204

> <Gold.Chemscore.Rot>
1.8812

> <Gold.Chemscore.Internal.Correction>
   9.000000E+99

> <Gold.Chemscore.Hbonds>
donor molecule, donor type, donor heavy atom, donor atom, acceptor molecule, acceptor atom, score
      L1  H     5    42       P1  7948  0.99
      P1  H  6931  6943       L1    17  0.06
      P1  H  6934  6947       L1    16  0.21

> <Gold.Chemscore.Hbond.Weighted>
-5.5313

> <Gold.Chemscore.Metal.Weighted>
-0.0000

> <Gold.Chemscore.Lipo.Weighted>
-7.9724

> <Gold.Chemscore.Internal_Hbond.Weighted>
0.0000

> <Gold.Chemscore.DEClash.Weighted>
0.1123

> <Gold.Chemscore.DEInternal.Weighted>
1.7204

> <Gold.Chemscore.Rot.Weighted>
4.8159

> <Gold.Chemscore.Internal.Correction.Weighted>
   9.000000E+99

> <Gold.Protein.RotatedTorsions>
[ 6907 6896 6895 6894 ] final  -38.93 input  -60.11 | X-H torsion
[ 7974 7965 7964 7962 ] final -163.86 input  175.53 | X-H torsion
[ 8008 7997 7996 7995 ] final   71.69 input   59.86 | X-H torsion
[ 10167 10162 10161 10158 ] final   28.56 input  -65.29 | X-H torsion
[ 10718 10713 10712 10709 ] final   86.84 input   66.30 | X-H torsion
[ 10763 10752 10751 10750 ] final -175.22 input  -60.55 | X-H torsion
[ 11005 11000 10999 10996 ] final  -57.71 input  -57.11 | X-H torsion

> <Gold.Protein.ActiveResidues>
 VAL166  LYS551  ARG553  GLY616  TRP617  ASP618  TYR619  PRO620  LYS621  CYS622 
 ASP623  PHE694  ASN695  SER759  ASP760  ASP761  ALA762  ILE779  LEU786  VAL792 
 PHE793  MET794  SER795  GLU796  ALA797  LYS798  CYS799  TRP800  GLU811  SER814 

> <Gold.Protein.RotatedAtoms>
  150.9965  134.9287  159.7929 H   0  0  0  0  0  0  0  0  0  0  0  0  # atno 6907 bound_to 6896
  152.5266  134.3211  159.9159 H   0  0  0  0  0  0  0  0  0  0  0  0  # atno 6908 bound_to 6896
  151.3217  133.3996  159.2689 H   0  0  0  0  0  0  0  0  0  0  0  0  # atno 6909 bound_to 6896
  144.7313  140.3045  143.6199 H   0  0  0  0  0  0  0  0  0  0  0  0  # atno 7974 bound_to 7965
  155.7577  140.3487  155.5182 H   0  0  0  0  0  0  0  0  0  0  0  0  # atno 8008 bound_to 7997
  155.8944  140.1023  157.1416 H   0  0  0  0  0  0  0  0  0  0  0  0  # atno 8009 bound_to 7997
  154.4037  140.1298  156.4343 H   0  0  0  0  0  0  0  0  0  0  0  0  # atno 8010 bound_to 7997
  140.4842  144.0569  150.6275 H   0  0  0  0  0  0  0  0  0  0  0  0  # atno 10167 bound_to 10162
  157.6933  131.0231  150.3033 H   0  0  0  0  0  0  0  0  0  0  0  0  # atno 10718 bound_to 10713
  154.5870  135.2841  155.0674 H   0  0  0  0  0  0  0  0  0  0  0  0  # atno 10763 bound_to 10752
  154.1989  135.6428  153.5085 H   0  0  0  0  0  0  0  0  0  0  0  0  # atno 10764 bound_to 10752
  153.0108  135.5464  154.6543 H   0  0  0  0  0  0  0  0  0  0  0  0  # atno 10765 bound_to 10752
  141.1176  133.6611  156.4811 H   0  0  0  0  0  0  0  0  0  0  0  0  # atno 11005 bound_to 11000
  145.7727  139.1863  143.2203 LP  0  0  0  0  0  0  0  0  0  0  0  0  # atno 17320 bound_to 7965
  146.0898  140.7669  142.9601 LP  0  0  0  0  0  0  0  0  0  0  0  0  # atno 17321 bound_to 7965
  140.3820  143.2798  152.0160 LP  0  0  0  0  0  0  0  0  0  0  0  0  # atno 17342 bound_to 10162
  139.4839  144.6147  151.7368 LP  0  0  0  0  0  0  0  0  0  0  0  0  # atno 17343 bound_to 10162
  156.3545  130.3836  149.7301 LP  0  0  0  0  0  0  0  0  0  0  0  0  # atno 17370 bound_to 10713
  156.4768  130.8022  151.3038 LP  0  0  0  0  0  0  0  0  0  0  0  0  # atno 17371 bound_to 10713
  140.4600  134.6850  157.5081 LP  0  0  0  0  0  0  0  0  0  0  0  0  # atno 17394 bound_to 11000
  140.0110  134.6691  155.9381 LP  0  0  0  0  0  0  0  0  0  0  0  0  # atno 17395 bound_to 11000

$$$$
