AV-unprocessed.smi:1151|AV-procd|sdf|4895|dock7
  -GOLD-   22720 3473D 1   1.00000     0.00000
 Structure written by MMmdl.
 35 36  0  0  0  0  0  0  0  0  1 V2000
  153.2814  142.5087  160.8219 C   0  0  0  0  0  0  0  0  0  0  0  0
  152.5257  142.9873  159.6301 C   0  0  0  0  0  0  0  0  0  0  0  0
  152.0607  142.1756  158.6769 N   0  0  0  0  0  0  0  0  0  0  0  0
  151.3891  142.8662  157.6635 C   0  0  0  0  0  0  0  0  0  0  0  0
  150.7834  142.1136  156.5141 C   0  0  0  0  0  0  0  0  0  0  0  0
  149.6465  141.1587  156.9329 C   0  0  0  0  0  0  0  0  0  0  0  0
  148.5542  141.1092  155.9651 N   0  0  0  0  0  0  0  0  0  0  0  0
  148.6958  141.1808  154.6327 C   0  0  0  0  0  0  0  0  0  0  0  0
  149.7932  141.2680  154.0813 O   0  0  0  0  0  0  0  0  0  0  0  0
  147.3941  141.1806  153.8081 C   0  0  2  0  0  0  0  0  0  0  0  0
  146.5594  142.4604  154.0055 C   0  0  0  0  0  0  0  0  0  0  0  0
  145.8847  142.5494  155.3884 C   0  0  0  0  0  0  0  0  0  0  0  0
  145.2953  141.2196  155.8830 C   0  0  0  0  0  0  0  0  0  0  0  0
  144.5089  141.2232  156.8271 O   0  0  0  0  0  0  0  0  0  0  0  0
  145.6857  140.0726  155.3002 N   0  0  0  0  0  0  0  0  0  0  0  0
  146.5136  139.9461  154.1000 C   0  0  0  0  0  0  0  0  0  0  0  0
  151.3563  144.2241  157.8633 C   0  0  0  0  0  0  0  0  0  0  0  0
  152.1618  144.6837  159.3371 S   0  0  0  0  0  0  0  0  0  0  0  0
  153.0557  141.4609  161.0224 H   0  0  0  0  0  0  0  0  0  0  0  0
  153.0109  143.0969  161.6990 H   0  0  0  0  0  0  0  0  0  0  0  0
  154.3527  142.6102  160.6481 H   0  0  0  0  0  0  0  0  0  0  0  0
  150.4019  142.8208  155.7770 H   0  0  0  0  0  0  0  0  0  0  0  0
  151.5537  141.5435  155.9939 H   0  0  0  0  0  0  0  0  0  0  0  0
  150.0368  140.1559  157.1130 H   0  0  0  0  0  0  0  0  0  0  0  0
  149.2225  141.4982  157.8782 H   0  0  0  0  0  0  0  0  0  0  0  0
  147.6186  141.0444  156.3396 H   0  0  0  0  0  0  0  0  0  0  0  0
  147.6830  141.1325  152.7567 H   0  0  0  0  0  0  0  0  0  0  0  0
  147.1804  143.3425  153.8449 H   0  0  0  0  0  0  0  0  0  0  0  0
  145.7883  142.4990  153.2348 H   0  0  0  0  0  0  0  0  0  0  0  0
  146.6098  142.8841  156.1305 H   0  0  0  0  0  0  0  0  0  0  0  0
  145.1001  143.3062  155.3681 H   0  0  0  0  0  0  0  0  0  0  0  0
  145.3145  139.2137  155.6803 H   0  0  0  0  0  0  0  0  0  0  0  0
  145.8447  139.7718  153.2565 H   0  0  0  0  0  0  0  0  0  0  0  0
  147.1255  139.0474  154.1899 H   0  0  0  0  0  0  0  0  0  0  0  0
  150.9013  144.9772  157.2369 H   0  0  0  0  0  0  0  0  0  0  0  0
  1  2  1  0  0  0  0
  1 19  1  0  0  0  0
  1 20  1  0  0  0  0
  1 21  1  0  0  0  0
  2 18  1  0  0  0  0
  2  3  2  0  0  0  0
  3  4  1  0  0  0  0
  4  5  1  0  0  0  0
  4 17  2  0  0  0  0
  5  6  1  0  0  0  0
  5 22  1  0  0  0  0
  5 23  1  0  0  0  0
  6  7  1  0  0  0  0
  6 24  1  0  0  0  0
  6 25  1  0  0  0  0
  7  8  1  0  0  0  0
  7 26  1  0  0  0  0
  8  9  2  0  0  0  0
  8 10  1  0  0  0  0
 10 16  1  0  0  0  0
 10 11  1  0  0  0  0
 10 27  1  0  0  0  0
 11 12  1  0  0  0  0
 11 28  1  0  0  0  0
 11 29  1  0  0  0  0
 12 13  1  0  0  0  0
 12 30  1  0  0  0  0
 12 31  1  0  0  0  0
 13 14  2  0  0  0  0
 13 15  1  0  0  0  0
 15 16  1  0  0  0  0
 15 32  1  0  0  0  0
 16 33  1  0  0  0  0
 16 34  1  0  0  0  0
 17 18  1  0  0  0  0
 17 35  1  0  0  0  0
M  END
> <s_m_source_file>
AV-unprocessed.smi

> <i_m_source_file_index>
1151

> <i_lp_mmshare_version>
43012

> <i_f3d_flags>
0

> <s_epik_input>
W0NIM11jMW5jKFtjSF1zMSlbQ0gyXVtDSDJdW05IXUMoPU8pW0NAQEhdMltDSDJdW0NIMl1DKD1PKVtOSF1bQ0gyXTI=

> <s_epik_cmdline>
J2VwaWtfcHl0aG9uJywgJy1waCcsICc3LjAnLCAnLXRuJywgJzgnLCAnLW1hJywgJzIwMCcsICctbWV0YWxfYmluZGluZycsICctaW1hZScsICc8aW5maWxlLm1hZT4nLCAnLW9tYWUnLCAnPG91dGZpbGUubWFlPic=

> <r_epik_Ionization_Penalty>
0.00105008

> <r_epik_Ionization_Penalty_Charging>
0

> <r_epik_Ionization_Penalty_Neutral>
0.00105008

> <r_epik_State_Penalty>
0.000686749

> <r_epik_Charging_Adjusted_Penalty>
0.000686749

> <i_epik_Tot_Q>
0

> <i_epik_Tot_abs_Q>
0

> <r_epik_Metal_State_Penalty>
-0

> <b_epik_Metal_Only>
0

> <s_lp_Force_Field>
OPLS_2005

> <r_lp_Energy>
5.23985

> <b_lp_Chiralities_Consistent>
1

> <s_lp_Variant>
AV-unprocessed.smi:1151-1

> <Gold.Version>
5.8.1

> <Gold.Id.Protein>
6NUR|6NUR_protein|mol2

> <Gold.PLP.Fitness>
42.1008

> <Gold.PLP.PLP>
-37.2913

> <Gold.PLP.part.hbond>
-2.0000

> <Gold.PLP.part.metal>
0.0000

> <Gold.PLP.part.buried>
-4.0468

> <Gold.PLP.part.nonpolar>
-33.0947

> <Gold.PLP.part.repulsive>
0.2509

> <Gold.PLP.ligand.clash>
0.0000

> <Gold.PLP.ligand.torsion>
0.5315

> <Gold.PLP.Chemscore.Hbond>
0.9780

> <Gold.PLP.Chemscore.CHOScore>
0.9701

> <Gold.PLP.Chemscore.Metal>
0.0000

> <Gold.Chemscore.Hbonds>
donor molecule, donor type, donor heavy atom, donor atom, acceptor molecule, acceptor atom, score
      P1  H  7989  7998       L1     9  0.35
      P1  H  8011  8017       L1     9  0.62
      L1  C    17    35       P1  8028  0.99

> <Gold.PLP.Chemscore.Internal.Correction>
0.0286

> <Gold.Rescore>
     Score         DG    S(hbond)    S(metal)    S(lipo)     H(rot)  DE(clash)    DE(int)     intcor
     12.85     -14.92       0.84        0.00      93.83       1.70       0.10       1.97       ----

> <Gold.Chemscore.Fitness>
12.8478

> <Gold.Chemscore.DG>
-14.9212

> <Gold.Chemscore.ZeroCoef>
-5.4800

> <Gold.Chemscore.Hbond>
0.8413

> <Gold.Chemscore.Metal>
0.0000

> <Gold.Chemscore.Lipo>
93.8265

> <Gold.Chemscore.Internal_Hbond>
0.0000

> <Gold.Chemscore.DEClash>
0.1007

> <Gold.Chemscore.DEInternal>
1.9726

> <Gold.Chemscore.Rot>
1.6978

> <Gold.Chemscore.Internal.Correction>
   9.000000E+99

> <Gold.Chemscore.Hbonds>
donor molecule, donor type, donor heavy atom, donor atom, acceptor molecule, acceptor atom, score
      P1  H  7989  7998       L1     9  0.34
      P1  H  8011  8017       L1     9  0.55

> <Gold.Chemscore.Hbond.Weighted>
-2.8098

> <Gold.Chemscore.Metal.Weighted>
-0.0000

> <Gold.Chemscore.Lipo.Weighted>
-10.9777

> <Gold.Chemscore.Internal_Hbond.Weighted>
0.0000

> <Gold.Chemscore.DEClash.Weighted>
0.1007

> <Gold.Chemscore.DEInternal.Weighted>
1.9726

> <Gold.Chemscore.Rot.Weighted>
4.3463

> <Gold.Chemscore.Internal.Correction.Weighted>
   9.000000E+99

> <Gold.Protein.RotatedTorsions>
[ 6907 6896 6895 6894 ] final -158.64 input  -60.11 | X-H torsion
[ 7974 7965 7964 7962 ] final  -58.85 input  175.53 | X-H torsion
[ 8008 7997 7996 7995 ] final -167.29 input   59.86 | X-H torsion
[ 10167 10162 10161 10158 ] final   71.88 input  -65.29 | X-H torsion
[ 10718 10713 10712 10709 ] final  -20.04 input   66.30 | X-H torsion
[ 10763 10752 10751 10750 ] final -127.18 input  -60.55 | X-H torsion
[ 11005 11000 10999 10996 ] final  173.37 input  -57.11 | X-H torsion

> <Gold.Protein.ActiveResidues>
 VAL166  LYS551  ARG553  GLY616  TRP617  ASP618  TYR619  PRO620  LYS621  CYS622 
 ASP623  PHE694  ASN695  SER759  ASP760  ASP761  ALA762  ILE779  LEU786  VAL792 
 PHE793  MET794  SER795  GLU796  ALA797  LYS798  CYS799  TRP800  GLU811  SER814 

> <Gold.Protein.RotatedAtoms>
  151.3213  133.4039  159.2654 H   0  0  0  0  0  0  0  0  0  0  0  0  # atno 6907 bound_to 6896
  151.0032  134.9339  159.7976 H   0  0  0  0  0  0  0  0  0  0  0  0  # atno 6908 bound_to 6896
  152.5281  134.3178  159.9189 H   0  0  0  0  0  0  0  0  0  0  0  0  # atno 6909 bound_to 6896
  145.8344  140.8459  143.0067 H   0  0  0  0  0  0  0  0  0  0  0  0  # atno 7974 bound_to 7965
  155.8757  140.1000  157.1520 H   0  0  0  0  0  0  0  0  0  0  0  0  # atno 8008 bound_to 7997
  154.4001  140.1338  156.4197 H   0  0  0  0  0  0  0  0  0  0  0  0  # atno 8009 bound_to 7997
  155.7700  140.3461  155.5244 H   0  0  0  0  0  0  0  0  0  0  0  0  # atno 8010 bound_to 7997
  140.0413  144.5387  150.7432 H   0  0  0  0  0  0  0  0  0  0  0  0  # atno 10167 bound_to 10162
  156.5374  130.4670  149.6516 H   0  0  0  0  0  0  0  0  0  0  0  0  # atno 10718 bound_to 10713
  154.8751  135.3970  154.3552 H   0  0  0  0  0  0  0  0  0  0  0  0  # atno 10763 bound_to 10752
  153.4332  135.7025  153.6222 H   0  0  0  0  0  0  0  0  0  0  0  0  # atno 10764 bound_to 10752
  153.4835  135.3764  155.2424 H   0  0  0  0  0  0  0  0  0  0  0  0  # atno 10765 bound_to 10752
  140.3398  134.7286  157.4194 H   0  0  0  0  0  0  0  0  0  0  0  0  # atno 11005 bound_to 11000
  144.6737  140.0719  143.7472 LP  0  0  0  0  0  0  0  0  0  0  0  0  # atno 17320 bound_to 7965
  145.9535  139.2750  143.1198 LP  0  0  0  0  0  0  0  0  0  0  0  0  # atno 17321 bound_to 7965
  140.7258  143.2635  151.4123 LP  0  0  0  0  0  0  0  0  0  0  0  0  # atno 17342 bound_to 10162
  139.6012  144.1292  152.2199 LP  0  0  0  0  0  0  0  0  0  0  0  0  # atno 17343 bound_to 10162
  156.3003  130.7173  151.2043 LP  0  0  0  0  0  0  0  0  0  0  0  0  # atno 17370 bound_to 10713
  157.7411  131.0508  150.5118 LP  0  0  0  0  0  0  0  0  0  0  0  0  # atno 17371 bound_to 10713
  140.0791  134.5756  155.8560 LP  0  0  0  0  0  0  0  0  0  0  0  0  # atno 17394 bound_to 11000
  141.2041  133.6637  156.6104 LP  0  0  0  0  0  0  0  0  0  0  0  0  # atno 17395 bound_to 11000

$$$$
