#       Name:                AV-unprocessed.smi:22
#       Creating user name   scv26
#       Creation time:       Thu Mar 26 15:42:13 2020


#       File generated by GOLD software.
#

@<TRIPOS>MOLECULE
AV-unprocessed.smi:22
    66    69     1
SMALL
NO_CHARGES


@<TRIPOS>ATOM
      1 ****        -5.4838  -1.8135  -0.9213 C.3            1 S1                 0.0000
      2 ****        -4.7543  -1.8258   0.3727 N.4            1 S1                 1.0000
      3 ****        -5.3832  -2.7763   1.3312 C.3            1 S1                 0.0000
      4 ****        -6.5516  -2.1309   2.0939 C.3            1 S1                 0.0000
      5 ****        -6.0638  -1.1413   2.9747 O.3            1 S1                 0.0000
      6 ****        -3.2719  -2.0045   0.2630 C.3            1 S1                 0.0000
      7 ****        -2.5638  -1.4368   1.5171 C.3            1 S1                 0.0000
      8 ****        -1.0390  -1.6103   1.4392 C.3            1 S1                 0.0000
      9 ****        -0.5092  -1.0056   0.2185 N.3            1 S1                 0.0000
     10 ****         0.8314  -0.8053   0.1450 C.ar           1 S1                 0.0000
     11 ****         1.6732  -1.5489   0.9121 N.ar           1 S1                 0.0000
     12 ****         2.9947  -1.3645   0.8378 C.ar           1 S1                 0.0000
     13 ****         3.6753  -0.5029   0.0802 N.ar           1 S1                 0.0000
     14 ****         2.8370   0.2520  -0.6859 C.ar           1 S1                 0.0000
     15 ****         1.4163   0.1650  -0.7167 C.ar           1 S1                 0.0000
     16 ****         0.9048   1.0971  -1.6122 N.2            1 S1                 0.0000
     17 ****         1.9627   1.6952  -2.0883 C.2            1 S1                 0.0000
     18 ****         3.1646   1.2547  -1.5818 N.pl3          1 S1                 0.0000
     19 ****         4.4885   1.7475  -1.9296 C.3            1 S1                 0.0000
     20 ****         4.8867   3.0286  -1.1608 C.3            1 S1                 0.0000
     21 ****         4.0225   4.0828  -1.5490 O.3            1 S1                 0.0000
     22 ****         4.8320   2.8891   0.3577 C.3            1 S1                 0.0000
     23 ****         5.9279   3.8368   0.8238 C.3            1 S1                 0.0000
     24 ****         6.9476   3.6250  -0.1377 O.3            1 S1                 0.0000
     25 ****         6.3410   3.4715  -1.4174 C.3            1 S1                 0.0000
     26 ****        -1.1177  -1.4919  -1.0168 C.3            1 S1                 0.0000
     27 ****        -2.6457  -1.3252  -0.9825 C.3            1 S1                 0.0000
     28 ****        -5.2864  -2.7232  -1.4903 H              1 S1                 0.0000
     29 ****        -5.2056  -0.9527  -1.5291 H              1 S1                 0.0000
     30 ****        -6.5604  -1.7447  -0.7672 H              1 S1                 0.0000
     31 ****        -5.7312  -3.6579   0.7903 H              1 S1                 0.0000
     32 ****        -4.6646  -3.1558   2.0569 H              1 S1                 0.0000
     33 ****        -7.2869  -1.6919   1.4199 H              1 S1                 0.0000
     34 ****        -7.0710  -2.8866   2.6836 H              1 S1                 0.0000
     35 ****        -6.7898  -0.7948   3.4717 H              1 S1                 0.0000
     36 ****        -3.0684  -3.0744   0.1896 H              1 S1                 0.0000
     37 ****        -2.7992  -0.3762   1.6196 H              1 S1                 0.0000
     38 ****        -2.9177  -1.9125   2.4305 H              1 S1                 0.0000
     39 ****        -0.5778  -1.1490   2.3138 H              1 S1                 0.0000
     40 ****        -0.7829  -2.6706   1.4602 H              1 S1                 0.0000
     41 ****         3.5921  -1.9987   1.4761 H              1 S1                 0.0000
     42 ****         1.8953   2.4858  -2.8218 H              1 S1                 0.0000
     43 ****         5.2099   0.9534  -1.7328 H              1 S1                 0.0000
     44 ****         4.5176   1.9259  -3.0056 H              1 S1                 0.0000
     45 ****         4.2820   4.8668  -1.0892 H              1 S1                 0.0000
     46 ****         3.8545   3.1117   0.7878 H              1 S1                 0.0000
     47 ****         5.1020   1.8749   0.6532 H              1 S1                 0.0000
     48 ****         5.5936   4.8748   0.7862 H              1 S1                 0.0000
     49 ****         6.2741   3.6195   1.8344 H              1 S1                 0.0000
     50 ****         6.9044   2.7330  -1.9886 H              1 S1                 0.0000
     51 ****         6.3946   4.4147  -1.9638 H              1 S1                 0.0000
     52 ****        -0.7204  -0.9700  -1.8869 H              1 S1                 0.0000
     53 ****        -0.8614  -2.5447  -1.1424 H              1 S1                 0.0000
     54 ****        -3.0446  -1.7490  -1.9041 H              1 S1                 0.0000
     55 ****        -2.8905  -0.2620  -0.9905 H              1 S1                 0.0000
     56 ****        -4.8822  -0.9063   0.7717 H              1 S1                 0.0000
     57 ****        -5.6333  -0.4065   2.4505 LP             1 S1                 0.0000
     58 ****        -5.3924  -1.5450   3.5962 LP             1 S1                 0.0000
     59 ****        -0.8361  -0.0660   0.3202 LP             1 S1                 0.0000
     60 ****         1.3013  -2.2372   1.5349 LP             1 S1                 0.0000
     61 ****         4.6719  -0.4212   0.0748 LP             1 S1                 0.0000
     62 ****        -0.0536   1.2697  -1.8394 LP             1 S1                 0.0000
     63 ****         3.0789   3.8499  -1.3134 LP             1 S1                 0.0000
     64 ****         4.0928   4.2310  -2.5354 LP             1 S1                 0.0000
     65 ****         7.4615   2.7987   0.0928 LP             1 S1                 0.0000
     66 ****         7.5669   4.4100  -0.1504 LP             1 S1                 0.0000
@<TRIPOS>BOND
    1    1    2 1     
    2    1   28 1     
    3    1   29 1     
    4    1   30 1     
    5    2    3 1     
    6    2    6 1     
    7    2   56 1     
    8    3    4 1     
    9    3   31 1     
   10    3   32 1     
   11    4    5 1     
   12    4   33 1     
   13    4   34 1     
   14    5   35 1     
   15    6   27 1     
   16    6    7 1     
   17    6   36 1     
   18    7    8 1     
   19    7   37 1     
   20    7   38 1     
   21    8    9 1     
   22    8   39 1     
   23    8   40 1     
   24    9   10 1     
   25    9   26 1     
   26   10   15 ar    
   27   10   11 ar    
   28   11   12 ar    
   29   12   13 ar    
   30   12   41 1     
   31   13   14 ar    
   32   14   18 1     
   33   14   15 ar    
   34   15   16 1     
   35   16   17 2     
   36   17   18 1     
   37   17   42 1     
   38   18   19 1     
   39   19   20 1     
   40   19   43 1     
   41   19   44 1     
   42   20   25 1     
   43   20   21 1     
   44   20   22 1     
   45   21   45 1     
   46   22   23 1     
   47   22   46 1     
   48   22   47 1     
   49   23   24 1     
   50   23   48 1     
   51   23   49 1     
   52   24   25 1     
   53   25   50 1     
   54   25   51 1     
   55   26   27 1     
   56   26   52 1     
   57   26   53 1     
   58   27   54 1     
   59   27   55 1     
   60    5   57 1     
   61    5   58 1     
   62    9   59 1     
   63   11   60 1     
   64   13   61 1     
   65   16   62 1     
   66   21   63 1     
   67   21   64 1     
   68   24   65 1     
   69   24   66 1     
@<TRIPOS>SUBSTRUCTURE
      1 S1             1
@<TRIPOS>SET
LONE_PAIRS      STATIC     ATOMS    <user>   **** ""
10 57 58 59 60 61 62 63 64 65 66
DONOR_HYDROGENS      STATIC     ATOMS    <user>   **** ""
3 56 35 45
ATOM$BLUE        STATIC     ATOMS    COLORGROUP SYSTEM
10 57 58 59 60 61 62 63 64 65 66
ATOM$RED        STATIC     ATOMS    COLORGROUP SYSTEM
3 56 35 45
