AV-unprocessed.smi:1295|AV-procd|sdf|5402|dock4
  -GOLD-   22720 4563D 1   1.00000     0.00000
 Structure written by MMmdl.
 43 44  0  0  0  0  0  0  0  0  1 V2000
  149.1954  139.3870  154.7769 C   0  0  0  0  0  0  0  0  0  0  0  0
  147.9485  138.7585  154.1924 C   0  0  0  0  0  0  0  0  0  0  0  0
  147.0198  138.2065  154.9017 N   0  0  0  0  0  0  0  0  0  0  0  0
  145.9108  137.6532  154.2465 C   0  0  0  0  0  0  0  0  0  0  0  0
  144.8664  137.0169  155.1482 C   0  0  0  0  0  0  0  0  0  0  0  0
  145.7917  137.6889  152.8867 C   0  0  0  0  0  0  0  0  0  0  0  0
  144.5991  137.0883  152.1452 C   0  0  0  0  0  0  0  0  0  0  0  0
  144.2893  135.6257  152.4722 C   0  0  0  0  0  0  0  0  0  0  0  0
  143.2858  135.3367  153.1236 O   0  0  0  0  0  0  0  0  0  0  0  0
  145.1607  134.7179  152.0060 N   0  0  0  0  0  0  0  0  0  0  0  0
  145.0627  133.2651  152.1579 C   0  0  1  0  0  0  0  0  0  0  0  0
  143.9030  132.7290  151.2944 C   0  0  0  0  0  0  0  0  0  0  0  0
  144.2086  132.8202  149.7890 C   0  0  0  0  0  0  0  0  0  0  0  0
  145.5277  132.1117  149.4455 C   0  0  0  0  0  0  0  0  0  0  0  0
  146.6929  132.6542  150.2891 C   0  0  0  0  0  0  0  0  0  0  0  0
  146.3939  132.5570  151.7996 C   0  0  1  0  0  0  0  0  0  0  0  0
  147.5824  133.0449  152.6455 C   0  0  0  0  0  0  0  0  0  0  0  0
  146.8567  138.3246  152.0870 C   0  0  0  0  0  0  0  0  0  0  0  0
  146.8521  138.4105  150.8601 O   0  0  0  0  0  0  0  0  0  0  0  0
  147.8880  138.8277  152.8017 N   0  0  0  0  0  0  0  0  0  0  0  0
  148.6442  139.2697  152.2996 H   0  0  0  0  0  0  0  0  0  0  0  0
  149.7614  138.6440  155.3392 H   0  0  0  0  0  0  0  0  0  0  0  0
  148.9247  140.1971  155.4541 H   0  0  0  0  0  0  0  0  0  0  0  0
  149.8442  139.7938  153.9997 H   0  0  0  0  0  0  0  0  0  0  0  0
  143.9150  137.5423  155.0628 H   0  0  0  0  0  0  0  0  0  0  0  0
  145.1734  137.0506  156.1943 H   0  0  0  0  0  0  0  0  0  0  0  0
  144.7115  135.9713  154.8817 H   0  0  0  0  0  0  0  0  0  0  0  0
  143.7198  137.6963  152.3615 H   0  0  0  0  0  0  0  0  0  0  0  0
  144.7335  137.1720  151.0665 H   0  0  0  0  0  0  0  0  0  0  0  0
  145.9558  135.0598  151.4863 H   0  0  0  0  0  0  0  0  0  0  0  0
  144.8249  133.0273  153.1964 H   0  0  0  0  0  0  0  0  0  0  0  0
  143.7157  131.6868  151.5563 H   0  0  0  0  0  0  0  0  0  0  0  0
  142.9823  133.2674  151.5225 H   0  0  0  0  0  0  0  0  0  0  0  0
  143.3912  132.3790  149.2181 H   0  0  0  0  0  0  0  0  0  0  0  0
  144.2647  133.8662  149.4851 H   0  0  0  0  0  0  0  0  0  0  0  0
  145.4216  131.0401  149.6178 H   0  0  0  0  0  0  0  0  0  0  0  0
  145.7490  132.2330  148.3848 H   0  0  0  0  0  0  0  0  0  0  0  0
  147.5999  132.0967  150.0531 H   0  0  0  0  0  0  0  0  0  0  0  0
  146.8912  133.6909  150.0144 H   0  0  0  0  0  0  0  0  0  0  0  0
  146.2620  131.4992  152.0325 H   0  0  0  0  0  0  0  0  0  0  0  0
  147.8313  134.0848  152.4325 H   0  0  0  0  0  0  0  0  0  0  0  0
  148.4727  132.4476  152.4482 H   0  0  0  0  0  0  0  0  0  0  0  0
  147.3627  132.9664  153.7106 H   0  0  0  0  0  0  0  0  0  0  0  0
  1  2  1  0  0  0  0
  1 22  1  0  0  0  0
  1 23  1  0  0  0  0
  1 24  1  0  0  0  0
  2 20  1  0  0  0  0
  2  3  2  0  0  0  0
  3  4  1  0  0  0  0
  4  5  1  0  0  0  0
  4  6  2  0  0  0  0
  5 25  1  0  0  0  0
  5 26  1  0  0  0  0
  5 27  1  0  0  0  0
  6  7  1  0  0  0  0
  6 18  1  0  0  0  0
  7  8  1  0  0  0  0
  7 28  1  0  0  0  0
  7 29  1  0  0  0  0
  8  9  2  0  0  0  0
  8 10  1  0  0  0  0
 10 11  1  0  0  0  0
 10 30  1  0  0  0  0
 11 16  1  0  0  0  0
 11 12  1  0  0  0  0
 11 31  1  0  0  0  0
 12 13  1  0  0  0  0
 12 32  1  0  0  0  0
 12 33  1  0  0  0  0
 13 14  1  0  0  0  0
 13 34  1  0  0  0  0
 13 35  1  0  0  0  0
 14 15  1  0  0  0  0
 14 36  1  0  0  0  0
 14 37  1  0  0  0  0
 15 16  1  0  0  0  0
 15 38  1  0  0  0  0
 15 39  1  0  0  0  0
 16 17  1  0  0  0  0
 16 40  1  0  0  0  0
 17 41  1  0  0  0  0
 17 42  1  0  0  0  0
 17 43  1  0  0  0  0
 18 19  2  0  0  0  0
 18 20  1  0  0  0  0
 20 21  1  0  0  0  0
M  END
> <s_m_source_file>
AV-unprocessed.smi

> <i_m_source_file_index>
1295

> <i_lp_mmshare_version>
43012

> <i_f3d_flags>
0

> <s_epik_input>
W0NIM11jMW5jKFtDSDNdKWMoYyg9TylbbkhdMSlbQ0gyXUMoPU8pW05IXVtDQEBIXTJbQ0gyXVtDSDJdW0NIMl1bQ0gyXVtDQEhdMltDSDNd

> <s_epik_cmdline>
J2VwaWtfcHl0aG9uJywgJy1waCcsICc3LjAnLCAnLXRuJywgJzgnLCAnLW1hJywgJzIwMCcsICctbWV0YWxfYmluZGluZycsICctaW1hZScsICc8aW5maWxlLm1hZT4nLCAnLW9tYWUnLCAnPG91dGZpbGUubWFlPic=

> <r_lp_tautomer_probability>
0.839158

> <r_epik_Ionization_Penalty>
0.00037085

> <r_epik_Ionization_Penalty_Charging>
0.000336002

> <r_epik_Ionization_Penalty_Neutral>
3.48485e-05

> <r_epik_State_Penalty>
0.09125

> <r_epik_Charging_Adjusted_Penalty>
0.091586

> <i_epik_Tot_Q>
0

> <i_epik_Tot_abs_Q>
0

> <r_epik_Metal_State_Penalty>
0.251445

> <b_epik_Metal_Only>
0

> <s_lp_Force_Field>
OPLS_2005

> <r_lp_Energy>
11.7893

> <b_lp_Chiralities_Consistent>
1

> <s_lp_Variant>
AV-unprocessed.smi:1295-2

> <Gold.Version>
5.8.1

> <Gold.Id.Protein>
6NUR|6NUR_protein|mol2

> <Gold.PLP.Fitness>
36.4285

> <Gold.PLP.PLP>
-31.0029

> <Gold.PLP.part.hbond>
-3.0000

> <Gold.PLP.part.metal>
0.0000

> <Gold.PLP.part.buried>
-0.3821

> <Gold.PLP.part.nonpolar>
-29.0927

> <Gold.PLP.part.repulsive>
1.0446

> <Gold.PLP.ligand.clash>
0.0000

> <Gold.PLP.ligand.torsion>
0.2792

> <Gold.PLP.Chemscore.Hbond>
1.9920

> <Gold.PLP.Chemscore.CHOScore>
0.0000

> <Gold.PLP.Chemscore.Metal>
0.0000

> <Gold.Chemscore.Hbonds>
donor molecule, donor type, donor heavy atom, donor atom, acceptor molecule, acceptor atom, score
      L1  H    20    21       P1  7957  1.00
      P1  H  7954  7966       L1    19  1.00

> <Gold.PLP.Chemscore.Internal.Correction>
0.0081

> <Gold.Rescore>
     Score         DG    S(hbond)    S(metal)    S(lipo)     H(rot)  DE(clash)    DE(int)     intcor
     12.21     -16.67       1.95        0.00      72.52       1.48       1.98       2.49       ----

> <Gold.Chemscore.Fitness>
12.2052

> <Gold.Chemscore.DG>
-16.6746

> <Gold.Chemscore.ZeroCoef>
-5.4800

> <Gold.Chemscore.Hbond>
1.9458

> <Gold.Chemscore.Metal>
0.0000

> <Gold.Chemscore.Lipo>
72.5190

> <Gold.Chemscore.Internal_Hbond>
0.0000

> <Gold.Chemscore.DEClash>
1.9779

> <Gold.Chemscore.DEInternal>
2.4915

> <Gold.Chemscore.Rot>
1.4801

> <Gold.Chemscore.Internal.Correction>
   9.000000E+99

> <Gold.Chemscore.Hbonds>
donor molecule, donor type, donor heavy atom, donor atom, acceptor molecule, acceptor atom, score
      L1  H    20    21       P1  7957  1.00
      P1  H  7954  7966       L1    19  0.96

> <Gold.Chemscore.Hbond.Weighted>
-6.4990

> <Gold.Chemscore.Metal.Weighted>
-0.0000

> <Gold.Chemscore.Lipo.Weighted>
-8.4847

> <Gold.Chemscore.Internal_Hbond.Weighted>
0.0000

> <Gold.Chemscore.DEClash.Weighted>
1.9779

> <Gold.Chemscore.DEInternal.Weighted>
2.4915

> <Gold.Chemscore.Rot.Weighted>
3.7891

> <Gold.Chemscore.Internal.Correction.Weighted>
   9.000000E+99

> <Gold.Protein.RotatedTorsions>
[ 6907 6896 6895 6894 ] final -105.49 input  -60.11 | X-H torsion
[ 7974 7965 7964 7962 ] final -180.00 input  175.53 | X-H torsion
[ 8008 7997 7996 7995 ] final   43.43 input   59.86 | X-H torsion
[ 10167 10162 10161 10158 ] final  169.83 input  -65.29 | X-H torsion
[ 10718 10713 10712 10709 ] final  -14.54 input   66.30 | X-H torsion
[ 10763 10752 10751 10750 ] final   38.58 input  -60.55 | X-H torsion
[ 11005 11000 10999 10996 ] final  -19.63 input  -57.11 | X-H torsion

> <Gold.Protein.ActiveResidues>
 VAL166  LYS551  ARG553  GLY616  TRP617  ASP618  TYR619  PRO620  LYS621  CYS622 
 ASP623  PHE694  ASN695  SER759  ASP760  ASP761  ALA762  ILE779  LEU786  VAL792 
 PHE793  MET794  SER795  GLU796  ALA797  LYS798  CYS799  TRP800  GLU811  SER814 

> <Gold.Protein.RotatedAtoms>
  150.7339  134.0119  159.3672 H   0  0  0  0  0  0  0  0  0  0  0  0  # atno 6907 bound_to 6896
  151.8079  135.0687  160.0418 H   0  0  0  0  0  0  0  0  0  0  0  0  # atno 6908 bound_to 6896
  152.3094  133.5700  159.5707 H   0  0  0  0  0  0  0  0  0  0  0  0  # atno 6909 bound_to 6896
  144.7141  140.0633  143.6432 H   0  0  0  0  0  0  0  0  0  0  0  0  # atno 7974 bound_to 7965
  155.3026  140.3386  155.4247 H   0  0  0  0  0  0  0  0  0  0  0  0  # atno 8008 bound_to 7997
  156.1994  140.1727  156.7970 H   0  0  0  0  0  0  0  0  0  0  0  0  # atno 8009 bound_to 7997
  154.5540  140.0700  156.8697 H   0  0  0  0  0  0  0  0  0  0  0  0  # atno 8010 bound_to 7997
  139.5002  144.3663  151.9772 H   0  0  0  0  0  0  0  0  0  0  0  0  # atno 10167 bound_to 10162
  156.6145  130.4858  149.6188 H   0  0  0  0  0  0  0  0  0  0  0  0  # atno 10718 bound_to 10713
  152.9996  135.6245  154.2327 H   0  0  0  0  0  0  0  0  0  0  0  0  # atno 10763 bound_to 10752
  154.2069  135.2801  155.2973 H   0  0  0  0  0  0  0  0  0  0  0  0  # atno 10764 bound_to 10752
  154.5638  135.5697  153.7090 H   0  0  0  0  0  0  0  0  0  0  0  0  # atno 10765 bound_to 10752
  140.8386  133.7943  155.9836 H   0  0  0  0  0  0  0  0  0  0  0  0  # atno 11005 bound_to 11000
  145.9845  139.2967  143.1022 LP  0  0  0  0  0  0  0  0  0  0  0  0  # atno 17320 bound_to 7965
  145.8973  140.9265  143.0521 LP  0  0  0  0  0  0  0  0  0  0  0  0  # atno 17321 bound_to 7965
  140.3099  144.3550  150.6037 LP  0  0  0  0  0  0  0  0  0  0  0  0  # atno 17342 bound_to 10162
  140.5807  143.2173  151.7434 LP  0  0  0  0  0  0  0  0  0  0  0  0  # atno 17343 bound_to 10162
  156.2362  130.6824  151.1512 LP  0  0  0  0  0  0  0  0  0  0  0  0  # atno 17370 bound_to 10713
  157.7245  131.0659  150.5993 LP  0  0  0  0  0  0  0  0  0  0  0  0  # atno 17371 bound_to 10713
  140.8920  134.2483  157.5089 LP  0  0  0  0  0  0  0  0  0  0  0  0  # atno 17394 bound_to 11000
  139.8703  134.9666  156.4568 LP  0  0  0  0  0  0  0  0  0  0  0  0  # atno 17395 bound_to 11000

$$$$
