AV-unprocessed.smi:1772|AV-procd|sdf|7160|dock3
  -GOLD-   22720 8393D 1   1.00000     0.00000
 Structure written by MMmdl.
 33 34  0  0  0  0  0  0  0  0  1 V2000
  144.4646  136.5128  151.9840 O   0  0  0  0  0  0  0  0  0  0  0  0
  145.6802  136.4061  151.8245 C   0  0  0  0  0  0  0  0  0  0  0  0
  146.5542  137.3612  152.1722 N   0  0  0  0  0  0  0  0  0  0  0  0
  146.1980  138.6471  152.7631 C   0  0  0  0  0  0  0  0  0  0  0  0
  147.4402  139.4919  153.1064 C   0  0  1  0  0  0  0  0  0  0  0  0
  147.0711  140.9003  153.6115 C   0  0  0  0  0  0  0  0  0  0  0  0
  148.3321  141.5548  154.1816 C   0  0  0  0  0  0  0  0  0  0  0  0
  149.2622  140.1968  154.9817 S   0  0  0  0  0  0  0  0  0  0  0  0
  150.6560  140.2241  154.5134 O   0  0  0  0  0  0  0  0  0  0  0  0
  148.9462  140.1702  156.4178 O   0  0  0  0  0  0  0  0  0  0  0  0
  148.3571  138.8338  154.1539 C   0  0  0  0  0  0  0  0  0  0  0  0
  146.3119  135.3410  151.3005 N   0  0  0  0  0  0  0  0  0  0  0  0
  145.7655  134.1191  150.8202 C   0  0  0  0  0  0  0  0  0  0  0  0
  144.3609  134.0230  150.7376 C   0  0  0  0  0  0  0  0  0  0  0  0
  143.7866  132.8218  150.2765 C   0  0  0  0  0  0  0  0  0  0  0  0
  144.5131  131.7446  149.9121 N   0  0  0  0  0  0  0  0  0  0  0  0
  145.8569  131.8330  150.0024 C   0  0  0  0  0  0  0  0  0  0  0  0
  146.5315  132.9864  150.4511 C   0  0  0  0  0  0  0  0  0  0  0  0
  147.5364  137.1901  152.0131 H   0  0  0  0  0  0  0  0  0  0  0  0
  145.5401  139.1965  152.0875 H   0  0  0  0  0  0  0  0  0  0  0  0
  145.6174  138.4530  153.6653 H   0  0  0  0  0  0  0  0  0  0  0  0
  148.0301  139.6287  152.1987 H   0  0  0  0  0  0  0  0  0  0  0  0
  146.6277  141.5093  152.8233 H   0  0  0  0  0  0  0  0  0  0  0  0
  146.3279  140.8157  154.4056 H   0  0  0  0  0  0  0  0  0  0  0  0
  148.9507  141.9617  153.3812 H   0  0  0  0  0  0  0  0  0  0  0  0
  148.1212  142.3468  154.9002 H   0  0  0  0  0  0  0  0  0  0  0  0
  147.7780  138.3105  154.9151 H   0  0  0  0  0  0  0  0  0  0  0  0
  149.0637  138.1307  153.7123 H   0  0  0  0  0  0  0  0  0  0  0  0
  147.3198  135.3913  151.2890 H   0  0  0  0  0  0  0  0  0  0  0  0
  143.7293  134.8537  151.0171 H   0  0  0  0  0  0  0  0  0  0  0  0
  142.7140  132.7240  150.1996 H   0  0  0  0  0  0  0  0  0  0  0  0
  146.4133  130.9539  149.7128 H   0  0  0  0  0  0  0  0  0  0  0  0
  147.6083  132.9695  150.5103 H   0  0  0  0  0  0  0  0  0  0  0  0
  1  2  2  0  0  0  0
  2  3  1  0  0  0  0
  2 12  1  0  0  0  0
  3  4  1  0  0  0  0
  3 19  1  0  0  0  0
  4  5  1  0  0  0  0
  4 20  1  0  0  0  0
  4 21  1  0  0  0  0
  5 11  1  0  0  0  0
  5  6  1  0  0  0  0
  5 22  1  0  0  0  0
  6  7  1  0  0  0  0
  6 23  1  0  0  0  0
  6 24  1  0  0  0  0
  7  8  1  0  0  0  0
  7 25  1  0  0  0  0
  7 26  1  0  0  0  0
  8  9  2  0  0  0  0
  8 10  2  0  0  0  0
  8 11  1  0  0  0  0
 11 27  1  0  0  0  0
 11 28  1  0  0  0  0
 12 13  1  0  0  0  0
 12 29  1  0  0  0  0
 13 18  1  0  0  0  0
 13 14  2  0  0  0  0
 14 15  1  0  0  0  0
 14 30  1  0  0  0  0
 15 16  2  0  0  0  0
 15 31  1  0  0  0  0
 16 17  1  0  0  0  0
 17 18  2  0  0  0  0
 17 32  1  0  0  0  0
 18 33  1  0  0  0  0
M  END
> <s_m_source_file>
AV-unprocessed.smi

> <i_m_source_file_index>
1772

> <i_lp_mmshare_version>
43012

> <i_f3d_flags>
0

> <s_epik_input>
W2NIXTFbY0hdbltjSF1bY0hdYzFbTkhdQyg9TylbTkhdW0NIMl1bQ0BASF0oW0NIMl0yKVtDSDJdW0NIMl1TMig9Tyk9Tw==

> <s_epik_cmdline>
J2VwaWtfcHl0aG9uJywgJy1waCcsICc3LjAnLCAnLXRuJywgJzgnLCAnLW1hJywgJzIwMCcsICctbWV0YWxfYmluZGluZycsICctaW1hZScsICc8aW5maWxlLm1hZT4nLCAnLW9tYWUnLCAnPG91dGZpbGUubWFlPic=

> <r_epik_Ionization_Penalty>
0.110577

> <r_epik_Ionization_Penalty_Charging>
0

> <r_epik_Ionization_Penalty_Neutral>
0.110577

> <r_epik_State_Penalty>
0.100289

> <r_epik_Charging_Adjusted_Penalty>
0.100289

> <i_epik_Tot_Q>
0

> <i_epik_Tot_abs_Q>
0

> <r_epik_Metal_State_Penalty>
0.0843891

> <b_epik_Metal_Only>
0

> <s_lp_Force_Field>
OPLS_2005

> <r_lp_Energy>
7.83536

> <b_lp_Chiralities_Consistent>
1

> <s_lp_Variant>
AV-unprocessed.smi:1772-2

> <Gold.Version>
5.8.1

> <Gold.Id.Protein>
6NUR|6NUR_protein|mol2

> <Gold.PLP.Fitness>
46.5806

> <Gold.PLP.PLP>
-32.4551

> <Gold.PLP.part.hbond>
-3.7963

> <Gold.PLP.part.metal>
0.0000

> <Gold.PLP.part.buried>
-1.0771

> <Gold.PLP.part.nonpolar>
-28.1656

> <Gold.PLP.part.repulsive>
1.1069

> <Gold.PLP.ligand.clash>
0.0000

> <Gold.PLP.ligand.torsion>
0.0268

> <Gold.PLP.Chemscore.Hbond>
3.0858

> <Gold.PLP.Chemscore.CHOScore>
1.6394

> <Gold.PLP.Chemscore.Metal>
0.0000

> <Gold.Chemscore.Hbonds>
donor molecule, donor type, donor heavy atom, donor atom, acceptor molecule, acceptor atom, score
      L1  H     3    19       P1  7948  1.00
      L1  H    12    29       P1  7948  1.00
      P1  H  7989  7998       L1     9  1.00
      P1  H 10785 10796       L1    16  0.09
      L1  C    15    31       P1 10186  1.00
      L1  C    17    32       P1 10747  0.64

> <Gold.PLP.Chemscore.Internal.Correction>
0.0037

> <Gold.Rescore>
     Score         DG    S(hbond)    S(metal)    S(lipo)     H(rot)  DE(clash)    DE(int)     intcor
     19.14     -20.76       2.99        0.00      73.81       1.30       0.16       1.46       ----

> <Gold.Chemscore.Fitness>
19.1437

> <Gold.Chemscore.DG>
-20.7631

> <Gold.Chemscore.ZeroCoef>
-5.4800

> <Gold.Chemscore.Hbond>
2.9861

> <Gold.Chemscore.Metal>
0.0000

> <Gold.Chemscore.Lipo>
73.8081

> <Gold.Chemscore.Internal_Hbond>
0.0000

> <Gold.Chemscore.DEClash>
0.1618

> <Gold.Chemscore.DEInternal>
1.4576

> <Gold.Chemscore.Rot>
1.2992

> <Gold.Chemscore.Internal.Correction>
   9.000000E+99

> <Gold.Chemscore.Hbonds>
donor molecule, donor type, donor heavy atom, donor atom, acceptor molecule, acceptor atom, score
      L1  H     3    19       P1  7948  0.98
      L1  H    12    29       P1  7948  0.79
      P1  H  7989  7998       L1     9  0.95
      P1  H 10785 10796       L1    16  0.08

> <Gold.Chemscore.Hbond.Weighted>
-9.9735

> <Gold.Chemscore.Metal.Weighted>
-0.0000

> <Gold.Chemscore.Lipo.Weighted>
-8.6355

> <Gold.Chemscore.Internal_Hbond.Weighted>
0.0000

> <Gold.Chemscore.DEClash.Weighted>
0.1618

> <Gold.Chemscore.DEInternal.Weighted>
1.4576

> <Gold.Chemscore.Rot.Weighted>
3.3259

> <Gold.Chemscore.Internal.Correction.Weighted>
   9.000000E+99

> <Gold.Protein.RotatedTorsions>
[ 6907 6896 6895 6894 ] final   30.01 input  -60.11 | X-H torsion
[ 7974 7965 7964 7962 ] final -115.65 input  175.53 | X-H torsion
[ 8008 7997 7996 7995 ] final -160.03 input   59.86 | X-H torsion
[ 10167 10162 10161 10158 ] final  133.90 input  -65.29 | X-H torsion
[ 10718 10713 10712 10709 ] final   97.37 input   66.30 | X-H torsion
[ 10763 10752 10751 10750 ] final  110.55 input  -60.55 | X-H torsion
[ 11005 11000 10999 10996 ] final   -0.05 input  -57.11 | X-H torsion

> <Gold.Protein.ActiveResidues>
 VAL166  LYS551  ARG553  GLY616  TRP617  ASP618  TYR619  PRO620  LYS621  CYS622 
 ASP623  PHE694  ASN695  SER759  ASP760  ASP761  ALA762  ILE779  LEU786  VAL792 
 PHE793  MET794  SER795  GLU796  ALA797  LYS798  CYS799  TRP800  GLU811  SER814 

> <Gold.Protein.RotatedAtoms>
  152.0398  134.9718  160.0573 H   0  0  0  0  0  0  0  0  0  0  0  0  # atno 6907 bound_to 6896
  152.1161  133.4322  159.4662 H   0  0  0  0  0  0  0  0  0  0  0  0  # atno 6908 bound_to 6896
  150.6846  134.2509  159.4554 H   0  0  0  0  0  0  0  0  0  0  0  0  # atno 6909 bound_to 6896
  145.1059  140.8581  143.3898 H   0  0  0  0  0  0  0  0  0  0  0  0  # atno 7974 bound_to 7965
  155.7714  140.0852  157.2106 H   0  0  0  0  0  0  0  0  0  0  0  0  # atno 8008 bound_to 7997
  154.3996  140.1524  156.3003 H   0  0  0  0  0  0  0  0  0  0  0  0  # atno 8009 bound_to 7997
  155.8744  140.3424  155.5846 H   0  0  0  0  0  0  0  0  0  0  0  0  # atno 8010 bound_to 7997
  139.5278  144.6593  151.5063 H   0  0  0  0  0  0  0  0  0  0  0  0  # atno 10167 bound_to 10162
  157.6913  131.0607  150.4633 H   0  0  0  0  0  0  0  0  0  0  0  0  # atno 10718 bound_to 10713
  153.4506  135.3745  155.2281 H   0  0  0  0  0  0  0  0  0  0  0  0  # atno 10763 bound_to 10752
  154.8756  135.3885  154.4043 H   0  0  0  0  0  0  0  0  0  0  0  0  # atno 10764 bound_to 10752
  153.4602  135.7086  153.6119 H   0  0  0  0  0  0  0  0  0  0  0  0  # atno 10765 bound_to 10752
  140.6320  133.9566  155.8279 H   0  0  0  0  0  0  0  0  0  0  0  0  # atno 11005 bound_to 11000
  145.0902  139.2896  143.5739 LP  0  0  0  0  0  0  0  0  0  0  0  0  # atno 17320 bound_to 7965
  146.3528  140.0437  142.8641 LP  0  0  0  0  0  0  0  0  0  0  0  0  # atno 17321 bound_to 7965
  140.6434  143.8843  150.6713 LP  0  0  0  0  0  0  0  0  0  0  0  0  # atno 17342 bound_to 10162
  140.2185  143.3827  152.1662 LP  0  0  0  0  0  0  0  0  0  0  0  0  # atno 17343 bound_to 10162
  156.4976  130.4109  149.6371 LP  0  0  0  0  0  0  0  0  0  0  0  0  # atno 17370 bound_to 10713
  156.3359  130.7356  151.2293 LP  0  0  0  0  0  0  0  0  0  0  0  0  # atno 17371 bound_to 10713
  141.0668  134.0264  157.3582 LP  0  0  0  0  0  0  0  0  0  0  0  0  # atno 17394 bound_to 11000
  139.9112  135.0190  156.7700 LP  0  0  0  0  0  0  0  0  0  0  0  0  # atno 17395 bound_to 11000

$$$$
