AV-unprocessed.smi:3070|AV-procd|sdf|11712|dock9
  -GOLD-   2272017113D 1   1.00000     0.00000
 Structure written by MMmdl.
 21 22  0  0  0  0  0  0  0  0  2 V2000
  152.8005  142.4457  162.2726 C   0  0  0  0  0  0  0  0  0  0  0  0
  153.7558  141.8117  161.5304 N   0  0  0  0  0  0  0  0  0  0  0  0
  153.4255  142.2485  160.3233 C   0  0  0  0  0  0  0  0  0  0  0  0
  152.3747  143.0709  160.3143 N   0  0  0  0  0  0  0  0  0  0  0  0
  151.7237  143.7474  159.2025 C   0  0  1  0  0  0  0  0  0  0  0  0
  152.6405  144.6908  158.4243 C   0  0  0  0  0  0  0  0  0  0  0  0
  151.9008  144.8576  157.0960 C   0  0  0  0  0  0  0  0  0  0  0  0
  151.1640  143.5970  156.8712 N   0  3  0  0  0  0  0  0  0  0  0  0
  151.2039  142.8004  158.1138 C   0  0  0  0  0  0  0  0  0  0  0  0
  151.9480  143.2131  161.5930 N   0  0  0  0  0  0  0  0  0  0  0  0
  152.7316  142.3392  163.3452 H   0  0  0  0  0  0  0  0  0  0  0  0
  153.9616  141.9639  159.4296 H   0  0  0  0  0  0  0  0  0  0  0  0
  150.8846  144.3240  159.5963 H   0  0  0  0  0  0  0  0  0  0  0  0
  152.8078  145.6388  158.9366 H   0  0  0  0  0  0  0  0  0  0  0  0
  153.6130  144.2306  158.2439 H   0  0  0  0  0  0  0  0  0  0  0  0
  151.1769  145.6700  157.1704 H   0  0  0  0  0  0  0  0  0  0  0  0
  152.5737  145.0820  156.2679 H   0  0  0  0  0  0  0  0  0  0  0  0
  150.2073  143.8085  156.6255 H   0  0  0  0  0  0  0  0  0  0  0  0
  151.8879  141.9665  157.9516 H   0  0  0  0  0  0  0  0  0  0  0  0
  150.2246  142.3867  158.3552 H   0  0  0  0  0  0  0  0  0  0  0  0
  151.5972  143.0707  156.1257 H   0  0  0  0  0  0  0  0  0  0  0  0
  1 10  2  0  0  0  0
  1  2  1  0  0  0  0
  1 11  1  0  0  0  0
  2  3  2  0  0  0  0
  3  4  1  0  0  0  0
  3 12  1  0  0  0  0
  4  5  1  0  0  0  0
  4 10  1  0  0  0  0
  5  9  1  0  0  0  0
  5  6  1  0  0  0  0
  5 13  1  0  0  0  0
  6  7  1  0  0  0  0
  6 14  1  0  0  0  0
  6 15  1  0  0  0  0
  7  8  1  0  0  0  0
  7 16  1  0  0  0  0
  7 17  1  0  0  0  0
  8  9  1  0  0  0  0
  8 18  1  0  0  0  0
  8 21  1  0  0  0  0
  9 19  1  0  0  0  0
  9 20  1  0  0  0  0
M  CHG  1   8   1
M  END
> <s_m_source_file>
AV-unprocessed.smi

> <i_m_source_file_index>
3070

> <i_lp_mmshare_version>
43012

> <i_f3d_flags>
0

> <s_epik_input>
bjFbY0hdbltjSF1uMVtDQEBIXTJbQ0gyXVtDSDJdW05IXVtDSDJdMg==

> <s_epik_cmdline>
J2VwaWtfcHl0aG9uJywgJy1waCcsICc3LjAnLCAnLXRuJywgJzgnLCAnLW1hJywgJzIwMCcsICctbWV0YWxfYmluZGluZycsICctaW1hZScsICc8aW5maWxlLm1hZT4nLCAnLW9tYWUnLCAnPG91dGZpbGUubWFlPic=

> <r_lp_tautomer_probability>
1

> <r_epik_Ionization_Penalty>
0.000421274

> <r_epik_Ionization_Penalty_Charging>
0.000420295

> <r_epik_Ionization_Penalty_Neutral>
9.79543e-07

> <r_epik_State_Penalty>
0.000258452

> <r_epik_Charging_Adjusted_Penalty>
0.000678746

> <i_epik_Tot_Q>
1

> <i_epik_Tot_abs_Q>
1

> <r_epik_Metal_State_Penalty>
-0

> <b_epik_Metal_Only>
0

> <s_lp_Force_Field>
OPLS_2005

> <r_lp_Energy>
29.098

> <b_lp_Chiralities_Consistent>
1

> <s_lp_Variant>
AV-unprocessed.smi:3070-2

> <Gold.Version>
5.8.1

> <Gold.Id.Protein>
6NUR|6NUR_protein|mol2

> <Gold.PLP.Fitness>
34.9541

> <Gold.PLP.PLP>
-28.9576

> <Gold.PLP.part.hbond>
-1.3132

> <Gold.PLP.part.metal>
0.0000

> <Gold.PLP.part.buried>
-4.8386

> <Gold.PLP.part.nonpolar>
-23.0734

> <Gold.PLP.part.repulsive>
0.1679

> <Gold.PLP.ligand.clash>
0.0000

> <Gold.PLP.ligand.torsion>
0.0043

> <Gold.PLP.Chemscore.Hbond>
2.0000

> <Gold.PLP.Chemscore.CHOScore>
0.0000

> <Gold.PLP.Chemscore.Metal>
0.0000

> <Gold.Chemscore.Hbonds>
donor molecule, donor type, donor heavy atom, donor atom, acceptor molecule, acceptor atom, score
      L1  H     8    18       P1  8028  2.00

> <Gold.PLP.Chemscore.Internal.Correction>
0.0050

> <Gold.Rescore>
     Score         DG    S(hbond)    S(metal)    S(lipo)     H(rot)  DE(clash)    DE(int)     intcor
     10.83     -12.37       1.00        0.00      52.26       1.00       1.54       0.00       ----

> <Gold.Chemscore.Fitness>
10.8294

> <Gold.Chemscore.DG>
-12.3692

> <Gold.Chemscore.ZeroCoef>
-5.4800

> <Gold.Chemscore.Hbond>
0.9983

> <Gold.Chemscore.Metal>
0.0000

> <Gold.Chemscore.Lipo>
52.2624

> <Gold.Chemscore.Internal_Hbond>
0.0000

> <Gold.Chemscore.DEClash>
1.5371

> <Gold.Chemscore.DEInternal>
0.0026

> <Gold.Chemscore.Rot>
1.0000

> <Gold.Chemscore.Internal.Correction>
   9.000000E+99

> <Gold.Chemscore.Hbonds>
donor molecule, donor type, donor heavy atom, donor atom, acceptor molecule, acceptor atom, score
      L1  H     8    18       P1  8028  0.97

> <Gold.Chemscore.Hbond.Weighted>
-3.3345

> <Gold.Chemscore.Metal.Weighted>
-0.0000

> <Gold.Chemscore.Lipo.Weighted>
-6.1147

> <Gold.Chemscore.Internal_Hbond.Weighted>
0.0000

> <Gold.Chemscore.DEClash.Weighted>
1.5371

> <Gold.Chemscore.DEInternal.Weighted>
0.0026

> <Gold.Chemscore.Rot.Weighted>
2.5600

> <Gold.Chemscore.Internal.Correction.Weighted>
   9.000000E+99

> <Gold.Protein.RotatedTorsions>
[ 6907 6896 6895 6894 ] final -172.20 input  -60.11 | X-H torsion
[ 7974 7965 7964 7962 ] final  168.38 input  175.53 | X-H torsion
[ 8008 7997 7996 7995 ] final   19.26 input   59.86 | X-H torsion
[ 10167 10162 10161 10158 ] final -115.51 input  -65.29 | X-H torsion
[ 10718 10713 10712 10709 ] final  155.50 input   66.30 | X-H torsion
[ 10763 10752 10751 10750 ] final -172.58 input  -60.55 | X-H torsion
[ 11005 11000 10999 10996 ] final   96.35 input  -57.11 | X-H torsion

> <Gold.Protein.ActiveResidues>
 VAL166  LYS551  ARG553  GLY616  TRP617  ASP618  TYR619  PRO620  LYS621  CYS622 
 ASP623  PHE694  ASN695  SER759  ASP760  ASP761  ALA762  ILE779  LEU786  VAL792 
 PHE793  MET794  SER795  GLU796  ALA797  LYS798  CYS799  TRP800  GLU811  SER814 

> <Gold.Protein.RotatedAtoms>
  151.5361  133.3440  159.2926 H   0  0  0  0  0  0  0  0  0  0  0  0  # atno 6907 bound_to 6896
  150.8564  134.7906  159.7060 H   0  0  0  0  0  0  0  0  0  0  0  0  # atno 6908 bound_to 6896
  152.4596  134.5223  159.9838 H   0  0  0  0  0  0  0  0  0  0  0  0  # atno 6909 bound_to 6896
  144.7390  139.8900  143.6402 H   0  0  0  0  0  0  0  0  0  0  0  0  # atno 7974 bound_to 7965
  154.9182  140.3023  155.5230 H   0  0  0  0  0  0  0  0  0  0  0  0  # atno 8008 bound_to 7997
  156.3011  140.2376  156.4165 H   0  0  0  0  0  0  0  0  0  0  0  0  # atno 8009 bound_to 7997
  154.8357  140.0416  157.1496 H   0  0  0  0  0  0  0  0  0  0  0  0  # atno 8010 bound_to 7997
  140.0893  143.4714  152.1879 H   0  0  0  0  0  0  0  0  0  0  0  0  # atno 10167 bound_to 10162
  157.2174  131.0711  151.1933 H   0  0  0  0  0  0  0  0  0  0  0  0  # atno 10718 bound_to 10713
  154.6177  135.2871  155.0362 H   0  0  0  0  0  0  0  0  0  0  0  0  # atno 10763 bound_to 10752
  154.1568  135.6494  153.4980 H   0  0  0  0  0  0  0  0  0  0  0  0  # atno 10764 bound_to 10752
  153.0222  135.5369  154.6954 H   0  0  0  0  0  0  0  0  0  0  0  0  # atno 10765 bound_to 10752
  139.8782  134.8946  156.4145 H   0  0  0  0  0  0  0  0  0  0  0  0  # atno 11005 bound_to 11000
  146.1149  139.4159  143.0264 LP  0  0  0  0  0  0  0  0  0  0  0  0  # atno 17320 bound_to 7965
  145.7389  141.0015  143.1311 LP  0  0  0  0  0  0  0  0  0  0  0  0  # atno 17321 bound_to 7965
  139.5734  144.7475  151.3830 LP  0  0  0  0  0  0  0  0  0  0  0  0  # atno 17342 bound_to 10162
  140.7037  143.7568  150.7445 LP  0  0  0  0  0  0  0  0  0  0  0  0  # atno 17343 bound_to 10162
  157.3610  130.7131  149.6502 LP  0  0  0  0  0  0  0  0  0  0  0  0  # atno 17370 bound_to 10713
  155.9685  130.4225  150.4521 LP  0  0  0  0  0  0  0  0  0  0  0  0  # atno 17371 bound_to 10713
  140.9177  133.7667  155.9868 LP  0  0  0  0  0  0  0  0  0  0  0  0  # atno 17394 bound_to 11000
  140.8475  134.2993  157.5289 LP  0  0  0  0  0  0  0  0  0  0  0  0  # atno 17395 bound_to 11000

$$$$
