#       Name:                AV-unprocessed.smi:1222
#       Creating user name   scv26
#       Creation time:       Fri Mar 27 04:17:58 2020


#       File generated by GOLD software.
#

@<TRIPOS>MOLECULE
AV-unprocessed.smi:1222
    40    42     1
SMALL
NO_CHARGES


@<TRIPOS>ATOM
      1 ****        -1.7651   2.3336  -0.5597 O.2            1 S1                 0.0000
      2 ****        -2.1882   1.3699   0.0793 C.2            1 S1                 0.0000
      3 ****        -3.4789   1.1384   0.3761 N.am           1 S1                 0.0000
      4 ****        -4.6135   1.9144   0.0212 C.2            1 S1                 0.0000
      5 ****        -4.5628   3.0354  -0.7075 N.2            1 S1                 0.0000
      6 ****        -5.8302   3.5884  -0.9071 C.2            1 S1                 0.0000
      7 ****        -6.8418   2.8700  -0.3196 C.2            1 S1                 0.0000
      8 ****        -6.2392   1.4618   0.5130 S.3            1 S1                 0.0000
      9 ****        -1.3951   0.4065   0.5710 N.am           1 S1                 0.0000
     10 ****         0.0578   0.3648   0.4322 C.3            1 S1                 0.0000
     11 ****         0.4650  -0.1614  -0.9576 C.3            1 S1                 0.0000
     12 ****         1.9916  -0.3059  -1.0711 C.3            1 S1                 0.0000
     13 ****         2.5250  -1.1829   0.0004 N.4            1 S1                 1.0000
     14 ****         3.9750  -1.4313  -0.1525 C.3            1 S1                 0.0000
     15 ****         4.3021  -2.5458  -1.1192 C.3            1 S1                 0.0000
     16 ****         4.4197  -2.7771   0.3710 C.3            1 S1                 0.0000
     17 ****         2.1843  -0.6698   1.3507 C.3            1 S1                 0.0000
     18 ****         0.6618  -0.5359   1.5223 C.3            1 S1                 0.0000
     19 ****        -3.6750   0.3086   0.9160 H              1 S1                 0.0000
     20 ****        -5.9212   4.4980  -1.4820 H              1 S1                 0.0000
     21 ****        -7.9005   3.0829  -0.3267 H              1 S1                 0.0000
     22 ****        -1.8274  -0.3492   1.0820 H              1 S1                 0.0000
     23 ****         0.4558   1.3733   0.5627 H              1 S1                 0.0000
     24 ****        -0.0054  -1.1286  -1.1409 H              1 S1                 0.0000
     25 ****         0.1041   0.5099  -1.7377 H              1 S1                 0.0000
     26 ****         2.2451  -0.7232  -2.0462 H              1 S1                 0.0000
     27 ****         2.4678   0.6743  -1.0130 H              1 S1                 0.0000
     28 ****         4.6266  -0.5631  -0.0686 H              1 S1                 0.0000
     29 ****         3.4809  -3.0356  -1.6396 H              1 S1                 0.0000
     30 ****         5.2281  -2.4649  -1.6849 H              1 S1                 0.0000
     31 ****         5.4231  -2.8476   0.7860 H              1 S1                 0.0000
     32 ****         3.6770  -3.4211   0.8385 H              1 S1                 0.0000
     33 ****         2.5776  -1.3469   2.1099 H              1 S1                 0.0000
     34 ****         2.6673   0.2961   1.5075 H              1 S1                 0.0000
     35 ****         0.4367  -0.1314   2.5099 H              1 S1                 0.0000
     36 ****         0.2057  -1.5265   1.4823 H              1 S1                 0.0000
     37 ****         2.0656  -2.0770  -0.0975 H              1 S1                 0.0000
     38 ****        -2.4017   3.0236  -0.9040 LP             1 S1                 0.0000
     39 ****        -0.7848   2.4262  -0.7344 LP             1 S1                 0.0000
     40 ****        -3.7175   3.4307  -1.0669 LP             1 S1                 0.0000
@<TRIPOS>BOND
    1    1    2 2     
    2    2    3 am    
    3    2    9 am    
    4    3    4 1     
    5    3   19 1     
    6    4    8 1     
    7    4    5 2     
    8    5    6 1     
    9    6    7 2     
   10    6   20 1     
   11    7    8 1     
   12    7   21 1     
   13    9   10 1     
   14    9   22 1     
   15   10   18 1     
   16   10   11 1     
   17   10   23 1     
   18   11   12 1     
   19   11   24 1     
   20   11   25 1     
   21   12   13 1     
   22   12   26 1     
   23   12   27 1     
   24   13   14 1     
   25   13   17 1     
   26   13   37 1     
   27   14   16 1     
   28   14   15 1     
   29   14   28 1     
   30   15   16 1     
   31   15   29 1     
   32   15   30 1     
   33   16   31 1     
   34   16   32 1     
   35   17   18 1     
   36   17   33 1     
   37   17   34 1     
   38   18   35 1     
   39   18   36 1     
   40    1   38 1     
   41    1   39 1     
   42    5   40 1     
@<TRIPOS>SUBSTRUCTURE
      1 S1             1
@<TRIPOS>SET
LONE_PAIRS      STATIC     ATOMS    <user>   **** ""
3 38 39 40
DONOR_HYDROGENS      STATIC     ATOMS    <user>   **** ""
3 19 22 37
ATOM$BLUE        STATIC     ATOMS    COLORGROUP SYSTEM
3 38 39 40
ATOM$RED        STATIC     ATOMS    COLORGROUP SYSTEM
3 19 22 37
