AV-unprocessed.smi:1795|AV-procd|sdf|7239|dock5
  -GOLD-   22720 8483D 1   1.00000     0.00000
 Structure written by MMmdl.
 47 48  0  0  0  0  0  0  0  0  1 V2000
  154.6909  135.2505  163.3583 C   0  0  0  0  0  0  0  0  0  0  0  0
  153.9415  136.4919  163.8728 C   0  0  2  0  0  0  0  0  0  0  0  0
  153.6683  137.5389  162.7742 C   0  0  0  0  0  0  0  0  0  0  0  0
  154.8593  138.2974  162.3724 N   0  0  0  0  0  0  0  0  0  0  0  0
  154.5663  139.3148  161.3351 C   0  0  1  0  0  0  0  0  0  0  0  0
  155.8414  140.0295  160.8172 C   0  0  0  0  0  0  0  0  0  0  0  0
  153.7891  138.7413  160.1182 C   0  0  0  0  0  0  0  0  0  0  0  0
  152.7160  139.6269  159.6774 N   0  0  0  0  0  0  0  0  0  0  0  0
  152.4258  139.9076  158.3989 C   0  0  0  0  0  0  0  0  0  0  0  0
  153.0468  139.4319  157.4472 O   0  0  0  0  0  0  0  0  0  0  0  0
  151.2575  140.8803  158.1800 C   0  0  0  0  0  0  0  0  0  0  0  0
  151.6239  142.2955  158.3584 N   0  0  0  0  0  0  0  0  0  0  0  0
  151.3601  143.1639  157.2805 C   0  0  0  0  0  0  0  0  0  0  0  0
  151.6508  144.4733  157.3356 C   0  0  0  0  0  0  0  0  0  0  0  0
  152.2515  144.9884  158.5431 C   0  0  0  0  0  0  0  0  0  0  0  0
  152.5036  144.1676  159.5820 C   0  0  0  0  0  0  0  0  0  0  0  0
  152.1851  142.7360  159.5269 C   0  0  0  0  0  0  0  0  0  0  0  0
  152.4091  141.9799  160.4727 O   0  0  0  0  0  0  0  0  0  0  0  0
  155.4533  138.8755  163.5814 C   0  0  0  0  0  0  0  0  0  0  0  0
  155.7851  137.8165  164.6475 C   0  0  1  0  0  0  0  0  0  0  0  0
  156.3371  138.4451  165.9315 C   0  0  0  0  0  0  0  0  0  0  0  0
  154.6054  137.0937  164.9816 O   0  0  0  0  0  0  0  0  0  0  0  0
  154.1053  134.7321  162.5988 H   0  0  0  0  0  0  0  0  0  0  0  0
  154.8778  134.5451  164.1681 H   0  0  0  0  0  0  0  0  0  0  0  0
  155.6498  135.5070  162.9089 H   0  0  0  0  0  0  0  0  0  0  0  0
  152.9786  136.1448  164.2484 H   0  0  0  0  0  0  0  0  0  0  0  0
  153.2375  137.0079  161.9282 H   0  0  0  0  0  0  0  0  0  0  0  0
  152.9033  138.2310  163.1299 H   0  0  0  0  0  0  0  0  0  0  0  0
  153.9339  140.0812  161.7864 H   0  0  0  0  0  0  0  0  0  0  0  0
  155.6326  140.7241  160.0042 H   0  0  0  0  0  0  0  0  0  0  0  0
  156.5743  139.3099  160.4500 H   0  0  0  0  0  0  0  0  0  0  0  0
  156.3171  140.6336  161.5883 H   0  0  0  0  0  0  0  0  0  0  0  0
  154.4856  138.5441  159.3012 H   0  0  0  0  0  0  0  0  0  0  0  0
  153.3018  137.7976  160.3558 H   0  0  0  0  0  0  0  0  0  0  0  0
  152.1577  140.0601  160.3985 H   0  0  0  0  0  0  0  0  0  0  0  0
  150.8453  140.7167  157.1824 H   0  0  0  0  0  0  0  0  0  0  0  0
  150.4529  140.6115  158.8663 H   0  0  0  0  0  0  0  0  0  0  0  0
  150.9037  142.7007  156.4178 H   0  0  0  0  0  0  0  0  0  0  0  0
  151.4374  145.1248  156.5009 H   0  0  0  0  0  0  0  0  0  0  0  0
  152.4985  146.0375  158.6141 H   0  0  0  0  0  0  0  0  0  0  0  0
  152.9516  144.5714  160.4782 H   0  0  0  0  0  0  0  0  0  0  0  0
  156.3853  139.3851  163.3441 H   0  0  0  0  0  0  0  0  0  0  0  0
  154.7800  139.6241  164.0020 H   0  0  0  0  0  0  0  0  0  0  0  0
  156.5350  137.1287  164.2555 H   0  0  0  0  0  0  0  0  0  0  0  0
  157.2553  138.9987  165.7340 H   0  0  0  0  0  0  0  0  0  0  0  0
  156.5650  137.6793  166.6732 H   0  0  0  0  0  0  0  0  0  0  0  0
  155.6181  139.1349  166.3745 H   0  0  0  0  0  0  0  0  0  0  0  0
  1  2  1  0  0  0  0
  1 23  1  0  0  0  0
  1 24  1  0  0  0  0
  1 25  1  0  0  0  0
  2 22  1  0  0  0  0
  2  3  1  0  0  0  0
  2 26  1  0  0  0  0
  3  4  1  0  0  0  0
  3 27  1  0  0  0  0
  3 28  1  0  0  0  0
  4  5  1  0  0  0  0
  4 19  1  0  0  0  0
  5  6  1  0  0  0  0
  5  7  1  0  0  0  0
  5 29  1  0  0  0  0
  6 30  1  0  0  0  0
  6 31  1  0  0  0  0
  6 32  1  0  0  0  0
  7  8  1  0  0  0  0
  7 33  1  0  0  0  0
  7 34  1  0  0  0  0
  8  9  1  0  0  0  0
  8 35  1  0  0  0  0
  9 10  2  0  0  0  0
  9 11  1  0  0  0  0
 11 12  1  0  0  0  0
 11 36  1  0  0  0  0
 11 37  1  0  0  0  0
 12 17  1  0  0  0  0
 12 13  1  0  0  0  0
 13 14  2  0  0  0  0
 13 38  1  0  0  0  0
 14 15  1  0  0  0  0
 14 39  1  0  0  0  0
 15 16  2  0  0  0  0
 15 40  1  0  0  0  0
 16 17  1  0  0  0  0
 16 41  1  0  0  0  0
 17 18  2  0  0  0  0
 19 20  1  0  0  0  0
 19 42  1  0  0  0  0
 19 43  1  0  0  0  0
 20 21  1  0  0  0  0
 20 22  1  0  0  0  0
 20 44  1  0  0  0  0
 21 45  1  0  0  0  0
 21 46  1  0  0  0  0
 21 47  1  0  0  0  0
M  END
> <s_m_source_file>
AV-unprocessed.smi

> <i_m_source_file_index>
1795

> <i_lp_mmshare_version>
43012

> <i_f3d_flags>
0

> <s_epik_input>
W0NIM11bQ0BASF0xW0NIMl1OKFtDSDJdW0NASF0oTzEpW0NIM10pW0NASF0oW0NIM10pW0NIMl1bTkhdQyg9TylbQ0gyXW4yW2NIXVtjSF1bY0hdW2NIXWMyPU8=

> <s_epik_cmdline>
J2VwaWtfcHl0aG9uJywgJy1waCcsICc3LjAnLCAnLXRuJywgJzgnLCAnLW1hJywgJzIwMCcsICctbWV0YWxfYmluZGluZycsICctaW1hZScsICc8aW5maWxlLm1hZT4nLCAnLW9tYWUnLCAnPG91dGZpbGUubWFlPic=

> <r_lp_tautomer_probability>
1

> <r_epik_Ionization_Penalty>
0.237383

> <r_epik_Ionization_Penalty_Charging>
3.58805e-07

> <r_epik_Ionization_Penalty_Neutral>
0.237382

> <r_epik_State_Penalty>
0.228245

> <r_epik_Charging_Adjusted_Penalty>
0.228245

> <i_epik_Tot_Q>
0

> <i_epik_Tot_abs_Q>
0

> <r_epik_Metal_State_Penalty>
0.228221

> <b_epik_Metal_Only>
0

> <s_lp_Force_Field>
OPLS_2005

> <r_lp_Energy>
40.7521

> <b_lp_Chiralities_Consistent>
1

> <s_lp_Variant>
AV-unprocessed.smi:1795-3

> <Gold.Version>
5.8.1

> <Gold.Id.Protein>
6NUR|6NUR_protein|mol2

> <Gold.PLP.Fitness>
45.0111

> <Gold.PLP.PLP>
-43.6864

> <Gold.PLP.part.hbond>
-1.0000

> <Gold.PLP.part.metal>
0.0000

> <Gold.PLP.part.buried>
-6.3067

> <Gold.PLP.part.nonpolar>
-36.6823

> <Gold.PLP.part.repulsive>
0.2204

> <Gold.PLP.ligand.clash>
0.0000

> <Gold.PLP.ligand.torsion>
1.0160

> <Gold.PLP.Chemscore.Hbond>
1.0000

> <Gold.PLP.Chemscore.CHOScore>
0.0910

> <Gold.PLP.Chemscore.Metal>
0.0000

> <Gold.Chemscore.Hbonds>
donor molecule, donor type, donor heavy atom, donor atom, acceptor molecule, acceptor atom, score
      P1  H  7997  8009       L1    10  1.00

> <Gold.PLP.Chemscore.Internal.Correction>
0.0837

> <Gold.Rescore>
     Score         DG    S(hbond)    S(metal)    S(lipo)     H(rot)  DE(clash)    DE(int)     intcor
     14.60     -17.17       1.00        0.00     111.35       1.83       0.02       2.55       ----

> <Gold.Chemscore.Fitness>
14.5994

> <Gold.Chemscore.DG>
-17.1658

> <Gold.Chemscore.ZeroCoef>
-5.4800

> <Gold.Chemscore.Hbond>
0.9972

> <Gold.Chemscore.Metal>
0.0000

> <Gold.Chemscore.Lipo>
111.3453

> <Gold.Chemscore.Internal_Hbond>
0.0000

> <Gold.Chemscore.DEClash>
0.0158

> <Gold.Chemscore.DEInternal>
2.5506

> <Gold.Chemscore.Rot>
1.8251

> <Gold.Chemscore.Internal.Correction>
   9.000000E+99

> <Gold.Chemscore.Hbonds>
donor molecule, donor type, donor heavy atom, donor atom, acceptor molecule, acceptor atom, score
      P1  H  7997  8009       L1    10  1.00

> <Gold.Chemscore.Hbond.Weighted>
-3.3307

> <Gold.Chemscore.Metal.Weighted>
-0.0000

> <Gold.Chemscore.Lipo.Weighted>
-13.0274

> <Gold.Chemscore.Internal_Hbond.Weighted>
0.0000

> <Gold.Chemscore.DEClash.Weighted>
0.0158

> <Gold.Chemscore.DEInternal.Weighted>
2.5506

> <Gold.Chemscore.Rot.Weighted>
4.6724

> <Gold.Chemscore.Internal.Correction.Weighted>
   9.000000E+99

> <Gold.Protein.RotatedTorsions>
[ 6907 6896 6895 6894 ] final -142.43 input  -60.11 | X-H torsion
[ 7974 7965 7964 7962 ] final  170.39 input  175.53 | X-H torsion
[ 8008 7997 7996 7995 ] final  172.32 input   59.86 | X-H torsion
[ 10167 10162 10161 10158 ] final   83.18 input  -65.29 | X-H torsion
[ 10718 10713 10712 10709 ] final  127.24 input   66.30 | X-H torsion
[ 10763 10752 10751 10750 ] final  169.05 input  -60.55 | X-H torsion
[ 11005 11000 10999 10996 ] final   58.15 input  -57.11 | X-H torsion

> <Gold.Protein.ActiveResidues>
 VAL166  LYS551  ARG553  GLY616  TRP617  ASP618  TYR619  PRO620  LYS621  CYS622 
 ASP623  PHE694  ASN695  SER759  ASP760  ASP761  ALA762  ILE779  LEU786  VAL792 
 PHE793  MET794  SER795  GLU796  ALA797  LYS798  CYS799  TRP800  GLU811  SER814 

> <Gold.Protein.RotatedAtoms>
  151.0870  133.5345  159.2616 H   0  0  0  0  0  0  0  0  0  0  0  0  # atno 6907 bound_to 6896
  151.2227  135.0524  159.8966 H   0  0  0  0  0  0  0  0  0  0  0  0  # atno 6908 bound_to 6896
  152.5430  134.0670  159.8231 H   0  0  0  0  0  0  0  0  0  0  0  0  # atno 6909 bound_to 6896
  144.7325  139.9195  143.6419 H   0  0  0  0  0  0  0  0  0  0  0  0  # atno 7974 bound_to 7965
  156.1186  140.1489  156.9237 H   0  0  0  0  0  0  0  0  0  0  0  0  # atno 8008 bound_to 7997
  154.4819  140.0877  156.7438 H   0  0  0  0  0  0  0  0  0  0  0  0  # atno 8009 bound_to 7997
  155.4469  140.3433  155.4298 H   0  0  0  0  0  0  0  0  0  0  0  0  # atno 8010 bound_to 7997
  139.9211  144.6212  150.8439 H   0  0  0  0  0  0  0  0  0  0  0  0  # atno 10167 bound_to 10162
  157.5350  131.1098  150.8949 H   0  0  0  0  0  0  0  0  0  0  0  0  # atno 10718 bound_to 10713
  154.3776  135.2753  155.2230 H   0  0  0  0  0  0  0  0  0  0  0  0  # atno 10763 bound_to 10752
  154.4351  135.5968  153.6097 H   0  0  0  0  0  0  0  0  0  0  0  0  # atno 10764 bound_to 10752
  152.9836  135.6005  154.4014 H   0  0  0  0  0  0  0  0  0  0  0  0  # atno 10765 bound_to 10752
  140.0399  134.5888  155.9395 H   0  0  0  0  0  0  0  0  0  0  0  0  # atno 11005 bound_to 11000
  146.0940  139.3932  143.0388 LP  0  0  0  0  0  0  0  0  0  0  0  0  # atno 17320 bound_to 7965
  145.7671  140.9912  143.1169 LP  0  0  0  0  0  0  0  0  0  0  0  0  # atno 17321 bound_to 7965
  140.7662  143.3296  151.2438 LP  0  0  0  0  0  0  0  0  0  0  0  0  # atno 17342 bound_to 10162
  139.6861  143.9771  152.2835 LP  0  0  0  0  0  0  0  0  0  0  0  0  # atno 17343 bound_to 10162
  156.9519  130.5423  149.5283 LP  0  0  0  0  0  0  0  0  0  0  0  0  # atno 17370 bound_to 10713
  156.0452  130.5529  150.8863 LP  0  0  0  0  0  0  0  0  0  0  0  0  # atno 17371 bound_to 10713
  141.1877  133.6560  156.5295 LP  0  0  0  0  0  0  0  0  0  0  0  0  # atno 17394 bound_to 11000
  140.4086  134.7293  157.4822 LP  0  0  0  0  0  0  0  0  0  0  0  0  # atno 17395 bound_to 11000

$$$$
