AV-unprocessed.smi:27|AV-procd|sdf|187|dock2
  -GOLD-   2262015453D 1   1.00000     0.00000
 Structure written by MMmdl.
 53 56  0  0  0  0  0  0  0  0  1 V2000
  147.7282  137.5564  156.0097 O   0  0  0  0  0  0  0  0  0  0  0  0
  147.8030  137.7859  154.8035 C   0  0  0  0  0  0  0  0  0  0  0  0
  148.2709  139.1722  154.3212 C   0  0  0  0  0  0  0  0  0  0  0  0
  149.5692  139.6081  154.8903 N   0  0  0  0  0  0  0  0  0  0  0  0
  150.7285  138.8487  154.5975 C   0  0  0  0  0  0  0  0  0  0  0  0
  150.6778  137.8619  153.8622 O   0  0  0  0  0  0  0  0  0  0  0  0
  151.9569  139.3061  155.2356 C   0  0  0  0  0  0  0  0  0  0  0  0
  153.1102  138.6592  154.9962 F   0  0  0  0  0  0  0  0  0  0  0  0
  151.9564  140.3667  156.0695 C   0  0  0  0  0  0  0  0  0  0  0  0
  150.8125  141.0889  156.3658 N   0  0  0  0  0  0  0  0  0  0  0  0
  150.7847  142.2271  157.3663 C   0  0  2  0  0  0  0  0  0  0  0  0
  151.6091  143.4625  156.9944 C   0  0  0  0  0  0  0  0  0  0  0  0
  151.7797  144.0777  158.3640 C   0  0  0  0  0  0  0  0  0  0  0  0
  152.0050  142.8380  159.2294 C   0  0  0  0  0  0  0  0  0  0  0  0
  151.3319  141.7681  158.5666 O   0  0  0  0  0  0  0  0  0  0  0  0
  149.5889  140.7234  155.7620 C   0  0  0  0  0  0  0  0  0  0  0  0
  148.5555  141.3506  156.0056 O   0  0  0  0  0  0  0  0  0  0  0  0
  147.4918  136.8788  153.8640 N   0  0  0  0  0  0  0  0  0  0  0  0
  147.0483  135.5048  154.0740 C   0  0  0  0  0  0  0  0  0  0  0  0
  148.2055  134.6102  154.5077 C   0  0  0  0  0  0  0  0  0  0  0  0
  147.9793  133.3105  155.0209 C   0  0  0  0  0  0  0  0  0  0  0  0
  149.0628  132.5016  155.4138 C   0  0  0  0  0  0  0  0  0  0  0  0
  150.3800  132.9848  155.3025 C   0  0  0  0  0  0  0  0  0  0  0  0
  150.6129  134.2796  154.8017 C   0  0  0  0  0  0  0  0  0  0  0  0
  149.5298  135.0890  154.4074 C   0  0  0  0  0  0  0  0  0  0  0  0
  146.3460  134.9292  152.8488 C   0  0  0  0  0  0  0  0  0  0  0  0
  145.2547  135.6007  152.2506 C   0  0  0  0  0  0  0  0  0  0  0  0
  144.6209  135.0572  151.1166 C   0  0  0  0  0  0  0  0  0  0  0  0
  145.0752  133.8423  150.5691 C   0  0  0  0  0  0  0  0  0  0  0  0
  146.1662  133.1724  151.1548 C   0  0  0  0  0  0  0  0  0  0  0  0
  146.7997  133.7148  152.2898 C   0  0  0  0  0  0  0  0  0  0  0  0
  148.3002  139.1618  153.2307 H   0  0  0  0  0  0  0  0  0  0  0  0
  147.4876  139.8949  154.5547 H   0  0  0  0  0  0  0  0  0  0  0  0
  152.9076  140.6437  156.4929 H   0  0  0  0  0  0  0  0  0  0  0  0
  149.7291  142.4743  157.4997 H   0  0  0  0  0  0  0  0  0  0  0  0
  152.5943  143.1856  156.6202 H   0  0  0  0  0  0  0  0  0  0  0  0
  151.0914  144.0959  156.2738 H   0  0  0  0  0  0  0  0  0  0  0  0
  152.6034  144.7903  158.4171 H   0  0  0  0  0  0  0  0  0  0  0  0
  150.8637  144.5887  158.6636 H   0  0  0  0  0  0  0  0  0  0  0  0
  153.0666  142.5969  159.2871 H   0  0  0  0  0  0  0  0  0  0  0  0
  151.6322  142.9721  160.2450 H   0  0  0  0  0  0  0  0  0  0  0  0
  147.5893  137.1665  152.9014 H   0  0  0  0  0  0  0  0  0  0  0  0
  146.3312  135.5138  154.8974 H   0  0  0  0  0  0  0  0  0  0  0  0
  146.9764  132.9216  155.1210 H   0  0  0  0  0  0  0  0  0  0  0  0
  148.8821  131.5106  155.8026 H   0  0  0  0  0  0  0  0  0  0  0  0
  151.2109  132.3643  155.6041 H   0  0  0  0  0  0  0  0  0  0  0  0
  151.6232  134.6529  154.7201 H   0  0  0  0  0  0  0  0  0  0  0  0
  149.7193  136.0814  154.0252 H   0  0  0  0  0  0  0  0  0  0  0  0
  144.8987  136.5370  152.6549 H   0  0  0  0  0  0  0  0  0  0  0  0
  143.7863  135.5736  150.6659 H   0  0  0  0  0  0  0  0  0  0  0  0
  144.5889  133.4259  149.6993 H   0  0  0  0  0  0  0  0  0  0  0  0
  146.5178  132.2423  150.7331 H   0  0  0  0  0  0  0  0  0  0  0  0
  147.6365  133.1935  152.7314 H   0  0  0  0  0  0  0  0  0  0  0  0
  1  2  2  0  0  0  0
  2  3  1  0  0  0  0
  2 18  1  0  0  0  0
  3  4  1  0  0  0  0
  3 32  1  0  0  0  0
  3 33  1  0  0  0  0
  4 16  1  0  0  0  0
  4  5  1  0  0  0  0
  5  6  2  0  0  0  0
  5  7  1  0  0  0  0
  7  8  1  0  0  0  0
  7  9  2  0  0  0  0
  9 10  1  0  0  0  0
  9 34  1  0  0  0  0
 10 11  1  0  0  0  0
 10 16  1  0  0  0  0
 11 15  1  0  0  0  0
 11 12  1  0  0  0  0
 11 35  1  0  0  0  0
 12 13  1  0  0  0  0
 12 36  1  0  0  0  0
 12 37  1  0  0  0  0
 13 14  1  0  0  0  0
 13 38  1  0  0  0  0
 13 39  1  0  0  0  0
 14 15  1  0  0  0  0
 14 40  1  0  0  0  0
 14 41  1  0  0  0  0
 16 17  2  0  0  0  0
 18 19  1  0  0  0  0
 18 42  1  0  0  0  0
 19 20  1  0  0  0  0
 19 26  1  0  0  0  0
 19 43  1  0  0  0  0
 20 25  1  0  0  0  0
 20 21  2  0  0  0  0
 21 22  1  0  0  0  0
 21 44  1  0  0  0  0
 22 23  2  0  0  0  0
 22 45  1  0  0  0  0
 23 24  1  0  0  0  0
 23 46  1  0  0  0  0
 24 25  2  0  0  0  0
 24 47  1  0  0  0  0
 25 48  1  0  0  0  0
 26 31  1  0  0  0  0
 26 27  2  0  0  0  0
 27 28  1  0  0  0  0
 27 49  1  0  0  0  0
 28 29  2  0  0  0  0
 28 50  1  0  0  0  0
 29 30  1  0  0  0  0
 29 51  1  0  0  0  0
 30 31  2  0  0  0  0
 30 52  1  0  0  0  0
 31 53  1  0  0  0  0
M  END
> <s_m_source_file>
AV-unprocessed.smi

> <i_m_source_file_index>
27

> <i_lp_mmshare_version>
43012

> <i_f3d_flags>
0

> <s_epik_input>
W2NIXTFbY0hdW2NIXVtjSF1bY0hdYzFbQ0hdKGMyW2NIXVtjSF1bY0hdW2NIXVtjSF0yKVtOSF1DKD1PKVtDSDJdbjNjKD1PKWMoRilbY0hdbihjMz1PKVtDQEBIXTRbQ0gyXVtDSDJdW0NIMl1PNA==

> <s_epik_cmdline>
J2VwaWtfcHl0aG9uJywgJy1waCcsICc3LjAnLCAnLXRuJywgJzgnLCAnLW1hJywgJzIwMCcsICctbWV0YWxfYmluZGluZycsICctaW1hZScsICc8aW5maWxlLm1hZT4nLCAnLW9tYWUnLCAnPG91dGZpbGUubWFlPic=

> <r_lp_tautomer_probability>
1

> <r_epik_Ionization_Penalty>
5.29953e-08

> <r_epik_Ionization_Penalty_Charging>
3.6115e-09

> <r_epik_Ionization_Penalty_Neutral>
4.93838e-08

> <r_epik_State_Penalty>
-0

> <r_epik_Charging_Adjusted_Penalty>
3.6115e-09

> <i_epik_Tot_Q>
0

> <i_epik_Tot_abs_Q>
0

> <r_epik_Metal_State_Penalty>
-0

> <b_epik_Metal_Only>
0

> <s_epik_Chemistry_Notes>
This compound contains an acetal/aminal-like group ( X-CH(R)-Y where X, Y are N, S, or O) that may be acid/base labile, releasing an aldehyde.

> <s_lp_Force_Field>
OPLS_2005

> <r_lp_Energy>
32.38

> <b_lp_Chiralities_Consistent>
1

> <s_lp_Variant>
AV-unprocessed.smi:27-1

> <Gold.Version>
5.8.1

> <Gold.Id.Protein>
6NUR|6NUR_protein|mol2

> <Gold.PLP.Fitness>
47.9884

> <Gold.PLP.PLP>
-47.2441

> <Gold.PLP.part.hbond>
-1.0000

> <Gold.PLP.part.metal>
0.0000

> <Gold.PLP.part.buried>
-4.1790

> <Gold.PLP.part.nonpolar>
-43.4319

> <Gold.PLP.part.repulsive>
0.5525

> <Gold.PLP.ligand.clash>
0.0000

> <Gold.PLP.ligand.torsion>
0.5529

> <Gold.PLP.Chemscore.Hbond>
0.5280

> <Gold.PLP.Chemscore.CHOScore>
0.0000

> <Gold.PLP.Chemscore.Metal>
0.0000

> <Gold.Chemscore.Hbonds>
donor molecule, donor type, donor heavy atom, donor atom, acceptor molecule, acceptor atom, score
      L1  H    18    42       P1  7948  0.34

> <Gold.PLP.Chemscore.Internal.Correction>
0.2662

> <Gold.Rescore>
     Score         DG    S(hbond)    S(metal)    S(lipo)     H(rot)  DE(clash)    DE(int)     intcor
     12.47     -14.48       0.74        0.00     103.16       2.16       0.40       1.60       ----

> <Gold.Chemscore.Fitness>
12.4729

> <Gold.Chemscore.DG>
-14.4759

> <Gold.Chemscore.ZeroCoef>
-5.4800

> <Gold.Chemscore.Hbond>
0.7386

> <Gold.Chemscore.Metal>
0.0000

> <Gold.Chemscore.Lipo>
103.1583

> <Gold.Chemscore.Internal_Hbond>
0.0000

> <Gold.Chemscore.DEClash>
0.4006

> <Gold.Chemscore.DEInternal>
1.6024

> <Gold.Chemscore.Rot>
2.1642

> <Gold.Chemscore.Internal.Correction>
   9.000000E+99

> <Gold.Chemscore.Hbonds>
donor molecule, donor type, donor heavy atom, donor atom, acceptor molecule, acceptor atom, score
      L1  H    18    42       P1  7948  0.34

> <Gold.Chemscore.Hbond.Weighted>
-2.4668

> <Gold.Chemscore.Metal.Weighted>
-0.0000

> <Gold.Chemscore.Lipo.Weighted>
-12.0695

> <Gold.Chemscore.Internal_Hbond.Weighted>
0.0000

> <Gold.Chemscore.DEClash.Weighted>
0.4006

> <Gold.Chemscore.DEInternal.Weighted>
1.6024

> <Gold.Chemscore.Rot.Weighted>
5.5404

> <Gold.Chemscore.Internal.Correction.Weighted>
   9.000000E+99

> <Gold.Protein.RotatedTorsions>
[ 6907 6896 6895 6894 ] final -133.74 input  -60.11 | X-H torsion
[ 7974 7965 7964 7962 ] final    7.41 input  175.53 | X-H torsion
[ 8008 7997 7996 7995 ] final  129.33 input   59.86 | X-H torsion
[ 10167 10162 10161 10158 ] final  -19.23 input  -65.29 | X-H torsion
[ 10718 10713 10712 10709 ] final  115.57 input   66.30 | X-H torsion
[ 10763 10752 10751 10750 ] final  136.40 input  -60.55 | X-H torsion
[ 11005 11000 10999 10996 ] final -149.12 input  -57.11 | X-H torsion

> <Gold.Protein.ActiveResidues>
 VAL166  LYS551  ARG553  GLY616  TRP617  ASP618  TYR619  PRO620  LYS621  CYS622 
 ASP623  PHE694  ASN695  SER759  ASP760  ASP761  ALA762  ILE779  LEU786  VAL792 
 PHE793  MET794  SER795  GLU796  ALA797  LYS798  CYS799  TRP800  GLU811  SER814 

> <Gold.Protein.RotatedAtoms>
  150.9775  133.6279  159.2727 H   0  0  0  0  0  0  0  0  0  0  0  0  # atno 6907 bound_to 6896
  151.3546  135.0890  159.9424 H   0  0  0  0  0  0  0  0  0  0  0  0  # atno 6908 bound_to 6896
  152.5204  133.9361  159.7658 H   0  0  0  0  0  0  0  0  0  0  0  0  # atno 6909 bound_to 6896
  146.2427  140.0087  142.8409 H   0  0  0  0  0  0  0  0  0  0  0  0  # atno 7974 bound_to 7965
  156.2934  140.2623  156.2581 H   0  0  0  0  0  0  0  0  0  0  0  0  # atno 8008 bound_to 7997
  154.9816  140.0389  157.2298 H   0  0  0  0  0  0  0  0  0  0  0  0  # atno 8009 bound_to 7997
  154.7767  140.2788  155.6100 H   0  0  0  0  0  0  0  0  0  0  0  0  # atno 8010 bound_to 7997
  140.7266  143.4838  151.0082 H   0  0  0  0  0  0  0  0  0  0  0  0  # atno 10167 bound_to 10162
  157.6214  131.1014  150.7349 H   0  0  0  0  0  0  0  0  0  0  0  0  # atno 10718 bound_to 10713
  153.8559  135.3073  155.3435 H   0  0  0  0  0  0  0  0  0  0  0  0  # atno 10763 bound_to 10752
  154.7870  135.4804  153.9972 H   0  0  0  0  0  0  0  0  0  0  0  0  # atno 10764 bound_to 10752
  153.1490  135.6839  153.9004 H   0  0  0  0  0  0  0  0  0  0  0  0  # atno 10765 bound_to 10752
  140.7541  134.3373  157.5118 H   0  0  0  0  0  0  0  0  0  0  0  0  # atno 11005 bound_to 11000
  145.1348  140.9538  143.4523 LP  0  0  0  0  0  0  0  0  0  0  0  0  # atno 17320 bound_to 7965
  145.0353  139.3306  143.6004 LP  0  0  0  0  0  0  0  0  0  0  0  0  # atno 17321 bound_to 7965
  139.8539  143.7403  152.3177 LP  0  0  0  0  0  0  0  0  0  0  0  0  # atno 17342 bound_to 10162
  139.7594  144.7511  151.0386 LP  0  0  0  0  0  0  0  0  0  0  0  0  # atno 17343 bound_to 10162
  156.7705  130.4827  149.5419 LP  0  0  0  0  0  0  0  0  0  0  0  0  # atno 17370 bound_to 10713
  156.1361  130.6212  151.0402 LP  0  0  0  0  0  0  0  0  0  0  0  0  # atno 17371 bound_to 10713
  139.8782  134.9160  156.3145 LP  0  0  0  0  0  0  0  0  0  0  0  0  # atno 17394 bound_to 11000
  140.9724  133.7319  156.0553 LP  0  0  0  0  0  0  0  0  0  0  0  0  # atno 17395 bound_to 11000

$$$$
