#       Name:                AV-unprocessed.smi:910
#       Creating user name   scv26
#       Creation time:       Fri Mar 27 02:03:52 2020


#       File generated by GOLD software.
#

@<TRIPOS>MOLECULE
AV-unprocessed.smi:910
    53    54     1
SMALL
NO_CHARGES


@<TRIPOS>ATOM
      1 ****        -3.9946   2.5228  -0.1395 C.3            1 S1                 0.0000
      2 ****        -3.5516   1.3653   0.6981 C.2            1 S1                 0.0000
      3 ****        -2.8167   0.3140   0.1733 N.2            1 S1                 0.0000
      4 ****        -2.5940  -0.5187   1.1923 C.2            1 S1                 0.0000
      5 ****        -1.9020  -1.6680   1.1397 N.pl3          1 S1                -1.0000
      6 ****        -0.5869  -1.6651   1.4536 C.2            1 S1                 0.0000
      7 ****         0.0532  -0.7087   1.8975 O.2            1 S1                 0.0000
      8 ****         0.0301  -2.8317   1.2149 N.am           1 S1                 0.0000
      9 ****         1.4653  -3.0769   1.3273 C.3            1 S1                 0.0000
     10 ****         2.1930  -2.6983   0.0277 C.3            1 S1                 0.0000
     11 ****         2.1318  -1.2894  -0.1346 O.3            1 S1                 0.0000
     12 ****         2.5928  -0.7866  -1.3820 C.3            1 S1                 0.0000
     13 ****         1.5223  -0.9719  -2.4809 C.3            1 S1                 0.0000
     14 ****         0.2466  -0.1690  -2.1759 C.3            1 S1                 0.0000
     15 ****         0.5603   1.3191  -1.9632 C.3            1 S1                 0.0000
     16 ****         1.6344   1.5176  -0.8819 C.3            1 S1                 0.0000
     17 ****         2.9140   0.7135  -1.1949 C.3            1 S1                 0.0000
     18 ****         4.0050   0.9432  -0.1373 C.3            1 S1                 0.0000
     19 ****        -3.1606  -0.0756   2.3503 O.3            1 S1                 0.0000
     20 ****        -3.7574   1.1126   2.0278 C.2            1 S1                 0.0000
     21 ****        -4.4657   1.8551   3.1092 C.3            1 S1                 0.0000
     22 ****        -4.9524   2.3157  -0.6168 H              1 S1                 0.0000
     23 ****        -3.2720   2.7420  -0.9260 H              1 S1                 0.0000
     24 ****        -4.1113   3.4249   0.4611 H              1 S1                 0.0000
     25 ****        -0.5352  -3.5886   0.8597 H              1 S1                 0.0000
     26 ****         1.8903  -2.5443   2.1796 H              1 S1                 0.0000
     27 ****         1.6050  -4.1393   1.5264 H              1 S1                 0.0000
     28 ****         3.2374  -3.0086   0.0766 H              1 S1                 0.0000
     29 ****         1.7380  -3.2230  -0.8118 H              1 S1                 0.0000
     30 ****         3.5067  -1.3100  -1.6683 H              1 S1                 0.0000
     31 ****         1.9310  -0.6395  -3.4358 H              1 S1                 0.0000
     32 ****         1.2737  -2.0235  -2.6168 H              1 S1                 0.0000
     33 ****        -0.4694  -0.2840  -2.9897 H              1 S1                 0.0000
     34 ****        -0.2360  -0.5710  -1.2853 H              1 S1                 0.0000
     35 ****         0.9023   1.7572  -2.9016 H              1 S1                 0.0000
     36 ****        -0.3494   1.8522  -1.6850 H              1 S1                 0.0000
     37 ****         1.8718   2.5783  -0.7970 H              1 S1                 0.0000
     38 ****         1.2331   1.2158   0.0866 H              1 S1                 0.0000
     39 ****         3.3098   1.0838  -2.1418 H              1 S1                 0.0000
     40 ****         3.6760   0.6232   0.8519 H              1 S1                 0.0000
     41 ****         4.2703   1.9985  -0.0718 H              1 S1                 0.0000
     42 ****         4.9116   0.3898  -0.3826 H              1 S1                 0.0000
     43 ****        -3.9411   2.7802   3.3481 H              1 S1                 0.0000
     44 ****        -4.5290   1.2572   4.0186 H              1 S1                 0.0000
     45 ****        -5.4797   2.1102   2.8010 H              1 S1                 0.0000
     46 ****        -2.5154   0.2023  -0.7737 LP             1 S1                 0.0000
     47 ****        -2.3549  -2.5181   0.8709 LP             1 S1                 0.0000
     48 ****        -0.4022   0.1673   2.0561 LP             1 S1                 0.0000
     49 ****         1.0275  -0.8094   2.0987 LP             1 S1                 0.0000
     50 ****         2.6857  -0.8737   0.5867 LP             1 S1                 0.0000
     51 ****         1.1779  -1.0097  -0.0254 LP             1 S1                 0.0000
     52 ****        -2.4616   0.0624   3.0520 LP             1 S1                 0.0000
     53 ****        -3.8401  -0.7306   2.6810 LP             1 S1                 0.0000
@<TRIPOS>BOND
    1    1   22 1     
    2    1   23 1     
    3    1   24 1     
    4    1    2 1     
    5    2    3 1     
    6    2   20 2     
    7    3    4 2     
    8    4   19 1     
    9    4    5 1     
   10    5    6 1     
   11    6    8 am    
   12    6    7 2     
   13    8    9 1     
   14    8   25 1     
   15    9   10 1     
   16    9   26 1     
   17    9   27 1     
   18   10   11 1     
   19   10   28 1     
   20   10   29 1     
   21   11   12 1     
   22   12   17 1     
   23   12   13 1     
   24   12   30 1     
   25   13   14 1     
   26   13   31 1     
   27   13   32 1     
   28   14   15 1     
   29   14   33 1     
   30   14   34 1     
   31   15   16 1     
   32   15   35 1     
   33   15   36 1     
   34   16   17 1     
   35   16   37 1     
   36   16   38 1     
   37   17   18 1     
   38   17   39 1     
   39   18   40 1     
   40   18   41 1     
   41   18   42 1     
   42   19   20 1     
   43   20   21 1     
   44   21   43 1     
   45   21   44 1     
   46   21   45 1     
   47    3   46 1     
   48    5   47 1     
   49    7   48 1     
   50    7   49 1     
   51   11   50 1     
   52   11   51 1     
   53   19   52 1     
   54   19   53 1     
@<TRIPOS>SUBSTRUCTURE
      1 S1             1
@<TRIPOS>SET
LONE_PAIRS      STATIC     ATOMS    <user>   **** ""
8 46 47 48 49 50 51 52 53
DONOR_HYDROGENS      STATIC     ATOMS    <user>   **** ""
1 25
ATOM$BLUE        STATIC     ATOMS    COLORGROUP SYSTEM
8 46 47 48 49 50 51 52 53
ATOM$RED        STATIC     ATOMS    COLORGROUP SYSTEM
1 25
