AV-unprocessed.smi:909|AV-procd|sdf|4115|dock5
  -GOLD-   22720 2 13D 1   1.00000     0.00000
 Structure written by MMmdl.
 39 40  0  0  0  0  0  0  0  0  2 V2000
  151.3525  145.4938  160.1071 C   0  0  0  0  0  0  0  0  0  0  0  0
  152.0195  144.2447  160.6065 C   0  0  0  0  0  0  0  0  0  0  0  0
  152.2149  144.0848  161.9048 N   0  0  0  0  0  0  0  0  0  0  0  0
  152.8362  142.8406  162.0478 O   0  0  0  0  0  0  0  0  0  0  0  0
  152.9967  142.2959  160.8148 C   0  0  0  0  0  0  0  0  0  0  0  0
  153.6370  140.9502  160.7549 C   0  0  0  0  0  0  0  0  0  0  0  0
  152.5071  143.1380  159.8541 C   0  0  0  0  0  0  0  0  0  0  0  0
  152.4745  142.9470  158.3594 C   0  0  0  0  0  0  0  0  0  0  0  0
  151.5206  141.8053  158.0112 C   0  0  0  0  0  0  0  0  0  0  0  0
  150.8625  141.2782  158.9059 O   0  0  0  0  0  0  0  0  0  0  0  0
  151.5005  141.4487  156.7135 N   0  0  0  0  0  0  0  0  0  0  0  0
  150.7511  140.4199  155.9729 C   0  0  0  0  0  0  0  0  0  0  0  0
  149.5703  141.1811  155.3198 C   0  0  0  0  0  0  0  0  0  0  0  0
  148.7188  141.7035  156.0737 O   0  0  0  0  0  0  0  0  0  0  0  0
  149.5038  141.1947  154.0695 O   0  5  0  0  0  0  0  0  0  0  0  0
  151.5466  139.6328  154.8792 C   0  0  0  0  0  0  0  0  0  0  0  0
  152.5678  138.6235  155.4420 C   0  0  0  0  0  0  0  0  0  0  0  0
  151.9181  137.6616  156.4418 C   0  0  0  0  0  0  0  0  0  0  0  0
  151.2328  138.4417  157.5684 C   0  0  0  0  0  0  0  0  0  0  0  0
  150.1774  139.4103  157.0097 C   0  0  0  0  0  0  0  0  0  0  0  0
  152.0914  146.2473  159.8349 H   0  0  0  0  0  0  0  0  0  0  0  0
  150.6962  145.9269  160.8627 H   0  0  0  0  0  0  0  0  0  0  0  0
  150.7449  145.2890  159.2254 H   0  0  0  0  0  0  0  0  0  0  0  0
  152.8855  140.1736  160.6130 H   0  0  0  0  0  0  0  0  0  0  0  0
  154.1787  140.7314  161.6756 H   0  0  0  0  0  0  0  0  0  0  0  0
  154.3431  140.8925  159.9265 H   0  0  0  0  0  0  0  0  0  0  0  0
  152.1458  143.8534  157.8494 H   0  0  0  0  0  0  0  0  0  0  0  0
  153.4659  142.7228  157.9636 H   0  0  0  0  0  0  0  0  0  0  0  0
  152.1312  141.9747  156.1268 H   0  0  0  0  0  0  0  0  0  0  0  0
  150.8381  139.0653  154.2734 H   0  0  0  0  0  0  0  0  0  0  0  0
  152.0364  140.3057  154.1751 H   0  0  0  0  0  0  0  0  0  0  0  0
  153.0126  138.0579  154.6229 H   0  0  0  0  0  0  0  0  0  0  0  0
  153.3904  139.1427  155.9315 H   0  0  0  0  0  0  0  0  0  0  0  0
  151.1879  137.0337  155.9299 H   0  0  0  0  0  0  0  0  0  0  0  0
  152.6706  136.9904  156.8561 H   0  0  0  0  0  0  0  0  0  0  0  0
  150.7629  137.7466  158.2647 H   0  0  0  0  0  0  0  0  0  0  0  0
  151.9780  138.9952  158.1409 H   0  0  0  0  0  0  0  0  0  0  0  0
  149.7098  139.9370  157.8435 H   0  0  0  0  0  0  0  0  0  0  0  0
  149.3844  138.8195  156.5475 H   0  0  0  0  0  0  0  0  0  0  0  0
  1  2  1  0  0  0  0
  1 21  1  0  0  0  0
  1 22  1  0  0  0  0
  1 23  1  0  0  0  0
  2  7  1  0  0  0  0
  2  3  2  0  0  0  0
  3  4  1  0  0  0  0
  4  5  1  0  0  0  0
  5  6  1  0  0  0  0
  5  7  2  0  0  0  0
  6 24  1  0  0  0  0
  6 25  1  0  0  0  0
  6 26  1  0  0  0  0
  7  8  1  0  0  0  0
  8  9  1  0  0  0  0
  8 27  1  0  0  0  0
  8 28  1  0  0  0  0
  9 10  2  0  0  0  0
  9 11  1  0  0  0  0
 11 12  1  0  0  0  0
 11 29  1  0  0  0  0
 12 20  1  0  0  0  0
 12 13  1  0  0  0  0
 12 16  1  0  0  0  0
 13 14  2  0  0  0  0
 13 15  1  0  0  0  0
 16 17  1  0  0  0  0
 16 30  1  0  0  0  0
 16 31  1  0  0  0  0
 17 18  1  0  0  0  0
 17 32  1  0  0  0  0
 17 33  1  0  0  0  0
 18 19  1  0  0  0  0
 18 34  1  0  0  0  0
 18 35  1  0  0  0  0
 19 20  1  0  0  0  0
 19 36  1  0  0  0  0
 19 37  1  0  0  0  0
 20 38  1  0  0  0  0
 20 39  1  0  0  0  0
M  CHG  1  15  -1
M  END
> <s_m_source_file>
AV-unprocessed.smi

> <i_m_source_file_index>
909

> <i_lp_mmshare_version>
43012

> <i_f3d_flags>
0

> <s_epik_input>
W0NIM11jMW5vYyhbQ0gzXSljMVtDSDJdQyg9TylbTkhdQzIoQyg9TylbT0hdKVtDSDJdW0NIMl1bQ0gyXVtDSDJdW0NIMl0y

> <s_epik_cmdline>
J2VwaWtfcHl0aG9uJywgJy1waCcsICc3LjAnLCAnLXRuJywgJzgnLCAnLW1hJywgJzIwMCcsICctbWV0YWxfYmluZGluZycsICctaW1hZScsICc8aW5maWxlLm1hZT4nLCAnLW9tYWUnLCAnPG91dGZpbGUubWFlPic=

> <r_epik_Ionization_Penalty>
0.000391234

> <r_epik_Ionization_Penalty_Charging>
0.000391215

> <r_epik_Ionization_Penalty_Neutral>
1.90707e-08

> <r_epik_State_Penalty>
0.000239413

> <r_epik_Charging_Adjusted_Penalty>
0.000630628

> <i_epik_Tot_Q>
-1

> <i_epik_Tot_abs_Q>
1

> <r_epik_Metal_State_Penalty>
-0

> <b_epik_Metal_Only>
0

> <s_lp_Force_Field>
OPLS_2005

> <r_lp_Energy>
2.68806

> <b_lp_Chiralities_Consistent>
1

> <s_lp_Variant>
AV-unprocessed.smi:909-1

> <Gold.Version>
5.8.1

> <Gold.Id.Protein>
6NUR|6NUR_protein|mol2

> <Gold.PLP.Fitness>
39.6675

> <Gold.PLP.PLP>
-38.5117

> <Gold.PLP.part.hbond>
-2.0583

> <Gold.PLP.part.metal>
0.0000

> <Gold.PLP.part.buried>
-3.6168

> <Gold.PLP.part.nonpolar>
-33.0427

> <Gold.PLP.part.repulsive>
1.3084

> <Gold.PLP.ligand.clash>
0.0556

> <Gold.PLP.ligand.torsion>
0.6316

> <Gold.PLP.Chemscore.Hbond>
0.8029

> <Gold.PLP.Chemscore.CHOScore>
0.0000

> <Gold.PLP.Chemscore.Metal>
0.0000

> <Gold.Chemscore.Hbonds>
donor molecule, donor type, donor heavy atom, donor atom, acceptor molecule, acceptor atom, score
      P1  H  7989  7998       L1    15  0.22
      P1  H  8011  8017       L1    15  0.57

> <Gold.PLP.Chemscore.Internal.Correction>
0.0659

> <Gold.Rescore>
     Score         DG    S(hbond)    S(metal)    S(lipo)     H(rot)  DE(clash)    DE(int)     intcor
     11.45     -14.64       0.78        0.00      98.21       1.93       0.74       2.45       ----

> <Gold.Chemscore.Fitness>
11.4478

> <Gold.Chemscore.DG>
-14.6376

> <Gold.Chemscore.ZeroCoef>
-5.4800

> <Gold.Chemscore.Hbond>
0.7799

> <Gold.Chemscore.Metal>
0.0000

> <Gold.Chemscore.Lipo>
98.2113

> <Gold.Chemscore.Internal_Hbond>
0.0000

> <Gold.Chemscore.DEClash>
0.7367

> <Gold.Chemscore.DEInternal>
2.4531

> <Gold.Chemscore.Rot>
1.9289

> <Gold.Chemscore.Internal.Correction>
   9.000000E+99

> <Gold.Chemscore.Hbonds>
donor molecule, donor type, donor heavy atom, donor atom, acceptor molecule, acceptor atom, score
      P1  H  7989  7998       L1    15  0.09
      P1  H  8011  8017       L1    15  0.57

> <Gold.Chemscore.Hbond.Weighted>
-2.6047

> <Gold.Chemscore.Metal.Weighted>
-0.0000

> <Gold.Chemscore.Lipo.Weighted>
-11.4907

> <Gold.Chemscore.Internal_Hbond.Weighted>
0.0000

> <Gold.Chemscore.DEClash.Weighted>
0.7367

> <Gold.Chemscore.DEInternal.Weighted>
2.4531

> <Gold.Chemscore.Rot.Weighted>
4.9379

> <Gold.Chemscore.Internal.Correction.Weighted>
   9.000000E+99

> <Gold.Protein.RotatedTorsions>
[ 6907 6896 6895 6894 ] final  -38.39 input  -60.11 | X-H torsion
[ 7974 7965 7964 7962 ] final   50.05 input  175.53 | X-H torsion
[ 8008 7997 7996 7995 ] final   55.39 input   59.86 | X-H torsion
[ 10167 10162 10161 10158 ] final   35.49 input  -65.29 | X-H torsion
[ 10718 10713 10712 10709 ] final  105.19 input   66.30 | X-H torsion
[ 10763 10752 10751 10750 ] final -179.35 input  -60.55 | X-H torsion
[ 11005 11000 10999 10996 ] final  160.54 input  -57.11 | X-H torsion

> <Gold.Protein.ActiveResidues>
 VAL166  LYS551  ARG553  GLY616  TRP617  ASP618  TYR619  PRO620  LYS621  CYS622 
 ASP623  PHE694  ASN695  SER759  ASP760  ASP761  ALA762  ILE779  LEU786  VAL792 
 PHE793  MET794  SER795  GLU796  ALA797  LYS798  CYS799  TRP800  GLU811  SER814 

> <Gold.Protein.RotatedAtoms>
  151.0030  134.9337  159.7964 H   0  0  0  0  0  0  0  0  0  0  0  0  # atno 6907 bound_to 6896
  152.5283  134.3128  159.9130 H   0  0  0  0  0  0  0  0  0  0  0  0  # atno 6908 bound_to 6896
  151.3134  133.4029  159.2683 H   0  0  0  0  0  0  0  0  0  0  0  0  # atno 6909 bound_to 6896
  146.0050  139.4480  142.9991 H   0  0  0  0  0  0  0  0  0  0  0  0  # atno 7974 bound_to 7965
  155.5003  140.3474  155.4370 H   0  0  0  0  0  0  0  0  0  0  0  0  # atno 8008 bound_to 7997
  156.0918  140.1412  156.9610 H   0  0  0  0  0  0  0  0  0  0  0  0  # atno 8009 bound_to 7997
  154.4639  140.0924  156.6946 H   0  0  0  0  0  0  0  0  0  0  0  0  # atno 8010 bound_to 7997
  140.4217  144.1450  150.6148 H   0  0  0  0  0  0  0  0  0  0  0  0  # atno 10167 bound_to 10162
  157.6714  131.0822  150.5819 H   0  0  0  0  0  0  0  0  0  0  0  0  # atno 10718 bound_to 10713
  154.5362  135.2803  155.1136 H   0  0  0  0  0  0  0  0  0  0  0  0  # atno 10763 bound_to 10752
  154.2637  135.6317  153.5288 H   0  0  0  0  0  0  0  0  0  0  0  0  # atno 10764 bound_to 10752
  152.9968  135.5611  154.5889 H   0  0  0  0  0  0  0  0  0  0  0  0  # atno 10765 bound_to 10752
  140.2069  134.8296  157.3079 H   0  0  0  0  0  0  0  0  0  0  0  0  # atno 11005 bound_to 11000
  145.7430  141.0001  143.1291 LP  0  0  0  0  0  0  0  0  0  0  0  0  # atno 17320 bound_to 7965
  144.6932  139.9122  143.7464 LP  0  0  0  0  0  0  0  0  0  0  0  0  # atno 17321 bound_to 7965
  140.4526  143.2480  151.9327 LP  0  0  0  0  0  0  0  0  0  0  0  0  # atno 17342 bound_to 10162
  139.4783  144.5547  151.8332 LP  0  0  0  0  0  0  0  0  0  0  0  0  # atno 17343 bound_to 10162
  156.6119  130.4382  149.5855 LP  0  0  0  0  0  0  0  0  0  0  0  0  # atno 17370 bound_to 10713
  156.2423  130.6858  151.1567 LP  0  0  0  0  0  0  0  0  0  0  0  0  # atno 17371 bound_to 10713
  140.1992  134.4275  155.7672 LP  0  0  0  0  0  0  0  0  0  0  0  0  # atno 17394 bound_to 11000
  141.2227  133.7064  156.8156 LP  0  0  0  0  0  0  0  0  0  0  0  0  # atno 17395 bound_to 11000

$$$$
