AV-unprocessed.smi:16|AV-procd|sdf|90|dock3
  -GOLD-   2262015233D 1   1.00000     0.00000
 Structure written by MMmdl.
 60 64  0  0  0  0  0  0  0  0  2 V2000
  148.4782  141.0989  154.1562 C   0  0  0  0  0  0  0  0  0  0  0  0
  149.2468  139.9971  154.8991 C   0  0  0  0  0  0  0  0  0  0  0  0
  149.3689  140.2725  156.3559 N   0  3  2  0  0  0  0  0  0  0  0  0
  150.3526  141.3336  156.7080 C   0  0  0  0  0  0  0  0  0  0  0  0
  151.8082  140.8383  156.6061 C   0  0  0  0  0  0  0  0  0  0  0  0
  152.0106  139.5755  157.4528 C   0  0  2  0  0  0  0  0  0  0  0  0
  153.3379  139.0921  157.2814 O   0  0  0  0  0  0  0  0  0  0  0  0
  153.5966  137.9601  158.1055 C   0  0  0  0  0  0  0  0  0  0  0  0
  152.6327  136.8227  157.7302 C   0  0  0  0  0  0  0  0  0  0  0  0
  151.2469  137.2761  157.8226 N   0  0  0  0  0  0  0  0  0  0  0  0
  150.3566  136.2784  157.6207 C   0  0  0  0  0  0  0  0  0  0  0  0
  149.5035  135.9116  158.6132 N   0  0  0  0  0  0  0  0  0  0  0  0
  148.6396  134.9113  158.4126 C   0  0  0  0  0  0  0  0  0  0  0  0
  148.4782  134.1532  157.3255 N   0  0  0  0  0  0  0  0  0  0  0  0
  149.3440  134.5131  156.3344 C   0  0  0  0  0  0  0  0  0  0  0  0
  150.3032  135.5612  156.3978 C   0  0  0  0  0  0  0  0  0  0  0  0
  151.0025  135.6451  155.2013 N   0  0  0  0  0  0  0  0  0  0  0  0
  150.4778  134.7033  154.4648 C   0  0  0  0  0  0  0  0  0  0  0  0
  149.4984  133.9534  155.0781 N   0  0  0  0  0  0  0  0  0  0  0  0
  148.7421  132.8872  154.4905 C   0  0  0  0  0  0  0  0  0  0  0  0
  148.7270  132.6669  152.9760 C   0  0  0  0  0  0  0  0  0  0  0  0
  147.2713  132.1567  153.0716 C   0  0  0  0  0  0  0  0  0  0  0  0
  146.3249  132.6456  151.9632 C   0  0  0  0  0  0  0  0  0  0  0  0
  146.7879  132.2555  150.6864 O   0  0  0  0  0  0  0  0  0  0  0  0
  147.1173  130.6309  153.2331 C   0  0  0  0  0  0  0  0  0  0  0  0
  147.6758  129.9355  152.1368 O   0  0  0  0  0  0  0  0  0  0  0  0
  147.2168  132.9643  154.3874 C   0  0  0  0  0  0  0  0  0  0  0  0
  151.0032  138.4842  157.0305 C   0  0  1  0  0  0  0  0  0  0  0  0
  149.5649  139.0446  157.1720 C   0  0  0  0  0  0  0  0  0  0  0  0
  151.8605  139.8336  158.5034 H   0  0  0  0  0  0  0  0  0  0  0  0
  151.1810  138.2308  155.9839 H   0  0  0  0  0  0  0  0  0  0  0  0
  148.3154  140.8158  153.1162 H   0  0  0  0  0  0  0  0  0  0  0  0
  149.0191  142.0447  154.1509 H   0  0  0  0  0  0  0  0  0  0  0  0
  147.5004  141.2703  154.6075 H   0  0  0  0  0  0  0  0  0  0  0  0
  148.7000  139.0639  154.7583 H   0  0  0  0  0  0  0  0  0  0  0  0
  150.2266  139.8453  154.4466 H   0  0  0  0  0  0  0  0  0  0  0  0
  150.2083  142.2203  156.0923 H   0  0  0  0  0  0  0  0  0  0  0  0
  150.1543  141.6483  157.7335 H   0  0  0  0  0  0  0  0  0  0  0  0
  152.0684  140.6363  155.5668 H   0  0  0  0  0  0  0  0  0  0  0  0
  152.4880  141.6215  156.9427 H   0  0  0  0  0  0  0  0  0  0  0  0
  154.6287  137.6419  157.9591 H   0  0  0  0  0  0  0  0  0  0  0  0
  153.4917  138.2283  159.1581 H   0  0  0  0  0  0  0  0  0  0  0  0
  152.8481  136.4865  156.7147 H   0  0  0  0  0  0  0  0  0  0  0  0
  152.7890  135.9697  158.3920 H   0  0  0  0  0  0  0  0  0  0  0  0
  147.9868  134.6826  159.2422 H   0  0  0  0  0  0  0  0  0  0  0  0
  150.8006  134.5229  153.4495 H   0  0  0  0  0  0  0  0  0  0  0  0
  149.0503  131.9778  155.0091 H   0  0  0  0  0  0  0  0  0  0  0  0
  148.8172  133.6017  152.4197 H   0  0  0  0  0  0  0  0  0  0  0  0
  149.4529  131.9343  152.6219 H   0  0  0  0  0  0  0  0  0  0  0  0
  145.3262  132.2280  152.0955 H   0  0  0  0  0  0  0  0  0  0  0  0
  146.2065  133.7292  151.9832 H   0  0  0  0  0  0  0  0  0  0  0  0
  147.4865  131.6293  150.7996 H   0  0  0  0  0  0  0  0  0  0  0  0
  147.6141  130.2785  154.1373 H   0  0  0  0  0  0  0  0  0  0  0  0
  146.0703  130.3441  153.3338 H   0  0  0  0  0  0  0  0  0  0  0  0
  148.0177  130.5679  151.5234 H   0  0  0  0  0  0  0  0  0  0  0  0
  146.6831  132.4766  155.2037 H   0  0  0  0  0  0  0  0  0  0  0  0
  146.8587  133.9854  154.2424 H   0  0  0  0  0  0  0  0  0  0  0  0
  149.3662  139.2869  158.2172 H   0  0  0  0  0  0  0  0  0  0  0  0
  148.8143  138.3068  156.8862 H   0  0  0  0  0  0  0  0  0  0  0  0
  148.4639  140.6298  156.6269 H   0  0  0  0  0  0  0  0  0  0  0  0
  1  2  1  0  0  0  0
  1 32  1  0  0  0  0
  1 33  1  0  0  0  0
  1 34  1  0  0  0  0
  2  3  1  0  0  0  0
  2 35  1  0  0  0  0
  2 36  1  0  0  0  0
  3 29  1  0  0  0  0
  3  4  1  0  0  0  0
  3 60  1  0  0  0  0
  4  5  1  0  0  0  0
  4 37  1  0  0  0  0
  4 38  1  0  0  0  0
  5  6  1  0  0  0  0
  5 39  1  0  0  0  0
  5 40  1  0  0  0  0
  6 30  1  0  0  0  0
  6 28  1  0  0  0  0
  6  7  1  0  0  0  0
  7  8  1  0  0  0  0
  8  9  1  0  0  0  0
  8 41  1  0  0  0  0
  8 42  1  0  0  0  0
  9 10  1  0  0  0  0
  9 43  1  0  0  0  0
  9 44  1  0  0  0  0
 10 11  1  0  0  0  0
 10 28  1  0  0  0  0
 11 16  1  0  0  0  0
 11 12  2  0  0  0  0
 12 13  1  0  0  0  0
 13 14  2  0  0  0  0
 13 45  1  0  0  0  0
 14 15  1  0  0  0  0
 15 19  1  0  0  0  0
 15 16  2  0  0  0  0
 16 17  1  0  0  0  0
 17 18  2  0  0  0  0
 18 19  1  0  0  0  0
 18 46  1  0  0  0  0
 19 20  1  0  0  0  0
 20 27  1  0  0  0  0
 20 21  1  0  0  0  0
 20 47  1  0  0  0  0
 21 22  1  0  0  0  0
 21 48  1  0  0  0  0
 21 49  1  0  0  0  0
 22 23  1  0  0  0  0
 22 25  1  0  0  0  0
 22 27  1  0  0  0  0
 23 24  1  0  0  0  0
 23 50  1  0  0  0  0
 23 51  1  0  0  0  0
 24 52  1  0  0  0  0
 25 26  1  0  0  0  0
 25 53  1  0  0  0  0
 25 54  1  0  0  0  0
 26 55  1  0  0  0  0
 27 56  1  0  0  0  0
 27 57  1  0  0  0  0
 28 31  1  0  0  0  0
 28 29  1  0  0  0  0
 29 58  1  0  0  0  0
 29 59  1  0  0  0  0
M  CHG  1   3   1
M  END
> <s_m_source_file>
AV-unprocessed.smi

> <i_m_source_file_index>
16

> <i_lp_mmshare_version>
43012

> <i_f3d_flags>
0

> <s_epik_input>
W0NIM11bQ0gyXU4oW0NIMl1bQ0gyXTEpW0NIMl1bQ0BASF0oW0NAQEhdMTIpTihbQ0gyXVtDSDJdTzIpYyhuW2NIXW4zKWMoYzM0KW5bY0hdbjRbQ0hdKFtDSDJdNSlbQ0gyXUM1KFtDSDJdW09IXSlbQ0gyXVtPSF0=

> <s_epik_cmdline>
J2VwaWtfcHl0aG9uJywgJy1waCcsICc3LjAnLCAnLXRuJywgJzgnLCAnLW1hJywgJzIwMCcsICctbWV0YWxfYmluZGluZycsICctaW1hZScsICc8aW5maWxlLm1hZT4nLCAnLW9tYWUnLCAnPG91dGZpbGUubWFlPic=

> <r_lp_tautomer_probability>
1

> <r_epik_Ionization_Penalty>
0.0135603

> <r_epik_Ionization_Penalty_Charging>
0.0131385

> <r_epik_Ionization_Penalty_Neutral>
0.000421734

> <r_epik_State_Penalty>
0.0102091

> <r_epik_Charging_Adjusted_Penalty>
0.0233476

> <i_epik_Tot_Q>
1

> <i_epik_Tot_abs_Q>
1

> <r_epik_Metal_State_Penalty>
0.0103746

> <b_epik_Metal_Only>
0

> <s_lp_Force_Field>
OPLS_2005

> <r_lp_Energy>
56.2472

> <b_lp_Chiralities_Consistent>
1

> <s_lp_Variant>
AV-unprocessed.smi:16-4

> <Gold.Version>
5.8.1

> <Gold.Id.Protein>
6NUR|6NUR_protein|mol2

> <Gold.PLP.Fitness>
47.1247

> <Gold.PLP.PLP>
-33.1147

> <Gold.PLP.part.hbond>
-4.7285

> <Gold.PLP.part.metal>
0.0000

> <Gold.PLP.part.buried>
-5.8568

> <Gold.PLP.part.nonpolar>
-23.0468

> <Gold.PLP.part.repulsive>
0.1449

> <Gold.PLP.ligand.clash>
0.0000

> <Gold.PLP.ligand.torsion>
0.8071

> <Gold.PLP.Chemscore.Hbond>
4.6230

> <Gold.PLP.Chemscore.CHOScore>
0.3510

> <Gold.PLP.Chemscore.Metal>
0.0000

> <Gold.Chemscore.Hbonds>
donor molecule, donor type, donor heavy atom, donor atom, acceptor molecule, acceptor atom, score
      L1  H    24    52       P1 10747  1.00
      L1  H    26    55       P1 10747  0.93
      P1  H  6896  6909       L1    12  0.68
      P1  H  7997  8010       L1     7  1.00
      P1  H 10752 10763       L1    17  1.00
      L1  C    18    46       P1  7949  0.34

> <Gold.PLP.Chemscore.Internal.Correction>
0.7020

> <Gold.Rescore>
     Score         DG    S(hbond)    S(metal)    S(lipo)     H(rot)  DE(clash)    DE(int)     intcor
     15.95     -17.73       3.41        0.00      80.10       3.33       0.98       0.80       ----

> <Gold.Chemscore.Fitness>
15.9510

> <Gold.Chemscore.DG>
-17.7303

> <Gold.Chemscore.ZeroCoef>
-5.4800

> <Gold.Chemscore.Hbond>
3.4103

> <Gold.Chemscore.Metal>
0.0000

> <Gold.Chemscore.Lipo>
80.1029

> <Gold.Chemscore.Internal_Hbond>
0.0000

> <Gold.Chemscore.DEClash>
0.9826

> <Gold.Chemscore.DEInternal>
0.7967

> <Gold.Chemscore.Rot>
3.3251

> <Gold.Chemscore.Internal.Correction>
   9.000000E+99

> <Gold.Chemscore.Hbonds>
donor molecule, donor type, donor heavy atom, donor atom, acceptor molecule, acceptor atom, score
      L1  H    24    52       P1 10747  0.95
      L1  H    26    55       P1 10747  0.88
      P1  H  6896  6909       L1    12  0.02
      P1  H  7997  8010       L1     7  0.92
      P1  H 10752 10763       L1    17  0.24

> <Gold.Chemscore.Hbond.Weighted>
-11.3904

> <Gold.Chemscore.Metal.Weighted>
-0.0000

> <Gold.Chemscore.Lipo.Weighted>
-9.3720

> <Gold.Chemscore.Internal_Hbond.Weighted>
0.0000

> <Gold.Chemscore.DEClash.Weighted>
0.9826

> <Gold.Chemscore.DEInternal.Weighted>
0.7967

> <Gold.Chemscore.Rot.Weighted>
8.5122

> <Gold.Chemscore.Internal.Correction.Weighted>
   9.000000E+99

> <Gold.Protein.RotatedTorsions>
[ 6907 6896 6895 6894 ] final   70.01 input  -60.11 | X-H torsion
[ 7974 7965 7964 7962 ] final -161.56 input  175.53 | X-H torsion
[ 8008 7997 7996 7995 ] final   59.97 input   59.86 | X-H torsion
[ 10167 10162 10161 10158 ] final  110.78 input  -65.29 | X-H torsion
[ 10718 10713 10712 10709 ] final  105.04 input   66.30 | X-H torsion
[ 10763 10752 10751 10750 ] final   56.15 input  -60.55 | X-H torsion
[ 11005 11000 10999 10996 ] final   25.52 input  -57.11 | X-H torsion

> <Gold.Protein.ActiveResidues>
 VAL166  LYS551  ARG553  GLY616  TRP617  ASP618  TYR619  PRO620  LYS621  CYS622 
 ASP623  PHE694  ASN695  SER759  ASP760  ASP761  ALA762  ILE779  LEU786  VAL792 
 PHE793  MET794  SER795  GLU796  ALA797  LYS798  CYS799  TRP800  GLU811  SER814 

> <Gold.Protein.RotatedAtoms>
  152.4723  134.4931  159.9701 H   0  0  0  0  0  0  0  0  0  0  0  0  # atno 6907 bound_to 6896
  151.4955  133.3510  159.2868 H   0  0  0  0  0  0  0  0  0  0  0  0  # atno 6908 bound_to 6896
  150.8740  134.8146  159.7237 H   0  0  0  0  0  0  0  0  0  0  0  0  # atno 6909 bound_to 6896
  144.7387  140.3379  143.6140 H   0  0  0  0  0  0  0  0  0  0  0  0  # atno 7974 bound_to 7965
  155.5747  140.3490  155.4524 H   0  0  0  0  0  0  0  0  0  0  0  0  # atno 8008 bound_to 7997
  156.0418  140.1297  157.0173 H   0  0  0  0  0  0  0  0  0  0  0  0  # atno 8009 bound_to 7997
  154.4395  140.1022  156.6233 H   0  0  0  0  0  0  0  0  0  0  0  0  # atno 8010 bound_to 7997
  139.6661  144.7127  151.1773 H   0  0  0  0  0  0  0  0  0  0  0  0  # atno 10167 bound_to 10162
  157.6719  131.0818  150.5797 H   0  0  0  0  0  0  0  0  0  0  0  0  # atno 10718 bound_to 10713
  152.9827  135.5686  154.5182 H   0  0  0  0  0  0  0  0  0  0  0  0  # atno 10763 bound_to 10752
  154.4675  135.2783  155.1669 H   0  0  0  0  0  0  0  0  0  0  0  0  # atno 10764 bound_to 10752
  154.3231  135.6265  153.5570 H   0  0  0  0  0  0  0  0  0  0  0  0  # atno 10765 bound_to 10752
  140.3469  134.2271  155.7684 H   0  0  0  0  0  0  0  0  0  0  0  0  # atno 11005 bound_to 11000
  145.7404  139.1762  143.2379 LP  0  0  0  0  0  0  0  0  0  0  0  0  # atno 17320 bound_to 7965
  146.1138  140.7395  142.9490 LP  0  0  0  0  0  0  0  0  0  0  0  0  # atno 17321 bound_to 7965
  140.7600  143.5916  150.8790 LP  0  0  0  0  0  0  0  0  0  0  0  0  # atno 17342 bound_to 10162
  139.9578  143.6198  152.3011 LP  0  0  0  0  0  0  0  0  0  0  0  0  # atno 17343 bound_to 10162
  156.6097  130.4377  149.5864 LP  0  0  0  0  0  0  0  0  0  0  0  0  # atno 17370 bound_to 10713
  156.2440  130.6868  151.1582 LP  0  0  0  0  0  0  0  0  0  0  0  0  # atno 17371 bound_to 10713
  141.2023  133.7941  157.0398 LP  0  0  0  0  0  0  0  0  0  0  0  0  # atno 17394 bound_to 11000
  140.0735  134.9689  157.1506 LP  0  0  0  0  0  0  0  0  0  0  0  0  # atno 17395 bound_to 11000

$$$$
