AV-unprocessed.smi:1433|AV-procd|sdf|5841|dock3
  -GOLD-   22720 5503D 1   1.00000     0.00000
 Structure written by MMmdl.
 45 46  0  0  0  0  0  0  0  0  2 V2000
  146.1317  131.5968  151.6899 C   0  0  0  0  0  0  0  0  0  0  0  0
  146.3451  133.0927  151.9464 C   0  0  2  0  0  0  0  0  0  0  0  0
  147.0991  133.3485  153.2645 C   0  0  0  0  0  0  0  0  0  0  0  0
  147.2144  134.8060  153.5380 N   0  3  2  0  0  0  0  0  0  0  0  0
  148.0074  135.1919  154.7510 C   0  0  2  0  0  0  0  0  0  0  0  0
  149.4110  134.5509  154.6804 C   0  0  0  0  0  0  0  0  0  0  0  0
  147.3185  134.8408  156.1003 C   0  0  0  0  0  0  0  0  0  0  0  0
  148.0580  135.3163  157.2658 N   0  0  0  0  0  0  0  0  0  0  0  0
  147.5411  136.0585  158.2578 C   0  0  0  0  0  0  0  0  0  0  0  0
  146.3723  136.4441  158.2780 O   0  0  0  0  0  0  0  0  0  0  0  0
  148.4850  136.4158  159.4062 C   0  0  0  0  0  0  0  0  0  0  0  0
  147.9003  136.0621  160.6867 N   0  0  0  0  0  0  0  0  0  0  0  0
  147.6307  134.8052  161.1872 C   0  0  0  0  0  0  0  0  0  0  0  0
  147.0926  134.9700  162.4313 C   0  0  0  0  0  0  0  0  0  0  0  0
  147.0737  136.3819  162.6071 C   0  0  0  0  0  0  0  0  0  0  0  0
  147.5578  137.0334  161.5618 N   0  0  0  0  0  0  0  0  0  0  0  0
  145.8587  135.4186  153.5339 C   0  0  0  0  0  0  0  0  0  0  0  0
  145.0993  135.1206  152.2273 C   0  0  1  0  0  0  0  0  0  0  0  0
  145.6239  135.9098  151.0145 C   0  0  0  0  0  0  0  0  0  0  0  0
  145.0659  133.7149  151.9921 O   0  0  0  0  0  0  0  0  0  0  0  0
  147.0836  131.0682  151.6323 H   0  0  0  0  0  0  0  0  0  0  0  0
  145.6050  131.4341  150.7492 H   0  0  0  0  0  0  0  0  0  0  0  0
  145.5422  131.1393  152.4850 H   0  0  0  0  0  0  0  0  0  0  0  0
  146.9202  133.4962  151.1126 H   0  0  0  0  0  0  0  0  0  0  0  0
  146.5922  132.8585  154.0977 H   0  0  0  0  0  0  0  0  0  0  0  0
  148.0846  132.8948  153.1649 H   0  0  0  0  0  0  0  0  0  0  0  0
  148.1266  136.2761  154.7272 H   0  0  0  0  0  0  0  0  0  0  0  0
  150.0427  134.8688  155.5098 H   0  0  0  0  0  0  0  0  0  0  0  0
  149.9467  134.8191  153.7714 H   0  0  0  0  0  0  0  0  0  0  0  0
  149.3468  133.4629  154.7145 H   0  0  0  0  0  0  0  0  0  0  0  0
  146.3156  135.2667  156.1583 H   0  0  0  0  0  0  0  0  0  0  0  0
  147.2085  133.7600  156.1958 H   0  0  0  0  0  0  0  0  0  0  0  0
  149.0270  135.0400  157.3379 H   0  0  0  0  0  0  0  0  0  0  0  0
  149.4423  135.9050  159.2891 H   0  0  0  0  0  0  0  0  0  0  0  0
  148.6903  137.4872  159.3968 H   0  0  0  0  0  0  0  0  0  0  0  0
  147.8439  133.9091  160.6229 H   0  0  0  0  0  0  0  0  0  0  0  0
  146.7637  134.1994  163.1128 H   0  0  0  0  0  0  0  0  0  0  0  0
  146.7259  136.9487  163.4581 H   0  0  0  0  0  0  0  0  0  0  0  0
  145.2908  135.0212  154.3769 H   0  0  0  0  0  0  0  0  0  0  0  0
  145.9103  136.4966  153.6791 H   0  0  0  0  0  0  0  0  0  0  0  0
  144.0618  135.4234  152.3725 H   0  0  0  0  0  0  0  0  0  0  0  0
  145.5099  136.9823  151.1736 H   0  0  0  0  0  0  0  0  0  0  0  0
  145.0679  135.6512  150.1131 H   0  0  0  0  0  0  0  0  0  0  0  0
  146.6799  135.7232  150.8219 H   0  0  0  0  0  0  0  0  0  0  0  0
  147.7127  135.1901  152.7478 H   0  0  0  0  0  0  0  0  0  0  0  0
  1  2  1  0  0  0  0
  1 21  1  0  0  0  0
  1 22  1  0  0  0  0
  1 23  1  0  0  0  0
  2 20  1  0  0  0  0
  2  3  1  0  0  0  0
  2 24  1  0  0  0  0
  3  4  1  0  0  0  0
  3 25  1  0  0  0  0
  3 26  1  0  0  0  0
  4  5  1  0  0  0  0
  4 17  1  0  0  0  0
  4 45  1  0  0  0  0
  5  6  1  0  0  0  0
  5  7  1  0  0  0  0
  5 27  1  0  0  0  0
  6 28  1  0  0  0  0
  6 29  1  0  0  0  0
  6 30  1  0  0  0  0
  7  8  1  0  0  0  0
  7 31  1  0  0  0  0
  7 32  1  0  0  0  0
  8  9  1  0  0  0  0
  8 33  1  0  0  0  0
  9 10  2  0  0  0  0
  9 11  1  0  0  0  0
 11 12  1  0  0  0  0
 11 34  1  0  0  0  0
 11 35  1  0  0  0  0
 12 16  1  0  0  0  0
 12 13  1  0  0  0  0
 13 14  2  0  0  0  0
 13 36  1  0  0  0  0
 14 15  1  0  0  0  0
 14 37  1  0  0  0  0
 15 16  2  0  0  0  0
 15 38  1  0  0  0  0
 17 18  1  0  0  0  0
 17 39  1  0  0  0  0
 17 40  1  0  0  0  0
 18 19  1  0  0  0  0
 18 20  1  0  0  0  0
 18 41  1  0  0  0  0
 19 42  1  0  0  0  0
 19 43  1  0  0  0  0
 19 44  1  0  0  0  0
M  CHG  1   4   1
M  END
> <s_m_source_file>
AV-unprocessed.smi

> <i_m_source_file_index>
1433

> <i_lp_mmshare_version>
43012

> <i_f3d_flags>
0

> <s_epik_input>
W0NIM11bQ0BASF0xW0NIMl1OKFtDSDJdW0NASF0oTzEpW0NIM10pW0NASF0oW0NIM10pW0NIMl1bTkhdQyg9TylbQ0gyXW4yW2NIXVtjSF1bY0hdbjI=

> <s_epik_cmdline>
J2VwaWtfcHl0aG9uJywgJy1waCcsICc3LjAnLCAnLXRuJywgJzgnLCAnLW1hJywgJzIwMCcsICctbWV0YWxfYmluZGluZycsICctaW1hZScsICc8aW5maWxlLm1hZT4nLCAnLW9tYWUnLCAnPG91dGZpbGUubWFlPic=

> <r_lp_tautomer_probability>
1

> <r_epik_Ionization_Penalty>
0.748405

> <r_epik_Ionization_Penalty_Charging>
0.748396

> <r_epik_Ionization_Penalty_Neutral>
8.54426e-06

> <r_epik_State_Penalty>
0.775162

> <r_epik_Charging_Adjusted_Penalty>
1.52356

> <i_epik_Tot_Q>
1

> <i_epik_Tot_abs_Q>
1

> <r_epik_Metal_State_Penalty>
0.775167

> <b_epik_Metal_Only>
0

> <s_lp_Force_Field>
OPLS_2005

> <r_lp_Energy>
22.7015

> <b_lp_Chiralities_Consistent>
1

> <s_lp_Variant>
AV-unprocessed.smi:1433-7

> <Gold.Version>
5.8.1

> <Gold.Id.Protein>
6NUR|6NUR_protein|mol2

> <Gold.PLP.Fitness>
42.6251

> <Gold.PLP.PLP>
-31.4672

> <Gold.PLP.part.hbond>
-3.0000

> <Gold.PLP.part.metal>
0.0000

> <Gold.PLP.part.buried>
-3.3886

> <Gold.PLP.part.nonpolar>
-24.5510

> <Gold.PLP.part.repulsive>
0.1101

> <Gold.PLP.ligand.clash>
0.0000

> <Gold.PLP.ligand.torsion>
0.1808

> <Gold.PLP.Chemscore.Hbond>
3.8000

> <Gold.PLP.Chemscore.CHOScore>
0.0000

> <Gold.PLP.Chemscore.Metal>
0.0000

> <Gold.Chemscore.Hbonds>
donor molecule, donor type, donor heavy atom, donor atom, acceptor molecule, acceptor atom, score
      L1  H     4    45       P1  7948  2.00
      P1  H  6931  6943       L1    16  1.00
      P1  H  6934  6947       L1    16  0.68

> <Gold.PLP.Chemscore.Internal.Correction>
0.1195

> <Gold.Rescore>
     Score         DG    S(hbond)    S(metal)    S(lipo)     H(rot)  DE(clash)    DE(int)     intcor
     17.04     -17.26       2.58        0.00      68.01       1.87       0.11       0.11       ----

> <Gold.Chemscore.Fitness>
17.0420

> <Gold.Chemscore.DG>
-17.2622

> <Gold.Chemscore.ZeroCoef>
-5.4800

> <Gold.Chemscore.Hbond>
2.5751

> <Gold.Chemscore.Metal>
0.0000

> <Gold.Chemscore.Lipo>
68.0138

> <Gold.Chemscore.Internal_Hbond>
0.0000

> <Gold.Chemscore.DEClash>
0.1071

> <Gold.Chemscore.DEInternal>
0.1131

> <Gold.Chemscore.Rot>
1.8657

> <Gold.Chemscore.Internal.Correction>
   9.000000E+99

> <Gold.Chemscore.Hbonds>
donor molecule, donor type, donor heavy atom, donor atom, acceptor molecule, acceptor atom, score
      L1  H     4    45       P1  7948  0.99
      P1  H  6931  6943       L1    16  0.73
      P1  H  6934  6947       L1    16  0.65

> <Gold.Chemscore.Hbond.Weighted>
-8.6007

> <Gold.Chemscore.Metal.Weighted>
-0.0000

> <Gold.Chemscore.Lipo.Weighted>
-7.9576

> <Gold.Chemscore.Internal_Hbond.Weighted>
0.0000

> <Gold.Chemscore.DEClash.Weighted>
0.1071

> <Gold.Chemscore.DEInternal.Weighted>
0.1131

> <Gold.Chemscore.Rot.Weighted>
4.7761

> <Gold.Chemscore.Internal.Correction.Weighted>
   9.000000E+99

> <Gold.Protein.RotatedTorsions>
[ 6907 6896 6895 6894 ] final   37.37 input  -60.11 | X-H torsion
[ 7974 7965 7964 7962 ] final  172.93 input  175.53 | X-H torsion
[ 8008 7997 7996 7995 ] final  173.35 input   59.86 | X-H torsion
[ 10167 10162 10161 10158 ] final -116.25 input  -65.29 | X-H torsion
[ 10718 10713 10712 10709 ] final  -46.14 input   66.30 | X-H torsion
[ 10763 10752 10751 10750 ] final  -22.13 input  -60.55 | X-H torsion
[ 11005 11000 10999 10996 ] final   10.01 input  -57.11 | X-H torsion

> <Gold.Protein.ActiveResidues>
 VAL166  LYS551  ARG553  GLY616  TRP617  ASP618  TYR619  PRO620  LYS621  CYS622 
 ASP623  PHE694  ASN695  SER759  ASP760  ASP761  ALA762  ILE779  LEU786  VAL792 
 PHE793  MET794  SER795  GLU796  ALA797  LYS798  CYS799  TRP800  GLU811  SER814 

> <Gold.Protein.RotatedAtoms>
  152.1422  134.9053  160.0552 H   0  0  0  0  0  0  0  0  0  0  0  0  # atno 6907 bound_to 6896
  152.0117  133.3859  159.4230 H   0  0  0  0  0  0  0  0  0  0  0  0  # atno 6908 bound_to 6896
  150.6866  134.3645  159.5008 H   0  0  0  0  0  0  0  0  0  0  0  0  # atno 6909 bound_to 6896
  144.7256  139.9573  143.6434 H   0  0  0  0  0  0  0  0  0  0  0  0  # atno 7974 bound_to 7965
  156.1084  140.1462  156.9372 H   0  0  0  0  0  0  0  0  0  0  0  0  # atno 8008 bound_to 7997
  154.4750  140.0897  156.7283 H   0  0  0  0  0  0  0  0  0  0  0  0  # atno 8009 bound_to 7997
  155.4639  140.3439  155.4318 H   0  0  0  0  0  0  0  0  0  0  0  0  # atno 8010 bound_to 7997
  140.0813  143.4785  152.1924 H   0  0  0  0  0  0  0  0  0  0  0  0  # atno 10167 bound_to 10162
  156.2213  130.4166  149.8990 H   0  0  0  0  0  0  0  0  0  0  0  0  # atno 10718 bound_to 10713
  153.6470  135.6982  153.5222 H   0  0  0  0  0  0  0  0  0  0  0  0  # atno 10763 bound_to 10752
  153.2737  135.4207  155.1011 H   0  0  0  0  0  0  0  0  0  0  0  0  # atno 10764 bound_to 10752
  154.8486  135.3584  154.6014 H   0  0  0  0  0  0  0  0  0  0  0  0  # atno 10765 bound_to 10752
  140.5193  134.0574  155.7840 H   0  0  0  0  0  0  0  0  0  0  0  0  # atno 11005 bound_to 11000
  146.0665  139.3656  143.0549 LP  0  0  0  0  0  0  0  0  0  0  0  0  # atno 17320 bound_to 7965
  145.8024  140.9764  143.0992 LP  0  0  0  0  0  0  0  0  0  0  0  0  # atno 17321 bound_to 7965
  139.5778  144.7496  151.3719 LP  0  0  0  0  0  0  0  0  0  0  0  0  # atno 17342 bound_to 10162
  140.7076  143.7473  150.7510 LP  0  0  0  0  0  0  0  0  0  0  0  0  # atno 17343 bound_to 10162
  156.6635  130.8791  151.3551 LP  0  0  0  0  0  0  0  0  0  0  0  0  # atno 17370 bound_to 10713
  157.7089  130.9416  150.1021 LP  0  0  0  0  0  0  0  0  0  0  0  0  # atno 17371 bound_to 10713
  141.1343  133.9249  157.2468 LP  0  0  0  0  0  0  0  0  0  0  0  0  # atno 17394 bound_to 11000
  139.9615  135.0153  156.9272 LP  0  0  0  0  0  0  0  0  0  0  0  0  # atno 17395 bound_to 11000

$$$$
