AV-unprocessed.smi:1900|AV-procd|sdf|7714|dock7
  -GOLD-   22720 9453D 1   1.00000     0.00000
 Structure written by MMmdl.
 43 44  0  0  0  0  0  0  0  0  1 V2000
  153.3589  138.0609  156.3880 C   0  0  0  0  0  0  0  0  0  0  0  0
  152.5030  139.1522  155.7363 C   0  0  1  0  0  0  0  0  0  0  0  0
  151.2691  138.5732  155.0188 C   0  0  0  0  0  0  0  0  0  0  0  0
  150.4165  139.6176  154.4622 N   0  0  0  0  0  0  0  0  0  0  0  0
  149.2578  139.0365  153.7856 C   0  0  0  0  0  0  0  0  0  0  0  0
  148.1331  140.0292  153.4446 C   0  0  0  0  0  0  0  0  0  0  0  0
  146.7626  139.3386  153.3621 C   0  0  0  0  0  0  0  0  0  0  0  0
  146.8447  138.0625  152.6605 N   0  0  0  0  0  0  0  0  0  0  0  0
  145.7961  137.2860  152.3524 C   0  0  0  0  0  0  0  0  0  0  0  0
  144.6332  137.5664  152.6427 O   0  0  0  0  0  0  0  0  0  0  0  0
  146.1832  136.1809  151.6948 N   0  0  0  0  0  0  0  0  0  0  0  0
  145.3529  135.1507  151.1864 C   0  0  0  0  0  0  0  0  0  0  0  0
  145.6359  133.7631  151.0192 C   0  0  0  0  0  0  0  0  0  0  0  0
  144.5942  133.1191  150.5122 N   0  0  0  0  0  0  0  0  0  0  0  0
  143.6531  134.0771  150.3555 N   0  0  0  0  0  0  0  0  0  0  0  0
  144.0730  135.3273  150.7528 C   0  0  0  0  0  0  0  0  0  0  0  0
  150.0386  140.5384  155.5321 C   0  0  0  0  0  0  0  0  0  0  0  0
  151.2681  141.1184  156.2583 C   0  0  1  0  0  0  0  0  0  0  0  0
  150.8753  142.0126  157.4390 C   0  0  0  0  0  0  0  0  0  0  0  0
  152.0676  140.0483  156.7549 O   0  0  0  0  0  0  0  0  0  0  0  0
  142.7395  133.8639  149.9806 H   0  0  0  0  0  0  0  0  0  0  0  0
  153.7267  137.3545  155.6433 H   0  0  0  0  0  0  0  0  0  0  0  0
  152.7870  137.5007  157.1286 H   0  0  0  0  0  0  0  0  0  0  0  0
  154.2237  138.4930  156.8918 H   0  0  0  0  0  0  0  0  0  0  0  0
  153.1187  139.7006  155.0212 H   0  0  0  0  0  0  0  0  0  0  0  0
  151.5984  137.9040  154.2228 H   0  0  0  0  0  0  0  0  0  0  0  0
  150.6952  137.9641  155.7191 H   0  0  0  0  0  0  0  0  0  0  0  0
  149.5916  138.5864  152.8495 H   0  0  0  0  0  0  0  0  0  0  0  0
  148.8544  138.2176  154.3831 H   0  0  0  0  0  0  0  0  0  0  0  0
  148.0838  140.8194  154.1933 H   0  0  0  0  0  0  0  0  0  0  0  0
  148.3578  140.5137  152.4933 H   0  0  0  0  0  0  0  0  0  0  0  0
  146.3460  139.1930  154.3602 H   0  0  0  0  0  0  0  0  0  0  0  0
  146.0595  139.9748  152.8238 H   0  0  0  0  0  0  0  0  0  0  0  0
  147.7650  137.7529  152.3845 H   0  0  0  0  0  0  0  0  0  0  0  0
  147.1728  136.0717  151.5293 H   0  0  0  0  0  0  0  0  0  0  0  0
  146.5343  133.2065  151.2408 H   0  0  0  0  0  0  0  0  0  0  0  0
  143.4430  136.2027  150.6941 H   0  0  0  0  0  0  0  0  0  0  0  0
  149.4528  141.3640  155.1296 H   0  0  0  0  0  0  0  0  0  0  0  0
  149.4009  140.0234  156.2525 H   0  0  0  0  0  0  0  0  0  0  0  0
  151.8622  141.7063  155.5564 H   0  0  0  0  0  0  0  0  0  0  0  0
  150.2680  142.8554  157.1081 H   0  0  0  0  0  0  0  0  0  0  0  0
  151.7595  142.4146  157.9340 H   0  0  0  0  0  0  0  0  0  0  0  0
  150.3018  141.4569  158.1816 H   0  0  0  0  0  0  0  0  0  0  0  0
  1  2  1  0  0  0  0
  1 22  1  0  0  0  0
  1 23  1  0  0  0  0
  1 24  1  0  0  0  0
  2 20  1  0  0  0  0
  2  3  1  0  0  0  0
  2 25  1  0  0  0  0
  3  4  1  0  0  0  0
  3 26  1  0  0  0  0
  3 27  1  0  0  0  0
  4  5  1  0  0  0  0
  4 17  1  0  0  0  0
  5  6  1  0  0  0  0
  5 28  1  0  0  0  0
  5 29  1  0  0  0  0
  6  7  1  0  0  0  0
  6 30  1  0  0  0  0
  6 31  1  0  0  0  0
  7  8  1  0  0  0  0
  7 32  1  0  0  0  0
  7 33  1  0  0  0  0
  8  9  1  0  0  0  0
  8 34  1  0  0  0  0
  9 10  2  0  0  0  0
  9 11  1  0  0  0  0
 11 12  1  0  0  0  0
 11 35  1  0  0  0  0
 12 16  2  0  0  0  0
 12 13  1  0  0  0  0
 13 14  2  0  0  0  0
 13 36  1  0  0  0  0
 14 15  1  0  0  0  0
 15 21  1  0  0  0  0
 15 16  1  0  0  0  0
 16 37  1  0  0  0  0
 17 18  1  0  0  0  0
 17 38  1  0  0  0  0
 17 39  1  0  0  0  0
 18 19  1  0  0  0  0
 18 20  1  0  0  0  0
 18 40  1  0  0  0  0
 19 41  1  0  0  0  0
 19 42  1  0  0  0  0
 19 43  1  0  0  0  0
M  END
> <s_m_source_file>
AV-unprocessed.smi

> <i_m_source_file_index>
1900

> <i_lp_mmshare_version>
43012

> <i_f3d_flags>
0

> <s_epik_input>
W0NIM11bQ0BASF0xW0NIMl1OKFtDSDJdW0NASF0oTzEpW0NIM10pW0NIMl1bQ0gyXVtDSDJdW05IXUMoPU8pW05IXWMyW2NIXW5bbkhdW2NIXTI=

> <s_epik_cmdline>
J2VwaWtfcHl0aG9uJywgJy1waCcsICc3LjAnLCAnLXRuJywgJzgnLCAnLW1hJywgJzIwMCcsICctbWV0YWxfYmluZGluZycsICctaW1hZScsICc8aW5maWxlLm1hZT4nLCAnLW9tYWUnLCAnPG91dGZpbGUubWFlPic=

> <r_lp_tautomer_probability>
0.5

> <r_epik_Ionization_Penalty>
0.594715

> <r_epik_Ionization_Penalty_Charging>
0

> <r_epik_Ionization_Penalty_Neutral>
0.594715

> <r_epik_State_Penalty>
0.608529

> <r_epik_Charging_Adjusted_Penalty>
0.608529

> <i_epik_Tot_Q>
0

> <i_epik_Tot_abs_Q>
0

> <r_epik_Metal_State_Penalty>
0.608528

> <b_epik_Metal_Only>
0

> <s_lp_Force_Field>
OPLS_2005

> <r_lp_Energy>
22.5064

> <b_lp_Chiralities_Consistent>
1

> <s_lp_Variant>
AV-unprocessed.smi:1900-6

> <Gold.Version>
5.8.1

> <Gold.Id.Protein>
6NUR|6NUR_protein|mol2

> <Gold.PLP.Fitness>
44.4826

> <Gold.PLP.PLP>
-30.9365

> <Gold.PLP.part.hbond>
-4.4457

> <Gold.PLP.part.metal>
0.0000

> <Gold.PLP.part.buried>
1.4705

> <Gold.PLP.part.nonpolar>
-29.4487

> <Gold.PLP.part.repulsive>
0.9944

> <Gold.PLP.ligand.clash>
0.0000

> <Gold.PLP.ligand.torsion>
0.5316

> <Gold.PLP.Chemscore.Hbond>
3.8560

> <Gold.PLP.Chemscore.CHOScore>
1.0000

> <Gold.PLP.Chemscore.Metal>
0.0000

> <Gold.Chemscore.Hbonds>
donor molecule, donor type, donor heavy atom, donor atom, acceptor molecule, acceptor atom, score
      L1  H     8    34       P1  7948  0.98
      L1  H    11    35       P1  7948  1.00
      L1  H    15    21       P1 10186  0.98
      P1  H  7989  7998       L1     4  0.85
      L1  C    16    37       P1 10171  0.94

> <Gold.PLP.Chemscore.Internal.Correction>
0.0413

> <Gold.Rescore>
     Score         DG    S(hbond)    S(metal)    S(lipo)     H(rot)  DE(clash)    DE(int)     intcor
     16.11     -19.17       2.86        0.00      76.43       1.88       2.31       0.76       ----

> <Gold.Chemscore.Fitness>
16.1068

> <Gold.Chemscore.DG>
-19.1715

> <Gold.Chemscore.ZeroCoef>
-5.4800

> <Gold.Chemscore.Hbond>
2.8628

> <Gold.Chemscore.Metal>
0.0000

> <Gold.Chemscore.Lipo>
76.4291

> <Gold.Chemscore.Internal_Hbond>
0.0000

> <Gold.Chemscore.DEClash>
2.3052

> <Gold.Chemscore.DEInternal>
0.7595

> <Gold.Chemscore.Rot>
1.8799

> <Gold.Chemscore.Internal.Correction>
   9.000000E+99

> <Gold.Chemscore.Hbonds>
donor molecule, donor type, donor heavy atom, donor atom, acceptor molecule, acceptor atom, score
      L1  H     8    34       P1  7948  0.91
      L1  H    11    35       P1  7948  0.99
      L1  H    15    21       P1 10186  0.93
      P1  H  7989  7998       L1     4  0.08

> <Gold.Chemscore.Hbond.Weighted>
-9.5618

> <Gold.Chemscore.Metal.Weighted>
-0.0000

> <Gold.Chemscore.Lipo.Weighted>
-8.9422

> <Gold.Chemscore.Internal_Hbond.Weighted>
0.0000

> <Gold.Chemscore.DEClash.Weighted>
2.3052

> <Gold.Chemscore.DEInternal.Weighted>
0.7595

> <Gold.Chemscore.Rot.Weighted>
4.8126

> <Gold.Chemscore.Internal.Correction.Weighted>
   9.000000E+99

> <Gold.Protein.RotatedTorsions>
[ 6907 6896 6895 6894 ] final  -22.78 input  -60.11 | X-H torsion
[ 7974 7965 7964 7962 ] final  -52.98 input  175.53 | X-H torsion
[ 8008 7997 7996 7995 ] final  -60.49 input   59.86 | X-H torsion
[ 10167 10162 10161 10158 ] final  -30.62 input  -65.29 | X-H torsion
[ 10718 10713 10712 10709 ] final   17.89 input   66.30 | X-H torsion
[ 10763 10752 10751 10750 ] final  -62.25 input  -60.55 | X-H torsion
[ 11005 11000 10999 10996 ] final  -84.38 input  -57.11 | X-H torsion

> <Gold.Protein.ActiveResidues>
 VAL166  LYS551  ARG553  GLY616  TRP617  ASP618  TYR619  PRO620  LYS621  CYS622 
 ASP623  PHE694  ASN695  SER759  ASP760  ASP761  ALA762  ILE779  LEU786  VAL792 
 PHE793  MET794  SER795  GLU796  ALA797  LYS798  CYS799  TRP800  GLU811  SER814 

> <Gold.Protein.RotatedAtoms>
  151.2135  135.0491  159.8920 H   0  0  0  0  0  0  0  0  0  0  0  0  # atno 6907 bound_to 6896
  152.5422  134.0718  159.8207 H   0  0  0  0  0  0  0  0  0  0  0  0  # atno 6908 bound_to 6896
  151.0875  133.5294  159.2648 H   0  0  0  0  0  0  0  0  0  0  0  0  # atno 6909 bound_to 6896
  145.9019  140.7987  142.9739 H   0  0  0  0  0  0  0  0  0  0  0  0  # atno 7974 bound_to 7965
  154.4401  140.1038  156.6281 H   0  0  0  0  0  0  0  0  0  0  0  0  # atno 8008 bound_to 7997
  155.5634  140.3488  155.4478 H   0  0  0  0  0  0  0  0  0  0  0  0  # atno 8009 bound_to 7997
  156.0443  140.1289  157.0111 H   0  0  0  0  0  0  0  0  0  0  0  0  # atno 8010 bound_to 7997
  140.7247  143.3835  151.1558 H   0  0  0  0  0  0  0  0  0  0  0  0  # atno 10167 bound_to 10162
  157.0886  130.6418  149.5843 H   0  0  0  0  0  0  0  0  0  0  0  0  # atno 10718 bound_to 10713
  154.2970  135.6242  153.5409 H   0  0  0  0  0  0  0  0  0  0  0  0  # atno 10763 bound_to 10752
  152.9845  135.5669  154.5326 H   0  0  0  0  0  0  0  0  0  0  0  0  # atno 10764 bound_to 10752
  154.4949  135.2869  155.1443 H   0  0  0  0  0  0  0  0  0  0  0  0  # atno 10765 bound_to 10752
  141.1651  133.7343  156.8859 H   0  0  0  0  0  0  0  0  0  0  0  0  # atno 11005 bound_to 11000
  144.6736  140.1690  143.7416 LP  0  0  0  0  0  0  0  0  0  0  0  0  # atno 17320 bound_to 7965
  145.8780  139.2308  143.1622 LP  0  0  0  0  0  0  0  0  0  0  0  0  # atno 17321 bound_to 7965
  139.7428  143.8898  152.3055 LP  0  0  0  0  0  0  0  0  0  0  0  0  # atno 17342 bound_to 10162
  139.8725  144.7060  150.8971 LP  0  0  0  0  0  0  0  0  0  0  0  0  # atno 17343 bound_to 10162
  155.9904  130.4955  150.7255 LP  0  0  0  0  0  0  0  0  0  0  0  0  # atno 17370 bound_to 10713
  157.4740  131.0896  151.0611 LP  0  0  0  0  0  0  0  0  0  0  0  0  # atno 17371 bound_to 10713
  140.1682  134.9118  157.2800 LP  0  0  0  0  0  0  0  0  0  0  0  0  # atno 17394 bound_to 11000
  140.2532  134.3658  155.7434 LP  0  0  0  0  0  0  0  0  0  0  0  0  # atno 17395 bound_to 11000

$$$$
