AV-unprocessed.smi:180|AV-procd|sdf|1451|dock3
  -GOLD-   2262019253D 1   1.00000     0.00000
 Structure written by MMmdl.
 54 57  0  0  0  0  0  0  0  0  1 V2000
  154.4084  136.6231  162.8998 C   0  0  0  0  0  0  0  0  0  0  0  0
  154.7740  138.0952  162.7397 C   0  0  0  0  0  0  0  0  0  0  0  0
  155.4866  138.6432  163.5798 O   0  0  0  0  0  0  0  0  0  0  0  0
  154.2800  138.7217  161.6609 N   0  0  0  0  0  0  0  0  0  0  0  0
  154.5237  140.1184  161.3103 C   0  0  0  0  0  0  0  0  0  0  0  0
  153.3432  140.7624  160.5573 C   0  0  2  0  0  0  0  0  0  0  0  0
  153.2750  140.3688  159.0670 C   0  0  0  0  0  0  0  0  0  0  0  0
  152.1673  141.0608  158.4126 N   0  0  0  0  0  0  0  0  0  0  0  0
  151.8023  140.6487  157.1713 C   0  0  0  0  0  0  0  0  0  0  0  0
  152.6551  139.8915  156.4298 N   0  0  0  0  0  0  0  0  0  0  0  0
  152.3083  139.4826  155.2061 C   0  0  0  0  0  0  0  0  0  0  0  0
  151.1734  139.7074  154.5422 N   0  0  0  0  0  0  0  0  0  0  0  0
  150.3079  140.4568  155.2828 C   0  0  0  0  0  0  0  0  0  0  0  0
  150.5409  140.9672  156.5917 C   0  0  0  0  0  0  0  0  0  0  0  0
  149.4273  141.6780  157.0242 N   0  0  0  0  0  0  0  0  0  0  0  0
  148.5911  141.6025  156.0254 C   0  0  0  0  0  0  0  0  0  0  0  0
  149.0324  140.8740  154.9439 N   0  0  0  0  0  0  0  0  0  0  0  0
  148.3091  140.6243  153.7065 C   0  0  0  0  0  0  0  0  0  0  0  0
  147.5094  139.2964  153.6854 C   0  0  0  0  0  0  0  0  0  0  0  0
  148.4724  138.2771  153.8847 O   0  0  0  0  0  0  0  0  0  0  0  0
  146.4610  139.2025  154.8155 C   0  0  0  0  0  0  0  0  0  0  0  0
  145.6202  137.9171  154.7134 C   0  0  0  0  0  0  0  0  0  0  0  0
  145.0054  137.8372  153.4325 O   0  0  0  0  0  0  0  0  0  0  0  0
  145.9476  137.7630  152.3687 C   0  0  0  0  0  0  0  0  0  0  0  0
  146.8062  139.0402  152.3349 C   0  0  0  0  0  0  0  0  0  0  0  0
  152.2058  142.5074  158.6015 C   0  0  0  0  0  0  0  0  0  0  0  0
  152.3039  142.8418  160.0988 C   0  0  0  0  0  0  0  0  0  0  0  0
  153.4297  142.1812  160.6672 O   0  0  0  0  0  0  0  0  0  0  0  0
  154.0126  136.2063  161.9728 H   0  0  0  0  0  0  0  0  0  0  0  0
  153.6546  136.5066  163.6786 H   0  0  0  0  0  0  0  0  0  0  0  0
  155.2876  136.0441  163.1837 H   0  0  0  0  0  0  0  0  0  0  0  0
  153.7011  138.1888  161.0282 H   0  0  0  0  0  0  0  0  0  0  0  0
  154.6952  140.6621  162.2395 H   0  0  0  0  0  0  0  0  0  0  0  0
  155.4425  140.2155  160.7295 H   0  0  0  0  0  0  0  0  0  0  0  0
  152.4242  140.4398  161.0502 H   0  0  0  0  0  0  0  0  0  0  0  0
  154.2046  140.6297  158.5594 H   0  0  0  0  0  0  0  0  0  0  0  0
  153.1458  139.2890  158.9795 H   0  0  0  0  0  0  0  0  0  0  0  0
  153.0454  138.8894  154.6852 H   0  0  0  0  0  0  0  0  0  0  0  0
  147.6179  142.0711  156.0542 H   0  0  0  0  0  0  0  0  0  0  0  0
  147.6389  141.4678  153.5340 H   0  0  0  0  0  0  0  0  0  0  0  0
  149.0296  140.6402  152.8874 H   0  0  0  0  0  0  0  0  0  0  0  0
  148.6601  137.8746  153.0505 H   0  0  0  0  0  0  0  0  0  0  0  0
  146.9430  139.2615  155.7921 H   0  0  0  0  0  0  0  0  0  0  0  0
  145.7781  140.0501  154.7588 H   0  0  0  0  0  0  0  0  0  0  0  0
  146.2296  137.0301  154.8933 H   0  0  0  0  0  0  0  0  0  0  0  0
  144.8402  137.9222  155.4749 H   0  0  0  0  0  0  0  0  0  0  0  0
  146.5678  136.8721  152.4784 H   0  0  0  0  0  0  0  0  0  0  0  0
  145.4056  137.6544  151.4293 H   0  0  0  0  0  0  0  0  0  0  0  0
  146.1489  139.8754  152.0942 H   0  0  0  0  0  0  0  0  0  0  0  0
  147.5368  138.9810  151.5272 H   0  0  0  0  0  0  0  0  0  0  0  0
  153.0718  142.9094  158.0739 H   0  0  0  0  0  0  0  0  0  0  0  0
  151.3266  142.9926  158.1805 H   0  0  0  0  0  0  0  0  0  0  0  0
  152.4178  143.9171  160.2362 H   0  0  0  0  0  0  0  0  0  0  0  0
  151.3928  142.5485  160.6230 H   0  0  0  0  0  0  0  0  0  0  0  0
  1  2  1  0  0  0  0
  1 29  1  0  0  0  0
  1 30  1  0  0  0  0
  1 31  1  0  0  0  0
  2  3  2  0  0  0  0
  2  4  1  0  0  0  0
  4  5  1  0  0  0  0
  4 32  1  0  0  0  0
  5  6  1  0  0  0  0
  5 33  1  0  0  0  0
  5 34  1  0  0  0  0
  6 28  1  0  0  0  0
  6  7  1  0  0  0  0
  6 35  1  0  0  0  0
  7  8  1  0  0  0  0
  7 36  1  0  0  0  0
  7 37  1  0  0  0  0
  8  9  1  0  0  0  0
  8 26  1  0  0  0  0
  9 14  1  0  0  0  0
  9 10  2  0  0  0  0
 10 11  1  0  0  0  0
 11 12  2  0  0  0  0
 11 38  1  0  0  0  0
 12 13  1  0  0  0  0
 13 17  1  0  0  0  0
 13 14  2  0  0  0  0
 14 15  1  0  0  0  0
 15 16  2  0  0  0  0
 16 17  1  0  0  0  0
 16 39  1  0  0  0  0
 17 18  1  0  0  0  0
 18 19  1  0  0  0  0
 18 40  1  0  0  0  0
 18 41  1  0  0  0  0
 19 25  1  0  0  0  0
 19 20  1  0  0  0  0
 19 21  1  0  0  0  0
 20 42  1  0  0  0  0
 21 22  1  0  0  0  0
 21 43  1  0  0  0  0
 21 44  1  0  0  0  0
 22 23  1  0  0  0  0
 22 45  1  0  0  0  0
 22 46  1  0  0  0  0
 23 24  1  0  0  0  0
 24 25  1  0  0  0  0
 24 47  1  0  0  0  0
 24 48  1  0  0  0  0
 25 49  1  0  0  0  0
 25 50  1  0  0  0  0
 26 27  1  0  0  0  0
 26 51  1  0  0  0  0
 26 52  1  0  0  0  0
 27 28  1  0  0  0  0
 27 53  1  0  0  0  0
 27 54  1  0  0  0  0
M  END
> <s_m_source_file>
AV-unprocessed.smi

> <i_m_source_file_index>
180

> <i_lp_mmshare_version>
43012

> <i_f3d_flags>
0

> <s_epik_input>
W0NIM11DKD1PKVtOSF1bQ0gyXVtDQEBIXTFbQ0gyXU4oW0NIMl1bQ0gyXU8xKWMobltjSF1uMiljKGMyMyluW2NIXW4zW0NIMl1DNChbT0hdKVtDSDJdW0NIMl1PW0NIMl1bQ0gyXTQ=

> <s_epik_cmdline>
J2VwaWtfcHl0aG9uJywgJy1waCcsICc3LjAnLCAnLXRuJywgJzgnLCAnLW1hJywgJzIwMCcsICctbWV0YWxfYmluZGluZycsICctaW1hZScsICc8aW5maWxlLm1hZT4nLCAnLW9tYWUnLCAnPG91dGZpbGUubWFlPic=

> <r_lp_tautomer_probability>
1

> <r_epik_Ionization_Penalty>
7.38871e-05

> <r_epik_Ionization_Penalty_Charging>
0

> <r_epik_Ionization_Penalty_Neutral>
7.38871e-05

> <r_epik_State_Penalty>
-0

> <r_epik_Charging_Adjusted_Penalty>
0

> <i_epik_Tot_Q>
0

> <i_epik_Tot_abs_Q>
0

> <r_epik_Metal_State_Penalty>
-0

> <b_epik_Metal_Only>
0

> <s_lp_Force_Field>
OPLS_2005

> <r_lp_Energy>
31.1245

> <b_lp_Chiralities_Consistent>
1

> <s_lp_Variant>
AV-unprocessed.smi:180-1

> <Gold.Version>
5.8.1

> <Gold.Id.Protein>
6NUR|6NUR_protein|mol2

> <Gold.PLP.Fitness>
50.9940

> <Gold.PLP.PLP>
-43.7225

> <Gold.PLP.part.hbond>
-3.0000

> <Gold.PLP.part.metal>
0.0000

> <Gold.PLP.part.buried>
-1.1547

> <Gold.PLP.part.nonpolar>
-39.1875

> <Gold.PLP.part.repulsive>
0.3868

> <Gold.PLP.ligand.clash>
0.0000

> <Gold.PLP.ligand.torsion>
0.9694

> <Gold.PLP.Chemscore.Hbond>
2.9500

> <Gold.PLP.Chemscore.CHOScore>
0.0000

> <Gold.PLP.Chemscore.Metal>
0.0000

> <Gold.Chemscore.Hbonds>
donor molecule, donor type, donor heavy atom, donor atom, acceptor molecule, acceptor atom, score
      L1  H    20    42       P1  7948  1.00
      P1  H  7989  7998       L1    12  0.90
      P1  H  7997  8010       L1    10  1.00

> <Gold.PLP.Chemscore.Internal.Correction>
0.3603

> <Gold.Rescore>
     Score         DG    S(hbond)    S(metal)    S(lipo)     H(rot)  DE(clash)    DE(int)     intcor
     12.45     -14.22       1.88        0.00      86.53       2.99       0.75       1.02       ----

> <Gold.Chemscore.Fitness>
12.4527

> <Gold.Chemscore.DG>
-14.2224

> <Gold.Chemscore.ZeroCoef>
-5.4800

> <Gold.Chemscore.Hbond>
1.8768

> <Gold.Chemscore.Metal>
0.0000

> <Gold.Chemscore.Lipo>
86.5329

> <Gold.Chemscore.Internal_Hbond>
0.0000

> <Gold.Chemscore.DEClash>
0.7503

> <Gold.Chemscore.DEInternal>
1.0193

> <Gold.Chemscore.Rot>
2.9885

> <Gold.Chemscore.Internal.Correction>
   9.000000E+99

> <Gold.Chemscore.Hbonds>
donor molecule, donor type, donor heavy atom, donor atom, acceptor molecule, acceptor atom, score
      L1  H    20    42       P1  7948  0.91
      P1  H  7989  7998       L1    12  0.05
      P1  H  7997  8010       L1    10  0.35

> <Gold.Chemscore.Hbond.Weighted>
-6.2686

> <Gold.Chemscore.Metal.Weighted>
-0.0000

> <Gold.Chemscore.Lipo.Weighted>
-10.1243

> <Gold.Chemscore.Internal_Hbond.Weighted>
0.0000

> <Gold.Chemscore.DEClash.Weighted>
0.7503

> <Gold.Chemscore.DEInternal.Weighted>
1.0193

> <Gold.Chemscore.Rot.Weighted>
7.6506

> <Gold.Chemscore.Internal.Correction.Weighted>
   9.000000E+99

> <Gold.Protein.RotatedTorsions>
[ 6907 6896 6895 6894 ] final -117.11 input  -60.11 | X-H torsion
[ 7974 7965 7964 7962 ] final   66.05 input  175.53 | X-H torsion
[ 8008 7997 7996 7995 ] final   82.15 input   59.86 | X-H torsion
[ 10167 10162 10161 10158 ] final  136.77 input  -65.29 | X-H torsion
[ 10718 10713 10712 10709 ] final  -59.28 input   66.30 | X-H torsion
[ 10763 10752 10751 10750 ] final  -31.56 input  -60.55 | X-H torsion
[ 11005 11000 10999 10996 ] final  -52.27 input  -57.11 | X-H torsion

> <Gold.Protein.ActiveResidues>
 VAL166  LYS551  ARG553  GLY616  TRP617  ASP618  TYR619  PRO620  LYS621  CYS622 
 ASP623  PHE694  ASN695  SER759  ASP760  ASP761  ALA762  ILE779  LEU786  VAL792 
 PHE793  MET794  SER795  GLU796  ALA797  LYS798  CYS799  TRP800  GLU811  SER814 

> <Gold.Protein.RotatedAtoms>
  150.8110  133.8422  159.3182 H   0  0  0  0  0  0  0  0  0  0  0  0  # atno 6907 bound_to 6896
  151.6207  135.1030  160.0110 H   0  0  0  0  0  0  0  0  0  0  0  0  # atno 6908 bound_to 6896
  152.4202  133.7064  159.6510 H   0  0  0  0  0  0  0  0  0  0  0  0  # atno 6909 bound_to 6896
  145.8312  139.3140  143.0986 H   0  0  0  0  0  0  0  0  0  0  0  0  # atno 7974 bound_to 7965
  155.9068  140.3430  155.6068 H   0  0  0  0  0  0  0  0  0  0  0  0  # atno 8008 bound_to 7997
  155.7435  140.0811  157.2253 H   0  0  0  0  0  0  0  0  0  0  0  0  # atno 8009 bound_to 7997
  154.4050  140.1566  156.2631 H   0  0  0  0  0  0  0  0  0  0  0  0  # atno 8010 bound_to 7997
  139.5168  144.6446  151.5474 H   0  0  0  0  0  0  0  0  0  0  0  0  # atno 10167 bound_to 10162
  156.1073  130.4179  150.0693 H   0  0  0  0  0  0  0  0  0  0  0  0  # atno 10718 bound_to 10713
  153.7994  135.6891  153.4858 H   0  0  0  0  0  0  0  0  0  0  0  0  # atno 10763 bound_to 10752
  153.1698  135.4547  154.9885 H   0  0  0  0  0  0  0  0  0  0  0  0  # atno 10764 bound_to 10752
  154.8012  135.3338  154.7484 H   0  0  0  0  0  0  0  0  0  0  0  0  # atno 10765 bound_to 10752
  141.0915  133.6632  156.3999 H   0  0  0  0  0  0  0  0  0  0  0  0  # atno 11005 bound_to 11000
  145.9569  140.8865  143.0230 LP  0  0  0  0  0  0  0  0  0  0  0  0  # atno 17320 bound_to 7965
  144.6739  140.1758  143.7410 LP  0  0  0  0  0  0  0  0  0  0  0  0  # atno 17321 bound_to 7965
  140.6226  143.9229  150.6538 LP  0  0  0  0  0  0  0  0  0  0  0  0  # atno 17342 bound_to 10162
  140.2507  143.3595  152.1408 LP  0  0  0  0  0  0  0  0  0  0  0  0  # atno 17343 bound_to 10162
  156.8665  130.9509  151.3613 LP  0  0  0  0  0  0  0  0  0  0  0  0  # atno 17370 bound_to 10713
  157.6251  130.8685  149.9176 LP  0  0  0  0  0  0  0  0  0  0  0  0  # atno 17371 bound_to 10713
  140.5240  134.6277  157.5328 LP  0  0  0  0  0  0  0  0  0  0  0  0  # atno 17394 bound_to 11000
  139.9742  134.7242  155.9981 LP  0  0  0  0  0  0  0  0  0  0  0  0  # atno 17395 bound_to 11000

$$$$
