AV-unprocessed.smi:2104|AV-procd|sdf|8583|dock10
  -GOLD-   2272011313D 1   1.00000     0.00000
 Structure written by MMmdl.
 43 44  0  0  0  0  0  0  0  0  1 V2000
  148.2739  131.1509  153.6379 C   0  0  0  0  0  0  0  0  0  0  0  0
  148.9399  132.4000  154.1040 C   0  0  0  0  0  0  0  0  0  0  0  0
  149.0088  133.6649  153.5913 C   0  0  0  0  0  0  0  0  0  0  0  0
  149.8042  134.3538  154.5453 C   0  0  0  0  0  0  0  0  0  0  0  0
  150.1185  135.7263  154.3753 N   0  0  0  0  0  0  0  0  0  0  0  0
  151.0431  136.4430  155.0364 C   0  0  0  0  0  0  0  0  0  0  0  0
  151.7606  136.0128  155.9400 O   0  0  0  0  0  0  0  0  0  0  0  0
  151.0934  137.7047  154.5847 N   0  0  0  0  0  0  0  0  0  0  0  0
  152.0169  138.7315  155.0563 C   0  0  0  0  0  0  0  0  0  0  0  0
  151.3663  139.6261  156.1212 C   0  0  0  0  0  0  0  0  0  0  0  0
  152.3794  140.1600  156.9595 O   0  0  0  0  0  0  0  0  0  0  0  0
  151.9043  140.9746  158.0218 C   0  0  2  0  0  0  0  0  0  0  0  0
  151.3450  142.2885  157.4360 C   0  0  0  0  0  0  0  0  0  0  0  0
  150.9532  143.2792  158.5421 C   0  0  0  0  0  0  0  0  0  0  0  0
  152.1408  143.5604  159.4730 C   0  0  0  0  0  0  0  0  0  0  0  0
  152.6926  142.2567  160.0691 C   0  0  0  0  0  0  0  0  0  0  0  0
  153.0922  141.2501  158.9714 C   0  0  1  0  0  0  0  0  0  0  0  0
  153.6333  139.9534  159.5956 C   0  0  0  0  0  0  0  0  0  0  0  0
  150.1871  133.5792  155.5489 N   0  0  0  0  0  0  0  0  0  0  0  0
  149.6348  132.3231  155.2712 O   0  0  0  0  0  0  0  0  0  0  0  0
  147.7276  131.3229  152.7104 H   0  0  0  0  0  0  0  0  0  0  0  0
  147.5671  130.7884  154.3844 H   0  0  0  0  0  0  0  0  0  0  0  0
  149.0084  130.3658  153.4573 H   0  0  0  0  0  0  0  0  0  0  0  0
  148.5611  134.0341  152.6805 H   0  0  0  0  0  0  0  0  0  0  0  0
  149.5928  136.2110  153.6633 H   0  0  0  0  0  0  0  0  0  0  0  0
  150.4622  137.9700  153.8431 H   0  0  0  0  0  0  0  0  0  0  0  0
  152.8775  138.2219  155.4899 H   0  0  0  0  0  0  0  0  0  0  0  0
  152.3980  139.3298  154.2272 H   0  0  0  0  0  0  0  0  0  0  0  0
  150.7829  140.4135  155.6430 H   0  0  0  0  0  0  0  0  0  0  0  0
  150.6783  139.0366  156.7287 H   0  0  0  0  0  0  0  0  0  0  0  0
  151.1233  140.4547  158.5806 H   0  0  0  0  0  0  0  0  0  0  0  0
  152.0947  142.7463  156.7890 H   0  0  0  0  0  0  0  0  0  0  0  0
  150.4781  142.0907  156.8063 H   0  0  0  0  0  0  0  0  0  0  0  0
  150.5986  144.2103  158.0992 H   0  0  0  0  0  0  0  0  0  0  0  0
  150.1219  142.8736  159.1201 H   0  0  0  0  0  0  0  0  0  0  0  0
  152.9283  144.0726  158.9187 H   0  0  0  0  0  0  0  0  0  0  0  0
  151.8355  144.2356  160.2729 H   0  0  0  0  0  0  0  0  0  0  0  0
  153.5537  142.4817  160.6994 H   0  0  0  0  0  0  0  0  0  0  0  0
  151.9407  141.8112  160.7220 H   0  0  0  0  0  0  0  0  0  0  0  0
  153.8972  141.6969  158.3855 H   0  0  0  0  0  0  0  0  0  0  0  0
  152.8681  139.4482  160.1855 H   0  0  0  0  0  0  0  0  0  0  0  0
  154.4794  140.1571  160.2521 H   0  0  0  0  0  0  0  0  0  0  0  0
  153.9761  139.2570  158.8298 H   0  0  0  0  0  0  0  0  0  0  0  0
  1  2  1  0  0  0  0
  1 21  1  0  0  0  0
  1 22  1  0  0  0  0
  1 23  1  0  0  0  0
  2 20  1  0  0  0  0
  2  3  2  0  0  0  0
  3  4  1  0  0  0  0
  3 24  1  0  0  0  0
  4  5  1  0  0  0  0
  4 19  2  0  0  0  0
  5  6  1  0  0  0  0
  5 25  1  0  0  0  0
  6  7  2  0  0  0  0
  6  8  1  0  0  0  0
  8  9  1  0  0  0  0
  8 26  1  0  0  0  0
  9 10  1  0  0  0  0
  9 27  1  0  0  0  0
  9 28  1  0  0  0  0
 10 11  1  0  0  0  0
 10 29  1  0  0  0  0
 10 30  1  0  0  0  0
 11 12  1  0  0  0  0
 12 17  1  0  0  0  0
 12 13  1  0  0  0  0
 12 31  1  0  0  0  0
 13 14  1  0  0  0  0
 13 32  1  0  0  0  0
 13 33  1  0  0  0  0
 14 15  1  0  0  0  0
 14 34  1  0  0  0  0
 14 35  1  0  0  0  0
 15 16  1  0  0  0  0
 15 36  1  0  0  0  0
 15 37  1  0  0  0  0
 16 17  1  0  0  0  0
 16 38  1  0  0  0  0
 16 39  1  0  0  0  0
 17 18  1  0  0  0  0
 17 40  1  0  0  0  0
 18 41  1  0  0  0  0
 18 42  1  0  0  0  0
 18 43  1  0  0  0  0
 19 20  1  0  0  0  0
M  END
> <s_m_source_file>
AV-unprocessed.smi

> <i_m_source_file_index>
2104

> <i_lp_mmshare_version>
43012

> <i_f3d_flags>
0

> <s_epik_input>
W0NIM11jMVtjSF1jKG5vMSlbTkhdQyg9TylbTkhdW0NIMl1bQ0gyXU9bQ0BASF0yW0NIMl1bQ0gyXVtDSDJdW0NIMl1bQ0BIXTJbQ0gzXQ==

> <s_epik_cmdline>
J2VwaWtfcHl0aG9uJywgJy1waCcsICc3LjAnLCAnLXRuJywgJzgnLCAnLW1hJywgJzIwMCcsICctbWV0YWxfYmluZGluZycsICctaW1hZScsICc8aW5maWxlLm1hZT4nLCAnLW9tYWUnLCAnPG91dGZpbGUubWFlPic=

> <r_lp_tautomer_probability>
1

> <r_epik_Ionization_Penalty>
2.94418e-05

> <r_epik_Ionization_Penalty_Charging>
0

> <r_epik_Ionization_Penalty_Neutral>
2.94418e-05

> <r_epik_State_Penalty>
-0

> <r_epik_Charging_Adjusted_Penalty>
0

> <i_epik_Tot_Q>
0

> <i_epik_Tot_abs_Q>
0

> <r_epik_Metal_State_Penalty>
0.0104148

> <b_epik_Metal_Only>
0

> <s_lp_Force_Field>
OPLS_2005

> <r_lp_Energy>
8.87971

> <b_lp_Chiralities_Consistent>
1

> <s_lp_Variant>
AV-unprocessed.smi:2104-1

> <Gold.Version>
5.8.1

> <Gold.Id.Protein>
6NUR|6NUR_protein|mol2

> <Gold.PLP.Fitness>
44.4103

> <Gold.PLP.PLP>
-37.2223

> <Gold.PLP.part.hbond>
-3.8088

> <Gold.PLP.part.metal>
0.0000

> <Gold.PLP.part.buried>
-2.1510

> <Gold.PLP.part.nonpolar>
-30.5592

> <Gold.PLP.part.repulsive>
0.2129

> <Gold.PLP.ligand.clash>
0.0000

> <Gold.PLP.ligand.torsion>
0.4102

> <Gold.PLP.Chemscore.Hbond>
2.6600

> <Gold.PLP.Chemscore.CHOScore>
0.0000

> <Gold.PLP.Chemscore.Metal>
0.0000

> <Gold.Chemscore.Hbonds>
donor molecule, donor type, donor heavy atom, donor atom, acceptor molecule, acceptor atom, score
      L1  H     5    25       P1  7948  0.93
      P1  H  7997  8009       L1    11  1.00
      P1  H 10752 10765       L1     7  0.65

> <Gold.PLP.Chemscore.Internal.Correction>
0.0284

> <Gold.Rescore>
     Score         DG    S(hbond)    S(metal)    S(lipo)     H(rot)  DE(clash)    DE(int)     intcor
     15.58     -17.24       1.60        0.00      93.29       1.75       0.04       1.62       ----

> <Gold.Chemscore.Fitness>
15.5779

> <Gold.Chemscore.DG>
-17.2375

> <Gold.Chemscore.ZeroCoef>
-5.4800

> <Gold.Chemscore.Hbond>
1.5953

> <Gold.Chemscore.Metal>
0.0000

> <Gold.Chemscore.Lipo>
93.2946

> <Gold.Chemscore.Internal_Hbond>
0.0000

> <Gold.Chemscore.DEClash>
0.0411

> <Gold.Chemscore.DEInternal>
1.6185

> <Gold.Chemscore.Rot>
1.7524

> <Gold.Chemscore.Internal.Correction>
   9.000000E+99

> <Gold.Chemscore.Hbonds>
donor molecule, donor type, donor heavy atom, donor atom, acceptor molecule, acceptor atom, score
      L1  H     5    25       P1  7948  0.45
      P1  H  7997  8009       L1    11  0.89
      P1  H 10752 10765       L1     7  0.06

> <Gold.Chemscore.Hbond.Weighted>
-5.3282

> <Gold.Chemscore.Metal.Weighted>
-0.0000

> <Gold.Chemscore.Lipo.Weighted>
-10.9155

> <Gold.Chemscore.Internal_Hbond.Weighted>
0.0000

> <Gold.Chemscore.DEClash.Weighted>
0.0411

> <Gold.Chemscore.DEInternal.Weighted>
1.6185

> <Gold.Chemscore.Rot.Weighted>
4.4861

> <Gold.Chemscore.Internal.Correction.Weighted>
   9.000000E+99

> <Gold.Protein.RotatedTorsions>
[ 6907 6896 6895 6894 ] final  -57.13 input  -60.11 | X-H torsion
[ 7974 7965 7964 7962 ] final  123.62 input  175.53 | X-H torsion
[ 8008 7997 7996 7995 ] final -177.75 input   59.86 | X-H torsion
[ 10167 10162 10161 10158 ] final -155.05 input  -65.29 | X-H torsion
[ 10718 10713 10712 10709 ] final   73.07 input   66.30 | X-H torsion
[ 10763 10752 10751 10750 ] final -165.60 input  -60.55 | X-H torsion
[ 11005 11000 10999 10996 ] final   22.61 input  -57.11 | X-H torsion

> <Gold.Protein.ActiveResidues>
 VAL166  LYS551  ARG553  GLY616  TRP617  ASP618  TYR619  PRO620  LYS621  CYS622 
 ASP623  PHE694  ASN695  SER759  ASP760  ASP761  ALA762  ILE779  LEU786  VAL792 
 PHE793  MET794  SER795  GLU796  ALA797  LYS798  CYS799  TRP800  GLU811  SER814 

> <Gold.Protein.RotatedAtoms>
  150.8111  134.7265  159.6687 H   0  0  0  0  0  0  0  0  0  0  0  0  # atno 6907 bound_to 6896
  152.4230  134.5916  159.9985 H   0  0  0  0  0  0  0  0  0  0  0  0  # atno 6908 bound_to 6896
  151.6126  133.3308  159.3107 H   0  0  0  0  0  0  0  0  0  0  0  0  # atno 6909 bound_to 6896
  145.0938  139.3567  143.4847 H   0  0  0  0  0  0  0  0  0  0  0  0  # atno 7974 bound_to 7965
  156.0106  140.1240  157.0457 H   0  0  0  0  0  0  0  0  0  0  0  0  # atno 8008 bound_to 7997
  154.4274  140.1088  156.5894 H   0  0  0  0  0  0  0  0  0  0  0  0  # atno 8009 bound_to 7997
  155.6085  140.3471  155.4617 H   0  0  0  0  0  0  0  0  0  0  0  0  # atno 8010 bound_to 7997
  139.6963  143.9337  152.2408 H   0  0  0  0  0  0  0  0  0  0  0  0  # atno 10167 bound_to 10162
  157.6531  130.9610  150.1018 H   0  0  0  0  0  0  0  0  0  0  0  0  # atno 10718 bound_to 10713
  154.6916  135.2972  154.9471 H   0  0  0  0  0  0  0  0  0  0  0  0  # atno 10763 bound_to 10752
  154.0432  135.6654  153.4796 H   0  0  0  0  0  0  0  0  0  0  0  0  # atno 10764 bound_to 10752
  153.0616  135.5112  154.8012 H   0  0  0  0  0  0  0  0  0  0  0  0  # atno 10765 bound_to 10752
  140.3787  134.1944  155.7664 H   0  0  0  0  0  0  0  0  0  0  0  0  # atno 11005 bound_to 11000
  146.3531  140.0785  142.8619 LP  0  0  0  0  0  0  0  0  0  0  0  0  # atno 17320 bound_to 7965
  145.1034  140.9360  143.4699 LP  0  0  0  0  0  0  0  0  0  0  0  0  # atno 17321 bound_to 7965
  139.9167  144.6824  150.8505 LP  0  0  0  0  0  0  0  0  0  0  0  0  # atno 17342 bound_to 10162
  140.7697  143.3404  151.2220 LP  0  0  0  0  0  0  0  0  0  0  0  0  # atno 17343 bound_to 10162
  156.1939  130.3656  149.8875 LP  0  0  0  0  0  0  0  0  0  0  0  0  # atno 17370 bound_to 10713
  156.6796  130.8853  151.3574 LP  0  0  0  0  0  0  0  0  0  0  0  0  # atno 17371 bound_to 10713
  141.1930  133.8159  157.0814 LP  0  0  0  0  0  0  0  0  0  0  0  0  # atno 17394 bound_to 11000
  140.0495  134.9813  157.1110 LP  0  0  0  0  0  0  0  0  0  0  0  0  # atno 17395 bound_to 11000

$$$$
