AV-unprocessed.smi:2799|AV-procd|sdf|10789|dock9
  -GOLD-   2272015223D 1   1.00000     0.00000
 Structure written by MMmdl.
 52 53  0  0  0  0  0  0  0  0  2 V2000
  153.5499  138.7274  154.5339 C   0  0  0  0  0  0  0  0  0  0  0  0
  152.0855  138.6074  154.9873 C   0  0  0  0  0  0  0  0  0  0  0  0
  152.0135  138.1495  156.4517 C   0  0  0  0  0  0  0  0  0  0  0  0
  151.2778  137.6595  154.0785 C   0  0  0  0  0  0  0  0  0  0  0  0
  149.8129  137.7558  154.3440 N   0  3  2  0  0  0  0  0  0  0  0  0
  149.3955  139.1860  154.3765 C   0  0  0  0  0  0  0  0  0  0  0  0
  147.8816  139.3516  154.5298 C   0  0  0  0  0  0  0  0  0  0  0  0
  147.4215  138.6704  155.8149 C   0  0  0  0  0  0  0  0  0  0  0  0
  147.8128  137.1930  155.7643 C   0  0  0  0  0  0  0  0  0  0  0  0
  149.3298  136.9618  155.5237 C   0  0  1  0  0  0  0  0  0  0  0  0
  149.5940  135.4390  155.3405 C   0  0  0  0  0  0  0  0  0  0  0  0
  149.0062  134.9033  154.1144 N   0  0  0  0  0  0  0  0  0  0  0  0
  148.2042  133.8312  154.0366 C   0  0  0  0  0  0  0  0  0  0  0  0
  147.8918  133.1510  155.0133 O   0  0  0  0  0  0  0  0  0  0  0  0
  147.7989  133.6275  152.7695 N   0  0  0  0  0  0  0  0  0  0  0  0
  146.9762  132.6143  152.2462 C   0  0  0  0  0  0  0  0  0  0  0  0
  146.9802  131.3232  152.6634 C   0  0  0  0  0  0  0  0  0  0  0  0
  146.1041  130.3466  152.0621 C   0  0  0  0  0  0  0  0  0  0  0  0
  145.2946  130.7415  151.0697 C   0  0  0  0  0  0  0  0  0  0  0  0
  145.2838  132.0697  150.6117 N   0  0  0  0  0  0  0  0  0  0  0  0
  144.3620  132.4028  149.5225 C   0  0  0  0  0  0  0  0  0  0  0  0
  146.0835  133.0384  151.1494 C   0  0  0  0  0  0  0  0  0  0  0  0
  146.0497  134.1985  150.7316 O   0  0  0  0  0  0  0  0  0  0  0  0
  154.0491  137.7580  154.5456 H   0  0  0  0  0  0  0  0  0  0  0  0
  154.1094  139.3966  155.1882 H   0  0  0  0  0  0  0  0  0  0  0  0
  153.6243  139.1282  153.5229 H   0  0  0  0  0  0  0  0  0  0  0  0
  151.6370  139.6005  154.9384 H   0  0  0  0  0  0  0  0  0  0  0  0
  152.4502  137.1584  156.5797 H   0  0  0  0  0  0  0  0  0  0  0  0
  150.9817  138.1067  156.8015 H   0  0  0  0  0  0  0  0  0  0  0  0
  152.5513  138.8365  157.1059 H   0  0  0  0  0  0  0  0  0  0  0  0
  151.5354  137.8551  153.0411 H   0  0  0  0  0  0  0  0  0  0  0  0
  151.6081  136.6314  154.2365 H   0  0  0  0  0  0  0  0  0  0  0  0
  149.9008  139.6947  155.1994 H   0  0  0  0  0  0  0  0  0  0  0  0
  149.7159  139.6794  153.4581 H   0  0  0  0  0  0  0  0  0  0  0  0
  147.6218  140.4104  154.5549 H   0  0  0  0  0  0  0  0  0  0  0  0
  147.3670  138.9226  153.6688 H   0  0  0  0  0  0  0  0  0  0  0  0
  147.8784  139.1504  156.6813 H   0  0  0  0  0  0  0  0  0  0  0  0
  146.3421  138.7713  155.9308 H   0  0  0  0  0  0  0  0  0  0  0  0
  147.4996  136.7268  156.6985 H   0  0  0  0  0  0  0  0  0  0  0  0
  147.2407  136.7044  154.9738 H   0  0  0  0  0  0  0  0  0  0  0  0
  149.8749  137.3139  156.4013 H   0  0  0  0  0  0  0  0  0  0  0  0
  150.6665  135.2412  155.3770 H   0  0  0  0  0  0  0  0  0  0  0  0
  149.1619  134.8432  156.1404 H   0  0  0  0  0  0  0  0  0  0  0  0
  149.2080  135.4022  153.2600 H   0  0  0  0  0  0  0  0  0  0  0  0
  148.0932  134.3146  152.0905 H   0  0  0  0  0  0  0  0  0  0  0  0
  147.6409  130.9766  153.4411 H   0  0  0  0  0  0  0  0  0  0  0  0
  146.0994  129.3227  152.4054 H   0  0  0  0  0  0  0  0  0  0  0  0
  144.6092  130.0719  150.5709 H   0  0  0  0  0  0  0  0  0  0  0  0
  144.8916  132.8829  148.6981 H   0  0  0  0  0  0  0  0  0  0  0  0
  143.5896  133.0875  149.8755 H   0  0  0  0  0  0  0  0  0  0  0  0
  143.8604  131.5254  149.1128 H   0  0  0  0  0  0  0  0  0  0  0  0
  149.3549  137.3446  153.5431 H   0  0  0  0  0  0  0  0  0  0  0  0
  1  2  1  0  0  0  0
  1 24  1  0  0  0  0
  1 25  1  0  0  0  0
  1 26  1  0  0  0  0
  2  3  1  0  0  0  0
  2  4  1  0  0  0  0
  2 27  1  0  0  0  0
  3 28  1  0  0  0  0
  3 29  1  0  0  0  0
  3 30  1  0  0  0  0
  4  5  1  0  0  0  0
  4 31  1  0  0  0  0
  4 32  1  0  0  0  0
  5 10  1  0  0  0  0
  5  6  1  0  0  0  0
  5 52  1  0  0  0  0
  6  7  1  0  0  0  0
  6 33  1  0  0  0  0
  6 34  1  0  0  0  0
  7  8  1  0  0  0  0
  7 35  1  0  0  0  0
  7 36  1  0  0  0  0
  8  9  1  0  0  0  0
  8 37  1  0  0  0  0
  8 38  1  0  0  0  0
  9 10  1  0  0  0  0
  9 39  1  0  0  0  0
  9 40  1  0  0  0  0
 10 11  1  0  0  0  0
 10 41  1  0  0  0  0
 11 12  1  0  0  0  0
 11 42  1  0  0  0  0
 11 43  1  0  0  0  0
 12 13  1  0  0  0  0
 12 44  1  0  0  0  0
 13 14  2  0  0  0  0
 13 15  1  0  0  0  0
 15 16  1  0  0  0  0
 15 45  1  0  0  0  0
 16 22  1  0  0  0  0
 16 17  2  0  0  0  0
 17 18  1  0  0  0  0
 17 46  1  0  0  0  0
 18 19  2  0  0  0  0
 18 47  1  0  0  0  0
 19 20  1  0  0  0  0
 19 48  1  0  0  0  0
 20 21  1  0  0  0  0
 20 22  1  0  0  0  0
 21 49  1  0  0  0  0
 21 50  1  0  0  0  0
 21 51  1  0  0  0  0
 22 23  2  0  0  0  0
M  CHG  1   5   1
M  END
> <s_m_source_file>
AV-unprocessed.smi

> <i_m_source_file_index>
2799

> <i_lp_mmshare_version>
43012

> <i_f3d_flags>
0

> <s_epik_input>
W0NIM11bQ0hdKFtDSDNdKVtDSDJdTjFbQ0gyXVtDSDJdW0NIMl1bQ0gyXVtDQEhdMVtDSDJdW05IXUMoPU8pW05IXWMyW2NIXVtjSF1bY0hdbihbQ0gzXSljMj1P

> <s_epik_cmdline>
J2VwaWtfcHl0aG9uJywgJy1waCcsICc3LjAnLCAnLXRuJywgJzgnLCAnLW1hJywgJzIwMCcsICctbWV0YWxfYmluZGluZycsICctaW1hZScsICc8aW5maWxlLm1hZT4nLCAnLW9tYWUnLCAnPG91dGZpbGUubWFlPic=

> <r_lp_tautomer_probability>
1

> <r_epik_Ionization_Penalty>
0.0010885

> <r_epik_Ionization_Penalty_Charging>
0.00106921

> <r_epik_Ionization_Penalty_Neutral>
1.92865e-05

> <r_epik_State_Penalty>
0.000697184

> <r_epik_Charging_Adjusted_Penalty>
0.0017664

> <i_epik_Tot_Q>
1

> <i_epik_Tot_abs_Q>
1

> <r_epik_Metal_State_Penalty>
-0

> <b_epik_Metal_Only>
0

> <s_lp_Force_Field>
OPLS_2005

> <r_lp_Energy>
37.4199

> <b_lp_Chiralities_Consistent>
1

> <s_lp_Variant>
AV-unprocessed.smi:2799-1

> <Gold.Version>
5.8.1

> <Gold.Id.Protein>
6NUR|6NUR_protein|mol2

> <Gold.PLP.Fitness>
46.7142

> <Gold.PLP.PLP>
-36.3608

> <Gold.PLP.part.hbond>
-3.0000

> <Gold.PLP.part.metal>
0.0000

> <Gold.PLP.part.buried>
-3.8963

> <Gold.PLP.part.nonpolar>
-29.8062

> <Gold.PLP.part.repulsive>
0.2366

> <Gold.PLP.ligand.clash>
0.0000

> <Gold.PLP.ligand.torsion>
0.4987

> <Gold.PLP.Chemscore.Hbond>
3.7469

> <Gold.PLP.Chemscore.CHOScore>
0.0000

> <Gold.PLP.Chemscore.Metal>
0.0000

> <Gold.Chemscore.Hbonds>
donor molecule, donor type, donor heavy atom, donor atom, acceptor molecule, acceptor atom, score
      L1  H     5    52       P1  7948  2.00
      L1  H    12    44       P1  7948  1.00
      L1  H    15    45       P1  7948  0.60

> <Gold.PLP.Chemscore.Internal.Correction>
0.1100

> <Gold.Rescore>
     Score         DG    S(hbond)    S(metal)    S(lipo)     H(rot)  DE(clash)    DE(int)     intcor
     17.63     -18.47       1.89        0.00      91.33       1.57       0.27       0.57       ----

> <Gold.Chemscore.Fitness>
17.6261

> <Gold.Chemscore.DG>
-18.4706

> <Gold.Chemscore.ZeroCoef>
-5.4800

> <Gold.Chemscore.Hbond>
1.8924

> <Gold.Chemscore.Metal>
0.0000

> <Gold.Chemscore.Lipo>
91.3347

> <Gold.Chemscore.Internal_Hbond>
0.0000

> <Gold.Chemscore.DEClash>
0.2711

> <Gold.Chemscore.DEInternal>
0.5734

> <Gold.Chemscore.Rot>
1.5688

> <Gold.Chemscore.Internal.Correction>
   9.000000E+99

> <Gold.Chemscore.Hbonds>
donor molecule, donor type, donor heavy atom, donor atom, acceptor molecule, acceptor atom, score
      L1  H     5    52       P1  7948  0.90
      L1  H    12    44       P1  7948  0.25
      L1  H    15    45       P1  7948  0.06

> <Gold.Chemscore.Hbond.Weighted>
-6.3205

> <Gold.Chemscore.Metal.Weighted>
-0.0000

> <Gold.Chemscore.Lipo.Weighted>
-10.6862

> <Gold.Chemscore.Internal_Hbond.Weighted>
0.0000

> <Gold.Chemscore.DEClash.Weighted>
0.2711

> <Gold.Chemscore.DEInternal.Weighted>
0.5734

> <Gold.Chemscore.Rot.Weighted>
4.0161

> <Gold.Chemscore.Internal.Correction.Weighted>
   9.000000E+99

> <Gold.Protein.RotatedTorsions>
[ 6907 6896 6895 6894 ] final  -53.27 input  -60.11 | X-H torsion
[ 7974 7965 7964 7962 ] final -137.20 input  175.53 | X-H torsion
[ 8008 7997 7996 7995 ] final  146.22 input   59.86 | X-H torsion
[ 10167 10162 10161 10158 ] final  -92.90 input  -65.29 | X-H torsion
[ 10718 10713 10712 10709 ] final   91.28 input   66.30 | X-H torsion
[ 10763 10752 10751 10750 ] final  -77.99 input  -60.55 | X-H torsion
[ 11005 11000 10999 10996 ] final   87.98 input  -57.11 | X-H torsion

> <Gold.Protein.ActiveResidues>
 VAL166  LYS551  ARG553  GLY616  TRP617  ASP618  TYR619  PRO620  LYS621  CYS622 
 ASP623  PHE694  ASN695  SER759  ASP760  ASP761  ALA762  ILE779  LEU786  VAL792 
 PHE793  MET794  SER795  GLU796  ALA797  LYS798  CYS799  TRP800  GLU811  SER814 

> <Gold.Protein.RotatedAtoms>
  150.8442  134.7745  159.6956 H   0  0  0  0  0  0  0  0  0  0  0  0  # atno 6907 bound_to 6896
  152.4522  134.5365  159.9836 H   0  0  0  0  0  0  0  0  0  0  0  0  # atno 6908 bound_to 6896
  151.5499  133.3381  159.2987 H   0  0  0  0  0  0  0  0  0  0  0  0  # atno 6909 bound_to 6896
  144.8862  140.6578  143.5174 H   0  0  0  0  0  0  0  0  0  0  0  0  # atno 7974 bound_to 7965
  156.2861  140.2188  156.5341 H   0  0  0  0  0  0  0  0  0  0  0  0  # atno 8008 bound_to 7997
  154.7424  140.0486  157.0845 H   0  0  0  0  0  0  0  0  0  0  0  0  # atno 8009 bound_to 7997
  155.0213  140.3124  155.4795 H   0  0  0  0  0  0  0  0  0  0  0  0  # atno 8010 bound_to 7997
  140.3301  143.2999  151.9951 H   0  0  0  0  0  0  0  0  0  0  0  0  # atno 10167 bound_to 10162
  157.6960  131.0401  150.3705 H   0  0  0  0  0  0  0  0  0  0  0  0  # atno 10718 bound_to 10713
  154.5201  135.5745  153.6674 H   0  0  0  0  0  0  0  0  0  0  0  0  # atno 10763 bound_to 10752
  152.9915  135.6179  154.2765 H   0  0  0  0  0  0  0  0  0  0  0  0  # atno 10764 bound_to 10752
  154.2686  135.2854  155.2727 H   0  0  0  0  0  0  0  0  0  0  0  0  # atno 10765 bound_to 10752
  139.8907  134.8458  156.2936 H   0  0  0  0  0  0  0  0  0  0  0  0  # atno 11005 bound_to 11000
  145.3864  139.1626  143.4252 LP  0  0  0  0  0  0  0  0  0  0  0  0  # atno 17320 bound_to 7965
  146.3026  140.3950  142.8698 LP  0  0  0  0  0  0  0  0  0  0  0  0  # atno 17321 bound_to 7965
  139.4858  144.6241  151.7198 LP  0  0  0  0  0  0  0  0  0  0  0  0  # atno 17342 bound_to 10162
  140.5404  144.0587  150.6086 LP  0  0  0  0  0  0  0  0  0  0  0  0  # atno 17343 bound_to 10162
  156.4130  130.3938  149.6878 LP  0  0  0  0  0  0  0  0  0  0  0  0  # atno 17370 bound_to 10713
  156.4155  130.7743  151.2758 LP  0  0  0  0  0  0  0  0  0  0  0  0  # atno 17371 bound_to 10713
  140.9960  133.7180  156.0886 LP  0  0  0  0  0  0  0  0  0  0  0  0  # atno 17394 bound_to 11000
  140.7562  134.3990  157.5533 LP  0  0  0  0  0  0  0  0  0  0  0  0  # atno 17395 bound_to 11000

$$$$
