AV-unprocessed.smi:3318|AV-procd|sdf|12762|dock1
  -GOLD-   2272019103D 1   1.00000     0.00000
 Structure written by MMmdl.
 45 46  0  0  0  0  0  0  0  0  3 V2000
  144.2516  137.3433  153.1100 C   0  0  0  0  0  0  0  0  0  0  0  0
  145.4023  138.1705  153.6937 C   0  0  0  0  0  0  0  0  0  0  0  0
  146.3158  138.7539  152.6012 C   0  0  0  0  0  0  0  0  0  0  0  0
  147.3128  139.7124  153.1433 N   0  3  2  0  0  0  0  0  0  0  0  0
  148.2384  139.0713  154.1131 C   0  0  0  0  0  0  0  0  0  0  0  0
  149.3434  140.0451  154.5584 C   0  0  0  0  0  0  0  0  0  0  0  0
  148.7519  141.3284  155.1651 C   0  0  1  0  0  0  0  0  0  0  0  0
  149.8403  142.2611  155.5385 N   0  3  0  0  0  0  0  0  0  0  0  0
  150.4939  141.9881  156.8373 C   0  0  0  0  0  0  0  0  0  0  0  0
  151.4816  143.1023  157.2185 C   0  0  0  0  0  0  0  0  0  0  0  0
  152.1122  142.8950  158.5841 C   0  0  0  0  0  0  0  0  0  0  0  0
  151.9906  143.8746  159.5929 C   0  0  0  0  0  0  0  0  0  0  0  0
  152.5950  143.6296  160.8414 C   0  0  0  0  0  0  0  0  0  0  0  0
  153.2968  142.4234  161.0300 C   0  0  0  0  0  0  0  0  0  0  0  0
  153.3623  141.5107  159.9586 C   0  0  0  0  0  0  0  0  0  0  0  0
  152.7871  141.7368  158.7575 N   0  0  0  0  0  0  0  0  0  0  0  0
  147.7722  141.9531  154.1525 C   0  0  0  0  0  0  0  0  0  0  0  0
  146.6986  140.9415  153.7129 C   0  0  0  0  0  0  0  0  0  0  0  0
  143.6216  136.9405  153.9033 H   0  0  0  0  0  0  0  0  0  0  0  0
  144.6269  136.5034  152.5247 H   0  0  0  0  0  0  0  0  0  0  0  0
  143.6194  137.9493  152.4603 H   0  0  0  0  0  0  0  0  0  0  0  0
  144.9889  138.9798  154.2968 H   0  0  0  0  0  0  0  0  0  0  0  0
  145.9720  137.5381  154.3738 H   0  0  0  0  0  0  0  0  0  0  0  0
  146.8220  137.9584  152.0520 H   0  0  0  0  0  0  0  0  0  0  0  0
  145.6829  139.2714  151.8787 H   0  0  0  0  0  0  0  0  0  0  0  0
  147.6749  138.7183  154.9785 H   0  0  0  0  0  0  0  0  0  0  0  0
  148.7005  138.1945  153.6574 H   0  0  0  0  0  0  0  0  0  0  0  0
  149.9926  139.5533  155.2842 H   0  0  0  0  0  0  0  0  0  0  0  0
  149.9720  140.2939  153.7017 H   0  0  0  0  0  0  0  0  0  0  0  0
  148.2085  141.0589  156.0724 H   0  0  0  0  0  0  0  0  0  0  0  0
  150.5556  142.1937  154.8277 H   0  0  0  0  0  0  0  0  0  0  0  0
  149.7363  141.9030  157.6160 H   0  0  0  0  0  0  0  0  0  0  0  0
  151.0149  141.0306  156.7917 H   0  0  0  0  0  0  0  0  0  0  0  0
  152.2647  143.1813  156.4629 H   0  0  0  0  0  0  0  0  0  0  0  0
  150.9650  144.0631  157.2180 H   0  0  0  0  0  0  0  0  0  0  0  0
  151.4443  144.7904  159.4204 H   0  0  0  0  0  0  0  0  0  0  0  0
  152.5211  144.3531  161.6398 H   0  0  0  0  0  0  0  0  0  0  0  0
  153.7710  142.2014  161.9747 H   0  0  0  0  0  0  0  0  0  0  0  0
  153.8904  140.5750  160.0687 H   0  0  0  0  0  0  0  0  0  0  0  0
  147.2775  142.8238  154.5829 H   0  0  0  0  0  0  0  0  0  0  0  0
  148.3178  142.3077  153.2768 H   0  0  0  0  0  0  0  0  0  0  0  0
  146.0507  141.4182  152.9783 H   0  0  0  0  0  0  0  0  0  0  0  0
  146.0672  140.6738  154.5616 H   0  0  0  0  0  0  0  0  0  0  0  0
  147.8809  139.9996  152.3590 H   0  0  0  0  0  0  0  0  0  0  0  0
  149.4828  143.2057  155.5411 H   0  0  0  0  0  0  0  0  0  0  0  0
  1  2  1  0  0  0  0
  1 19  1  0  0  0  0
  1 20  1  0  0  0  0
  1 21  1  0  0  0  0
  2  3  1  0  0  0  0
  2 22  1  0  0  0  0
  2 23  1  0  0  0  0
  3  4  1  0  0  0  0
  3 24  1  0  0  0  0
  3 25  1  0  0  0  0
  4 18  1  0  0  0  0
  4  5  1  0  0  0  0
  4 44  1  0  0  0  0
  5  6  1  0  0  0  0
  5 26  1  0  0  0  0
  5 27  1  0  0  0  0
  6  7  1  0  0  0  0
  6 28  1  0  0  0  0
  6 29  1  0  0  0  0
  7  8  1  0  0  0  0
  7 17  1  0  0  0  0
  7 30  1  0  0  0  0
  8  9  1  0  0  0  0
  8 31  1  0  0  0  0
  8 45  1  0  0  0  0
  9 10  1  0  0  0  0
  9 32  1  0  0  0  0
  9 33  1  0  0  0  0
 10 11  1  0  0  0  0
 10 34  1  0  0  0  0
 10 35  1  0  0  0  0
 11 16  1  0  0  0  0
 11 12  2  0  0  0  0
 12 13  1  0  0  0  0
 12 36  1  0  0  0  0
 13 14  2  0  0  0  0
 13 37  1  0  0  0  0
 14 15  1  0  0  0  0
 14 38  1  0  0  0  0
 15 16  2  0  0  0  0
 15 39  1  0  0  0  0
 17 18  1  0  0  0  0
 17 40  1  0  0  0  0
 17 41  1  0  0  0  0
 18 42  1  0  0  0  0
 18 43  1  0  0  0  0
M  CHG  1   4   1
M  CHG  1   8   1
M  END
> <s_m_source_file>
AV-unprocessed.smi

> <i_m_source_file_index>
3318

> <i_lp_mmshare_version>
43012

> <i_f3d_flags>
0

> <s_epik_input>
W0NIM11bQ0gyXVtDSDJdTjFbQ0gyXVtDSDJdW0NIXShbQ0gyXVtDSDJdMSlbTkhdW0NIMl1bQ0gyXWMyW2NIXVtjSF1bY0hdW2NIXW4y

> <s_epik_cmdline>
J2VwaWtfcHl0aG9uJywgJy1waCcsICc3LjAnLCAnLXRuJywgJzgnLCAnLW1hJywgJzIwMCcsICctbWV0YWxfYmluZGluZycsICctaW1hZScsICc8aW5maWxlLm1hZT4nLCAnLW9tYWUnLCAnPG91dGZpbGUubWFlPic=

> <r_epik_Ionization_Penalty>
0.0638186

> <r_epik_Ionization_Penalty_Charging>
0.0628538

> <r_epik_Ionization_Penalty_Neutral>
0.000964829

> <r_epik_State_Penalty>
0.0518488

> <r_epik_Charging_Adjusted_Penalty>
0.114703

> <i_epik_Tot_Q>
2

> <i_epik_Tot_abs_Q>
2

> <r_epik_Metal_State_Penalty>
0.0535981

> <b_epik_Metal_Only>
0

> <s_lp_Force_Field>
OPLS_2005

> <r_lp_Energy>
28.1617

> <b_lp_Chiralities_Consistent>
1

> <s_lp_Variant>
AV-unprocessed.smi:3318-1

> <Gold.Version>
5.8.1

> <Gold.Id.Protein>
6NUR|6NUR_protein|mol2

> <Gold.PLP.Fitness>
52.4536

> <Gold.PLP.PLP>
-43.8350

> <Gold.PLP.part.hbond>
-2.0000

> <Gold.PLP.part.metal>
0.0000

> <Gold.PLP.part.buried>
-2.8324

> <Gold.PLP.part.nonpolar>
-39.3460

> <Gold.PLP.part.repulsive>
0.2507

> <Gold.PLP.ligand.clash>
0.0000

> <Gold.PLP.ligand.torsion>
0.2745

> <Gold.PLP.Chemscore.Hbond>
2.9920

> <Gold.PLP.Chemscore.CHOScore>
0.0000

> <Gold.PLP.Chemscore.Metal>
0.0000

> <Gold.Chemscore.Hbonds>
donor molecule, donor type, donor heavy atom, donor atom, acceptor molecule, acceptor atom, score
      L1  H     4    44       P1  7957  0.86
      L1  H     8    45       P1  8028  2.00

> <Gold.PLP.Chemscore.Internal.Correction>
0.1916

> <Gold.Rescore>
     Score         DG    S(hbond)    S(metal)    S(lipo)     H(rot)  DE(clash)    DE(int)     intcor
     22.51     -23.04       1.99        0.00     127.21       1.55       0.04       0.49       ----

> <Gold.Chemscore.Fitness>
22.5053

> <Gold.Chemscore.DG>
-23.0366

> <Gold.Chemscore.ZeroCoef>
-5.4800

> <Gold.Chemscore.Hbond>
1.9908

> <Gold.Chemscore.Metal>
0.0000

> <Gold.Chemscore.Lipo>
127.2115

> <Gold.Chemscore.Internal_Hbond>
0.0000

> <Gold.Chemscore.DEClash>
0.0374

> <Gold.Chemscore.DEInternal>
0.4939

> <Gold.Chemscore.Rot>
1.5532

> <Gold.Chemscore.Internal.Correction>
   9.000000E+99

> <Gold.Chemscore.Hbonds>
donor molecule, donor type, donor heavy atom, donor atom, acceptor molecule, acceptor atom, score
      L1  H     4    44       P1  7957  0.83
      L1  H     8    45       P1  8028  0.99

> <Gold.Chemscore.Hbond.Weighted>
-6.6491

> <Gold.Chemscore.Metal.Weighted>
-0.0000

> <Gold.Chemscore.Lipo.Weighted>
-14.8837

> <Gold.Chemscore.Internal_Hbond.Weighted>
0.0000

> <Gold.Chemscore.DEClash.Weighted>
0.0374

> <Gold.Chemscore.DEInternal.Weighted>
0.4939

> <Gold.Chemscore.Rot.Weighted>
3.9762

> <Gold.Chemscore.Internal.Correction.Weighted>
   9.000000E+99

> <Gold.Protein.RotatedTorsions>
[ 6907 6896 6895 6894 ] final -137.48 input  -60.11 | X-H torsion
[ 7974 7965 7964 7962 ] final -173.01 input  175.53 | X-H torsion
[ 8008 7997 7996 7995 ] final  157.14 input   59.86 | X-H torsion
[ 10167 10162 10161 10158 ] final   72.46 input  -65.29 | X-H torsion
[ 10718 10713 10712 10709 ] final   65.36 input   66.30 | X-H torsion
[ 10763 10752 10751 10750 ] final  127.60 input  -60.55 | X-H torsion
[ 11005 11000 10999 10996 ] final   38.80 input  -57.11 | X-H torsion

> <Gold.Protein.ActiveResidues>
 VAL166  LYS551  ARG553  GLY616  TRP617  ASP618  TYR619  PRO620  LYS621  CYS622 
 ASP623  PHE694  ASN695  SER759  ASP760  ASP761  ALA762  ILE779  LEU786  VAL792 
 PHE793  MET794  SER795  GLU796  ALA797  LYS798  CYS799  TRP800  GLU811  SER814 

> <Gold.Protein.RotatedAtoms>
  151.0230  133.5859  159.2668 H   0  0  0  0  0  0  0  0  0  0  0  0  # atno 6907 bound_to 6896
  151.2969  135.0757  159.9234 H   0  0  0  0  0  0  0  0  0  0  0  0  # atno 6908 bound_to 6896
  152.5327  133.9918  159.7908 H   0  0  0  0  0  0  0  0  0  0  0  0  # atno 6909 bound_to 6896
  144.7141  140.1687  143.6369 H   0  0  0  0  0  0  0  0  0  0  0  0  # atno 7974 bound_to 7965
  156.2381  140.1893  156.7063 H   0  0  0  0  0  0  0  0  0  0  0  0  # atno 8008 bound_to 7997
  154.6145  140.0617  156.9563 H   0  0  0  0  0  0  0  0  0  0  0  0  # atno 8009 bound_to 7997
  155.1962  140.3288  155.4353 H   0  0  0  0  0  0  0  0  0  0  0  0  # atno 8010 bound_to 7997
  140.0350  144.5435  150.7477 H   0  0  0  0  0  0  0  0  0  0  0  0  # atno 10167 bound_to 10162
  157.6100  130.9210  149.9966 H   0  0  0  0  0  0  0  0  0  0  0  0  # atno 10718 bound_to 10713
  153.7120  135.3267  155.3248 H   0  0  0  0  0  0  0  0  0  0  0  0  # atno 10763 bound_to 10752
  154.8382  135.4479  154.1304 H   0  0  0  0  0  0  0  0  0  0  0  0  # atno 10764 bound_to 10752
  153.2400  135.6970  153.7872 H   0  0  0  0  0  0  0  0  0  0  0  0  # atno 10765 bound_to 10752
  140.2090  134.3778  155.8058 H   0  0  0  0  0  0  0  0  0  0  0  0  # atno 11005 bound_to 11000
  145.8964  139.2405  143.1519 LP  0  0  0  0  0  0  0  0  0  0  0  0  # atno 17320 bound_to 7965
  145.9853  140.8648  143.0093 LP  0  0  0  0  0  0  0  0  0  0  0  0  # atno 17321 bound_to 7965
  140.7285  143.2663  151.4035 LP  0  0  0  0  0  0  0  0  0  0  0  0  # atno 17342 bound_to 10162
  139.6051  144.1215  152.2240 LP  0  0  0  0  0  0  0  0  0  0  0  0  # atno 17343 bound_to 10162
  156.1199  130.3646  149.9904 LP  0  0  0  0  0  0  0  0  0  0  0  0  # atno 17370 bound_to 10713
  156.7986  130.9282  151.3646 LP  0  0  0  0  0  0  0  0  0  0  0  0  # atno 17371 bound_to 10713
  141.2226  133.7133  156.8386 LP  0  0  0  0  0  0  0  0  0  0  0  0  # atno 17394 bound_to 11000
  140.1971  134.8923  157.3127 LP  0  0  0  0  0  0  0  0  0  0  0  0  # atno 17395 bound_to 11000

$$$$
