#       Name:                AV-unprocessed.smi:372
#       Creating user name   scv26
#       Creation time:       Thu Mar 26 22:38:47 2020


#       File generated by GOLD software.
#

@<TRIPOS>MOLECULE
AV-unprocessed.smi:372
    28    29     1
SMALL
NO_CHARGES


@<TRIPOS>ATOM
      1 ****        -2.0405  -0.3355   0.9394 C.3            1 S1                 0.0000
      2 ****        -0.5101  -0.4610   0.7909 C.3            1 S1                 0.0000
      3 ****        -0.0244   0.2484  -0.4917 C.ar           1 S1                 0.0000
      4 ****         0.5155  -0.4659  -1.5918 C.ar           1 S1                 0.0000
      5 ****         0.9244   0.2454  -2.7358 C.ar           1 S1                 0.0000
      6 ****         0.7802   1.6444  -2.7553 C.ar           1 S1                 0.0000
      7 ****         0.2281   2.2712  -1.6229 C.ar           1 S1                 0.0000
      8 ****        -0.1670   1.5976  -0.5226 N.ar           1 S1                 0.0000
      9 ****        -0.1476  -1.8738   0.8518 N.pl3          1 S1                -1.0000
     10 ****         0.6862  -2.0766   1.8977 C.2            1 S1                 0.0000
     11 ****         1.2141  -3.1301   2.2459 O.2            1 S1                 0.0000
     12 ****         0.8863  -0.9384   2.5660 N.am           1 S1                 0.0000
     13 ****         0.2113   0.0729   2.0293 C.2            1 S1                 0.0000
     14 ****         0.1532   1.2258   2.4575 O.2            1 S1                 0.0000
     15 ****        -2.3565   0.7077   0.9736 H              1 S1                 0.0000
     16 ****        -2.3998  -0.8132   1.8522 H              1 S1                 0.0000
     17 ****        -2.5546  -0.8047   0.0998 H              1 S1                 0.0000
     18 ****         0.6194  -1.5404  -1.5765 H              1 S1                 0.0000
     19 ****         1.3405  -0.2754  -3.5854 H              1 S1                 0.0000
     20 ****         1.0829   2.2216  -3.6161 H              1 S1                 0.0000
     21 ****         0.0992   3.3432  -1.5999 H              1 S1                 0.0000
     22 ****         1.4592  -0.8623   3.3930 H              1 S1                 0.0000
     23 ****        -0.5587   2.0849   0.2579 LP             1 S1                 0.0000
     24 ****        -0.4656  -2.5806   0.2199 LP             1 S1                 0.0000
     25 ****         1.0420  -3.9698   1.7308 LP             1 S1                 0.0000
     26 ****         1.8159  -3.1479   3.0444 LP             1 S1                 0.0000
     27 ****        -0.4042   1.9076   1.9838 LP             1 S1                 0.0000
     28 ****         0.6634   1.4803   3.2791 LP             1 S1                 0.0000
@<TRIPOS>BOND
    1    1    2 1     
    2    1   15 1     
    3    1   16 1     
    4    1   17 1     
    5    2   13 1     
    6    2    3 1     
    7    2    9 1     
    8    3    8 ar    
    9    3    4 ar    
   10    4    5 ar    
   11    4   18 1     
   12    5    6 ar    
   13    5   19 1     
   14    6    7 ar    
   15    6   20 1     
   16    7    8 ar    
   17    7   21 1     
   18    9   10 1     
   19   10   11 2     
   20   10   12 am    
   21   12   13 am    
   22   12   22 1     
   23   13   14 2     
   24    8   23 1     
   25    9   24 1     
   26   11   25 1     
   27   11   26 1     
   28   14   27 1     
   29   14   28 1     
@<TRIPOS>SUBSTRUCTURE
      1 S1             1
@<TRIPOS>SET
LONE_PAIRS      STATIC     ATOMS    <user>   **** ""
6 23 24 25 26 27 28
DONOR_HYDROGENS      STATIC     ATOMS    <user>   **** ""
1 22
ATOM$BLUE        STATIC     ATOMS    COLORGROUP SYSTEM
6 23 24 25 26 27 28
ATOM$RED        STATIC     ATOMS    COLORGROUP SYSTEM
1 22
