AV-unprocessed.smi:1368|AV-procd|sdf|5575|dock10
  -GOLD-   22720 5173D 1   1.00000     0.00000
 Structure written by MMmdl.
 46 48  0  0  0  0  0  0  0  0  1 V2000
  144.5009  135.1474  151.1063 C   0  0  0  0  0  0  0  0  0  0  0  0
  145.3008  135.9439  152.1327 C   0  0  0  0  0  0  0  0  0  0  0  0
  145.8093  135.3557  153.0858 O   0  0  0  0  0  0  0  0  0  0  0  0
  145.3662  137.2715  151.9190 N   0  0  0  0  0  0  0  0  0  0  0  0
  146.0362  138.2694  152.6790 C   0  0  0  0  0  0  0  0  0  0  0  0
  146.2182  139.5276  152.0706 C   0  0  0  0  0  0  0  0  0  0  0  0
  146.8869  140.5620  152.7521 C   0  0  0  0  0  0  0  0  0  0  0  0
  147.3956  140.3607  154.0505 C   0  0  0  0  0  0  0  0  0  0  0  0
  148.0349  141.4273  154.6457 O   0  0  0  0  0  0  0  0  0  0  0  0
  148.5490  141.2547  155.9597 C   0  0  0  0  0  0  0  0  0  0  0  0
  150.0617  140.9965  155.8769 C   0  0  2  0  0  0  0  0  0  0  0  0
  150.3346  140.3303  154.6596 O   0  0  0  0  0  0  0  0  0  0  0  0
  150.5566  140.1290  157.0524 C   0  0  0  0  0  0  0  0  0  0  0  0
  151.4857  140.8319  157.9276 N   0  0  0  0  0  0  0  0  0  0  0  0
  152.4907  140.3073  158.6711 C   0  0  0  0  0  0  0  0  0  0  0  0
  152.7847  138.8407  158.6794 C   0  0  0  0  0  0  0  0  0  0  0  0
  153.2012  141.1787  159.3872 N   0  0  0  0  0  0  0  0  0  0  0  0
  152.6016  142.3844  159.0780 C   0  0  0  0  0  0  0  0  0  0  0  0
  152.8963  143.6957  159.5157 C   0  0  0  0  0  0  0  0  0  0  0  0
  152.1341  144.7898  159.0564 C   0  0  0  0  0  0  0  0  0  0  0  0
  151.0683  144.5893  158.1555 C   0  0  0  0  0  0  0  0  0  0  0  0
  150.7589  143.2914  157.7056 C   0  0  0  0  0  0  0  0  0  0  0  0
  151.5231  142.2025  158.1662 C   0  0  0  0  0  0  0  0  0  0  0  0
  147.2271  139.0911  154.6569 C   0  0  0  0  0  0  0  0  0  0  0  0
  146.5583  138.0549  153.9768 C   0  0  0  0  0  0  0  0  0  0  0  0
  144.5225  135.6293  150.1282 H   0  0  0  0  0  0  0  0  0  0  0  0
  143.4619  135.0592  151.4246 H   0  0  0  0  0  0  0  0  0  0  0  0
  144.9122  134.1433  150.9974 H   0  0  0  0  0  0  0  0  0  0  0  0
  144.8247  137.6160  151.1396 H   0  0  0  0  0  0  0  0  0  0  0  0
  145.8396  139.7087  151.0749 H   0  0  0  0  0  0  0  0  0  0  0  0
  147.0112  141.5219  152.2720 H   0  0  0  0  0  0  0  0  0  0  0  0
  148.3716  142.1750  156.5190 H   0  0  0  0  0  0  0  0  0  0  0  0
  148.0459  140.4419  156.4872 H   0  0  0  0  0  0  0  0  0  0  0  0
  150.5948  141.9475  155.8842 H   0  0  0  0  0  0  0  0  0  0  0  0
  149.5326  139.9414  154.3451 H   0  0  0  0  0  0  0  0  0  0  0  0
  149.7118  139.7812  157.6473 H   0  0  0  0  0  0  0  0  0  0  0  0
  151.0476  139.2306  156.6762 H   0  0  0  0  0  0  0  0  0  0  0  0
  153.6097  138.6206  159.3579 H   0  0  0  0  0  0  0  0  0  0  0  0
  153.0649  138.5058  157.6807 H   0  0  0  0  0  0  0  0  0  0  0  0
  151.9114  138.2791  159.0103 H   0  0  0  0  0  0  0  0  0  0  0  0
  153.7103  143.8598  160.2064 H   0  0  0  0  0  0  0  0  0  0  0  0
  152.3678  145.7876  159.3976 H   0  0  0  0  0  0  0  0  0  0  0  0
  150.4877  145.4323  157.8102 H   0  0  0  0  0  0  0  0  0  0  0  0
  149.9417  143.1334  157.0176 H   0  0  0  0  0  0  0  0  0  0  0  0
  147.6065  138.8820  155.6455 H   0  0  0  0  0  0  0  0  0  0  0  0
  146.4718  137.0994  154.4699 H   0  0  0  0  0  0  0  0  0  0  0  0
  1  2  1  0  0  0  0
  1 26  1  0  0  0  0
  1 27  1  0  0  0  0
  1 28  1  0  0  0  0
  2  3  2  0  0  0  0
  2  4  1  0  0  0  0
  4  5  1  0  0  0  0
  4 29  1  0  0  0  0
  5 25  1  0  0  0  0
  5  6  2  0  0  0  0
  6  7  1  0  0  0  0
  6 30  1  0  0  0  0
  7  8  2  0  0  0  0
  7 31  1  0  0  0  0
  8  9  1  0  0  0  0
  8 24  1  0  0  0  0
  9 10  1  0  0  0  0
 10 11  1  0  0  0  0
 10 32  1  0  0  0  0
 10 33  1  0  0  0  0
 11 12  1  0  0  0  0
 11 13  1  0  0  0  0
 11 34  1  0  0  0  0
 12 35  1  0  0  0  0
 13 14  1  0  0  0  0
 13 36  1  0  0  0  0
 13 37  1  0  0  0  0
 14 23  1  0  0  0  0
 14 15  1  0  0  0  0
 15 16  1  0  0  0  0
 15 17  2  0  0  0  0
 16 38  1  0  0  0  0
 16 39  1  0  0  0  0
 16 40  1  0  0  0  0
 17 18  1  0  0  0  0
 18 23  2  0  0  0  0
 18 19  1  0  0  0  0
 19 20  2  0  0  0  0
 19 41  1  0  0  0  0
 20 21  1  0  0  0  0
 20 42  1  0  0  0  0
 21 22  2  0  0  0  0
 21 43  1  0  0  0  0
 22 23  1  0  0  0  0
 22 44  1  0  0  0  0
 24 25  2  0  0  0  0
 24 45  1  0  0  0  0
 25 46  1  0  0  0  0
M  END
> <s_m_source_file>
AV-unprocessed.smi

> <i_m_source_file_index>
1368

> <i_lp_mmshare_version>
43012

> <i_f3d_flags>
0

> <s_epik_input>
W0NIM11DKD1PKVtOSF1jMVtjSF1bY0hdYyhbY0hdW2NIXTEpT1tDSDJdW0NASF0oW09IXSlbQ0gyXW4oYyhuMilbQ0gzXSljKGMyMylbY0hdW2NIXVtjSF1bY0hdMw==

> <s_epik_cmdline>
J2VwaWtfcHl0aG9uJywgJy1waCcsICc3LjAnLCAnLXRuJywgJzgnLCAnLW1hJywgJzIwMCcsICctbWV0YWxfYmluZGluZycsICctaW1hZScsICc8aW5maWxlLm1hZT4nLCAnLW9tYWUnLCAnPG91dGZpbGUubWFlPic=

> <r_lp_tautomer_probability>
1

> <r_epik_Ionization_Penalty>
0.119634

> <r_epik_Ionization_Penalty_Charging>
0

> <r_epik_Ionization_Penalty_Neutral>
0.119634

> <r_epik_State_Penalty>
0.10919

> <r_epik_Charging_Adjusted_Penalty>
0.10919

> <i_epik_Tot_Q>
0

> <i_epik_Tot_abs_Q>
0

> <r_epik_Metal_State_Penalty>
0.0906856

> <b_epik_Metal_Only>
0

> <s_lp_Force_Field>
OPLS_2005

> <r_lp_Energy>
21.7849

> <b_lp_Chiralities_Consistent>
1

> <s_lp_Variant>
AV-unprocessed.smi:1368-1

> <Gold.Version>
5.8.1

> <Gold.Id.Protein>
6NUR|6NUR_protein|mol2

> <Gold.PLP.Fitness>
50.6279

> <Gold.PLP.PLP>
-48.2100

> <Gold.PLP.part.hbond>
-2.2169

> <Gold.PLP.part.metal>
0.0000

> <Gold.PLP.part.buried>
-0.6901

> <Gold.PLP.part.nonpolar>
-46.8445

> <Gold.PLP.part.repulsive>
0.3233

> <Gold.PLP.ligand.clash>
0.0000

> <Gold.PLP.ligand.torsion>
1.8015

> <Gold.PLP.Chemscore.Hbond>
1.9920

> <Gold.PLP.Chemscore.CHOScore>
0.0000

> <Gold.PLP.Chemscore.Metal>
0.0000

> <Gold.Chemscore.Hbonds>
donor molecule, donor type, donor heavy atom, donor atom, acceptor molecule, acceptor atom, score
      L1  H     4    29       P1 10171  1.00
      P1  H  7989  7998       L1    12  1.00

> <Gold.PLP.Chemscore.Internal.Correction>
0.0450

> <Gold.Rescore>
     Score         DG    S(hbond)    S(metal)    S(lipo)     H(rot)  DE(clash)    DE(int)     intcor
     16.26     -21.56       1.91        0.00     135.27       2.39       1.50       3.80       ----

> <Gold.Chemscore.Fitness>
16.2552

> <Gold.Chemscore.DG>
-21.5627

> <Gold.Chemscore.ZeroCoef>
-5.4800

> <Gold.Chemscore.Hbond>
1.9097

> <Gold.Chemscore.Metal>
0.0000

> <Gold.Chemscore.Lipo>
135.2661

> <Gold.Chemscore.Internal_Hbond>
0.0000

> <Gold.Chemscore.DEClash>
1.5029

> <Gold.Chemscore.DEInternal>
3.8046

> <Gold.Chemscore.Rot>
2.3914

> <Gold.Chemscore.Internal.Correction>
   9.000000E+99

> <Gold.Chemscore.Hbonds>
donor molecule, donor type, donor heavy atom, donor atom, acceptor molecule, acceptor atom, score
      L1  H     4    29       P1 10171  1.00
      P1  H  7989  7998       L1    12  0.95

> <Gold.Chemscore.Hbond.Weighted>
-6.3785

> <Gold.Chemscore.Metal.Weighted>
-0.0000

> <Gold.Chemscore.Lipo.Weighted>
-15.8261

> <Gold.Chemscore.Internal_Hbond.Weighted>
0.0000

> <Gold.Chemscore.DEClash.Weighted>
1.5029

> <Gold.Chemscore.DEInternal.Weighted>
3.8046

> <Gold.Chemscore.Rot.Weighted>
6.1220

> <Gold.Chemscore.Internal.Correction.Weighted>
   9.000000E+99

> <Gold.Protein.RotatedTorsions>
[ 6907 6896 6895 6894 ] final  102.63 input  -60.11 | X-H torsion
[ 7974 7965 7964 7962 ] final   -9.68 input  175.53 | X-H torsion
[ 8008 7997 7996 7995 ] final  115.36 input   59.86 | X-H torsion
[ 10167 10162 10161 10158 ] final  -19.74 input  -65.29 | X-H torsion
[ 10718 10713 10712 10709 ] final  106.29 input   66.30 | X-H torsion
[ 10763 10752 10751 10750 ] final   24.69 input  -60.55 | X-H torsion
[ 11005 11000 10999 10996 ] final  -86.01 input  -57.11 | X-H torsion

> <Gold.Protein.ActiveResidues>
 VAL166  LYS551  ARG553  GLY616  TRP617  ASP618  TYR619  PRO620  LYS621  CYS622 
 ASP623  PHE694  ASN695  SER759  ASP760  ASP761  ALA762  ILE779  LEU786  VAL792 
 PHE793  MET794  SER795  GLU796  ALA797  LYS798  CYS799  TRP800  GLU811  SER814 

> <Gold.Protein.RotatedAtoms>
  152.5318  133.9946  159.7866 H   0  0  0  0  0  0  0  0  0  0  0  0  # atno 6907 bound_to 6896
  151.0176  133.5898  159.2682 H   0  0  0  0  0  0  0  0  0  0  0  0  # atno 6908 bound_to 6896
  151.2950  135.0759  159.9271 H   0  0  0  0  0  0  0  0  0  0  0  0  # atno 6909 bound_to 6896
  146.2244  140.2652  142.8354 H   0  0  0  0  0  0  0  0  0  0  0  0  # atno 7974 bound_to 7965
  156.2376  140.2940  156.0356 H   0  0  0  0  0  0  0  0  0  0  0  0  # atno 8008 bound_to 7997
  155.2045  140.0410  157.2940 H   0  0  0  0  0  0  0  0  0  0  0  0  # atno 8009 bound_to 7997
  154.6108  140.2451  155.7678 H   0  0  0  0  0  0  0  0  0  0  0  0  # atno 8010 bound_to 7997
  140.7271  143.4789  151.0144 H   0  0  0  0  0  0  0  0  0  0  0  0  # atno 10167 bound_to 10162
  157.6674  131.0847  150.5984 H   0  0  0  0  0  0  0  0  0  0  0  0  # atno 10718 bound_to 10713
  153.0745  135.6599  154.0175 H   0  0  0  0  0  0  0  0  0  0  0  0  # atno 10763 bound_to 10752
  153.9813  135.2955  155.3421 H   0  0  0  0  0  0  0  0  0  0  0  0  # atno 10764 bound_to 10752
  154.7129  135.5197  153.8764 H   0  0  0  0  0  0  0  0  0  0  0  0  # atno 10765 bound_to 10752
  141.1635  133.7431  156.9099 H   0  0  0  0  0  0  0  0  0  0  0  0  # atno 11005 bound_to 11000
  144.9309  140.7974  143.5690 LP  0  0  0  0  0  0  0  0  0  0  0  0  # atno 17320 bound_to 7965
  145.2596  139.1998  143.4899 LP  0  0  0  0  0  0  0  0  0  0  0  0  # atno 17321 bound_to 7965
  139.8486  143.7468  152.3178 LP  0  0  0  0  0  0  0  0  0  0  0  0  # atno 17342 bound_to 10162
  139.7642  144.7497  151.0319 LP  0  0  0  0  0  0  0  0  0  0  0  0  # atno 17343 bound_to 10162
  156.6285  130.4425  149.5795 LP  0  0  0  0  0  0  0  0  0  0  0  0  # atno 17370 bound_to 10713
  156.2300  130.6789  151.1454 LP  0  0  0  0  0  0  0  0  0  0  0  0  # atno 17371 bound_to 10713
  140.1524  134.9221  157.2610 LP  0  0  0  0  0  0  0  0  0  0  0  0  # atno 17394 bound_to 11000
  140.2707  134.3463  155.7374 LP  0  0  0  0  0  0  0  0  0  0  0  0  # atno 17395 bound_to 11000

$$$$
