AV-unprocessed.smi:82|AV-procd|sdf|795|dock2
  -GOLD-   2262017173D 1   1.00000     0.00000
 Structure written by MMmdl.
 59 62  0  0  0  0  0  0  0  0  2 V2000
  152.2598  143.4342  159.9855 C   0  0  0  0  0  0  0  0  0  0  0  0
  152.0460  142.4529  158.9857 O   0  0  0  0  0  0  0  0  0  0  0  0
  150.9014  142.7240  158.1939 C   0  0  0  0  0  0  0  0  0  0  0  0
  150.7570  141.6212  157.1347 C   0  0  0  0  0  0  0  0  0  0  0  0
  149.4866  141.7317  156.3714 N   0  3  1  0  0  0  0  0  0  0  0  0
  149.5050  141.0270  155.0613 C   0  0  0  0  0  0  0  0  0  0  0  0
  148.2198  141.3154  154.2651 C   0  0  0  0  0  0  0  0  0  0  0  0
  147.0281  141.0224  155.0585 N   0  0  0  0  0  0  0  0  0  0  0  0
  146.4508  139.7937  154.9721 C   0  0  0  0  0  0  0  0  0  0  0  0
  145.9701  139.1965  156.0955 N   0  0  0  0  0  0  0  0  0  0  0  0
  145.3812  137.9994  156.0290 C   0  0  0  0  0  0  0  0  0  0  0  0
  145.1798  137.2286  154.9599 N   0  0  0  0  0  0  0  0  0  0  0  0
  145.6768  137.8091  153.8307 C   0  0  0  0  0  0  0  0  0  0  0  0
  146.3154  139.0794  153.7466 C   0  0  0  0  0  0  0  0  0  0  0  0
  146.6816  139.3340  152.4299 N   0  0  0  0  0  0  0  0  0  0  0  0
  146.2705  138.2838  151.7732 C   0  0  0  0  0  0  0  0  0  0  0  0
  145.6837  137.3047  152.5420 N   0  0  0  0  0  0  0  0  0  0  0  0
  145.1197  136.0714  152.0771 C   0  0  0  0  0  0  0  0  0  0  0  0
  145.7045  134.7239  152.5065 C   0  0  0  0  0  0  0  0  0  0  0  0
  145.3184  134.1255  151.1362 C   0  0  0  0  0  0  0  0  0  0  0  0
  146.3704  133.1958  150.5090 C   0  0  0  0  0  0  0  0  0  0  0  0
  146.5824  132.0503  151.3092 O   0  0  0  0  0  0  0  0  0  0  0  0
  143.9400  133.4359  151.0864 C   0  0  0  0  0  0  0  0  0  0  0  0
  143.5238  133.2119  149.7546 O   0  0  0  0  0  0  0  0  0  0  0  0
  145.3414  135.5899  150.6414 C   0  0  0  0  0  0  0  0  0  0  0  0
  146.9868  141.6932  156.3570 C   0  0  0  0  0  0  0  0  0  0  0  0
  148.2678  141.4326  157.1813 C   0  0  1  0  0  0  0  0  0  0  0  0
  148.2820  140.0216  157.8085 C   0  0  0  0  0  0  0  0  0  0  0  0
  153.1438  143.1773  160.5690 H   0  0  0  0  0  0  0  0  0  0  0  0
  151.4118  143.4927  160.6688 H   0  0  0  0  0  0  0  0  0  0  0  0
  152.4227  144.4180  159.5441 H   0  0  0  0  0  0  0  0  0  0  0  0
  150.0105  142.8002  158.8176 H   0  0  0  0  0  0  0  0  0  0  0  0
  151.0244  143.6870  157.6961 H   0  0  0  0  0  0  0  0  0  0  0  0
  151.6031  141.6440  156.4464 H   0  0  0  0  0  0  0  0  0  0  0  0
  150.7977  140.6576  157.6446 H   0  0  0  0  0  0  0  0  0  0  0  0
  150.3610  141.3468  154.4689 H   0  0  0  0  0  0  0  0  0  0  0  0
  149.6235  139.9546  155.2197 H   0  0  0  0  0  0  0  0  0  0  0  0
  148.1897  142.3714  153.9946 H   0  0  0  0  0  0  0  0  0  0  0  0
  148.2150  140.7657  153.3229 H   0  0  0  0  0  0  0  0  0  0  0  0
  145.0211  137.6016  156.9664 H   0  0  0  0  0  0  0  0  0  0  0  0
  146.3953  138.1911  150.7039 H   0  0  0  0  0  0  0  0  0  0  0  0
  144.0541  136.1214  152.3075 H   0  0  0  0  0  0  0  0  0  0  0  0
  146.7840  134.7708  152.6629 H   0  0  0  0  0  0  0  0  0  0  0  0
  145.2066  134.2680  153.3629 H   0  0  0  0  0  0  0  0  0  0  0  0
  146.0820  132.8794  149.5064 H   0  0  0  0  0  0  0  0  0  0  0  0
  147.3268  133.7085  150.4031 H   0  0  0  0  0  0  0  0  0  0  0  0
  147.1708  131.4697  150.8510 H   0  0  0  0  0  0  0  0  0  0  0  0
  143.9510  132.4827  151.6155 H   0  0  0  0  0  0  0  0  0  0  0  0
  143.1774  134.0426  151.5751 H   0  0  0  0  0  0  0  0  0  0  0  0
  142.6299  133.5055  149.6657 H   0  0  0  0  0  0  0  0  0  0  0  0
  144.5422  135.8590  149.9502 H   0  0  0  0  0  0  0  0  0  0  0  0
  146.3135  135.8904  150.2460 H   0  0  0  0  0  0  0  0  0  0  0  0
  146.8898  142.7632  156.1691 H   0  0  0  0  0  0  0  0  0  0  0  0
  146.1113  141.4142  156.9411 H   0  0  0  0  0  0  0  0  0  0  0  0
  148.2541  142.1434  158.0085 H   0  0  0  0  0  0  0  0  0  0  0  0
  147.3683  139.8437  158.3760 H   0  0  0  0  0  0  0  0  0  0  0  0
  149.1145  139.8946  158.5002 H   0  0  0  0  0  0  0  0  0  0  0  0
  148.3549  139.2356  157.0581 H   0  0  0  0  0  0  0  0  0  0  0  0
  149.4031  142.7130  156.1457 H   0  0  0  0  0  0  0  0  0  0  0  0
  1  2  1  0  0  0  0
  1 29  1  0  0  0  0
  1 30  1  0  0  0  0
  1 31  1  0  0  0  0
  2  3  1  0  0  0  0
  3  4  1  0  0  0  0
  3 32  1  0  0  0  0
  3 33  1  0  0  0  0
  4  5  1  0  0  0  0
  4 34  1  0  0  0  0
  4 35  1  0  0  0  0
  5 27  1  0  0  0  0
  5  6  1  0  0  0  0
  5 59  1  0  0  0  0
  6  7  1  0  0  0  0
  6 36  1  0  0  0  0
  6 37  1  0  0  0  0
  7  8  1  0  0  0  0
  7 38  1  0  0  0  0
  7 39  1  0  0  0  0
  8  9  1  0  0  0  0
  8 26  1  0  0  0  0
  9 14  1  0  0  0  0
  9 10  2  0  0  0  0
 10 11  1  0  0  0  0
 11 12  2  0  0  0  0
 11 40  1  0  0  0  0
 12 13  1  0  0  0  0
 13 17  1  0  0  0  0
 13 14  2  0  0  0  0
 14 15  1  0  0  0  0
 15 16  2  0  0  0  0
 16 17  1  0  0  0  0
 16 41  1  0  0  0  0
 17 18  1  0  0  0  0
 18 25  1  0  0  0  0
 18 19  1  0  0  0  0
 18 42  1  0  0  0  0
 19 20  1  0  0  0  0
 19 43  1  0  0  0  0
 19 44  1  0  0  0  0
 20 21  1  0  0  0  0
 20 23  1  0  0  0  0
 20 25  1  0  0  0  0
 21 22  1  0  0  0  0
 21 45  1  0  0  0  0
 21 46  1  0  0  0  0
 22 47  1  0  0  0  0
 23 24  1  0  0  0  0
 23 48  1  0  0  0  0
 23 49  1  0  0  0  0
 24 50  1  0  0  0  0
 25 51  1  0  0  0  0
 25 52  1  0  0  0  0
 26 27  1  0  0  0  0
 26 53  1  0  0  0  0
 26 54  1  0  0  0  0
 27 28  1  0  0  0  0
 27 55  1  0  0  0  0
 28 56  1  0  0  0  0
 28 57  1  0  0  0  0
 28 58  1  0  0  0  0
M  CHG  1   5   1
M  END
> <s_m_source_file>
AV-unprocessed.smi

> <i_m_source_file_index>
82

> <i_lp_mmshare_version>
43012

> <i_f3d_flags>
0

> <s_epik_input>
W0NIM11PW0NIMl1bQ0gyXU4xW0NIMl1bQ0gyXU4oW0NIMl1bQ0BIXTFbQ0gzXSljKG5bY0hdbjIpYyhjMjMpbltjSF1uM1tDSF0oW0NIMl00KVtDSDJdQzQoW0NIMl1bT0hdKVtDSDJdW09IXQ==

> <s_epik_cmdline>
J2VwaWtfcHl0aG9uJywgJy1waCcsICc3LjAnLCAnLXRuJywgJzgnLCAnLW1hJywgJzIwMCcsICctbWV0YWxfYmluZGluZycsICctaW1hZScsICc8aW5maWxlLm1hZT4nLCAnLW9tYWUnLCAnPG91dGZpbGUubWFlPic=

> <r_lp_tautomer_probability>
1

> <r_epik_Ionization_Penalty>
0.304275

> <r_epik_Ionization_Penalty_Charging>
0.304214

> <r_epik_Ionization_Penalty_Neutral>
6.13137e-05

> <r_epik_State_Penalty>
0.300354

> <r_epik_Charging_Adjusted_Penalty>
0.604567

> <i_epik_Tot_Q>
1

> <i_epik_Tot_abs_Q>
1

> <r_epik_Metal_State_Penalty>
0.301147

> <b_epik_Metal_Only>
0

> <s_lp_Force_Field>
OPLS_2005

> <r_lp_Energy>
55.227

> <b_lp_Chiralities_Consistent>
1

> <s_lp_Variant>
AV-unprocessed.smi:82-2

> <Gold.Version>
5.8.1

> <Gold.Id.Protein>
6NUR|6NUR_protein|mol2

> <Gold.PLP.Fitness>
56.9974

> <Gold.PLP.PLP>
-44.7824

> <Gold.PLP.part.hbond>
-3.0000

> <Gold.PLP.part.metal>
0.0000

> <Gold.PLP.part.buried>
-4.7958

> <Gold.PLP.part.nonpolar>
-37.1772

> <Gold.PLP.part.repulsive>
0.9102

> <Gold.PLP.ligand.clash>
0.0000

> <Gold.PLP.ligand.torsion>
0.7434

> <Gold.PLP.Chemscore.Hbond>
4.0000

> <Gold.PLP.Chemscore.CHOScore>
0.2411

> <Gold.PLP.Chemscore.Metal>
0.0000

> <Gold.Chemscore.Hbonds>
donor molecule, donor type, donor heavy atom, donor atom, acceptor molecule, acceptor atom, score
      L1  H     5    59       P1  8028  1.50
      L1  H    22    47       P1 10747  1.00
      L1  H    24    50       P1 10186  1.00
      L1  C    16    41       P1 10171  0.27

> <Gold.PLP.Chemscore.Internal.Correction>
0.9788

> <Gold.Rescore>
     Score         DG    S(hbond)    S(metal)    S(lipo)     H(rot)  DE(clash)    DE(int)     intcor
     14.76     -17.13       2.98        0.00      93.03       3.60       0.35       2.02       ----

> <Gold.Chemscore.Fitness>
14.7562

> <Gold.Chemscore.DG>
-17.1258

> <Gold.Chemscore.ZeroCoef>
-5.4800

> <Gold.Chemscore.Hbond>
2.9837

> <Gold.Chemscore.Metal>
0.0000

> <Gold.Chemscore.Lipo>
93.0344

> <Gold.Chemscore.Internal_Hbond>
0.0000

> <Gold.Chemscore.DEClash>
0.3538

> <Gold.Chemscore.DEInternal>
2.0158

> <Gold.Chemscore.Rot>
3.5956

> <Gold.Chemscore.Internal.Correction>
   9.000000E+99

> <Gold.Chemscore.Hbonds>
donor molecule, donor type, donor heavy atom, donor atom, acceptor molecule, acceptor atom, score
      L1  H     5    59       P1  8028  0.75
      L1  H    22    47       P1 10747  0.94
      L1  H    24    50       P1 10186  1.00

> <Gold.Chemscore.Hbond.Weighted>
-9.9655

> <Gold.Chemscore.Metal.Weighted>
-0.0000

> <Gold.Chemscore.Lipo.Weighted>
-10.8850

> <Gold.Chemscore.Internal_Hbond.Weighted>
0.0000

> <Gold.Chemscore.DEClash.Weighted>
0.3538

> <Gold.Chemscore.DEInternal.Weighted>
2.0158

> <Gold.Chemscore.Rot.Weighted>
9.2047

> <Gold.Chemscore.Internal.Correction.Weighted>
   9.000000E+99

> <Gold.Protein.RotatedTorsions>
[ 6907 6896 6895 6894 ] final  -53.01 input  -60.11 | X-H torsion
[ 7974 7965 7964 7962 ] final   48.22 input  175.53 | X-H torsion
[ 8008 7997 7996 7995 ] final   80.63 input   59.86 | X-H torsion
[ 10167 10162 10161 10158 ] final -161.91 input  -65.29 | X-H torsion
[ 10718 10713 10712 10709 ] final   23.50 input   66.30 | X-H torsion
[ 10763 10752 10751 10750 ] final -154.34 input  -60.55 | X-H torsion
[ 11005 11000 10999 10996 ] final  120.41 input  -57.11 | X-H torsion

> <Gold.Protein.ActiveResidues>
 VAL166  LYS551  ARG553  GLY616  TRP617  ASP618  TYR619  PRO620  LYS621  CYS622 
 ASP623  PHE694  ASN695  SER759  ASP760  ASP761  ALA762  ILE779  LEU786  VAL792 
 PHE793  MET794  SER795  GLU796  ALA797  LYS798  CYS799  TRP800  GLU811  SER814 

> <Gold.Protein.RotatedAtoms>
  150.8465  134.7776  159.6974 H   0  0  0  0  0  0  0  0  0  0  0  0  # atno 6907 bound_to 6896
  152.4540  134.5328  159.9826 H   0  0  0  0  0  0  0  0  0  0  0  0  # atno 6908 bound_to 6896
  151.5457  133.3387  159.2979 H   0  0  0  0  0  0  0  0  0  0  0  0  # atno 6909 bound_to 6896
  146.0224  139.4667  142.9889 H   0  0  0  0  0  0  0  0  0  0  0  0  # atno 7974 bound_to 7965
  155.8861  140.3441  155.5922 H   0  0  0  0  0  0  0  0  0  0  0  0  # atno 8008 bound_to 7997
  155.7664  140.0839  157.2149 H   0  0  0  0  0  0  0  0  0  0  0  0  # atno 8009 bound_to 7997
  154.4029  140.1526  156.2879 H   0  0  0  0  0  0  0  0  0  0  0  0  # atno 8010 bound_to 7997
  139.6431  144.0223  152.2106 H   0  0  0  0  0  0  0  0  0  0  0  0  # atno 10167 bound_to 10162
  157.1670  130.6742  149.6064 H   0  0  0  0  0  0  0  0  0  0  0  0  # atno 10718 bound_to 10713
  154.7866  135.3192  154.7873 H   0  0  0  0  0  0  0  0  0  0  0  0  # atno 10763 bound_to 10752
  153.8572  135.6857  153.4790 H   0  0  0  0  0  0  0  0  0  0  0  0  # atno 10764 bound_to 10752
  153.1519  135.4696  154.9589 H   0  0  0  0  0  0  0  0  0  0  0  0  # atno 10765 bound_to 10752
  139.9184  134.9634  156.7803 H   0  0  0  0  0  0  0  0  0  0  0  0  # atno 11005 bound_to 11000
  145.7172  141.0087  143.1422 LP  0  0  0  0  0  0  0  0  0  0  0  0  # atno 17320 bound_to 7965
  144.6995  139.8827  143.7448 LP  0  0  0  0  0  0  0  0  0  0  0  0  # atno 17321 bound_to 7965
  139.9918  144.6356  150.7808 LP  0  0  0  0  0  0  0  0  0  0  0  0  # atno 17342 bound_to 10162
  140.7501  143.2949  151.3231 LP  0  0  0  0  0  0  0  0  0  0  0  0  # atno 17343 bound_to 10162
  155.9744  130.4692  150.6387 LP  0  0  0  0  0  0  0  0  0  0  0  0  # atno 17370 bound_to 10713
  157.4079  131.0819  151.1248 LP  0  0  0  0  0  0  0  0  0  0  0  0  # atno 17371 bound_to 10713
  140.6549  133.9697  155.7774 LP  0  0  0  0  0  0  0  0  0  0  0  0  # atno 17394 bound_to 11000
  141.0683  134.0244  157.3563 LP  0  0  0  0  0  0  0  0  0  0  0  0  # atno 17395 bound_to 11000

$$$$
