AV-unprocessed.smi:2923|AV-procd|sdf|11203|dock4
  -GOLD-   2272016 93D 1   1.00000     0.00000
 Structure written by MMmdl.
 47 49  0  0  0  0  0  0  0  0  2 V2000
  147.6620  133.1679  151.9576 C   0  0  0  0  0  0  0  0  0  0  0  0
  146.2931  133.2788  151.4658 N   0  0  0  0  0  0  0  0  0  0  0  0
  145.7582  132.2827  150.5465 C   0  0  0  0  0  0  0  0  0  0  0  0
  145.4916  134.3708  151.8632 C   0  0  0  0  0  0  0  0  0  0  0  0
  144.1141  134.2516  152.1709 C   0  0  0  0  0  0  0  0  0  0  0  0
  143.3809  135.3920  152.5588 C   0  0  0  0  0  0  0  0  0  0  0  0
  144.0227  136.6449  152.6458 C   0  0  0  0  0  0  0  0  0  0  0  0
  143.2360  137.7665  153.0254 N   0  0  0  0  0  0  0  0  0  0  0  0
  142.2321  137.8259  153.9176 C   0  0  0  0  0  0  0  0  0  0  0  0
  141.7783  136.8698  154.5455 O   0  0  0  0  0  0  0  0  0  0  0  0
  141.7596  139.0736  154.0333 N   0  0  0  0  0  0  0  0  0  0  0  0
  140.6619  139.4578  154.9125 C   0  0  1  0  0  0  0  0  0  0  0  0
  139.7059  140.4526  154.2549 C   0  0  2  0  0  0  0  0  0  0  0  0
  139.3491  141.8756  154.4984 C   0  0  0  0  0  0  0  0  0  0  0  0
  137.8065  141.7241  154.4158 C   0  0  0  0  0  0  0  0  0  0  0  0
  137.5467  140.2987  154.4145 O   0  0  0  0  0  0  0  0  0  0  0  0
  138.6568  139.7545  155.0983 C   0  0  1  0  0  0  0  0  0  0  0  0
  139.4517  138.4499  154.8894 C   0  0  0  0  0  0  0  0  0  0  0  0
  139.1634  137.6293  153.6157 C   0  0  0  0  0  0  0  0  0  0  0  0
  139.4022  137.4622  156.0556 C   0  0  0  0  0  0  0  0  0  0  0  0
  145.3981  136.7142  152.3200 C   0  0  0  0  0  0  0  0  0  0  0  0
  146.0618  135.5972  151.9523 N   0  3  0  0  0  0  0  0  0  0  0  0
  148.2522  134.0302  151.6451 H   0  0  0  0  0  0  0  0  0  0  0  0
  148.1510  132.2720  151.5748 H   0  0  0  0  0  0  0  0  0  0  0  0
  147.6750  133.1142  153.0467 H   0  0  0  0  0  0  0  0  0  0  0  0
  144.8889  131.7880  150.9808 H   0  0  0  0  0  0  0  0  0  0  0  0
  146.4986  131.5158  150.3189 H   0  0  0  0  0  0  0  0  0  0  0  0
  145.4620  132.7478  149.6058 H   0  0  0  0  0  0  0  0  0  0  0  0
  143.6035  133.3019  152.1140 H   0  0  0  0  0  0  0  0  0  0  0  0
  142.3297  135.2997  152.7905 H   0  0  0  0  0  0  0  0  0  0  0  0
  143.4448  138.6262  152.5389 H   0  0  0  0  0  0  0  0  0  0  0  0
  142.1813  139.8048  153.4797 H   0  0  0  0  0  0  0  0  0  0  0  0
  140.9744  139.7633  155.9154 H   0  0  0  0  0  0  0  0  0  0  0  0
  139.6098  140.2380  153.1880 H   0  0  0  0  0  0  0  0  0  0  0  0
  139.6754  142.2161  155.4821 H   0  0  0  0  0  0  0  0  0  0  0  0
  139.7455  142.5487  153.7378 H   0  0  0  0  0  0  0  0  0  0  0  0
  137.3229  142.1989  155.2703 H   0  0  0  0  0  0  0  0  0  0  0  0
  137.4014  142.1690  153.5066 H   0  0  0  0  0  0  0  0  0  0  0  0
  138.6536  140.0670  156.1490 H   0  0  0  0  0  0  0  0  0  0  0  0
  138.1757  137.1697  153.6618 H   0  0  0  0  0  0  0  0  0  0  0  0
  139.8877  136.8237  153.4910 H   0  0  0  0  0  0  0  0  0  0  0  0
  139.1892  138.2159  152.6994 H   0  0  0  0  0  0  0  0  0  0  0  0
  138.4191  136.9993  156.1462 H   0  0  0  0  0  0  0  0  0  0  0  0
  139.6167  137.9529  157.0055 H   0  0  0  0  0  0  0  0  0  0  0  0
  140.1346  136.6632  155.9363 H   0  0  0  0  0  0  0  0  0  0  0  0
  145.9974  137.6119  152.3237 H   0  0  0  0  0  0  0  0  0  0  0  0
  147.0525  135.6843  151.7254 H   0  0  0  0  0  0  0  0  0  0  0  0
  1  2  1  0  0  0  0
  1 23  1  0  0  0  0
  1 24  1  0  0  0  0
  1 25  1  0  0  0  0
  2  3  1  0  0  0  0
  2  4  1  0  0  0  0
  3 26  1  0  0  0  0
  3 27  1  0  0  0  0
  3 28  1  0  0  0  0
  4 22  1  0  0  0  0
  4  5  2  0  0  0  0
  5  6  1  0  0  0  0
  5 29  1  0  0  0  0
  6  7  2  0  0  0  0
  6 30  1  0  0  0  0
  7  8  1  0  0  0  0
  7 21  1  0  0  0  0
  8  9  1  0  0  0  0
  8 31  1  0  0  0  0
  9 10  2  0  0  0  0
  9 11  1  0  0  0  0
 11 12  1  0  0  0  0
 11 32  1  0  0  0  0
 12 18  1  0  0  0  0
 12 13  1  0  0  0  0
 12 33  1  0  0  0  0
 13 17  1  0  0  0  0
 13 14  1  0  0  0  0
 13 34  1  0  0  0  0
 14 15  1  0  0  0  0
 14 35  1  0  0  0  0
 14 36  1  0  0  0  0
 15 16  1  0  0  0  0
 15 37  1  0  0  0  0
 15 38  1  0  0  0  0
 16 17  1  0  0  0  0
 17 18  1  0  0  0  0
 17 39  1  0  0  0  0
 18 19  1  0  0  0  0
 18 20  1  0  0  0  0
 19 40  1  0  0  0  0
 19 41  1  0  0  0  0
 19 42  1  0  0  0  0
 20 43  1  0  0  0  0
 20 44  1  0  0  0  0
 20 45  1  0  0  0  0
 21 22  2  0  0  0  0
 21 46  1  0  0  0  0
 22 47  1  0  0  0  0
M  CHG  1  22   1
M  END
> <s_m_source_file>
AV-unprocessed.smi

> <i_m_source_file_index>
2923

> <i_lp_mmshare_version>
43012

> <i_f3d_flags>
0

> <s_epik_input>
W0NIM11OKFtDSDNdKWMxW2NIXVtjSF1jKFtjSF1uMSlbTkhdQyg9TylbTkhdW0NASF0yQyhbQ0gzXSkoW0NIM10pW0NAQEhdKFtDQEhdMjMpT1tDSDJdW0NIMl0z

> <s_epik_cmdline>
J2VwaWtfcHl0aG9uJywgJy1waCcsICc3LjAnLCAnLXRuJywgJzgnLCAnLW1hJywgJzIwMCcsICctbWV0YWxfYmluZGluZycsICctaW1hZScsICc8aW5maWxlLm1hZT4nLCAnLW9tYWUnLCAnPG91dGZpbGUubWFlPic=

> <r_lp_tautomer_probability>
0.999994

> <r_epik_Ionization_Penalty>
0.252205

> <r_epik_Ionization_Penalty_Charging>
0.252185

> <r_epik_Ionization_Penalty_Neutral>
1.99479e-05

> <r_epik_State_Penalty>
0.243573

> <r_epik_Charging_Adjusted_Penalty>
0.495758

> <i_epik_Tot_Q>
1

> <i_epik_Tot_abs_Q>
1

> <r_epik_Metal_State_Penalty>
0.534372

> <b_epik_Metal_Only>
0

> <s_lp_Force_Field>
OPLS_2005

> <r_lp_Energy>
67.7909

> <b_lp_Chiralities_Consistent>
1

> <s_lp_Variant>
AV-unprocessed.smi:2923-2

> <Gold.Version>
5.8.1

> <Gold.Id.Protein>
6NUR|6NUR_protein|mol2

> <Gold.PLP.Fitness>
46.2348

> <Gold.PLP.PLP>
-36.2270

> <Gold.PLP.part.hbond>
-3.4487

> <Gold.PLP.part.metal>
0.0000

> <Gold.PLP.part.buried>
-4.5927

> <Gold.PLP.part.nonpolar>
-28.6213

> <Gold.PLP.part.repulsive>
0.1597

> <Gold.PLP.ligand.clash>
0.0000

> <Gold.PLP.ligand.torsion>
1.1294

> <Gold.PLP.Chemscore.Hbond>
4.0000

> <Gold.PLP.Chemscore.CHOScore>
0.0000

> <Gold.PLP.Chemscore.Metal>
0.0000

> <Gold.Chemscore.Hbonds>
donor molecule, donor type, donor heavy atom, donor atom, acceptor molecule, acceptor atom, score
      L1  H     8    31       P1 10175  1.00
      L1  H    11    32       P1 10175  1.00
      L1  H    22    47       P1  7948  2.00

> <Gold.PLP.Chemscore.Internal.Correction>
0.2666

> <Gold.Rescore>
     Score         DG    S(hbond)    S(metal)    S(lipo)     H(rot)  DE(clash)    DE(int)     intcor
     18.31     -21.95       2.91        0.00      79.74       1.00       0.12       3.52       ----

> <Gold.Chemscore.Fitness>
18.3135

> <Gold.Chemscore.DG>
-21.9549

> <Gold.Chemscore.ZeroCoef>
-5.4800

> <Gold.Chemscore.Hbond>
2.9057

> <Gold.Chemscore.Metal>
0.0000

> <Gold.Chemscore.Lipo>
79.7434

> <Gold.Chemscore.Internal_Hbond>
0.0000

> <Gold.Chemscore.DEClash>
0.1183

> <Gold.Chemscore.DEInternal>
3.5231

> <Gold.Chemscore.Rot>
1.0000

> <Gold.Chemscore.Internal.Correction>
   9.000000E+99

> <Gold.Chemscore.Hbonds>
donor molecule, donor type, donor heavy atom, donor atom, acceptor molecule, acceptor atom, score
      L1  H     8    31       P1 10175  0.97
      L1  H    11    32       P1 10175  0.86
      L1  H    22    47       P1  7948  0.99

> <Gold.Chemscore.Hbond.Weighted>
-9.7049

> <Gold.Chemscore.Metal.Weighted>
-0.0000

> <Gold.Chemscore.Lipo.Weighted>
-9.3300

> <Gold.Chemscore.Internal_Hbond.Weighted>
0.0000

> <Gold.Chemscore.DEClash.Weighted>
0.1183

> <Gold.Chemscore.DEInternal.Weighted>
3.5231

> <Gold.Chemscore.Rot.Weighted>
2.5600

> <Gold.Chemscore.Internal.Correction.Weighted>
   9.000000E+99

> <Gold.Protein.RotatedTorsions>
[ 6907 6896 6895 6894 ] final  149.78 input  -60.11 | X-H torsion
[ 7974 7965 7964 7962 ] final   16.77 input  175.53 | X-H torsion
[ 8008 7997 7996 7995 ] final -123.81 input   59.86 | X-H torsion
[ 10167 10162 10161 10158 ] final   23.01 input  -65.29 | X-H torsion
[ 10718 10713 10712 10709 ] final  -93.57 input   66.30 | X-H torsion
[ 10763 10752 10751 10750 ] final -166.12 input  -60.55 | X-H torsion
[ 11005 11000 10999 10996 ] final  124.18 input  -57.11 | X-H torsion

> <Gold.Protein.ActiveResidues>
 VAL166  LYS551  ARG553  GLY616  TRP617  ASP618  TYR619  PRO620  LYS621  CYS622 
 ASP623  PHE694  ASN695  SER759  ASP760  ASP761  ALA762  ILE779  LEU786  VAL792 
 PHE793  MET794  SER795  GLU796  ALA797  LYS798  CYS799  TRP800  GLU811  SER814 

> <Gold.Protein.RotatedAtoms>
  152.1234  133.4366  159.4686 H   0  0  0  0  0  0  0  0  0  0  0  0  # atno 6907 bound_to 6896
  150.6873  134.2507  159.4519 H   0  0  0  0  0  0  0  0  0  0  0  0  # atno 6908 bound_to 6896
  152.0385  134.9725  160.0624 H   0  0  0  0  0  0  0  0  0  0  0  0  # atno 6909 bound_to 6896
  146.2239  139.8700  142.8589 H   0  0  0  0  0  0  0  0  0  0  0  0  # atno 7974 bound_to 7965
  155.1865  140.0412  157.2892 H   0  0  0  0  0  0  0  0  0  0  0  0  # atno 8008 bound_to 7997
  154.6167  140.2490  155.7572 H   0  0  0  0  0  0  0  0  0  0  0  0  # atno 8009 bound_to 7997
  156.2411  140.2903  156.0456 H   0  0  0  0  0  0  0  0  0  0  0  0  # atno 8010 bound_to 7997
  140.5303  143.9853  150.6462 H   0  0  0  0  0  0  0  0  0  0  0  0  # atno 10167 bound_to 10162
  156.0015  130.5032  150.5797 H   0  0  0  0  0  0  0  0  0  0  0  0  # atno 10718 bound_to 10713
  154.6865  135.2963  154.9540 H   0  0  0  0  0  0  0  0  0  0  0  0  # atno 10763 bound_to 10752
  154.0518  135.6643  153.4805 H   0  0  0  0  0  0  0  0  0  0  0  0  # atno 10764 bound_to 10752
  153.0582  135.5131  154.7934 H   0  0  0  0  0  0  0  0  0  0  0  0  # atno 10765 bound_to 10752
  139.9347  134.9640  156.8371 H   0  0  0  0  0  0  0  0  0  0  0  0  # atno 11005 bound_to 11000
  145.2618  141.0079  143.3822 LP  0  0  0  0  0  0  0  0  0  0  0  0  # atno 17320 bound_to 7965
  144.9293  139.4318  143.6503 LP  0  0  0  0  0  0  0  0  0  0  0  0  # atno 17321 bound_to 7965
  140.3226  143.3127  152.0768 LP  0  0  0  0  0  0  0  0  0  0  0  0  # atno 17342 bound_to 10162
  139.4952  144.6563  151.6564 LP  0  0  0  0  0  0  0  0  0  0  0  0  # atno 17343 bound_to 10162
  157.3679  131.0760  151.1582 LP  0  0  0  0  0  0  0  0  0  0  0  0  # atno 17370 bound_to 10713
  157.2346  130.6541  149.5864 LP  0  0  0  0  0  0  0  0  0  0  0  0  # atno 17371 bound_to 10713
  140.6108  134.0084  155.7576 LP  0  0  0  0  0  0  0  0  0  0  0  0  # atno 17394 bound_to 11000
  141.0954  133.9852  157.3169 LP  0  0  0  0  0  0  0  0  0  0  0  0  # atno 17395 bound_to 11000

$$$$
