#       Name:                AV-unprocessed.smi:1411
#       Creating user name   scv26
#       Creation time:       Fri Mar 27 05:37:27 2020


#       File generated by GOLD software.
#

@<TRIPOS>MOLECULE
AV-unprocessed.smi:1411
    49    50     1
SMALL
NO_CHARGES


@<TRIPOS>ATOM
      1 ****        -0.2040   2.1341  -0.2689 O.2            1 S1                 0.0000
      2 ****         0.4628   1.3319   0.3864 C.2            1 S1                 0.0000
      3 ****         1.9847   1.4877   0.5174 C.3            1 S1                 0.0000
      4 ****         2.5729   2.3587  -0.5139 N.am           1 S1                 0.0000
      5 ****         2.9943   1.7343  -1.7044 C.2            1 S1                 0.0000
      6 ****         3.5410   2.4273  -2.7223 C.2            1 S1                 0.0000
      7 ****         3.9636   1.7693  -3.9393 N.pl3          1 S1                 1.0000
      8 ****         4.4707   2.4459  -4.8282 O.2            1 S1                 0.0000
      9 ****         3.8038   0.5571  -4.0472 O.2            1 S1                -1.0000
     10 ****         3.6890   3.8605  -2.5587 C.2            1 S1                 0.0000
     11 ****         3.2833   4.4646  -1.4244 C.2            1 S1                 0.0000
     12 ****         2.6844   3.7086  -0.3196 C.2            1 S1                 0.0000
     13 ****         2.3056   4.2560   0.7159 O.2            1 S1                 0.0000
     14 ****        -0.0737   0.2829   1.0286 N.am           1 S1                 0.0000
     15 ****        -1.4909  -0.0744   1.0457 C.3            1 S1                 0.0000
     16 ****        -1.7910  -0.8742   2.3323 C.3            1 S1                 0.0000
     17 ****        -3.1846  -1.5306   2.4013 C.3            1 S1                 0.0000
     18 ****        -3.1909  -3.0485   2.1263 C.3            1 S1                 0.0000
     19 ****        -2.8908  -3.4973   0.6812 C.3            1 S1                 0.0000
     20 ****        -1.4352  -3.2714   0.2233 C.3            1 S1                 0.0000
     21 ****        -1.2086  -2.0477  -0.6856 C.3            1 S1                 0.0000
     22 ****        -1.9194  -0.7403  -0.2841 C.3            1 S1                 0.0000
     23 ****         2.2115   1.8582   1.5185 H              1 S1                 0.0000
     24 ****         2.4465   0.4999   0.4712 H              1 S1                 0.0000
     25 ****         2.8347   0.6657  -1.7290 H              1 S1                 0.0000
     26 ****         4.1244   4.4599  -3.3447 H              1 S1                 0.0000
     27 ****         3.4017   5.5337  -1.3249 H              1 S1                 0.0000
     28 ****         0.5493  -0.3206   1.5456 H              1 S1                 0.0000
     29 ****        -2.0656   0.8504   1.1247 H              1 S1                 0.0000
     30 ****        -1.0166  -1.6158   2.5250 H              1 S1                 0.0000
     31 ****        -1.7061  -0.1781   3.1681 H              1 S1                 0.0000
     32 ****        -3.5601  -1.3932   3.4160 H              1 S1                 0.0000
     33 ****        -3.9031  -1.0122   1.7666 H              1 S1                 0.0000
     34 ****        -2.5018  -3.5445   2.8110 H              1 S1                 0.0000
     35 ****        -4.1793  -3.4268   2.3899 H              1 S1                 0.0000
     36 ****        -3.0825  -4.5702   0.6391 H              1 S1                 0.0000
     37 ****        -3.6017  -3.0606  -0.0202 H              1 S1                 0.0000
     38 ****        -0.7642  -3.2444   1.0802 H              1 S1                 0.0000
     39 ****        -1.1151  -4.1492  -0.3393 H              1 S1                 0.0000
     40 ****        -0.1377  -1.8713  -0.7895 H              1 S1                 0.0000
     41 ****        -1.5559  -2.3091  -1.6858 H              1 S1                 0.0000
     42 ****        -2.9981  -0.8849  -0.2981 H              1 S1                 0.0000
     43 ****        -1.7474  -0.0225  -1.0871 H              1 S1                 0.0000
     44 ****         0.2451   2.9018  -0.7260 LP             1 S1                 0.0000
     45 ****        -1.1944   2.0176  -0.3437 LP             1 S1                 0.0000
     46 ****         4.5847   3.4315  -4.7031 LP             1 S1                 0.0000
     47 ****         4.7701   2.0119  -5.6779 LP             1 S1                 0.0000
     48 ****         1.9005   3.7112   1.4501 LP             1 S1                 0.0000
     49 ****         2.4030   5.2455   0.8229 LP             1 S1                 0.0000
@<TRIPOS>BOND
    1    1    2 2     
    2    2    3 1     
    3    2   14 am    
    4    3    4 1     
    5    3   23 1     
    6    3   24 1     
    7    4   12 am    
    8    4    5 1     
    9    5    6 2     
   10    5   25 1     
   11    6    7 1     
   12    6   10 1     
   13    7    8 2     
   14    7    9 1     
   15   10   11 2     
   16   10   26 1     
   17   11   12 1     
   18   11   27 1     
   19   12   13 2     
   20   14   15 1     
   21   14   28 1     
   22   15   22 1     
   23   15   16 1     
   24   15   29 1     
   25   16   17 1     
   26   16   30 1     
   27   16   31 1     
   28   17   18 1     
   29   17   32 1     
   30   17   33 1     
   31   18   19 1     
   32   18   34 1     
   33   18   35 1     
   34   19   20 1     
   35   19   36 1     
   36   19   37 1     
   37   20   21 1     
   38   20   38 1     
   39   20   39 1     
   40   21   22 1     
   41   21   40 1     
   42   21   41 1     
   43   22   42 1     
   44   22   43 1     
   45    1   44 1     
   46    1   45 1     
   47    8   46 1     
   48    8   47 1     
   49   13   48 1     
   50   13   49 1     
@<TRIPOS>SUBSTRUCTURE
      1 S1             1
@<TRIPOS>SET
LONE_PAIRS      STATIC     ATOMS    <user>   **** ""
7 44 45 46 47 9 48 49
DONOR_HYDROGENS      STATIC     ATOMS    <user>   **** ""
1 28
ATOM$BLUE        STATIC     ATOMS    COLORGROUP SYSTEM
7 44 45 46 47 9 48 49
ATOM$RED        STATIC     ATOMS    COLORGROUP SYSTEM
1 28
