AV-unprocessed.smi:354|AV-procd|sdf|2406|dock4
  -GOLD-   2262022343D 1   1.00000     0.00000
 Structure written by MMmdl.
 37 39  0  0  0  0  0  0  0  0  2 V2000
  151.6863  136.4743  153.7718 O   0  0  0  0  0  0  0  0  0  0  0  0
  151.8988  137.6851  154.4632 C   0  0  0  0  0  0  0  0  0  0  0  0
  150.6910  138.5627  154.4545 C   0  0  0  0  0  0  0  0  0  0  0  0
  149.5435  138.3360  153.7550 N   0  3  0  0  0  0  0  0  0  0  0  0
  148.6309  139.3633  153.9981 C   0  0  0  0  0  0  0  0  0  0  0  0
  147.3412  139.5687  153.5173 C   0  0  0  0  0  0  0  0  0  0  0  0
  146.6773  140.7304  153.9631 C   0  0  0  0  0  0  0  0  0  0  0  0
  147.2958  141.6348  154.8505 C   0  0  0  0  0  0  0  0  0  0  0  0
  148.6025  141.4145  155.3331 C   0  0  0  0  0  0  0  0  0  0  0  0
  149.2519  140.2622  154.8896 C   0  0  0  0  0  0  0  0  0  0  0  0
  150.5193  139.7253  155.1472 N   0  0  0  0  0  0  0  0  0  0  0  0
  151.4320  140.4224  156.0678 C   0  0  0  0  0  0  0  0  0  0  0  0
  150.8667  140.5575  157.4971 C   0  0  1  0  0  0  0  0  0  0  0  0
  150.7434  139.2873  158.1072 O   0  0  0  0  0  0  0  0  0  0  0  0
  151.6950  141.5221  158.3345 C   0  0  0  0  0  0  0  0  0  0  0  0
  151.5516  142.9133  158.1405 C   0  0  0  0  0  0  0  0  0  0  0  0
  152.3160  143.8213  158.8984 C   0  0  0  0  0  0  0  0  0  0  0  0
  153.2310  143.3445  159.8558 C   0  0  0  0  0  0  0  0  0  0  0  0
  153.3809  141.9591  160.0543 C   0  0  0  0  0  0  0  0  0  0  0  0
  152.6183  141.0484  159.2966 C   0  0  0  0  0  0  0  0  0  0  0  0
  152.7835  139.7186  159.4967 F   0  0  0  0  0  0  0  0  0  0  0  0
  150.9065  136.0644  154.1138 H   0  0  0  0  0  0  0  0  0  0  0  0
  152.1828  137.4647  155.4922 H   0  0  0  0  0  0  0  0  0  0  0  0
  152.7359  138.2134  154.0060 H   0  0  0  0  0  0  0  0  0  0  0  0
  146.8654  138.8786  152.8361 H   0  0  0  0  0  0  0  0  0  0  0  0
  145.6745  140.9330  153.6162 H   0  0  0  0  0  0  0  0  0  0  0  0
  146.7578  142.5163  155.1677 H   0  0  0  0  0  0  0  0  0  0  0  0
  149.0683  142.1176  156.0078 H   0  0  0  0  0  0  0  0  0  0  0  0
  152.3963  139.9145  156.0642 H   0  0  0  0  0  0  0  0  0  0  0  0
  151.6158  141.4126  155.6496 H   0  0  0  0  0  0  0  0  0  0  0  0
  149.8534  140.9546  157.4266 H   0  0  0  0  0  0  0  0  0  0  0  0
  151.5334  139.1117  158.5955 H   0  0  0  0  0  0  0  0  0  0  0  0
  150.8545  143.2916  157.4072 H   0  0  0  0  0  0  0  0  0  0  0  0
  152.2016  144.8841  158.7436 H   0  0  0  0  0  0  0  0  0  0  0  0
  153.8185  144.0407  160.4362 H   0  0  0  0  0  0  0  0  0  0  0  0
  154.0845  141.5930  160.7874 H   0  0  0  0  0  0  0  0  0  0  0  0
  149.3967  137.5325  153.1578 H   0  0  0  0  0  0  0  0  0  0  0  0
  1  2  1  0  0  0  0
  1 22  1  0  0  0  0
  2  3  1  0  0  0  0
  2 23  1  0  0  0  0
  2 24  1  0  0  0  0
  3 11  1  0  0  0  0
  3  4  2  0  0  0  0
  4  5  1  0  0  0  0
  4 37  1  0  0  0  0
  5 10  2  0  0  0  0
  5  6  1  0  0  0  0
  6  7  2  0  0  0  0
  6 25  1  0  0  0  0
  7  8  1  0  0  0  0
  7 26  1  0  0  0  0
  8  9  2  0  0  0  0
  8 27  1  0  0  0  0
  9 10  1  0  0  0  0
  9 28  1  0  0  0  0
 10 11  1  0  0  0  0
 11 12  1  0  0  0  0
 12 13  1  0  0  0  0
 12 29  1  0  0  0  0
 12 30  1  0  0  0  0
 13 14  1  0  0  0  0
 13 15  1  0  0  0  0
 13 31  1  0  0  0  0
 14 32  1  0  0  0  0
 15 20  1  0  0  0  0
 15 16  2  0  0  0  0
 16 17  1  0  0  0  0
 16 33  1  0  0  0  0
 17 18  2  0  0  0  0
 17 34  1  0  0  0  0
 18 19  1  0  0  0  0
 18 35  1  0  0  0  0
 19 20  2  0  0  0  0
 19 36  1  0  0  0  0
 20 21  1  0  0  0  0
M  CHG  1   4   1
M  END
> <s_m_source_file>
AV-unprocessed.smi

> <i_m_source_file_index>
354

> <i_lp_mmshare_version>
43012

> <i_f3d_flags>
0

> <s_epik_input>
W2NIXTFbY0hdW2NIXVtjSF1jKGMxMiluKGMobjIpW0NIMl1bT0hdKVtDSDJdW0NASF0oW09IXSljM1tjSF1bY0hdW2NIXVtjSF1jM0Y=

> <s_epik_cmdline>
J2VwaWtfcHl0aG9uJywgJy1waCcsICc3LjAnLCAnLXRuJywgJzgnLCAnLW1hJywgJzIwMCcsICctbWV0YWxfYmluZGluZycsICctaW1hZScsICc8aW5maWxlLm1hZT4nLCAnLW9tYWUnLCAnPG91dGZpbGUubWFlPic=

> <r_epik_Ionization_Penalty>
1.35643

> <r_epik_Ionization_Penalty_Charging>
1.35557

> <r_epik_Ionization_Penalty_Neutral>
0.000857128

> <r_epik_State_Penalty>
1.43401

> <r_epik_Charging_Adjusted_Penalty>
2.78958

> <i_epik_Tot_Q>
1

> <i_epik_Tot_abs_Q>
1

> <r_epik_Metal_State_Penalty>
5.47166

> <b_epik_Metal_Only>
0

> <s_lp_Force_Field>
OPLS_2005

> <r_lp_Energy>
15.3671

> <b_lp_Chiralities_Consistent>
1

> <s_lp_Variant>
AV-unprocessed.smi:354-4

> <Gold.Version>
5.8.1

> <Gold.Id.Protein>
6NUR|6NUR_protein|mol2

> <Gold.PLP.Fitness>
58.9094

> <Gold.PLP.PLP>
-51.1367

> <Gold.PLP.part.hbond>
-4.0000

> <Gold.PLP.part.metal>
0.0000

> <Gold.PLP.part.buried>
2.4343

> <Gold.PLP.part.nonpolar>
-49.3213

> <Gold.PLP.part.repulsive>
0.0696

> <Gold.PLP.ligand.clash>
0.0000

> <Gold.PLP.ligand.torsion>
0.6351

> <Gold.PLP.Chemscore.Hbond>
3.0000

> <Gold.PLP.Chemscore.CHOScore>
0.0000

> <Gold.PLP.Chemscore.Metal>
0.0000

> <Gold.Chemscore.Hbonds>
donor molecule, donor type, donor heavy atom, donor atom, acceptor molecule, acceptor atom, score
      L1  H     4    37       P1  7948  2.00
      P1  H 10752 10763       L1     1  1.00

> <Gold.PLP.Chemscore.Internal.Correction>
0.0429

> <Gold.Rescore>
     Score         DG    S(hbond)    S(metal)    S(lipo)     H(rot)  DE(clash)    DE(int)     intcor
     16.51     -18.76       1.80        0.00     123.89       2.82       0.15       2.10       ----

> <Gold.Chemscore.Fitness>
16.5067

> <Gold.Chemscore.DG>
-18.7571

> <Gold.Chemscore.ZeroCoef>
-5.4800

> <Gold.Chemscore.Hbond>
1.7983

> <Gold.Chemscore.Metal>
0.0000

> <Gold.Chemscore.Lipo>
123.8886

> <Gold.Chemscore.Internal_Hbond>
0.0000

> <Gold.Chemscore.DEClash>
0.1519

> <Gold.Chemscore.DEInternal>
2.0985

> <Gold.Chemscore.Rot>
2.8219

> <Gold.Chemscore.Internal.Correction>
   9.000000E+99

> <Gold.Chemscore.Hbonds>
donor molecule, donor type, donor heavy atom, donor atom, acceptor molecule, acceptor atom, score
      L1  H     4    37       P1  7948  0.94
      P1  H 10752 10763       L1     1  0.36

> <Gold.Chemscore.Hbond.Weighted>
-6.0062

> <Gold.Chemscore.Metal.Weighted>
-0.0000

> <Gold.Chemscore.Lipo.Weighted>
-14.4950

> <Gold.Chemscore.Internal_Hbond.Weighted>
0.0000

> <Gold.Chemscore.DEClash.Weighted>
0.1519

> <Gold.Chemscore.DEInternal.Weighted>
2.0985

> <Gold.Chemscore.Rot.Weighted>
7.2240

> <Gold.Chemscore.Internal.Correction.Weighted>
   9.000000E+99

> <Gold.Protein.RotatedTorsions>
[ 6907 6896 6895 6894 ] final  -51.47 input  -60.11 | X-H torsion
[ 7974 7965 7964 7962 ] final  138.51 input  175.53 | X-H torsion
[ 8008 7997 7996 7995 ] final  -59.92 input   59.86 | X-H torsion
[ 10167 10162 10161 10158 ] final  -52.68 input  -65.29 | X-H torsion
[ 10718 10713 10712 10709 ] final  129.40 input   66.30 | X-H torsion
[ 10763 10752 10751 10750 ] final   22.04 input  -60.55 | X-H torsion
[ 11005 11000 10999 10996 ] final -115.65 input  -57.11 | X-H torsion

> <Gold.Protein.ActiveResidues>
 VAL166  LYS551  ARG553  GLY616  TRP617  ASP618  TYR619  PRO620  LYS621  CYS622 
 ASP623  PHE694  ASN695  SER759  ASP760  ASP761  ALA762  ILE779  LEU786  VAL792 
 PHE793  MET794  SER795  GLU796  ALA797  LYS798  CYS799  TRP800  GLU811  SER814 

> <Gold.Protein.RotatedAtoms>
  150.8609  134.7960  159.7081 H   0  0  0  0  0  0  0  0  0  0  0  0  # atno 6907 bound_to 6896
  152.4646  134.5102  159.9761 H   0  0  0  0  0  0  0  0  0  0  0  0  # atno 6908 bound_to 6896
  151.5206  133.3429  159.2936 H   0  0  0  0  0  0  0  0  0  0  0  0  # atno 6909 bound_to 6896
  144.9365  139.4982  143.5592 H   0  0  0  0  0  0  0  0  0  0  0  0  # atno 7974 bound_to 7965
  154.4374  140.1051  156.6192 H   0  0  0  0  0  0  0  0  0  0  0  0  # atno 8008 bound_to 7997
  155.5726  140.3489  155.4500 H   0  0  0  0  0  0  0  0  0  0  0  0  # atno 8009 bound_to 7997
  156.0378  140.1275  157.0178 H   0  0  0  0  0  0  0  0  0  0  0  0  # atno 8010 bound_to 7997
  140.6525  143.2576  151.4682 H   0  0  0  0  0  0  0  0  0  0  0  0  # atno 10167 bound_to 10162
  157.5157  131.1097  150.9227 H   0  0  0  0  0  0  0  0  0  0  0  0  # atno 10718 bound_to 10713
  153.0947  135.6656  153.9787 H   0  0  0  0  0  0  0  0  0  0  0  0  # atno 10763 bound_to 10752
  153.9374  135.2997  155.3445 H   0  0  0  0  0  0  0  0  0  0  0  0  # atno 10764 bound_to 10752
  154.7364  135.5099  153.9123 H   0  0  0  0  0  0  0  0  0  0  0  0  # atno 10765 bound_to 10752
  141.0473  133.9742  157.2895 H   0  0  0  0  0  0  0  0  0  0  0  0  # atno 11005 bound_to 11000
  146.3269  139.8354  142.8900 LP  0  0  0  0  0  0  0  0  0  0  0  0  # atno 17320 bound_to 7965
  145.3058  141.0206  143.3583 LP  0  0  0  0  0  0  0  0  0  0  0  0  # atno 17321 bound_to 7965
  139.5742  144.1858  152.1879 LP  0  0  0  0  0  0  0  0  0  0  0  0  # atno 17342 bound_to 10162
  140.1163  144.5412  150.6892 LP  0  0  0  0  0  0  0  0  0  0  0  0  # atno 17343 bound_to 10162
  156.9854  130.5543  149.5299 LP  0  0  0  0  0  0  0  0  0  0  0  0  # atno 17370 bound_to 10713
  156.0319  130.5409  150.8555 LP  0  0  0  0  0  0  0  0  0  0  0  0  # atno 17371 bound_to 10713
  139.9322  135.0199  156.8439 LP  0  0  0  0  0  0  0  0  0  0  0  0  # atno 17394 bound_to 11000
  140.6121  134.0072  155.7581 LP  0  0  0  0  0  0  0  0  0  0  0  0  # atno 17395 bound_to 11000

$$$$
