#       Name:                AV-unprocessed.smi:1815
#       Creating user name   scv26
#       Creation time:       Fri Mar 27 09:01:51 2020


#       File generated by GOLD software.
#

@<TRIPOS>MOLECULE
AV-unprocessed.smi:1815
    45    46     1
SMALL
NO_CHARGES


@<TRIPOS>ATOM
      1 ****        -3.1627   1.6334  -2.7240 C.3            1 S1                 0.0000
      2 ****        -2.4288   0.5767  -1.8917 C.3            1 S1                 0.0000
      3 ****        -0.9032   0.6466  -2.0829 C.3            1 S1                 0.0000
      4 ****        -0.2146  -0.4109  -1.3558 N.3            1 S1                 0.0000
      5 ****         1.2361  -0.2977  -1.5109 C.3            1 S1                 0.0000
      6 ****         2.0739  -1.2199  -0.6028 C.3            1 S1                 0.0000
      7 ****         1.7856  -1.0039   0.8120 N.am           1 S1                 0.0000
      8 ****         2.2487   0.0063   1.5617 C.2            1 S1                 0.0000
      9 ****         2.9964   0.8504   1.0622 O.2            1 S1                 0.0000
     10 ****         1.8160  -0.0230   2.8430 N.pl3          1 S1                -1.0000
     11 ****         2.2063   0.9302   3.7045 C.2            1 S1                 0.0000
     12 ****         3.1836   0.7476   4.5998 N.2            1 S1                 0.0000
     13 ****         3.4232   1.8683   5.3969 C.2            1 S1                 0.0000
     14 ****         2.6026   2.9262   5.1083 C.2            1 S1                 0.0000
     15 ****         1.4975   2.5439   3.8191 S.3            1 S1                 0.0000
     16 ****        -0.7278  -1.7057  -1.7956 C.3            1 S1                 0.0000
     17 ****        -2.2593  -1.8167  -1.6569 C.3            1 S1                 0.0000
     18 ****        -2.7260  -1.9852  -0.2010 C.3            1 S1                 0.0000
     19 ****        -2.8978  -0.7089  -2.2945 O.3            1 S1                 0.0000
     20 ****        -2.8499   2.6397  -2.4447 H              1 S1                 0.0000
     21 ****        -4.2404   1.5671  -2.5742 H              1 S1                 0.0000
     22 ****        -2.9652   1.5041  -3.7884 H              1 S1                 0.0000
     23 ****        -2.6718   0.7385  -0.8410 H              1 S1                 0.0000
     24 ****        -0.6637   0.5797  -3.1455 H              1 S1                 0.0000
     25 ****        -0.5446   1.6191  -1.7435 H              1 S1                 0.0000
     26 ****         1.5074  -0.4790  -2.5518 H              1 S1                 0.0000
     27 ****         1.5340   0.7314  -1.3054 H              1 S1                 0.0000
     28 ****         1.8935  -2.2684  -0.8369 H              1 S1                 0.0000
     29 ****         3.1360  -1.0552  -0.7899 H              1 S1                 0.0000
     30 ****         1.1728  -1.6695   1.2594 H              1 S1                 0.0000
     31 ****         4.1980   1.8239   6.1477 H              1 S1                 0.0000
     32 ****         2.5797   3.9004   5.5726 H              1 S1                 0.0000
     33 ****        -0.4556  -1.8656  -2.8400 H              1 S1                 0.0000
     34 ****        -0.2643  -2.5127  -1.2293 H              1 S1                 0.0000
     35 ****        -2.5801  -2.7073  -2.1978 H              1 S1                 0.0000
     36 ****        -2.3160  -2.8973   0.2330 H              1 S1                 0.0000
     37 ****        -3.8125  -2.0521  -0.1457 H              1 S1                 0.0000
     38 ****        -2.4087  -1.1553   0.4302 H              1 S1                 0.0000
     39 ****        -0.3952  -0.3211  -0.3764 LP             1 S1                 0.0000
     40 ****         3.2565   0.7807   0.0991 LP             1 S1                 0.0000
     41 ****         3.3427   1.6045   1.6203 LP             1 S1                 0.0000
     42 ****         1.2059  -0.7540   3.1484 LP             1 S1                 0.0000
     43 ****         3.6929  -0.1083   4.6893 LP             1 S1                 0.0000
     44 ****        -2.7552  -0.7952  -3.2805 LP             1 S1                 0.0000
     45 ****        -3.8761  -0.7582  -2.0936 LP             1 S1                 0.0000
@<TRIPOS>BOND
    1    1    2 1     
    2    1   20 1     
    3    1   21 1     
    4    1   22 1     
    5    2   19 1     
    6    2    3 1     
    7    2   23 1     
    8    3    4 1     
    9    3   24 1     
   10    3   25 1     
   11    4    5 1     
   12    4   16 1     
   13    5    6 1     
   14    5   26 1     
   15    5   27 1     
   16    6    7 1     
   17    6   28 1     
   18    6   29 1     
   19    7    8 am    
   20    7   30 1     
   21    8    9 2     
   22    8   10 1     
   23   10   11 1     
   24   11   15 1     
   25   11   12 2     
   26   12   13 1     
   27   13   14 2     
   28   13   31 1     
   29   14   15 1     
   30   14   32 1     
   31   16   17 1     
   32   16   33 1     
   33   16   34 1     
   34   17   18 1     
   35   17   19 1     
   36   17   35 1     
   37   18   36 1     
   38   18   37 1     
   39   18   38 1     
   40    4   39 1     
   41    9   40 1     
   42    9   41 1     
   43   10   42 1     
   44   12   43 1     
   45   19   44 1     
   46   19   45 1     
@<TRIPOS>SUBSTRUCTURE
      1 S1             1
@<TRIPOS>SET
LONE_PAIRS      STATIC     ATOMS    <user>   **** ""
7 39 40 41 42 43 44 45
DONOR_HYDROGENS      STATIC     ATOMS    <user>   **** ""
1 30
ATOM$BLUE        STATIC     ATOMS    COLORGROUP SYSTEM
7 39 40 41 42 43 44 45
ATOM$RED        STATIC     ATOMS    COLORGROUP SYSTEM
1 30
