AV-unprocessed.smi:104|AV-procd|sdf|993|dock3
  -GOLD-   2262017573D 1   1.00000     0.00000
 Structure written by MMmdl.
 47 49  0  0  0  0  0  0  0  0  1 V2000
  152.5107  140.0475  159.1841 C   0  0  0  0  0  0  0  0  0  0  0  0
  151.9418  139.4565  157.9002 C   0  0  0  0  0  0  0  0  0  0  0  0
  152.5006  139.6223  156.8160 O   0  0  0  0  0  0  0  0  0  0  0  0
  150.8077  138.7691  158.1057 O   0  0  0  0  0  0  0  0  0  0  0  0
  150.1302  138.1906  157.0024 C   0  0  0  0  0  0  0  0  0  0  0  0
  149.3965  136.9203  157.4624 C   0  0  2  0  0  0  0  0  0  0  0  0
  148.6312  136.3825  156.3902 O   0  0  0  0  0  0  0  0  0  0  0  0
  147.4076  137.0407  156.3294 C   0  0  1  0  0  0  0  0  0  0  0  0
  146.3786  136.0965  155.7868 N   0  0  0  0  0  0  0  0  0  0  0  0
  145.9639  134.8601  156.2382 C   0  0  0  0  0  0  0  0  0  0  0  0
  146.6806  134.0217  157.7912 Br  0  0  0  0  0  0  0  0  0  0  0  0
  145.0220  134.2673  155.5584 N   0  0  0  0  0  0  0  0  0  0  0  0
  144.7521  135.1786  154.5456 C   0  0  0  0  0  0  0  0  0  0  0  0
  143.8475  135.2014  153.4543 C   0  0  0  0  0  0  0  0  0  0  0  0
  142.9937  134.2026  153.1912 N   0  0  0  0  0  0  0  0  0  0  0  0
  143.8429  136.2830  152.6404 N   0  0  0  0  0  0  0  0  0  0  0  0
  144.6832  137.2944  152.8827 C   0  0  0  0  0  0  0  0  0  0  0  0
  145.5851  137.4164  153.8607 N   0  0  0  0  0  0  0  0  0  0  0  0
  145.5900  136.3233  154.6790 C   0  0  0  0  0  0  0  0  0  0  0  0
  147.0793  137.5478  157.7471 C   0  0  1  0  0  0  0  0  0  0  0  0
  145.8925  136.9637  158.2819 O   0  0  0  0  0  0  0  0  0  0  0  0
  145.2161  137.5801  159.2638 C   0  0  0  0  0  0  0  0  0  0  0  0
  143.9672  136.8129  159.6759 C   0  0  0  0  0  0  0  0  0  0  0  0
  145.5325  138.6377  159.8083 O   0  0  0  0  0  0  0  0  0  0  0  0
  148.3442  137.2093  158.5413 C   0  0  1  0  0  0  0  0  0  0  0  0
  148.1578  136.0474  159.3449 O   0  0  0  0  0  0  0  0  0  0  0  0
  147.7229  136.1517  160.6116 C   0  0  0  0  0  0  0  0  0  0  0  0
  147.5507  134.7927  161.2764 C   0  0  0  0  0  0  0  0  0  0  0  0
  147.4841  137.1988  161.2134 O   0  0  0  0  0  0  0  0  0  0  0  0
  152.0331  139.6087  160.0605 H   0  0  0  0  0  0  0  0  0  0  0  0
  152.3495  141.1254  159.2051 H   0  0  0  0  0  0  0  0  0  0  0  0
  153.5825  139.8573  159.2450 H   0  0  0  0  0  0  0  0  0  0  0  0
  149.4088  138.9140  156.6201 H   0  0  0  0  0  0  0  0  0  0  0  0
  150.8278  137.9693  156.1934 H   0  0  0  0  0  0  0  0  0  0  0  0
  150.1295  136.1896  157.8070 H   0  0  0  0  0  0  0  0  0  0  0  0
  147.4666  137.8503  155.6010 H   0  0  0  0  0  0  0  0  0  0  0  0
  142.9771  133.3859  153.7853 H   0  0  0  0  0  0  0  0  0  0  0  0
  142.3695  134.2681  152.4003 H   0  0  0  0  0  0  0  0  0  0  0  0
  144.6251  138.1246  152.1944 H   0  0  0  0  0  0  0  0  0  0  0  0
  146.9665  138.6303  157.6690 H   0  0  0  0  0  0  0  0  0  0  0  0
  143.4207  136.4726  158.7959 H   0  0  0  0  0  0  0  0  0  0  0  0
  143.3071  137.4464  160.2689 H   0  0  0  0  0  0  0  0  0  0  0  0
  144.2405  135.9426  160.2725 H   0  0  0  0  0  0  0  0  0  0  0  0
  148.6290  138.0542  159.1704 H   0  0  0  0  0  0  0  0  0  0  0  0
  146.9478  134.1365  160.6484 H   0  0  0  0  0  0  0  0  0  0  0  0
  147.0556  134.8981  162.2418 H   0  0  0  0  0  0  0  0  0  0  0  0
  148.5224  134.3249  161.4345 H   0  0  0  0  0  0  0  0  0  0  0  0
  1  2  1  0  0  0  0
  1 30  1  0  0  0  0
  1 31  1  0  0  0  0
  1 32  1  0  0  0  0
  2  3  2  0  0  0  0
  2  4  1  0  0  0  0
  4  5  1  0  0  0  0
  5  6  1  0  0  0  0
  5 33  1  0  0  0  0
  5 34  1  0  0  0  0
  6 25  1  0  0  0  0
  6  7  1  0  0  0  0
  6 35  1  0  0  0  0
  7  8  1  0  0  0  0
  8  9  1  0  0  0  0
  8 20  1  0  0  0  0
  8 36  1  0  0  0  0
  9 19  1  0  0  0  0
  9 10  1  0  0  0  0
 10 11  1  0  0  0  0
 10 12  2  0  0  0  0
 12 13  1  0  0  0  0
 13 19  2  0  0  0  0
 13 14  1  0  0  0  0
 14 15  1  0  0  0  0
 14 16  2  0  0  0  0
 15 37  1  0  0  0  0
 15 38  1  0  0  0  0
 16 17  1  0  0  0  0
 17 18  2  0  0  0  0
 17 39  1  0  0  0  0
 18 19  1  0  0  0  0
 20 21  1  0  0  0  0
 20 25  1  0  0  0  0
 20 40  1  0  0  0  0
 21 22  1  0  0  0  0
 22 23  1  0  0  0  0
 22 24  2  0  0  0  0
 23 41  1  0  0  0  0
 23 42  1  0  0  0  0
 23 43  1  0  0  0  0
 25 26  1  0  0  0  0
 25 44  1  0  0  0  0
 26 27  1  0  0  0  0
 27 28  1  0  0  0  0
 27 29  2  0  0  0  0
 28 45  1  0  0  0  0
 28 46  1  0  0  0  0
 28 47  1  0  0  0  0
M  END
> <s_m_source_file>
AV-unprocessed.smi

> <i_m_source_file_index>
104

> <i_lp_mmshare_version>
43012

> <i_f3d_flags>
0

> <s_epik_input>
W0NIM11DKD1PKU9bQ0gyXVtDQEBIXTFPW0NASF0oW0NAQEhdKE9DKD1PKVtDSDNdKVtDQEhdMU9DKD1PKVtDSDNdKW4oYyhCciluMiljKGMyMyluW2NIXW5jM1tOSDJd

> <s_epik_cmdline>
J2VwaWtfcHl0aG9uJywgJy1waCcsICc3LjAnLCAnLXRuJywgJzgnLCAnLW1hJywgJzIwMCcsICctbWV0YWxfYmluZGluZycsICctaW1hZScsICc8aW5maWxlLm1hZT4nLCAnLW9tYWUnLCAnPG91dGZpbGUubWFlPic=

> <r_lp_tautomer_probability>
1

> <r_epik_Ionization_Penalty>
7.36622e-05

> <r_epik_Ionization_Penalty_Charging>
0

> <r_epik_Ionization_Penalty_Neutral>
7.36622e-05

> <r_epik_State_Penalty>
-0

> <r_epik_Charging_Adjusted_Penalty>
0

> <i_epik_Tot_Q>
0

> <i_epik_Tot_abs_Q>
0

> <r_epik_Metal_State_Penalty>
-0

> <b_epik_Metal_Only>
0

> <s_epik_Chemistry_Notes>
This compound has an ester and may undergo hydrolysis at high or low pH. This compound contains an acetal/aminal-like group ( X-CH(R)-Y where X, Y are N, S, or O) that may be acid/base labile, releasing an aldehyde.

> <s_lp_Force_Field>
OPLS_2005

> <r_lp_Energy>
20.5627

> <b_lp_Chiralities_Consistent>
1

> <s_lp_Variant>
AV-unprocessed.smi:104-1

> <Gold.Version>
5.8.1

> <Gold.Id.Protein>
6NUR|6NUR_protein|mol2

> <Gold.PLP.Fitness>
36.0859

> <Gold.PLP.PLP>
-20.0429

> <Gold.PLP.part.hbond>
-5.0000

> <Gold.PLP.part.metal>
0.0000

> <Gold.PLP.part.buried>
-5.0097

> <Gold.PLP.part.nonpolar>
-10.1623

> <Gold.PLP.part.repulsive>
0.3704

> <Gold.PLP.ligand.clash>
0.0000

> <Gold.PLP.ligand.torsion>
0.8263

> <Gold.PLP.Chemscore.Hbond>
3.8560

> <Gold.PLP.Chemscore.CHOScore>
1.9972

> <Gold.PLP.Chemscore.Metal>
0.0000

> <Gold.Chemscore.Hbonds>
donor molecule, donor type, donor heavy atom, donor atom, acceptor molecule, acceptor atom, score
      L1  H    15    37       P1 10957  1.00
      P1  H  6931  6943       L1    29  0.90
      P1  H  6934  6947       L1    29  0.96
      P1  H  7997  8010       L1     3  1.00
      L1  C    17    39       P1 10171  0.99
      L1  C    17    39       P1 10175  1.00

> <Gold.PLP.Chemscore.Internal.Correction>
0.1359

> <Gold.Rescore>
     Score         DG    S(hbond)    S(metal)    S(lipo)     H(rot)  DE(clash)    DE(int)     intcor
      6.60      -9.87       3.76        0.00      24.30       4.31       0.00       3.27       ----

> <Gold.Chemscore.Fitness>
6.5963

> <Gold.Chemscore.DG>
-9.8667

> <Gold.Chemscore.ZeroCoef>
-5.4800

> <Gold.Chemscore.Hbond>
3.7633

> <Gold.Chemscore.Metal>
0.0000

> <Gold.Chemscore.Lipo>
24.3015

> <Gold.Chemscore.Internal_Hbond>
0.0000

> <Gold.Chemscore.DEClash>
0.0009

> <Gold.Chemscore.DEInternal>
3.2695

> <Gold.Chemscore.Rot>
4.3070

> <Gold.Chemscore.Internal.Correction>
   9.000000E+99

> <Gold.Chemscore.Hbonds>
donor molecule, donor type, donor heavy atom, donor atom, acceptor molecule, acceptor atom, score
      L1  H    15    37       P1 10957  1.00
      P1  H  6931  6943       L1    29  0.82
      P1  H  6934  6947       L1    29  0.92
      P1  H  7997  8010       L1     3  0.99

> <Gold.Chemscore.Hbond.Weighted>
-12.5693

> <Gold.Chemscore.Metal.Weighted>
-0.0000

> <Gold.Chemscore.Lipo.Weighted>
-2.8433

> <Gold.Chemscore.Internal_Hbond.Weighted>
0.0000

> <Gold.Chemscore.DEClash.Weighted>
0.0009

> <Gold.Chemscore.DEInternal.Weighted>
3.2695

> <Gold.Chemscore.Rot.Weighted>
11.0259

> <Gold.Chemscore.Internal.Correction.Weighted>
   9.000000E+99

> <Gold.Protein.RotatedTorsions>
[ 6907 6896 6895 6894 ] final  148.44 input  -60.11 | X-H torsion
[ 7974 7965 7964 7962 ] final -157.60 input  175.53 | X-H torsion
[ 8008 7997 7996 7995 ] final   68.39 input   59.86 | X-H torsion
[ 10167 10162 10161 10158 ] final -131.27 input  -65.29 | X-H torsion
[ 10718 10713 10712 10709 ] final  -12.12 input   66.30 | X-H torsion
[ 10763 10752 10751 10750 ] final  -28.71 input  -60.55 | X-H torsion
[ 11005 11000 10999 10996 ] final  133.54 input  -57.11 | X-H torsion

> <Gold.Protein.ActiveResidues>
 VAL166  LYS551  ARG553  GLY616  TRP617  ASP618  TYR619  PRO620  LYS621  CYS622 
 ASP623  PHE694  ASN695  SER759  ASP760  ASP761  ALA762  ILE779  LEU786  VAL792 
 PHE793  MET794  SER795  GLU796  ALA797  LYS798  CYS799  TRP800  GLU811  SER814 

> <Gold.Protein.RotatedAtoms>
  152.1414  133.4466  159.4768 H   0  0  0  0  0  0  0  0  0  0  0  0  # atno 6907 bound_to 6896
  150.6886  134.2300  159.4440 H   0  0  0  0  0  0  0  0  0  0  0  0  # atno 6908 bound_to 6896
  152.0191  134.9832  160.0621 H   0  0  0  0  0  0  0  0  0  0  0  0  # atno 6909 bound_to 6896
  144.7541  140.3945  143.6026 H   0  0  0  0  0  0  0  0  0  0  0  0  # atno 7974 bound_to 7965
  155.7076  140.3494  155.4960 H   0  0  0  0  0  0  0  0  0  0  0  0  # atno 8008 bound_to 7997
  155.9384  140.1097  157.1097 H   0  0  0  0  0  0  0  0  0  0  0  0  # atno 8009 bound_to 7997
  154.4098  140.1217  156.4881 H   0  0  0  0  0  0  0  0  0  0  0  0  # atno 8010 bound_to 7997
  139.9206  143.6386  152.2554 H   0  0  0  0  0  0  0  0  0  0  0  0  # atno 10167 bound_to 10162
  156.6492  130.4950  149.6068 H   0  0  0  0  0  0  0  0  0  0  0  0  # atno 10718 bound_to 10713
  153.7528  135.6925  153.4942 H   0  0  0  0  0  0  0  0  0  0  0  0  # atno 10763 bound_to 10752
  153.1992  135.4443  155.0244 H   0  0  0  0  0  0  0  0  0  0  0  0  # atno 10764 bound_to 10752
  154.8181  135.3408  154.7047 H   0  0  0  0  0  0  0  0  0  0  0  0  # atno 10765 bound_to 10752
  139.9858  134.9532  156.9739 H   0  0  0  0  0  0  0  0  0  0  0  0  # atno 11005 bound_to 11000
  145.6840  139.1624  143.2684 LP  0  0  0  0  0  0  0  0  0  0  0  0  # atno 17320 bound_to 7965
  146.1529  140.6899  142.9313 LP  0  0  0  0  0  0  0  0  0  0  0  0  # atno 17321 bound_to 7965
  139.6864  144.7651  151.1515 LP  0  0  0  0  0  0  0  0  0  0  0  0  # atno 17342 bound_to 10162
  140.7663  143.5650  150.9057 LP  0  0  0  0  0  0  0  0  0  0  0  0  # atno 17343 bound_to 10162
  156.2098  130.6672  151.1257 LP  0  0  0  0  0  0  0  0  0  0  0  0  # atno 17370 bound_to 10713
  157.7146  131.0716  150.6374 LP  0  0  0  0  0  0  0  0  0  0  0  0  # atno 17371 bound_to 10713
  140.5005  134.1102  155.7249 LP  0  0  0  0  0  0  0  0  0  0  0  0  # atno 17394 bound_to 11000
  141.1523  133.8946  157.2066 LP  0  0  0  0  0  0  0  0  0  0  0  0  # atno 17395 bound_to 11000

$$$$
