#       Name:                AV-unprocessed.smi:2128
#       Creating user name   scv26
#       Creation time:       Fri Mar 27 11:43:37 2020


#       File generated by GOLD software.
#

@<TRIPOS>MOLECULE
AV-unprocessed.smi:2128
    55    57     1
SMALL
NO_CHARGES


@<TRIPOS>ATOM
      1 ****        -7.4632   2.1343   0.1106 O.2            1 S1                 0.0000
      2 ****        -6.3894   2.4628  -0.3875 C.2            1 S1                 0.0000
      3 ****        -5.2491   1.4323  -0.4671 C.3            1 S1                 0.0000
      4 ****        -3.9857   1.9532  -1.0046 N.pl3          1 S1                 0.0000
      5 ****        -2.8670   1.0868  -1.0307 C.ar           1 S1                 0.0000
      6 ****        -1.5536   1.5195  -1.3384 C.ar           1 S1                 0.0000
      7 ****        -0.4863   0.5976  -1.3441 C.ar           1 S1                 0.0000
      8 ****        -0.7326  -0.7618  -1.0302 C.ar           1 S1                 0.0000
      9 ****         0.2568  -1.7838  -1.0095 N.am           1 S1                 0.0000
     10 ****         1.5957  -1.6764  -1.0692 C.2            1 S1                 0.0000
     11 ****         2.2235  -0.6237  -1.1743 O.2            1 S1                 0.0000
     12 ****         2.1802  -2.8804  -0.9812 N.am           1 S1                 0.0000
     13 ****         3.6204  -3.1270  -0.9759 C.3            1 S1                 0.0000
     14 ****         4.1785  -3.2887   0.4522 C.3            1 S1                 0.0000
     15 ****         3.9898  -2.0639   1.3352 C.2            1 S1                 0.0000
     16 ****         3.1199  -2.0564   2.3642 C.2            1 S1                 0.0000
     17 ****         2.9022  -0.8728   3.2898 C.3            1 S1                 0.0000
     18 ****         4.0149   0.1810   3.1650 C.3            1 S1                 0.0000
     19 ****         4.3766   0.4334   1.6965 C.3            1 S1                 0.0000
     20 ****         4.8595  -0.8552   1.0071 C.3            1 S1                 0.0000
     21 ****        -2.0558  -1.1410  -0.7290 C.ar           1 S1                 0.0000
     22 ****        -3.0471  -0.2247  -0.7361 N.pl3          1 S1                 1.0000
     23 ****        -4.0663   3.0319  -1.9892 C.3            1 S1                 0.0000
     24 ****        -4.9422   4.1778  -1.4583 C.3            1 S1                 0.0000
     25 ****        -6.1901   3.6990  -0.8733 N.am           1 S1                 0.0000
     26 ****        -5.0818   1.0421   0.5380 H              1 S1                 0.0000
     27 ****        -5.5932   0.6026  -1.0865 H              1 S1                 0.0000
     28 ****        -1.3322   2.5528  -1.5556 H              1 S1                 0.0000
     29 ****         0.4964   0.9638  -1.5936 H              1 S1                 0.0000
     30 ****        -0.0996  -2.7209  -0.8907 H              1 S1                 0.0000
     31 ****         1.5851  -3.6916  -0.8965 H              1 S1                 0.0000
     32 ****         3.7991  -4.0460  -1.5342 H              1 S1                 0.0000
     33 ****         4.1534  -2.3444  -1.5172 H              1 S1                 0.0000
     34 ****         3.7026  -4.1490   0.9249 H              1 S1                 0.0000
     35 ****         5.2429  -3.5210   0.4084 H              1 S1                 0.0000
     36 ****         2.5114  -2.9275   2.5586 H              1 S1                 0.0000
     37 ****         1.9358  -0.4306   3.0463 H              1 S1                 0.0000
     38 ****         2.8400  -1.2270   4.3191 H              1 S1                 0.0000
     39 ****         3.7055   1.1092   3.6462 H              1 S1                 0.0000
     40 ****         4.9032  -0.1618   3.6977 H              1 S1                 0.0000
     41 ****         3.4999   0.8177   1.1730 H              1 S1                 0.0000
     42 ****         5.1431   1.2053   1.6216 H              1 S1                 0.0000
     43 ****         5.8801  -1.0832   1.3157 H              1 S1                 0.0000
     44 ****         4.8881  -0.6930  -0.0699 H              1 S1                 0.0000
     45 ****        -2.3534  -2.1493  -0.4790 H              1 S1                 0.0000
     46 ****        -3.0988   3.4390  -2.2733 H              1 S1                 0.0000
     47 ****        -4.5062   2.6241  -2.9005 H              1 S1                 0.0000
     48 ****        -4.4021   4.7299  -0.6882 H              1 S1                 0.0000
     49 ****        -5.1654   4.8862  -2.2564 H              1 S1                 0.0000
     50 ****        -6.9539   4.3580  -0.8180 H              1 S1                 0.0000
     51 ****        -3.9904  -0.5403  -0.5094 H              1 S1                 0.0000
     52 ****        -8.2134   2.7936   0.1611 LP             1 S1                 0.0000
     53 ****        -7.5871   1.2077   0.4655 LP             1 S1                 0.0000
     54 ****         1.7347   0.2473  -1.2226 LP             1 S1                 0.0000
     55 ****         3.2227  -0.6390  -1.2116 LP             1 S1                 0.0000
@<TRIPOS>BOND
    1    1    2 2     
    2    2   25 am    
    3    2    3 1     
    4    3    4 1     
    5    3   26 1     
    6    3   27 1     
    7    4    5 1     
    8    4   23 1     
    9    5   22 ar    
   10    5    6 ar    
   11    6    7 ar    
   12    6   28 1     
   13    7    8 ar    
   14    7   29 1     
   15    8    9 1     
   16    8   21 ar    
   17    9   10 am    
   18    9   30 1     
   19   10   11 2     
   20   10   12 am    
   21   12   13 1     
   22   12   31 1     
   23   13   14 1     
   24   13   32 1     
   25   13   33 1     
   26   14   15 1     
   27   14   34 1     
   28   14   35 1     
   29   15   20 1     
   30   15   16 2     
   31   16   17 1     
   32   16   36 1     
   33   17   18 1     
   34   17   37 1     
   35   17   38 1     
   36   18   19 1     
   37   18   39 1     
   38   18   40 1     
   39   19   20 1     
   40   19   41 1     
   41   19   42 1     
   42   20   43 1     
   43   20   44 1     
   44   21   22 ar    
   45   21   45 1     
   46   22   51 1     
   47   23   24 1     
   48   23   46 1     
   49   23   47 1     
   50   24   25 1     
   51   24   48 1     
   52   24   49 1     
   53   25   50 1     
   54    1   52 1     
   55    1   53 1     
   56   11   54 1     
   57   11   55 1     
@<TRIPOS>SUBSTRUCTURE
      1 S1             1
@<TRIPOS>SET
LONE_PAIRS      STATIC     ATOMS    <user>   **** ""
4 52 53 54 55
DONOR_HYDROGENS      STATIC     ATOMS    <user>   **** ""
4 30 31 51 50
ATOM$BLUE        STATIC     ATOMS    COLORGROUP SYSTEM
4 52 53 54 55
ATOM$RED        STATIC     ATOMS    COLORGROUP SYSTEM
4 30 31 51 50
