AV-unprocessed.smi:1803|AV-procd|sdf|7281|dock1
  -GOLD-   22720 8543D 1   1.00000     0.00000
 Structure written by MMmdl.
 36 38  0  0  0  0  0  0  0  0  2 V2000
  146.9107  139.2649  154.3321 O   0  0  0  0  0  0  0  0  0  0  0  0
  147.4159  139.6637  153.2846 C   0  0  0  0  0  0  0  0  0  0  0  0
  147.2616  138.9771  152.1321 N   0  0  0  0  0  0  0  0  0  0  0  0
  146.5714  137.7649  151.8349 C   0  0  0  0  0  0  0  0  0  0  0  0
  146.5427  137.1806  150.6257 N   0  0  0  0  0  0  0  0  0  0  0  0
  145.8041  136.0052  150.6293 N   0  0  0  0  0  0  0  0  0  0  0  0
  145.3087  135.7423  151.8415 C   0  0  0  0  0  0  0  0  0  0  0  0
  145.6960  136.9068  153.0959 S   0  0  0  0  0  0  0  0  0  0  0  0
  148.1415  140.7918  153.2151 N   0  0  0  0  0  0  0  0  0  0  0  0
  148.4444  141.6794  154.3329 C   0  0  2  0  0  0  0  0  0  0  0  0
  149.5694  141.1406  155.2343 C   0  0  0  0  0  0  0  0  0  0  0  0
  149.1512  141.5035  156.6729 C   0  0  0  0  0  0  0  0  0  0  0  0
  147.9147  142.2955  156.5321 N   0  3  2  0  0  0  0  0  0  0  0  0
  146.9973  142.3240  157.6920 C   0  0  0  0  0  0  0  0  0  0  0  0
  145.8156  143.2648  157.3818 C   0  0  0  0  0  0  0  0  0  0  0  0
  145.1212  142.8928  156.0559 C   0  0  0  0  0  0  0  0  0  0  0  0
  146.1399  142.7856  154.9049 C   0  0  0  0  0  0  0  0  0  0  0  0
  147.2669  141.8168  155.3017 C   0  0  1  0  0  0  0  0  0  0  0  0
  147.6905  139.4146  151.3291 H   0  0  0  0  0  0  0  0  0  0  0  0
  144.7118  134.8560  151.9984 H   0  0  0  0  0  0  0  0  0  0  0  0
  148.5179  141.0495  152.3135 H   0  0  0  0  0  0  0  0  0  0  0  0
  148.7376  142.6674  153.9716 H   0  0  0  0  0  0  0  0  0  0  0  0
  149.6704  140.0579  155.1430 H   0  0  0  0  0  0  0  0  0  0  0  0
  150.5302  141.5818  154.9671 H   0  0  0  0  0  0  0  0  0  0  0  0
  148.9522  140.5955  157.2443 H   0  0  0  0  0  0  0  0  0  0  0  0
  149.9180  142.0735  157.1983 H   0  0  0  0  0  0  0  0  0  0  0  0
  146.6381  141.3164  157.9074 H   0  0  0  0  0  0  0  0  0  0  0  0
  147.5337  142.6719  158.5753 H   0  0  0  0  0  0  0  0  0  0  0  0
  145.0955  143.2435  158.2003 H   0  0  0  0  0  0  0  0  0  0  0  0
  146.1797  144.2914  157.3196 H   0  0  0  0  0  0  0  0  0  0  0  0
  144.6049  141.9391  156.1727 H   0  0  0  0  0  0  0  0  0  0  0  0
  144.3558  143.6305  155.8126 H   0  0  0  0  0  0  0  0  0  0  0  0
  145.6407  142.4388  153.9999 H   0  0  0  0  0  0  0  0  0  0  0  0
  146.5519  143.7702  154.6788 H   0  0  0  0  0  0  0  0  0  0  0  0
  146.8445  140.8275  155.4939 H   0  0  0  0  0  0  0  0  0  0  0  0
  148.2019  143.2468  156.3512 H   0  0  0  0  0  0  0  0  0  0  0  0
  1  2  2  0  0  0  0
  2  3  1  0  0  0  0
  2  9  1  0  0  0  0
  3  4  1  0  0  0  0
  3 19  1  0  0  0  0
  4  8  1  0  0  0  0
  4  5  2  0  0  0  0
  5  6  1  0  0  0  0
  6  7  2  0  0  0  0
  7  8  1  0  0  0  0
  7 20  1  0  0  0  0
  9 10  1  0  0  0  0
  9 21  1  0  0  0  0
 10 18  1  0  0  0  0
 10 11  1  0  0  0  0
 10 22  1  0  0  0  0
 11 12  1  0  0  0  0
 11 23  1  0  0  0  0
 11 24  1  0  0  0  0
 12 13  1  0  0  0  0
 12 25  1  0  0  0  0
 12 26  1  0  0  0  0
 13 18  1  0  0  0  0
 13 14  1  0  0  0  0
 13 36  1  0  0  0  0
 14 15  1  0  0  0  0
 14 27  1  0  0  0  0
 14 28  1  0  0  0  0
 15 16  1  0  0  0  0
 15 29  1  0  0  0  0
 15 30  1  0  0  0  0
 16 17  1  0  0  0  0
 16 31  1  0  0  0  0
 16 32  1  0  0  0  0
 17 18  1  0  0  0  0
 17 33  1  0  0  0  0
 17 34  1  0  0  0  0
 18 35  1  0  0  0  0
M  CHG  1  13   1
M  END
> <s_m_source_file>
AV-unprocessed.smi

> <i_m_source_file_index>
1803

> <i_lp_mmshare_version>
43012

> <i_f3d_flags>
0

> <s_epik_input>
czFbY0hdbm5jMVtOSF1DKD1PKVtOSF1bQ0BIXShbQ0gyXVtDSDJdMilbQ0BASF0oTjIzKVtDSDJdW0NIMl1bQ0gyXVtDSDJdMw==

> <s_epik_cmdline>
J2VwaWtfcHl0aG9uJywgJy1waCcsICc3LjAnLCAnLXRuJywgJzgnLCAnLW1hJywgJzIwMCcsICctbWV0YWxfYmluZGluZycsICctaW1hZScsICc8aW5maWxlLm1hZT4nLCAnLW9tYWUnLCAnPG91dGZpbGUubWFlPic=

> <r_lp_tautomer_probability>
1

> <r_epik_Ionization_Penalty>
0.00213286

> <r_epik_Ionization_Penalty_Charging>
0.00107044

> <r_epik_Ionization_Penalty_Neutral>
0.00106242

> <r_epik_State_Penalty>
-0

> <r_epik_Charging_Adjusted_Penalty>
0.00107044

> <i_epik_Tot_Q>
1

> <i_epik_Tot_abs_Q>
1

> <r_epik_Metal_State_Penalty>
0.292783

> <b_epik_Metal_Only>
0

> <s_lp_Force_Field>
OPLS_2005

> <r_lp_Energy>
35.8307

> <b_lp_Chiralities_Consistent>
1

> <s_lp_Variant>
AV-unprocessed.smi:1803-3

> <Gold.Version>
5.8.1

> <Gold.Id.Protein>
6NUR|6NUR_protein|mol2

> <Gold.PLP.Fitness>
36.8814

> <Gold.PLP.PLP>
-25.1169

> <Gold.PLP.part.hbond>
-4.1676

> <Gold.PLP.part.metal>
0.0000

> <Gold.PLP.part.buried>
-2.1008

> <Gold.PLP.part.nonpolar>
-22.1729

> <Gold.PLP.part.repulsive>
3.0160

> <Gold.PLP.ligand.clash>
0.0000

> <Gold.PLP.ligand.torsion>
0.2834

> <Gold.PLP.Chemscore.Hbond>
4.1071

> <Gold.PLP.Chemscore.CHOScore>
0.0000

> <Gold.PLP.Chemscore.Metal>
0.0000

> <Gold.Chemscore.Hbonds>
donor molecule, donor type, donor heavy atom, donor atom, acceptor molecule, acceptor atom, score
      L1  H     3    19       P1  7957  0.58
      L1  H     9    21       P1  7957  0.61
      L1  H    13    36       P1  8028  2.00
      P1  H  7954  7966       L1     5  0.96

> <Gold.PLP.Chemscore.Internal.Correction>
0.0098

> <Gold.Rescore>
     Score         DG    S(hbond)    S(metal)    S(lipo)     H(rot)  DE(clash)    DE(int)     intcor
      9.50     -15.01       2.18        0.00      41.16       1.00       2.60       2.91       ----

> <Gold.Chemscore.Fitness>
9.5040

> <Gold.Chemscore.DG>
-15.0125

> <Gold.Chemscore.ZeroCoef>
-5.4800

> <Gold.Chemscore.Hbond>
2.1788

> <Gold.Chemscore.Metal>
0.0000

> <Gold.Chemscore.Lipo>
41.1558

> <Gold.Chemscore.Internal_Hbond>
0.0000

> <Gold.Chemscore.DEClash>
2.5984

> <Gold.Chemscore.DEInternal>
2.9101

> <Gold.Chemscore.Rot>
1.0000

> <Gold.Chemscore.Internal.Correction>
   9.000000E+99

> <Gold.Chemscore.Hbonds>
donor molecule, donor type, donor heavy atom, donor atom, acceptor molecule, acceptor atom, score
      L1  H     3    19       P1  7957  0.53
      L1  H     9    21       P1  7957  0.60
      L1  H    13    36       P1  8028  0.45
      P1  H  7954  7966       L1     5  0.28

> <Gold.Chemscore.Hbond.Weighted>
-7.2773

> <Gold.Chemscore.Metal.Weighted>
-0.0000

> <Gold.Chemscore.Lipo.Weighted>
-4.8152

> <Gold.Chemscore.Internal_Hbond.Weighted>
0.0000

> <Gold.Chemscore.DEClash.Weighted>
2.5984

> <Gold.Chemscore.DEInternal.Weighted>
2.9101

> <Gold.Chemscore.Rot.Weighted>
2.5600

> <Gold.Chemscore.Internal.Correction.Weighted>
   9.000000E+99

> <Gold.Protein.RotatedTorsions>
[ 6907 6896 6895 6894 ] final  164.54 input  -60.11 | X-H torsion
[ 7974 7965 7964 7962 ] final  -45.59 input  175.53 | X-H torsion
[ 8008 7997 7996 7995 ] final -118.98 input   59.86 | X-H torsion
[ 10167 10162 10161 10158 ] final   82.63 input  -65.29 | X-H torsion
[ 10718 10713 10712 10709 ] final  173.57 input   66.30 | X-H torsion
[ 10763 10752 10751 10750 ] final  103.66 input  -60.55 | X-H torsion
[ 11005 11000 10999 10996 ] final  -40.77 input  -57.11 | X-H torsion

> <Gold.Protein.ActiveResidues>
 VAL166  LYS551  ARG553  GLY616  TRP617  ASP618  TYR619  PRO620  LYS621  CYS622 
 ASP623  PHE694  ASN695  SER759  ASP760  ASP761  ALA762  ILE779  LEU786  VAL792 
 PHE793  MET794  SER795  GLU796  ALA797  LYS798  CYS799  TRP800  GLU811  SER814 

> <Gold.Protein.RotatedAtoms>
  151.9083  133.3555  159.3854 H   0  0  0  0  0  0  0  0  0  0  0  0  # atno 6907 bound_to 6896
  150.7064  134.4758  159.5456 H   0  0  0  0  0  0  0  0  0  0  0  0  # atno 6908 bound_to 6896
  152.2359  134.8276  160.0518 H   0  0  0  0  0  0  0  0  0  0  0  0  # atno 6909 bound_to 6896
  145.9806  140.7288  142.9365 H   0  0  0  0  0  0  0  0  0  0  0  0  # atno 7974 bound_to 7965
  155.1083  140.0397  157.2717 H   0  0  0  0  0  0  0  0  0  0  0  0  # atno 8008 bound_to 7997
  154.6705  140.2611  155.6987 H   0  0  0  0  0  0  0  0  0  0  0  0  # atno 8009 bound_to 7997
  156.2656  140.2798  156.1212 H   0  0  0  0  0  0  0  0  0  0  0  0  # atno 8010 bound_to 7997
  139.9268  144.6177  150.8384 H   0  0  0  0  0  0  0  0  0  0  0  0  # atno 10167 bound_to 10162
  156.9623  131.0064  151.2924 H   0  0  0  0  0  0  0  0  0  0  0  0  # atno 10718 bound_to 10713
  153.3555  135.3969  155.1679 H   0  0  0  0  0  0  0  0  0  0  0  0  # atno 10763 bound_to 10752
  154.8670  135.3667  154.5166 H   0  0  0  0  0  0  0  0  0  0  0  0  # atno 10764 bound_to 10752
  153.5621  135.7081  153.5602 H   0  0  0  0  0  0  0  0  0  0  0  0  # atno 10765 bound_to 10752
  141.0199  133.6868  156.2367 H   0  0  0  0  0  0  0  0  0  0  0  0  # atno 11005 bound_to 11000
  144.6860  140.2901  143.7279 LP  0  0  0  0  0  0  0  0  0  0  0  0  # atno 17320 bound_to 7965
  145.7775  139.1879  143.2176 LP  0  0  0  0  0  0  0  0  0  0  0  0  # atno 17321 bound_to 7965
  140.7648  143.3258  151.2520 LP  0  0  0  0  0  0  0  0  0  0  0  0  # atno 17342 bound_to 10162
  139.6815  143.9846  152.2811 LP  0  0  0  0  0  0  0  0  0  0  0  0  # atno 17343 bound_to 10162
  157.5649  130.8271  149.8315 LP  0  0  0  0  0  0  0  0  0  0  0  0  # atno 17370 bound_to 10713
  156.0317  130.3763  150.1669 LP  0  0  0  0  0  0  0  0  0  0  0  0  # atno 17371 bound_to 10713
  140.6591  134.4986  157.5582 LP  0  0  0  0  0  0  0  0  0  0  0  0  # atno 17394 bound_to 11000
  139.9139  134.8286  156.1432 LP  0  0  0  0  0  0  0  0  0  0  0  0  # atno 17395 bound_to 11000

$$$$
