AV-unprocessed.smi:867|AV-procd|sdf|3999|dock1
  -GOLD-   22720 1483D 1   1.00000     0.00000
 Structure written by MMmdl.
 54 57  0  0  0  0  0  0  0  0  3 V2000
  150.1004  139.7797  154.0454 O   0  0  0  0  0  0  0  0  0  0  0  0
  149.1569  140.3782  154.5637 C   0  0  0  0  0  0  0  0  0  0  0  0
  149.2580  140.9693  155.7665 N   0  0  0  0  0  0  0  0  0  0  0  0
  150.4623  140.9950  156.5886 C   0  0  0  0  0  0  0  0  0  0  0  0
  150.9770  142.4292  156.7921 C   0  0  0  0  0  0  0  0  0  0  0  0
  151.5797  142.6274  158.1692 C   0  0  0  0  0  0  0  0  0  0  0  0
  151.9354  143.9192  158.6165 C   0  0  0  0  0  0  0  0  0  0  0  0
  152.4977  144.0762  159.9005 C   0  0  0  0  0  0  0  0  0  0  0  0
  152.6928  142.9371  160.7081 C   0  0  0  0  0  0  0  0  0  0  0  0
  152.3421  141.7167  160.2458 N   0  3  0  0  0  0  0  0  0  0  0  0
  151.8001  141.5246  159.0229 C   0  0  0  0  0  0  0  0  0  0  0  0
  147.9185  140.4262  154.0141 N   0  0  0  0  0  0  0  0  0  0  0  0
  147.5517  139.9512  152.6749 C   0  0  0  0  0  0  0  0  0  0  0  0
  146.7761  138.6236  152.7937 C   0  0  0  0  0  0  0  0  0  0  0  0
  145.5951  138.7361  153.7005 N   0  3  0  0  0  0  0  0  0  0  0  0
  144.8358  137.4616  153.8919 C   0  0  1  0  0  0  0  0  0  0  0  0
  143.5682  137.6703  154.7637 C   0  0  0  0  0  0  0  0  0  0  0  0
  142.4335  137.0916  153.9027 C   0  0  2  0  0  0  0  0  0  0  0  0
  142.5743  135.5626  153.8255 C   0  0  0  0  0  0  0  0  0  0  0  0
  143.7972  135.3883  152.9086 C   0  0  0  0  0  0  0  0  0  0  0  0
  144.2160  136.8415  152.6067 C   0  0  1  0  0  0  0  0  0  0  0  0
  142.8595  137.5300  152.5080 C   0  0  0  0  0  0  0  0  0  0  0  0
  145.9554  139.3630  155.0066 C   0  0  0  0  0  0  0  0  0  0  0  0
  146.7219  140.6817  154.8163 C   0  0  0  0  0  0  0  0  0  0  0  0
  148.4354  141.4136  156.1478 H   0  0  0  0  0  0  0  0  0  0  0  0
  150.2256  140.5437  157.5526 H   0  0  0  0  0  0  0  0  0  0  0  0
  151.2356  140.3711  156.1367 H   0  0  0  0  0  0  0  0  0  0  0  0
  151.7300  142.6725  156.0409 H   0  0  0  0  0  0  0  0  0  0  0  0
  150.1628  143.1420  156.6524 H   0  0  0  0  0  0  0  0  0  0  0  0
  151.7810  144.7810  157.9831 H   0  0  0  0  0  0  0  0  0  0  0  0
  152.7757  145.0564  160.2595 H   0  0  0  0  0  0  0  0  0  0  0  0
  153.1161  142.9650  161.7017 H   0  0  0  0  0  0  0  0  0  0  0  0
  151.5634  140.5017  158.7671 H   0  0  0  0  0  0  0  0  0  0  0  0
  146.9263  140.7042  152.1928 H   0  0  0  0  0  0  0  0  0  0  0  0
  148.4039  139.8126  152.0096 H   0  0  0  0  0  0  0  0  0  0  0  0
  146.4651  138.3466  151.7888 H   0  0  0  0  0  0  0  0  0  0  0  0
  147.4382  137.8367  153.1583 H   0  0  0  0  0  0  0  0  0  0  0  0
  145.5082  136.7380  154.3563 H   0  0  0  0  0  0  0  0  0  0  0  0
  143.6463  137.1791  155.7344 H   0  0  0  0  0  0  0  0  0  0  0  0
  143.3661  138.7271  154.9439 H   0  0  0  0  0  0  0  0  0  0  0  0
  141.4406  137.4246  154.2072 H   0  0  0  0  0  0  0  0  0  0  0  0
  142.7203  135.1105  154.8073 H   0  0  0  0  0  0  0  0  0  0  0  0
  141.6891  135.1106  153.3757 H   0  0  0  0  0  0  0  0  0  0  0  0
  144.5937  134.8116  153.3800 H   0  0  0  0  0  0  0  0  0  0  0  0
  143.5125  134.8699  151.9919 H   0  0  0  0  0  0  0  0  0  0  0  0
  144.8216  136.8902  151.7047 H   0  0  0  0  0  0  0  0  0  0  0  0
  142.2255  137.1271  151.7159 H   0  0  0  0  0  0  0  0  0  0  0  0
  142.9300  138.6132  152.3946 H   0  0  0  0  0  0  0  0  0  0  0  0
  145.0645  139.5608  155.6012 H   0  0  0  0  0  0  0  0  0  0  0  0
  146.5660  138.6669  155.5843 H   0  0  0  0  0  0  0  0  0  0  0  0
  146.9560  141.1238  155.7863 H   0  0  0  0  0  0  0  0  0  0  0  0
  146.0923  141.4114  154.3048 H   0  0  0  0  0  0  0  0  0  0  0  0
  144.9619  139.3777  153.2450 H   0  0  0  0  0  0  0  0  0  0  0  0
  152.4931  140.9055  160.8461 H   0  0  0  0  0  0  0  0  0  0  0  0
  1  2  2  0  0  0  0
  2  3  1  0  0  0  0
  2 12  1  0  0  0  0
  3  4  1  0  0  0  0
  3 25  1  0  0  0  0
  4  5  1  0  0  0  0
  4 26  1  0  0  0  0
  4 27  1  0  0  0  0
  5  6  1  0  0  0  0
  5 28  1  0  0  0  0
  5 29  1  0  0  0  0
  6 11  1  0  0  0  0
  6  7  2  0  0  0  0
  7  8  1  0  0  0  0
  7 30  1  0  0  0  0
  8  9  2  0  0  0  0
  8 31  1  0  0  0  0
  9 10  1  0  0  0  0
  9 32  1  0  0  0  0
 10 11  2  0  0  0  0
 10 54  1  0  0  0  0
 11 33  1  0  0  0  0
 12 24  1  0  0  0  0
 12 13  1  0  0  0  0
 13 14  1  0  0  0  0
 13 34  1  0  0  0  0
 13 35  1  0  0  0  0
 14 15  1  0  0  0  0
 14 36  1  0  0  0  0
 14 37  1  0  0  0  0
 15 16  1  0  0  0  0
 15 23  1  0  0  0  0
 15 53  1  0  0  0  0
 16 21  1  0  0  0  0
 16 17  1  0  0  0  0
 16 38  1  0  0  0  0
 17 18  1  0  0  0  0
 17 39  1  0  0  0  0
 17 40  1  0  0  0  0
 18 22  1  0  0  0  0
 18 19  1  0  0  0  0
 18 41  1  0  0  0  0
 19 20  1  0  0  0  0
 19 42  1  0  0  0  0
 19 43  1  0  0  0  0
 20 21  1  0  0  0  0
 20 44  1  0  0  0  0
 20 45  1  0  0  0  0
 21 22  1  0  0  0  0
 21 46  1  0  0  0  0
 22 47  1  0  0  0  0
 22 48  1  0  0  0  0
 23 24  1  0  0  0  0
 23 49  1  0  0  0  0
 23 50  1  0  0  0  0
 24 51  1  0  0  0  0
 24 52  1  0  0  0  0
M  CHG  1  10   1
M  CHG  1  15   1
M  END
> <s_m_source_file>
AV-unprocessed.smi

> <i_m_source_file_index>
867

> <i_lp_mmshare_version>
43012

> <i_f3d_flags>
0

> <s_epik_input>
W0NIMl0xW0NIMl1bQ0BASF0oW0NIMl0yKVtDQEBIXShbQ0gyXVtDQEhdMTIpTihbQ0gyXVtDSDJdMylbQ0gyXVtDSDJdTjNDKD1PKVtOSF1bQ0gyXVtDSDJdYzRbY0hdW2NIXVtjSF1uW2NIXTQ=

> <s_epik_cmdline>
J2VwaWtfcHl0aG9uJywgJy1waCcsICc3LjAnLCAnLXRuJywgJzgnLCAnLW1hJywgJzIwMCcsICctbWV0YWxfYmluZGluZycsICctaW1hZScsICc8aW5maWxlLm1hZT4nLCAnLW9tYWUnLCAnPG91dGZpbGUubWFlPic=

> <r_epik_Ionization_Penalty>
2.25108

> <r_epik_Ionization_Penalty_Charging>
2.25105

> <r_epik_Ionization_Penalty_Neutral>
2.64641e-05

> <r_epik_State_Penalty>
2.39519

> <r_epik_Charging_Adjusted_Penalty>
4.64625

> <i_epik_Tot_Q>
2

> <i_epik_Tot_abs_Q>
2

> <r_epik_Metal_State_Penalty>
2.40865

> <b_epik_Metal_Only>
0

> <s_lp_Force_Field>
OPLS_2005

> <r_lp_Energy>
104.459

> <b_lp_Chiralities_Consistent>
1

> <s_lp_Variant>
AV-unprocessed.smi:867-6

> <Gold.Version>
5.8.1

> <Gold.Id.Protein>
6NUR|6NUR_protein|mol2

> <Gold.PLP.Fitness>
46.8563

> <Gold.PLP.PLP>
-39.6572

> <Gold.PLP.part.hbond>
-2.0000

> <Gold.PLP.part.metal>
0.0000

> <Gold.PLP.part.buried>
0.0279

> <Gold.PLP.part.nonpolar>
-38.3054

> <Gold.PLP.part.repulsive>
1.8839

> <Gold.PLP.ligand.clash>
0.9609

> <Gold.PLP.ligand.torsion>
0.4618

> <Gold.PLP.Chemscore.Hbond>
2.9760

> <Gold.PLP.Chemscore.CHOScore>
0.0000

> <Gold.PLP.Chemscore.Metal>
0.0000

> <Gold.Chemscore.Hbonds>
donor molecule, donor type, donor heavy atom, donor atom, acceptor molecule, acceptor atom, score
      L1  H    15    53       P1 10175  2.00
      P1  H  7989  7998       L1     1  1.00

> <Gold.PLP.Chemscore.Internal.Correction>
0.1557

> <Gold.Rescore>
     Score         DG    S(hbond)    S(metal)    S(lipo)     H(rot)  DE(clash)    DE(int)     intcor
     18.84     -21.38       1.91        0.00     113.14       1.46       2.15       0.40       ----

> <Gold.Chemscore.Fitness>
18.8386

> <Gold.Chemscore.DG>
-21.3830

> <Gold.Chemscore.ZeroCoef>
-5.4800

> <Gold.Chemscore.Hbond>
1.9149

> <Gold.Chemscore.Metal>
0.0000

> <Gold.Chemscore.Lipo>
113.1430

> <Gold.Chemscore.Internal_Hbond>
0.0000

> <Gold.Chemscore.DEClash>
2.1481

> <Gold.Chemscore.DEInternal>
0.3964

> <Gold.Chemscore.Rot>
1.4572

> <Gold.Chemscore.Internal.Correction>
   9.000000E+99

> <Gold.Chemscore.Hbonds>
donor molecule, donor type, donor heavy atom, donor atom, acceptor molecule, acceptor atom, score
      L1  H    15    53       P1 10175  1.00
      P1  H  7989  7998       L1     1  0.89

> <Gold.Chemscore.Hbond.Weighted>
-6.3958

> <Gold.Chemscore.Metal.Weighted>
-0.0000

> <Gold.Chemscore.Lipo.Weighted>
-13.2377

> <Gold.Chemscore.Internal_Hbond.Weighted>
0.0000

> <Gold.Chemscore.DEClash.Weighted>
2.1481

> <Gold.Chemscore.DEInternal.Weighted>
0.3964

> <Gold.Chemscore.Rot.Weighted>
3.7305

> <Gold.Chemscore.Internal.Correction.Weighted>
   9.000000E+99

> <Gold.Protein.RotatedTorsions>
[ 6907 6896 6895 6894 ] final  -29.45 input  -60.11 | X-H torsion
[ 7974 7965 7964 7962 ] final -167.68 input  175.53 | X-H torsion
[ 8008 7997 7996 7995 ] final  -73.08 input   59.86 | X-H torsion
[ 10167 10162 10161 10158 ] final -134.69 input  -65.29 | X-H torsion
[ 10718 10713 10712 10709 ] final  -72.58 input   66.30 | X-H torsion
[ 10763 10752 10751 10750 ] final   80.10 input  -60.55 | X-H torsion
[ 11005 11000 10999 10996 ] final  -73.97 input  -57.11 | X-H torsion

> <Gold.Protein.ActiveResidues>
 VAL166  LYS551  ARG553  GLY616  TRP617  ASP618  TYR619  PRO620  LYS621  CYS622 
 ASP623  PHE694  ASN695  SER759  ASP760  ASP761  ALA762  ILE779  LEU786  VAL792 
 PHE793  MET794  SER795  GLU796  ALA797  LYS798  CYS799  TRP800  GLU811  SER814 

> <Gold.Protein.RotatedAtoms>
  151.1190  135.0068  159.8529 H   0  0  0  0  0  0  0  0  0  0  0  0  # atno 6907 bound_to 6896
  152.5447  134.1746  159.8620 H   0  0  0  0  0  0  0  0  0  0  0  0  # atno 6908 bound_to 6896
  151.1802  133.4685  159.2627 H   0  0  0  0  0  0  0  0  0  0  0  0  # atno 6909 bound_to 6896
  144.7218  140.2483  143.6282 H   0  0  0  0  0  0  0  0  0  0  0  0  # atno 7974 bound_to 7965
  154.5218  140.0785  156.8185 H   0  0  0  0  0  0  0  0  0  0  0  0  # atno 8008 bound_to 7997
  155.3560  140.3415  155.4222 H   0  0  0  0  0  0  0  0  0  0  0  0  # atno 8009 bound_to 7997
  156.1689  140.1613  156.8470 H   0  0  0  0  0  0  0  0  0  0  0  0  # atno 8010 bound_to 7997
  139.8854  143.6787  152.2621 H   0  0  0  0  0  0  0  0  0  0  0  0  # atno 10167 bound_to 10162
  156.0314  130.4375  150.2614 H   0  0  0  0  0  0  0  0  0  0  0  0  # atno 10718 bound_to 10713
  153.1006  135.4815  154.8859 H   0  0  0  0  0  0  0  0  0  0  0  0  # atno 10763 bound_to 10752
  154.7374  135.3074  154.8790 H   0  0  0  0  0  0  0  0  0  0  0  0  # atno 10764 bound_to 10752
  153.9408  135.6834  153.4798 H   0  0  0  0  0  0  0  0  0  0  0  0  # atno 10765 bound_to 10752
  141.1629  133.6896  156.7293 H   0  0  0  0  0  0  0  0  0  0  0  0  # atno 11005 bound_to 11000
  145.8253  139.2061  143.1914 LP  0  0  0  0  0  0  0  0  0  0  0  0  # atno 17320 bound_to 7965
  146.0478  140.8100  142.9796 LP  0  0  0  0  0  0  0  0  0  0  0  0  # atno 17321 bound_to 7965
  139.7157  144.7612  151.1037 LP  0  0  0  0  0  0  0  0  0  0  0  0  # atno 17342 bound_to 10162
  140.7737  143.5272  150.9466 LP  0  0  0  0  0  0  0  0  0  0  0  0  # atno 17343 bound_to 10162
  157.0716  131.0118  151.3188 LP  0  0  0  0  0  0  0  0  0  0  0  0  # atno 17370 bound_to 10713
  157.4995  130.7871  149.7589 LP  0  0  0  0  0  0  0  0  0  0  0  0  # atno 17371 bound_to 10713
  140.2757  134.8357  157.3887 LP  0  0  0  0  0  0  0  0  0  0  0  0  # atno 17394 bound_to 11000
  140.1480  134.4886  155.7982 LP  0  0  0  0  0  0  0  0  0  0  0  0  # atno 17395 bound_to 11000

$$$$
