AV-unprocessed.smi:260|AV-procd|sdf|1976|dock9
  -GOLD-   2262021143D 1   1.00000     0.00000
 Structure written by MMmdl.
 53 56  0  0  0  0  0  0  0  0  1 V2000
  141.6038  135.5554  153.2752 C   0  0  0  0  0  0  0  0  0  0  0  0
  142.9713  135.5255  152.7798 N   0  0  0  0  0  0  0  0  0  0  0  0
  143.7313  136.6146  152.5829 C   0  0  0  0  0  0  0  0  0  0  0  0
  143.3107  137.7511  152.8045 O   0  0  0  0  0  0  0  0  0  0  0  0
  145.1784  136.4264  152.0559 C   0  0  2  0  0  0  0  0  0  0  0  0
  145.1235  135.7643  150.6649 C   0  0  0  0  0  0  0  0  0  0  0  0
  146.1129  135.6608  153.0209 C   0  0  0  0  0  0  0  0  0  0  0  0
  146.6151  136.7185  154.0123 C   0  0  0  0  0  0  0  0  0  0  0  0
  146.4438  137.9955  153.3355 N   0  0  0  0  0  0  0  0  0  0  0  0
  147.2068  139.0778  153.6383 C   0  0  0  0  0  0  0  0  0  0  0  0
  146.8747  140.2791  153.0954 N   0  0  0  0  0  0  0  0  0  0  0  0
  147.5937  141.3710  153.3688 C   0  0  0  0  0  0  0  0  0  0  0  0
  148.6684  141.4873  154.1495 N   0  0  0  0  0  0  0  0  0  0  0  0
  149.0063  140.2894  154.7060 C   0  0  0  0  0  0  0  0  0  0  0  0
  148.3354  139.0473  154.5106 C   0  0  0  0  0  0  0  0  0  0  0  0
  148.9639  138.0575  155.2589 N   0  0  0  0  0  0  0  0  0  0  0  0
  149.9505  138.6732  155.8493 C   0  0  0  0  0  0  0  0  0  0  0  0
  150.0610  140.0136  155.5592 N   0  0  0  0  0  0  0  0  0  0  0  0
  151.0546  140.9352  156.0834 C   0  0  0  0  0  0  0  0  0  0  0  0
  150.5622  141.7563  157.2976 C   0  0  2  0  0  0  0  0  0  0  0  0
  149.3701  142.3880  156.8764 O   0  0  0  0  0  0  0  0  0  0  0  0
  151.5218  142.8696  157.7776 C   0  0  2  0  0  0  0  0  0  0  0  0
  152.6315  142.4366  158.7392 C   0  0  0  0  0  0  0  0  0  0  0  0
  152.9601  143.7014  159.5155 C   0  0  0  0  0  0  0  0  0  0  0  0
  151.7577  144.6108  159.2597 C   0  0  0  0  0  0  0  0  0  0  0  0
  150.8102  143.7855  158.5979 O   0  0  0  0  0  0  0  0  0  0  0  0
  145.8928  137.7904  152.0014 C   0  0  0  0  0  0  0  0  0  0  0  0
  141.2114  134.5411  153.3448 H   0  0  0  0  0  0  0  0  0  0  0  0
  140.9595  136.1251  152.6046 H   0  0  0  0  0  0  0  0  0  0  0  0
  141.5606  136.0069  154.2670 H   0  0  0  0  0  0  0  0  0  0  0  0
  143.3709  134.6199  152.5804 H   0  0  0  0  0  0  0  0  0  0  0  0
  146.1206  135.6567  150.2367 H   0  0  0  0  0  0  0  0  0  0  0  0
  144.5336  136.3514  149.9597 H   0  0  0  0  0  0  0  0  0  0  0  0
  144.6828  134.7680  150.7188 H   0  0  0  0  0  0  0  0  0  0  0  0
  145.6570  134.8021  153.5148 H   0  0  0  0  0  0  0  0  0  0  0  0
  146.9680  135.2730  152.4655 H   0  0  0  0  0  0  0  0  0  0  0  0
  146.0130  136.7159  154.9214 H   0  0  0  0  0  0  0  0  0  0  0  0
  147.6542  136.5321  154.2858 H   0  0  0  0  0  0  0  0  0  0  0  0
  147.2597  142.2811  152.8927 H   0  0  0  0  0  0  0  0  0  0  0  0
  150.6314  138.1614  156.5141 H   0  0  0  0  0  0  0  0  0  0  0  0
  151.9612  140.3854  156.3384 H   0  0  0  0  0  0  0  0  0  0  0  0
  151.3222  141.6057  155.2652 H   0  0  0  0  0  0  0  0  0  0  0  0
  150.3168  141.0894  158.1249 H   0  0  0  0  0  0  0  0  0  0  0  0
  149.5855  143.2485  156.5508 H   0  0  0  0  0  0  0  0  0  0  0  0
  151.9594  143.3997  156.9291 H   0  0  0  0  0  0  0  0  0  0  0  0
  152.2603  141.6774  159.4289 H   0  0  0  0  0  0  0  0  0  0  0  0
  153.5021  142.0332  158.2235 H   0  0  0  0  0  0  0  0  0  0  0  0
  153.0902  143.4869  160.5766 H   0  0  0  0  0  0  0  0  0  0  0  0
  153.8762  144.1666  159.1503 H   0  0  0  0  0  0  0  0  0  0  0  0
  151.3416  145.0247  160.1783 H   0  0  0  0  0  0  0  0  0  0  0  0
  152.0336  145.4392  158.6056 H   0  0  0  0  0  0  0  0  0  0  0  0
  146.7057  137.7751  151.2739 H   0  0  0  0  0  0  0  0  0  0  0  0
  145.2194  138.6043  151.7281 H   0  0  0  0  0  0  0  0  0  0  0  0
  1  2  1  0  0  0  0
  1 28  1  0  0  0  0
  1 29  1  0  0  0  0
  1 30  1  0  0  0  0
  2  3  1  0  0  0  0
  2 31  1  0  0  0  0
  3  4  2  0  0  0  0
  3  5  1  0  0  0  0
  5 27  1  0  0  0  0
  5  6  1  0  0  0  0
  5  7  1  0  0  0  0
  6 32  1  0  0  0  0
  6 33  1  0  0  0  0
  6 34  1  0  0  0  0
  7  8  1  0  0  0  0
  7 35  1  0  0  0  0
  7 36  1  0  0  0  0
  8  9  1  0  0  0  0
  8 37  1  0  0  0  0
  8 38  1  0  0  0  0
  9 10  1  0  0  0  0
  9 27  1  0  0  0  0
 10 15  1  0  0  0  0
 10 11  2  0  0  0  0
 11 12  1  0  0  0  0
 12 13  2  0  0  0  0
 12 39  1  0  0  0  0
 13 14  1  0  0  0  0
 14 18  1  0  0  0  0
 14 15  2  0  0  0  0
 15 16  1  0  0  0  0
 16 17  2  0  0  0  0
 17 18  1  0  0  0  0
 17 40  1  0  0  0  0
 18 19  1  0  0  0  0
 19 20  1  0  0  0  0
 19 41  1  0  0  0  0
 19 42  1  0  0  0  0
 20 21  1  0  0  0  0
 20 22  1  0  0  0  0
 20 43  1  0  0  0  0
 21 44  1  0  0  0  0
 22 26  1  0  0  0  0
 22 23  1  0  0  0  0
 22 45  1  0  0  0  0
 23 24  1  0  0  0  0
 23 46  1  0  0  0  0
 23 47  1  0  0  0  0
 24 25  1  0  0  0  0
 24 48  1  0  0  0  0
 24 49  1  0  0  0  0
 25 26  1  0  0  0  0
 25 50  1  0  0  0  0
 25 51  1  0  0  0  0
 27 52  1  0  0  0  0
 27 53  1  0  0  0  0
M  END
> <s_m_source_file>
AV-unprocessed.smi

> <i_m_source_file_index>
260

> <i_lp_mmshare_version>
43012

> <i_f3d_flags>
0

> <s_epik_input>
W0NIM11bTkhdQyg9TylbQ0BAXTEoW0NIM10pW0NIMl1bQ0gyXU4oW0NIMl0xKWMobltjSF1uMiljKGMyMyluW2NIXW4zW0NIMl1bQ0BIXShbT0hdKVtDQEBIXTRbQ0gyXVtDSDJdW0NIMl1PNA==

> <s_epik_cmdline>
J2VwaWtfcHl0aG9uJywgJy1waCcsICc3LjAnLCAnLXRuJywgJzgnLCAnLW1hJywgJzIwMCcsICctbWV0YWxfYmluZGluZycsICctaW1hZScsICc8aW5maWxlLm1hZT4nLCAnLW9tYWUnLCAnPG91dGZpbGUubWFlPic=

> <r_lp_tautomer_probability>
1

> <r_epik_Ionization_Penalty>
0.00115068

> <r_epik_Ionization_Penalty_Charging>
0

> <r_epik_Ionization_Penalty_Neutral>
0.00115068

> <r_epik_State_Penalty>
0.000668876

> <r_epik_Charging_Adjusted_Penalty>
0.000668876

> <i_epik_Tot_Q>
0

> <i_epik_Tot_abs_Q>
0

> <r_epik_Metal_State_Penalty>
-0

> <b_epik_Metal_Only>
0

> <s_lp_Force_Field>
OPLS_2005

> <r_lp_Energy>
52.371

> <b_lp_Chiralities_Consistent>
1

> <s_lp_Variant>
AV-unprocessed.smi:260-2

> <Gold.Version>
5.8.1

> <Gold.Id.Protein>
6NUR|6NUR_protein|mol2

> <Gold.PLP.Fitness>
45.7446

> <Gold.PLP.PLP>
-43.8903

> <Gold.PLP.part.hbond>
-1.5129

> <Gold.PLP.part.metal>
0.0000

> <Gold.PLP.part.buried>
-6.1813

> <Gold.PLP.part.nonpolar>
-37.3660

> <Gold.PLP.part.repulsive>
1.8385

> <Gold.PLP.ligand.clash>
0.0000

> <Gold.PLP.ligand.torsion>
1.0419

> <Gold.PLP.Chemscore.Hbond>
1.1991

> <Gold.PLP.Chemscore.CHOScore>
0.0000

> <Gold.PLP.Chemscore.Metal>
0.0000

> <Gold.Chemscore.Hbonds>
donor molecule, donor type, donor heavy atom, donor atom, acceptor molecule, acceptor atom, score
      L1  H    21    44       P1  8028  0.86
      P1  H  8011  8017       L1    13  0.07

> <Gold.PLP.Chemscore.Internal.Correction>
0.3408

> <Gold.Rescore>
     Score         DG    S(hbond)    S(metal)    S(lipo)     H(rot)  DE(clash)    DE(int)     intcor
     10.39     -12.96       1.00        0.00      90.55       2.53       0.58       1.99       ----

> <Gold.Chemscore.Fitness>
10.3898

> <Gold.Chemscore.DG>
-12.9591

> <Gold.Chemscore.ZeroCoef>
-5.4800

> <Gold.Chemscore.Hbond>
1.0032

> <Gold.Chemscore.Metal>
0.0000

> <Gold.Chemscore.Lipo>
90.5541

> <Gold.Chemscore.Internal_Hbond>
0.0000

> <Gold.Chemscore.DEClash>
0.5770

> <Gold.Chemscore.DEInternal>
1.9923

> <Gold.Chemscore.Rot>
2.5259

> <Gold.Chemscore.Internal.Correction>
   9.000000E+99

> <Gold.Chemscore.Hbonds>
donor molecule, donor type, donor heavy atom, donor atom, acceptor molecule, acceptor atom, score
      L1  H    21    44       P1  8028  0.85

> <Gold.Chemscore.Hbond.Weighted>
-3.3506

> <Gold.Chemscore.Metal.Weighted>
-0.0000

> <Gold.Chemscore.Lipo.Weighted>
-10.5948

> <Gold.Chemscore.Internal_Hbond.Weighted>
0.0000

> <Gold.Chemscore.DEClash.Weighted>
0.5770

> <Gold.Chemscore.DEInternal.Weighted>
1.9923

> <Gold.Chemscore.Rot.Weighted>
6.4663

> <Gold.Chemscore.Internal.Correction.Weighted>
   9.000000E+99

> <Gold.Protein.RotatedTorsions>
[ 6907 6896 6895 6894 ] final  -13.54 input  -60.11 | X-H torsion
[ 7974 7965 7964 7962 ] final   55.67 input  175.53 | X-H torsion
[ 8008 7997 7996 7995 ] final  -63.24 input   59.86 | X-H torsion
[ 10167 10162 10161 10158 ] final -149.98 input  -65.29 | X-H torsion
[ 10718 10713 10712 10709 ] final -109.76 input   66.30 | X-H torsion
[ 10763 10752 10751 10750 ] final  -19.07 input  -60.55 | X-H torsion
[ 11005 11000 10999 10996 ] final  110.76 input  -57.11 | X-H torsion

> <Gold.Protein.ActiveResidues>
 VAL166  LYS551  ARG553  GLY616  TRP617  ASP618  TYR619  PRO620  LYS621  CYS622 
 ASP623  PHE694  ASN695  SER759  ASP760  ASP761  ALA762  ILE779  LEU786  VAL792 
 PHE793  MET794  SER795  GLU796  ALA797  LYS798  CYS799  TRP800  GLU811  SER814 

> <Gold.Protein.RotatedAtoms>
  151.3533  135.0889  159.9410 H   0  0  0  0  0  0  0  0  0  0  0  0  # atno 6907 bound_to 6896
  152.5181  133.9330  159.7600 H   0  0  0  0  0  0  0  0  0  0  0  0  # atno 6908 bound_to 6896
  150.9710  133.6290  159.2767 H   0  0  0  0  0  0  0  0  0  0  0  0  # atno 6909 bound_to 6896
  145.9479  139.3946  143.0323 H   0  0  0  0  0  0  0  0  0  0  0  0  # atno 7974 bound_to 7965
  154.4543  140.0979  156.6712 H   0  0  0  0  0  0  0  0  0  0  0  0  # atno 8008 bound_to 7997
  155.5186  140.3478  155.4384 H   0  0  0  0  0  0  0  0  0  0  0  0  # atno 8009 bound_to 7997
  156.0746  140.1358  156.9776 H   0  0  0  0  0  0  0  0  0  0  0  0  # atno 8010 bound_to 7997
  139.7395  143.8684  152.2558 H   0  0  0  0  0  0  0  0  0  0  0  0  # atno 10167 bound_to 10162
  156.0554  130.5780  150.8144 H   0  0  0  0  0  0  0  0  0  0  0  0  # atno 10718 bound_to 10713
  153.5991  135.7000  153.5391 H   0  0  0  0  0  0  0  0  0  0  0  0  # atno 10763 bound_to 10752
  153.3112  135.4100  155.1337 H   0  0  0  0  0  0  0  0  0  0  0  0  # atno 10764 bound_to 10752
  154.8586  135.3672  154.5526 H   0  0  0  0  0  0  0  0  0  0  0  0  # atno 10765 bound_to 10752
  139.8889  134.9492  156.6329 H   0  0  0  0  0  0  0  0  0  0  0  0  # atno 11005 bound_to 11000
  145.8211  140.9679  143.0898 LP  0  0  0  0  0  0  0  0  0  0  0  0  # atno 17320 bound_to 7965
  144.6790  140.0042  143.7484 LP  0  0  0  0  0  0  0  0  0  0  0  0  # atno 17321 bound_to 7965
  139.8630  144.7107  150.9076 LP  0  0  0  0  0  0  0  0  0  0  0  0  # atno 17342 bound_to 10162
  140.7784  143.3801  151.1492 LP  0  0  0  0  0  0  0  0  0  0  0  0  # atno 17343 bound_to 10162
  157.5519  131.0944  150.9683 LP  0  0  0  0  0  0  0  0  0  0  0  0  # atno 17370 bound_to 10713
  156.9941  130.5574  149.5306 LP  0  0  0  0  0  0  0  0  0  0  0  0  # atno 17371 bound_to 10713
  140.7653  133.8784  155.8449 LP  0  0  0  0  0  0  0  0  0  0  0  0  # atno 17394 bound_to 11000
  140.9888  134.1307  157.4427 LP  0  0  0  0  0  0  0  0  0  0  0  0  # atno 17395 bound_to 11000

$$$$
