AV-unprocessed.smi:102|AV-procd|sdf|956|dock5
  -GOLD-   2262017493D 1   1.00000     0.00000
 Structure written by MMmdl.
 44 45  0  0  0  0  0  0  0  0  1 V2000
  155.3909  136.8053  157.5205 C   0  0  0  0  0  0  0  0  0  0  0  0
  153.9511  136.4846  157.8988 C   0  0  0  0  0  0  0  0  0  0  0  0
  153.6586  136.0731  159.0221 O   0  0  0  0  0  0  0  0  0  0  0  0
  153.0932  136.7048  156.8858 O   0  0  0  0  0  0  0  0  0  0  0  0
  151.6966  136.5199  157.0725 C   0  0  0  0  0  0  0  0  0  0  0  0
  151.1629  137.4209  158.2027 C   0  0  1  0  0  0  0  0  0  0  0  0
  151.8014  138.6902  158.1613 O   0  0  0  0  0  0  0  0  0  0  0  0
  151.0793  139.5293  157.3221 C   0  0  2  0  0  0  0  0  0  0  0  0
  151.3159  140.9588  157.7351 N   0  0  0  0  0  0  0  0  0  0  0  0
  152.1040  141.2648  158.8360 C   0  0  0  0  0  0  0  0  0  0  0  0
  152.3280  142.5347  159.2489 C   0  0  0  0  0  0  0  0  0  0  0  0
  153.1021  142.7559  160.3248 F   0  0  0  0  0  0  0  0  0  0  0  0
  151.7284  143.6637  158.5429 C   0  0  0  0  0  0  0  0  0  0  0  0
  151.8762  144.8482  158.8373 O   0  0  0  0  0  0  0  0  0  0  0  0
  150.9250  143.3049  157.4559 N   0  0  0  0  0  0  0  0  0  0  0  0
  150.6820  141.9998  157.0230 C   0  0  0  0  0  0  0  0  0  0  0  0
  149.9361  141.7974  156.0657 O   0  0  0  0  0  0  0  0  0  0  0  0
  149.6063  139.1599  157.4844 C   0  0  1  0  0  0  0  0  0  0  0  0
  148.9444  139.2169  156.2286 O   0  0  0  0  0  0  0  0  0  0  0  0
  147.6060  139.3072  156.1778 C   0  0  0  0  0  0  0  0  0  0  0  0
  147.0759  139.2580  154.7513 C   0  0  0  0  0  0  0  0  0  0  0  0
  146.8495  139.4137  157.1431 O   0  0  0  0  0  0  0  0  0  0  0  0
  149.6667  137.7342  158.0276 C   0  0  2  0  0  0  0  0  0  0  0  0
  148.9714  137.6795  159.2670 O   0  0  0  0  0  0  0  0  0  0  0  0
  148.6739  136.4937  159.8263 C   0  0  0  0  0  0  0  0  0  0  0  0
  147.9721  136.6457  161.1690 C   0  0  0  0  0  0  0  0  0  0  0  0
  148.9249  135.3853  159.3528 O   0  0  0  0  0  0  0  0  0  0  0  0
  150.4785  144.0529  156.9453 H   0  0  0  0  0  0  0  0  0  0  0  0
  155.5215  137.8818  157.4110 H   0  0  0  0  0  0  0  0  0  0  0  0
  155.6527  136.3259  156.5771 H   0  0  0  0  0  0  0  0  0  0  0  0
  156.0768  136.4500  158.2899 H   0  0  0  0  0  0  0  0  0  0  0  0
  151.1414  136.6642  156.1446 H   0  0  0  0  0  0  0  0  0  0  0  0
  151.5523  135.4769  157.3549 H   0  0  0  0  0  0  0  0  0  0  0  0
  151.3578  136.9431  159.1637 H   0  0  0  0  0  0  0  0  0  0  0  0
  151.4621  139.4040  156.3067 H   0  0  0  0  0  0  0  0  0  0  0  0
  152.5578  140.4633  159.4011 H   0  0  0  0  0  0  0  0  0  0  0  0
  149.1559  139.8354  158.2145 H   0  0  0  0  0  0  0  0  0  0  0  0
  147.5383  140.0394  154.1477 H   0  0  0  0  0  0  0  0  0  0  0  0
  145.9958  139.4051  154.7384 H   0  0  0  0  0  0  0  0  0  0  0  0
  147.2985  138.2918  154.2984 H   0  0  0  0  0  0  0  0  0  0  0  0
  149.2119  137.0438  157.3149 H   0  0  0  0  0  0  0  0  0  0  0  0
  147.0705  137.2489  161.0604 H   0  0  0  0  0  0  0  0  0  0  0  0
  148.6317  137.1337  161.8867 H   0  0  0  0  0  0  0  0  0  0  0  0
  147.6899  135.6706  161.5664 H   0  0  0  0  0  0  0  0  0  0  0  0
  1  2  1  0  0  0  0
  1 29  1  0  0  0  0
  1 30  1  0  0  0  0
  1 31  1  0  0  0  0
  2  3  2  0  0  0  0
  2  4  1  0  0  0  0
  4  5  1  0  0  0  0
  5  6  1  0  0  0  0
  5 32  1  0  0  0  0
  5 33  1  0  0  0  0
  6 23  1  0  0  0  0
  6  7  1  0  0  0  0
  6 34  1  0  0  0  0
  7  8  1  0  0  0  0
  8  9  1  0  0  0  0
  8 18  1  0  0  0  0
  8 35  1  0  0  0  0
  9 16  1  0  0  0  0
  9 10  1  0  0  0  0
 10 11  2  0  0  0  0
 10 36  1  0  0  0  0
 11 12  1  0  0  0  0
 11 13  1  0  0  0  0
 13 14  2  0  0  0  0
 13 15  1  0  0  0  0
 15 28  1  0  0  0  0
 15 16  1  0  0  0  0
 16 17  2  0  0  0  0
 18 19  1  0  0  0  0
 18 23  1  0  0  0  0
 18 37  1  0  0  0  0
 19 20  1  0  0  0  0
 20 21  1  0  0  0  0
 20 22  2  0  0  0  0
 21 38  1  0  0  0  0
 21 39  1  0  0  0  0
 21 40  1  0  0  0  0
 23 24  1  0  0  0  0
 23 41  1  0  0  0  0
 24 25  1  0  0  0  0
 25 26  1  0  0  0  0
 25 27  2  0  0  0  0
 26 42  1  0  0  0  0
 26 43  1  0  0  0  0
 26 44  1  0  0  0  0
M  END
> <s_m_source_file>
AV-unprocessed.smi

> <i_m_source_file_index>
102

> <i_lp_mmshare_version>
43012

> <i_f3d_flags>
0

> <s_epik_input>
W0NIM11DKD1PKU9bQ0gyXVtDQEBIXTFPW0NASF0oW0NAQEhdKE9DKD1PKVtDSDNdKVtDQEhdMU9DKD1PKVtDSDNdKW4yW2NIXWMoRiljKD1PKVtuSF1jMj1P

> <s_epik_cmdline>
J2VwaWtfcHl0aG9uJywgJy1waCcsICc3LjAnLCAnLXRuJywgJzgnLCAnLW1hJywgJzIwMCcsICctbWV0YWxfYmluZGluZycsICctaW1hZScsICc8aW5maWxlLm1hZT4nLCAnLW9tYWUnLCAnPG91dGZpbGUubWFlPic=

> <r_lp_tautomer_probability>
0.999537

> <r_epik_Ionization_Penalty>
0.058267

> <r_epik_Ionization_Penalty_Charging>
0.058267

> <r_epik_Ionization_Penalty_Neutral>
6.57791e-16

> <r_epik_State_Penalty>
0.0503774

> <r_epik_Charging_Adjusted_Penalty>
0.108644

> <i_epik_Tot_Q>
0

> <i_epik_Tot_abs_Q>
0

> <r_epik_Metal_State_Penalty>
2.6644

> <b_epik_Metal_Only>
0

> <s_epik_Chemistry_Notes>
This compound has an ester and may undergo hydrolysis at high or low pH. This compound contains an acetal/aminal-like group ( X-CH(R)-Y where X, Y are N, S, or O) that may be acid/base labile, releasing an aldehyde.

> <s_lp_Force_Field>
OPLS_2005

> <r_lp_Energy>
12.7651

> <b_lp_Chiralities_Consistent>
1

> <s_lp_Variant>
AV-unprocessed.smi:102-12

> <Gold.Version>
5.8.1

> <Gold.Id.Protein>
6NUR|6NUR_protein|mol2

> <Gold.PLP.Fitness>
42.2223

> <Gold.PLP.PLP>
-34.3557

> <Gold.PLP.part.hbond>
-4.6563

> <Gold.PLP.part.metal>
0.0000

> <Gold.PLP.part.buried>
-6.6819

> <Gold.PLP.part.nonpolar>
-23.6989

> <Gold.PLP.part.repulsive>
0.1841

> <Gold.PLP.ligand.clash>
0.0000

> <Gold.PLP.ligand.torsion>
0.6223

> <Gold.PLP.Chemscore.Hbond>
2.9920

> <Gold.PLP.Chemscore.CHOScore>
0.0000

> <Gold.PLP.Chemscore.Metal>
0.0000

> <Gold.Chemscore.Hbonds>
donor molecule, donor type, donor heavy atom, donor atom, acceptor molecule, acceptor atom, score
      L1  H    15    28       P1  8028  0.75
      P1  H  6896  6908       L1    27  1.00
      P1  H  6896  6909       L1     3  0.84

> <Gold.PLP.Chemscore.Internal.Correction>
0.1352

> <Gold.Rescore>
     Score         DG    S(hbond)    S(metal)    S(lipo)     H(rot)  DE(clash)    DE(int)     intcor
      6.91     -10.12       2.98        0.00      43.34       4.05       0.00       3.21       ----

> <Gold.Chemscore.Fitness>
6.9123

> <Gold.Chemscore.DG>
-10.1245

> <Gold.Chemscore.ZeroCoef>
-5.4800

> <Gold.Chemscore.Hbond>
2.9781

> <Gold.Chemscore.Metal>
0.0000

> <Gold.Chemscore.Lipo>
43.3399

> <Gold.Chemscore.Internal_Hbond>
0.0000

> <Gold.Chemscore.DEClash>
0.0000

> <Gold.Chemscore.DEInternal>
3.2122

> <Gold.Chemscore.Rot>
4.0520

> <Gold.Chemscore.Internal.Correction>
   9.000000E+99

> <Gold.Chemscore.Hbonds>
donor molecule, donor type, donor heavy atom, donor atom, acceptor molecule, acceptor atom, score
      L1  H    15    28       P1  8028  0.69
      P1  H  6896  6908       L1    27  0.97
      P1  H  6896  6909       L1     3  0.78

> <Gold.Chemscore.Hbond.Weighted>
-9.9469

> <Gold.Chemscore.Metal.Weighted>
-0.0000

> <Gold.Chemscore.Lipo.Weighted>
-5.0708

> <Gold.Chemscore.Internal_Hbond.Weighted>
0.0000

> <Gold.Chemscore.DEClash.Weighted>
0.0000

> <Gold.Chemscore.DEInternal.Weighted>
3.2122

> <Gold.Chemscore.Rot.Weighted>
10.3732

> <Gold.Chemscore.Internal.Correction.Weighted>
   9.000000E+99

> <Gold.Protein.RotatedTorsions>
[ 6907 6896 6895 6894 ] final  172.25 input  -60.11 | X-H torsion
[ 7974 7965 7964 7962 ] final  110.19 input  175.53 | X-H torsion
[ 8008 7997 7996 7995 ] final   73.78 input   59.86 | X-H torsion
[ 10167 10162 10161 10158 ] final   15.59 input  -65.29 | X-H torsion
[ 10718 10713 10712 10709 ] final  150.39 input   66.30 | X-H torsion
[ 10763 10752 10751 10750 ] final  107.78 input  -60.55 | X-H torsion
[ 11005 11000 10999 10996 ] final -170.81 input  -57.11 | X-H torsion

> <Gold.Protein.ActiveResidues>
 VAL166  LYS551  ARG553  GLY616  TRP617  ASP618  TYR619  PRO620  LYS621  CYS622 
 ASP623  PHE694  ASN695  SER759  ASP760  ASP761  ALA762  ILE779  LEU786  VAL792 
 PHE793  MET794  SER795  GLU796  ALA797  LYS798  CYS799  TRP800  GLU811  SER814 

> <Gold.Protein.RotatedAtoms>
  151.7872  133.3355  159.3488 H   0  0  0  0  0  0  0  0  0  0  0  0  # atno 6907 bound_to 6896
  150.7405  134.5876  159.5980 H   0  0  0  0  0  0  0  0  0  0  0  0  # atno 6908 bound_to 6896
  152.3235  134.7352  160.0359 H   0  0  0  0  0  0  0  0  0  0  0  0  # atno 6909 bound_to 6896
  145.2582  139.2713  143.4031 H   0  0  0  0  0  0  0  0  0  0  0  0  # atno 7974 bound_to 7965
  155.7887  140.3480  155.5337 H   0  0  0  0  0  0  0  0  0  0  0  0  # atno 8008 bound_to 7997
  155.8655  140.0978  157.1605 H   0  0  0  0  0  0  0  0  0  0  0  0  # atno 8009 bound_to 7997
  154.4014  140.1350  156.4001 H   0  0  0  0  0  0  0  0  0  0  0  0  # atno 8010 bound_to 7997
  140.5856  143.8895  150.6828 H   0  0  0  0  0  0  0  0  0  0  0  0  # atno 10167 bound_to 10162
  157.2841  131.0841  151.1510 H   0  0  0  0  0  0  0  0  0  0  0  0  # atno 10718 bound_to 10713
  153.4115  135.3833  155.2053 H   0  0  0  0  0  0  0  0  0  0  0  0  # atno 10763 bound_to 10752
  154.8738  135.3795  154.4495 H   0  0  0  0  0  0  0  0  0  0  0  0  # atno 10764 bound_to 10752
  153.5004  135.7088  153.5897 H   0  0  0  0  0  0  0  0  0  0  0  0  # atno 10765 bound_to 10752
  140.5153  134.5762  157.5031 H   0  0  0  0  0  0  0  0  0  0  0  0  # atno 11005 bound_to 11000
  146.3283  140.2992  142.8619 LP  0  0  0  0  0  0  0  0  0  0  0  0  # atno 17320 bound_to 7965
  144.9442  140.8110  143.5612 LP  0  0  0  0  0  0  0  0  0  0  0  0  # atno 17321 bound_to 7965
  140.2406  143.3667  152.1490 LP  0  0  0  0  0  0  0  0  0  0  0  0  # atno 17342 bound_to 10162
  139.5196  144.7021  151.5462 LP  0  0  0  0  0  0  0  0  0  0  0  0  # atno 17343 bound_to 10162
  157.2932  130.6806  149.6125 LP  0  0  0  0  0  0  0  0  0  0  0  0  # atno 17370 bound_to 10713
  155.9665  130.4414  150.5340 LP  0  0  0  0  0  0  0  0  0  0  0  0  # atno 17371 bound_to 10713
  139.9636  134.7410  156.0185 LP  0  0  0  0  0  0  0  0  0  0  0  0  # atno 17394 bound_to 11000
  141.1364  133.6574  156.3605 LP  0  0  0  0  0  0  0  0  0  0  0  0  # atno 17395 bound_to 11000

$$$$
