AV-unprocessed.smi:767|AV-procd|sdf|3663|dock1
  -GOLD-   22720 1 73D 1   1.00000     0.00000
 Structure written by MMmdl.
 47 49  0  0  0  0  0  0  0  0  1 V2000
  145.8941  130.1892  150.8873 C   0  0  0  0  0  0  0  0  0  0  0  0
  145.6461  131.6755  150.7358 C   0  0  0  0  0  0  0  0  0  0  0  0
  144.4597  132.1490  150.1372 C   0  0  0  0  0  0  0  0  0  0  0  0
  144.2819  133.5401  150.0092 C   0  0  0  0  0  0  0  0  0  0  0  0
  145.2945  134.4010  150.4791 C   0  0  0  0  0  0  0  0  0  0  0  0
  145.1650  135.9083  150.3385 C   0  0  0  0  0  0  0  0  0  0  0  0
  145.0913  136.6484  151.6898 C   0  0  0  0  0  0  0  0  0  0  0  0
  146.3977  136.8109  152.3212 N   0  0  0  0  0  0  0  0  0  0  0  0
  146.6049  137.3309  153.5382 C   0  0  0  0  0  0  0  0  0  0  0  0
  145.7124  137.7713  154.2624 O   0  0  0  0  0  0  0  0  0  0  0  0
  147.8993  137.2922  153.8798 N   0  0  0  0  0  0  0  0  0  0  0  0
  148.4312  137.7507  155.1669 C   0  0  2  0  0  0  0  0  0  0  0  0
  148.5289  139.2759  155.2568 C   0  0  2  0  0  0  0  0  0  0  0  0
  147.9437  140.4266  154.5205 C   0  0  0  0  0  0  0  0  0  0  0  0
  149.2318  141.2920  154.4596 C   0  0  0  0  0  0  0  0  0  0  0  0
  150.3121  140.4332  154.9076 O   0  0  0  0  0  0  0  0  0  0  0  0
  149.8722  139.1324  154.5719 C   0  0  1  0  0  0  0  0  0  0  0  0
  150.0078  137.7685  155.2841 C   0  0  0  0  0  0  0  0  0  0  0  0
  150.6078  137.7714  156.7014 C   0  0  0  0  0  0  0  0  0  0  0  0
  150.7797  136.6984  154.5046 C   0  0  0  0  0  0  0  0  0  0  0  0
  146.4403  133.8249  151.0681 C   0  0  0  0  0  0  0  0  0  0  0  0
  146.6202  132.4926  151.1937 N   0  0  0  0  0  0  0  0  0  0  0  0
  144.9528  129.6475  150.9857 H   0  0  0  0  0  0  0  0  0  0  0  0
  146.4973  129.9804  151.7715 H   0  0  0  0  0  0  0  0  0  0  0  0
  146.4213  129.8056  150.0136 H   0  0  0  0  0  0  0  0  0  0  0  0
  143.7048  131.4639  149.7803 H   0  0  0  0  0  0  0  0  0  0  0  0
  143.3886  133.9375  149.5501 H   0  0  0  0  0  0  0  0  0  0  0  0
  146.0091  136.2828  149.7589 H   0  0  0  0  0  0  0  0  0  0  0  0
  144.2741  136.1335  149.7508 H   0  0  0  0  0  0  0  0  0  0  0  0
  144.6870  137.6485  151.5311 H   0  0  0  0  0  0  0  0  0  0  0  0
  144.4016  136.1419  152.3665 H   0  0  0  0  0  0  0  0  0  0  0  0
  147.1968  136.4733  151.8049 H   0  0  0  0  0  0  0  0  0  0  0  0
  148.5595  136.9083  153.2198 H   0  0  0  0  0  0  0  0  0  0  0  0
  147.9371  137.3076  156.0333 H   0  0  0  0  0  0  0  0  0  0  0  0
  148.6192  139.5495  156.3109 H   0  0  0  0  0  0  0  0  0  0  0  0
  147.5916  140.1464  153.5269 H   0  0  0  0  0  0  0  0  0  0  0  0
  147.1347  140.9138  155.0653 H   0  0  0  0  0  0  0  0  0  0  0  0
  149.4187  141.6379  153.4423 H   0  0  0  0  0  0  0  0  0  0  0  0
  149.1678  142.1659  155.1083 H   0  0  0  0  0  0  0  0  0  0  0  0
  149.8098  139.0217  153.4843 H   0  0  0  0  0  0  0  0  0  0  0  0
  151.6563  138.0706  156.6849 H   0  0  0  0  0  0  0  0  0  0  0  0
  150.5597  136.7796  157.1520 H   0  0  0  0  0  0  0  0  0  0  0  0
  150.1006  138.4476  157.3872 H   0  0  0  0  0  0  0  0  0  0  0  0
  151.8578  136.8433  154.5795 H   0  0  0  0  0  0  0  0  0  0  0  0
  150.5366  136.7166  153.4425 H   0  0  0  0  0  0  0  0  0  0  0  0
  150.5544  135.6966  154.8714 H   0  0  0  0  0  0  0  0  0  0  0  0
  147.2419  134.4479  151.4371 H   0  0  0  0  0  0  0  0  0  0  0  0
  1  2  1  0  0  0  0
  1 23  1  0  0  0  0
  1 24  1  0  0  0  0
  1 25  1  0  0  0  0
  2 22  1  0  0  0  0
  2  3  2  0  0  0  0
  3  4  1  0  0  0  0
  3 26  1  0  0  0  0
  4  5  2  0  0  0  0
  4 27  1  0  0  0  0
  5  6  1  0  0  0  0
  5 21  1  0  0  0  0
  6  7  1  0  0  0  0
  6 28  1  0  0  0  0
  6 29  1  0  0  0  0
  7  8  1  0  0  0  0
  7 30  1  0  0  0  0
  7 31  1  0  0  0  0
  8  9  1  0  0  0  0
  8 32  1  0  0  0  0
  9 10  2  0  0  0  0
  9 11  1  0  0  0  0
 11 12  1  0  0  0  0
 11 33  1  0  0  0  0
 12 18  1  0  0  0  0
 12 13  1  0  0  0  0
 12 34  1  0  0  0  0
 13 17  1  0  0  0  0
 13 14  1  0  0  0  0
 13 35  1  0  0  0  0
 14 15  1  0  0  0  0
 14 36  1  0  0  0  0
 14 37  1  0  0  0  0
 15 16  1  0  0  0  0
 15 38  1  0  0  0  0
 15 39  1  0  0  0  0
 16 17  1  0  0  0  0
 17 18  1  0  0  0  0
 17 40  1  0  0  0  0
 18 19  1  0  0  0  0
 18 20  1  0  0  0  0
 19 41  1  0  0  0  0
 19 42  1  0  0  0  0
 19 43  1  0  0  0  0
 20 44  1  0  0  0  0
 20 45  1  0  0  0  0
 20 46  1  0  0  0  0
 21 22  2  0  0  0  0
 21 47  1  0  0  0  0
M  END
> <s_m_source_file>
AV-unprocessed.smi

> <i_m_source_file_index>
767

> <i_lp_mmshare_version>
43012

> <i_f3d_flags>
0

> <s_epik_input>
W0NIM11jMVtjSF1bY0hdYyhbY0hdbjEpW0NIMl1bQ0gyXVtOSF1DKD1PKVtOSF1bQ0BIXTJDKFtDSDNdKShbQ0gzXSlbQ0BIXShbQ0BASF0yMylPW0NIMl1bQ0gyXTM=

> <s_epik_cmdline>
J2VwaWtfcHl0aG9uJywgJy1waCcsICc3LjAnLCAnLXRuJywgJzgnLCAnLW1hJywgJzIwMCcsICctbWV0YWxfYmluZGluZycsICctaW1hZScsICc8aW5maWxlLm1hZT4nLCAnLW9tYWUnLCAnPG91dGZpbGUubWFlPic=

> <r_epik_Ionization_Penalty>
0.0567523

> <r_epik_Ionization_Penalty_Charging>
0

> <r_epik_Ionization_Penalty_Neutral>
0.0567523

> <r_epik_State_Penalty>
0.0489186

> <r_epik_Charging_Adjusted_Penalty>
0.0489186

> <i_epik_Tot_Q>
0

> <i_epik_Tot_abs_Q>
0

> <r_epik_Metal_State_Penalty>
0.044622

> <b_epik_Metal_Only>
0

> <s_lp_Force_Field>
OPLS_2005

> <r_lp_Energy>
58.7335

> <b_lp_Chiralities_Consistent>
1

> <s_lp_Variant>
AV-unprocessed.smi:767-7

> <Gold.Version>
5.8.1

> <Gold.Id.Protein>
6NUR|6NUR_protein|mol2

> <Gold.PLP.Fitness>
47.3926

> <Gold.PLP.PLP>
-35.7670

> <Gold.PLP.part.hbond>
-3.0000

> <Gold.PLP.part.metal>
0.0000

> <Gold.PLP.part.buried>
-5.5996

> <Gold.PLP.part.nonpolar>
-27.7320

> <Gold.PLP.part.repulsive>
0.3207

> <Gold.PLP.ligand.clash>
0.0000

> <Gold.PLP.ligand.torsion>
0.2552

> <Gold.PLP.Chemscore.Hbond>
2.9440

> <Gold.PLP.Chemscore.CHOScore>
1.0000

> <Gold.PLP.Chemscore.Metal>
0.0000

> <Gold.Chemscore.Hbonds>
donor molecule, donor type, donor heavy atom, donor atom, acceptor molecule, acceptor atom, score
      L1  H     8    32       P1  7948  0.93
      L1  H    11    33       P1  7948  1.00
      P1  H  7989  7998       L1    16  0.90
      L1  C    21    47       P1  7948  1.00

> <Gold.PLP.Chemscore.Internal.Correction>
0.3041

> <Gold.Rescore>
     Score         DG    S(hbond)    S(metal)    S(lipo)     H(rot)  DE(clash)    DE(int)     intcor
     20.05     -21.21       2.27        0.00     101.35       1.45       0.89       0.28       ----

> <Gold.Chemscore.Fitness>
20.0495

> <Gold.Chemscore.DG>
-21.2133

> <Gold.Chemscore.ZeroCoef>
-5.4800

> <Gold.Chemscore.Hbond>
2.2714

> <Gold.Chemscore.Metal>
0.0000

> <Gold.Chemscore.Lipo>
101.3496

> <Gold.Chemscore.Internal_Hbond>
0.0000

> <Gold.Chemscore.DEClash>
0.8886

> <Gold.Chemscore.DEInternal>
0.2752

> <Gold.Chemscore.Rot>
1.4497

> <Gold.Chemscore.Internal.Correction>
   9.000000E+99

> <Gold.Chemscore.Hbonds>
donor molecule, donor type, donor heavy atom, donor atom, acceptor molecule, acceptor atom, score
      L1  H     8    32       P1  7948  0.90
      L1  H    11    33       P1  7948  0.94
      P1  H  7989  7998       L1    16  0.07

> <Gold.Chemscore.Hbond.Weighted>
-7.5866

> <Gold.Chemscore.Metal.Weighted>
-0.0000

> <Gold.Chemscore.Lipo.Weighted>
-11.8579

> <Gold.Chemscore.Internal_Hbond.Weighted>
0.0000

> <Gold.Chemscore.DEClash.Weighted>
0.8886

> <Gold.Chemscore.DEInternal.Weighted>
0.2752

> <Gold.Chemscore.Rot.Weighted>
3.7112

> <Gold.Chemscore.Internal.Correction.Weighted>
   9.000000E+99

> <Gold.Protein.RotatedTorsions>
[ 6907 6896 6895 6894 ] final  172.44 input  -60.11 | X-H torsion
[ 7974 7965 7964 7962 ] final  -92.01 input  175.53 | X-H torsion
[ 8008 7997 7996 7995 ] final  -86.53 input   59.86 | X-H torsion
[ 10167 10162 10161 10158 ] final -121.91 input  -65.29 | X-H torsion
[ 10718 10713 10712 10709 ] final   37.40 input   66.30 | X-H torsion
[ 10763 10752 10751 10750 ] final  -66.63 input  -60.55 | X-H torsion
[ 11005 11000 10999 10996 ] final  144.09 input  -57.11 | X-H torsion

> <Gold.Protein.ActiveResidues>
 VAL166  LYS551  ARG553  GLY616  TRP617  ASP618  TYR619  PRO620  LYS621  CYS622 
 ASP623  PHE694  ASN695  SER759  ASP760  ASP761  ALA762  ILE779  LEU786  VAL792 
 PHE793  MET794  SER795  GLU796  ALA797  LYS798  CYS799  TRP800  GLU811  SER814 

> <Gold.Protein.RotatedAtoms>
  151.7842  133.3352  159.3479 H   0  0  0  0  0  0  0  0  0  0  0  0  # atno 6907 bound_to 6896
  150.7415  134.5903  159.5993 H   0  0  0  0  0  0  0  0  0  0  0  0  # atno 6908 bound_to 6896
  152.3255  134.7328  160.0354 H   0  0  0  0  0  0  0  0  0  0  0  0  # atno 6909 bound_to 6896
  145.4055  140.9541  143.2263 H   0  0  0  0  0  0  0  0  0  0  0  0  # atno 7974 bound_to 7965
  154.6529  140.0577  156.9976 H   0  0  0  0  0  0  0  0  0  0  0  0  # atno 8008 bound_to 7997
  155.1344  140.3259  155.4448 H   0  0  0  0  0  0  0  0  0  0  0  0  # atno 8009 bound_to 7997
  156.2584  140.1975  156.6462 H   0  0  0  0  0  0  0  0  0  0  0  0  # atno 8010 bound_to 7997
  140.0199  143.5355  152.2225 H   0  0  0  0  0  0  0  0  0  0  0  0  # atno 10167 bound_to 10162
  157.3465  130.7575  149.6948 H   0  0  0  0  0  0  0  0  0  0  0  0  # atno 10718 bound_to 10713
  154.3627  135.6112  153.5699 H   0  0  0  0  0  0  0  0  0  0  0  0  # atno 10763 bound_to 10752
  152.9793  135.5819  154.4614 H   0  0  0  0  0  0  0  0  0  0  0  0  # atno 10764 bound_to 10752
  154.4354  135.2849  155.1861 H   0  0  0  0  0  0  0  0  0  0  0  0  # atno 10765 bound_to 10752
  140.0605  134.9207  157.1176 H   0  0  0  0  0  0  0  0  0  0  0  0  # atno 11005 bound_to 11000
  144.8344  139.5574  143.6929 LP  0  0  0  0  0  0  0  0  0  0  0  0  # atno 17320 bound_to 7965
  146.2731  139.6684  142.9282 LP  0  0  0  0  0  0  0  0  0  0  0  0  # atno 17321 bound_to 7965
  139.6147  144.7617  151.2873 LP  0  0  0  0  0  0  0  0  0  0  0  0  # atno 17342 bound_to 10162
  140.7347  143.6759  150.8042 LP  0  0  0  0  0  0  0  0  0  0  0  0  # atno 17343 bound_to 10162
  155.9715  130.4153  150.4174 LP  0  0  0  0  0  0  0  0  0  0  0  0  # atno 17370 bound_to 10713
  157.2230  131.0487  151.2536 LP  0  0  0  0  0  0  0  0  0  0  0  0  # atno 17371 bound_to 10713
  140.3777  134.2321  155.7173 LP  0  0  0  0  0  0  0  0  0  0  0  0  # atno 17394 bound_to 11000
  141.1971  133.8067  157.0642 LP  0  0  0  0  0  0  0  0  0  0  0  0  # atno 17395 bound_to 11000

$$$$
