AV-unprocessed.smi:2364|AV-procd|sdf|9417|dock5
  -GOLD-   2272013 53D 1   1.00000     0.00000
 Structure written by MMmdl.
 46 47  0  0  0  0  0  0  0  0  1 V2000
  143.8100  132.2054  150.0061 C   0  0  0  0  0  0  0  0  0  0  0  0
  145.3372  132.2050  150.1940 C   0  0  0  0  0  0  0  0  0  0  0  0
  145.8408  132.4832  151.6415 C   0  0  1  0  0  0  0  0  0  0  0  0
  146.4018  131.1842  152.2659 C   0  0  0  0  0  0  0  0  0  0  0  0
  146.9474  133.5686  151.6522 C   0  0  0  0  0  0  0  0  0  0  0  0
  147.3078  133.9677  152.9596 O   0  0  0  0  0  0  0  0  0  0  0  0
  144.7587  133.0041  152.4901 N   0  0  0  0  0  0  0  0  0  0  0  0
  144.0852  134.1625  152.3792 C   0  0  0  0  0  0  0  0  0  0  0  0
  144.2882  134.9970  151.4972 O   0  0  0  0  0  0  0  0  0  0  0  0
  143.1652  134.2780  153.3535 N   0  0  0  0  0  0  0  0  0  0  0  0
  142.3157  135.3810  153.6301 C   0  0  0  0  0  0  0  0  0  0  0  0
  142.7520  136.6436  153.3584 N   0  0  0  0  0  0  0  0  0  0  0  0
  141.6754  137.3224  153.7327 C   0  0  0  0  0  0  0  0  0  0  0  0
  140.6840  136.5649  154.2198 N   0  0  0  0  0  0  0  0  0  0  0  0
  139.3253  136.9265  154.6365 C   0  0  0  0  0  0  0  0  0  0  0  0
  138.5833  137.7435  153.5529 C   0  0  0  0  0  0  0  0  0  0  0  0
  139.1947  139.1452  153.3708 C   0  0  0  0  0  0  0  0  0  0  0  0
  139.1952  139.9233  154.6974 C   0  0  0  0  0  0  0  0  0  0  0  0
  139.8912  139.1316  155.8169 C   0  0  0  0  0  0  0  0  0  0  0  0
  139.2813  137.7242  155.9644 C   0  0  0  0  0  0  0  0  0  0  0  0
  141.0776  135.2705  154.1138 N   0  0  0  0  0  0  0  0  0  0  0  0
  143.5550  131.9885  148.9687 H   0  0  0  0  0  0  0  0  0  0  0  0
  143.3735  133.1733  150.2504 H   0  0  0  0  0  0  0  0  0  0  0  0
  143.3250  131.4495  150.6237 H   0  0  0  0  0  0  0  0  0  0  0  0
  145.7209  131.2449  149.8488 H   0  0  0  0  0  0  0  0  0  0  0  0
  145.7701  132.9353  149.5097 H   0  0  0  0  0  0  0  0  0  0  0  0
  147.2534  130.8054  151.7000 H   0  0  0  0  0  0  0  0  0  0  0  0
  145.6605  130.3854  152.2878 H   0  0  0  0  0  0  0  0  0  0  0  0
  146.7372  131.3480  153.2906 H   0  0  0  0  0  0  0  0  0  0  0  0
  147.8454  133.2166  151.1439 H   0  0  0  0  0  0  0  0  0  0  0  0
  146.6167  134.4542  151.1078 H   0  0  0  0  0  0  0  0  0  0  0  0
  147.9618  134.6469  152.8969 H   0  0  0  0  0  0  0  0  0  0  0  0
  144.4939  132.4054  153.2583 H   0  0  0  0  0  0  0  0  0  0  0  0
  143.0750  133.4947  153.9833 H   0  0  0  0  0  0  0  0  0  0  0  0
  141.6124  138.3963  153.6406 H   0  0  0  0  0  0  0  0  0  0  0  0
  138.7904  135.9876  154.7843 H   0  0  0  0  0  0  0  0  0  0  0  0
  138.5713  137.2113  152.6018 H   0  0  0  0  0  0  0  0  0  0  0  0
  137.5363  137.8484  153.8399 H   0  0  0  0  0  0  0  0  0  0  0  0
  140.2144  139.0627  152.9927 H   0  0  0  0  0  0  0  0  0  0  0  0
  138.6325  139.6991  152.6187 H   0  0  0  0  0  0  0  0  0  0  0  0
  139.6851  140.8882  154.5636 H   0  0  0  0  0  0  0  0  0  0  0  0
  138.1670  140.1377  154.9914 H   0  0  0  0  0  0  0  0  0  0  0  0
  140.9580  139.0577  155.6041 H   0  0  0  0  0  0  0  0  0  0  0  0
  139.8055  139.6724  156.7597 H   0  0  0  0  0  0  0  0  0  0  0  0
  138.2433  137.8221  156.2848 H   0  0  0  0  0  0  0  0  0  0  0  0
  139.7807  137.1793  156.7666 H   0  0  0  0  0  0  0  0  0  0  0  0
  1  2  1  0  0  0  0
  1 22  1  0  0  0  0
  1 23  1  0  0  0  0
  1 24  1  0  0  0  0
  2  3  1  0  0  0  0
  2 25  1  0  0  0  0
  2 26  1  0  0  0  0
  3  4  1  0  0  0  0
  3  5  1  0  0  0  0
  3  7  1  0  0  0  0
  4 27  1  0  0  0  0
  4 28  1  0  0  0  0
  4 29  1  0  0  0  0
  5  6  1  0  0  0  0
  5 30  1  0  0  0  0
  5 31  1  0  0  0  0
  6 32  1  0  0  0  0
  7  8  1  0  0  0  0
  7 33  1  0  0  0  0
  8  9  2  0  0  0  0
  8 10  1  0  0  0  0
 10 11  1  0  0  0  0
 10 34  1  0  0  0  0
 11 21  2  0  0  0  0
 11 12  1  0  0  0  0
 12 13  2  0  0  0  0
 13 14  1  0  0  0  0
 13 35  1  0  0  0  0
 14 15  1  0  0  0  0
 14 21  1  0  0  0  0
 15 20  1  0  0  0  0
 15 16  1  0  0  0  0
 15 36  1  0  0  0  0
 16 17  1  0  0  0  0
 16 37  1  0  0  0  0
 16 38  1  0  0  0  0
 17 18  1  0  0  0  0
 17 39  1  0  0  0  0
 17 40  1  0  0  0  0
 18 19  1  0  0  0  0
 18 41  1  0  0  0  0
 18 42  1  0  0  0  0
 19 20  1  0  0  0  0
 19 43  1  0  0  0  0
 19 44  1  0  0  0  0
 20 45  1  0  0  0  0
 20 46  1  0  0  0  0
M  END
> <s_m_source_file>
AV-unprocessed.smi

> <i_m_source_file_index>
2364

> <i_lp_mmshare_version>
43012

> <i_f3d_flags>
0

> <s_epik_input>
W0NIM11bQ0gyXVtDQEBdKFtDSDNdKShbQ0gyXVtPSF0pW05IXUMoPU8pW05IXWMxbltjSF1uKG4xKVtDSF0yW0NIMl1bQ0gyXVtDSDJdW0NIMl1bQ0gyXTI=

> <s_epik_cmdline>
J2VwaWtfcHl0aG9uJywgJy1waCcsICc3LjAnLCAnLXRuJywgJzgnLCAnLW1hJywgJzIwMCcsICctbWV0YWxfYmluZGluZycsICctaW1hZScsICc8aW5maWxlLm1hZT4nLCAnLW9tYWUnLCAnPG91dGZpbGUubWFlPic=

> <r_lp_tautomer_probability>
1

> <r_epik_Ionization_Penalty>
9.31261e-05

> <r_epik_Ionization_Penalty_Charging>
0

> <r_epik_Ionization_Penalty_Neutral>
9.31261e-05

> <r_epik_State_Penalty>
-0

> <r_epik_Charging_Adjusted_Penalty>
0

> <i_epik_Tot_Q>
0

> <i_epik_Tot_abs_Q>
0

> <r_epik_Metal_State_Penalty>
-0

> <b_epik_Metal_Only>
0

> <s_lp_Force_Field>
OPLS_2005

> <r_lp_Energy>
23.546

> <b_lp_Chiralities_Consistent>
1

> <s_lp_Variant>
AV-unprocessed.smi:2364-1

> <Gold.Version>
5.8.1

> <Gold.Id.Protein>
6NUR|6NUR_protein|mol2

> <Gold.PLP.Fitness>
44.2732

> <Gold.PLP.PLP>
-37.9710

> <Gold.PLP.part.hbond>
-3.0384

> <Gold.PLP.part.metal>
0.0000

> <Gold.PLP.part.buried>
-6.6079

> <Gold.PLP.part.nonpolar>
-27.9382

> <Gold.PLP.part.repulsive>
0.4616

> <Gold.PLP.ligand.clash>
0.0000

> <Gold.PLP.ligand.torsion>
1.4179

> <Gold.PLP.Chemscore.Hbond>
3.0000

> <Gold.PLP.Chemscore.CHOScore>
0.0000

> <Gold.PLP.Chemscore.Metal>
0.0000

> <Gold.Chemscore.Hbonds>
donor molecule, donor type, donor heavy atom, donor atom, acceptor molecule, acceptor atom, score
      L1  H     6    32       P1  7948  0.83
      L1  H    10    34       P1 10957  1.00
      P1  H 11000 11005       L1    21  0.98

> <Gold.PLP.Chemscore.Internal.Correction>
0.1381

> <Gold.Rescore>
     Score         DG    S(hbond)    S(metal)    S(lipo)     H(rot)  DE(clash)    DE(int)     intcor
     14.15     -17.77       2.82        0.00      75.61       2.34       0.01       3.61       ----

> <Gold.Chemscore.Fitness>
14.1482

> <Gold.Chemscore.DG>
-17.7658

> <Gold.Chemscore.ZeroCoef>
-5.4800

> <Gold.Chemscore.Hbond>
2.8198

> <Gold.Chemscore.Metal>
0.0000

> <Gold.Chemscore.Lipo>
75.6103

> <Gold.Chemscore.Internal_Hbond>
0.0000

> <Gold.Chemscore.DEClash>
0.0073

> <Gold.Chemscore.DEInternal>
3.6103

> <Gold.Chemscore.Rot>
2.3354

> <Gold.Chemscore.Internal.Correction>
   9.000000E+99

> <Gold.Chemscore.Hbonds>
donor molecule, donor type, donor heavy atom, donor atom, acceptor molecule, acceptor atom, score
      L1  H     6    32       P1  7948  0.61
      L1  H    10    34       P1 10957  0.99
      P1  H 11000 11005       L1    21  0.62

> <Gold.Chemscore.Hbond.Weighted>
-9.4181

> <Gold.Chemscore.Metal.Weighted>
-0.0000

> <Gold.Chemscore.Lipo.Weighted>
-8.8464

> <Gold.Chemscore.Internal_Hbond.Weighted>
0.0000

> <Gold.Chemscore.DEClash.Weighted>
0.0073

> <Gold.Chemscore.DEInternal.Weighted>
3.6103

> <Gold.Chemscore.Rot.Weighted>
5.9787

> <Gold.Chemscore.Internal.Correction.Weighted>
   9.000000E+99

> <Gold.Protein.RotatedTorsions>
[ 6907 6896 6895 6894 ] final  -91.60 input  -60.11 | X-H torsion
[ 7974 7965 7964 7962 ] final  166.97 input  175.53 | X-H torsion
[ 8008 7997 7996 7995 ] final  143.83 input   59.86 | X-H torsion
[ 10167 10162 10161 10158 ] final   63.58 input  -65.29 | X-H torsion
[ 10718 10713 10712 10709 ] final  112.61 input   66.30 | X-H torsion
[ 10763 10752 10751 10750 ] final -172.80 input  -60.55 | X-H torsion
[ 11005 11000 10999 10996 ] final   22.98 input  -57.11 | X-H torsion

> <Gold.Protein.ActiveResidues>
 VAL166  LYS551  ARG553  GLY616  TRP617  ASP618  TYR619  PRO620  LYS621  CYS622 
 ASP623  PHE694  ASN695  SER759  ASP760  ASP761  ALA762  ILE779  LEU786  VAL792 
 PHE793  MET794  SER795  GLU796  ALA797  LYS798  CYS799  TRP800  GLU811  SER814 

> <Gold.Protein.RotatedAtoms>
  150.6894  134.2252  159.4412 H   0  0  0  0  0  0  0  0  0  0  0  0  # atno 6907 bound_to 6896
  152.0206  134.9822  160.0580 H   0  0  0  0  0  0  0  0  0  0  0  0  # atno 6908 bound_to 6896
  152.1401  133.4424  159.4799 H   0  0  0  0  0  0  0  0  0  0  0  0  # atno 6909 bound_to 6896
  144.7442  139.8692  143.6387 H   0  0  0  0  0  0  0  0  0  0  0  0  # atno 7974 bound_to 7965
  156.2922  140.2252  156.4954 H   0  0  0  0  0  0  0  0  0  0  0  0  # atno 8008 bound_to 7997
  154.7735  140.0465  157.1091 H   0  0  0  0  0  0  0  0  0  0  0  0  # atno 8009 bound_to 7997
  154.9845  140.3082  155.4935 H   0  0  0  0  0  0  0  0  0  0  0  0  # atno 8010 bound_to 7997
  140.1314  144.4639  150.6862 H   0  0  0  0  0  0  0  0  0  0  0  0  # atno 10167 bound_to 10162
  157.6383  131.0970  150.6920 H   0  0  0  0  0  0  0  0  0  0  0  0  # atno 10718 bound_to 10713
  154.6152  135.2869  155.0388 H   0  0  0  0  0  0  0  0  0  0  0  0  # atno 10763 bound_to 10752
  154.1603  135.6489  153.4988 H   0  0  0  0  0  0  0  0  0  0  0  0  # atno 10764 bound_to 10752
  153.0212  135.5376  154.6920 H   0  0  0  0  0  0  0  0  0  0  0  0  # atno 10765 bound_to 10752
  140.3746  134.1986  155.7665 H   0  0  0  0  0  0  0  0  0  0  0  0  # atno 11005 bound_to 11000
  146.1292  139.4324  143.0179 LP  0  0  0  0  0  0  0  0  0  0  0  0  # atno 17320 bound_to 7965
  145.7188  141.0082  143.1413 LP  0  0  0  0  0  0  0  0  0  0  0  0  # atno 17321 bound_to 7965
  140.6814  143.2329  151.5373 LP  0  0  0  0  0  0  0  0  0  0  0  0  # atno 17342 bound_to 10162
  139.5517  144.2378  152.1542 LP  0  0  0  0  0  0  0  0  0  0  0  0  # atno 17343 bound_to 10162
  156.7248  130.4691  149.5514 LP  0  0  0  0  0  0  0  0  0  0  0  0  # atno 17370 bound_to 10713
  156.1641  130.6394  151.0756 LP  0  0  0  0  0  0  0  0  0  0  0  0  # atno 17371 bound_to 10713
  141.1943  133.8130  157.0761 LP  0  0  0  0  0  0  0  0  0  0  0  0  # atno 17394 bound_to 11000
  140.0525  134.9798  157.1162 LP  0  0  0  0  0  0  0  0  0  0  0  0  # atno 17395 bound_to 11000

$$$$
