AV-unprocessed.smi:243|AV-procd|sdf|1862|dock5
  -GOLD-   2262020493D 1   1.00000     0.00000
 Structure written by MMmdl.
 58 61  0  0  0  0  0  0  0  0  2 V2000
  147.1627  128.0163  151.9660 C   0  0  0  0  0  0  0  0  0  0  0  0
  146.2621  129.2457  152.1563 C   0  0  0  0  0  0  0  0  0  0  0  0
  147.0361  130.5002  152.3382 N   0  3  2  0  0  0  0  0  0  0  0  0
  147.8335  130.5159  153.5902 C   0  0  0  0  0  0  0  0  0  0  0  0
  148.7071  131.7816  153.6883 C   0  0  0  0  0  0  0  0  0  0  0  0
  147.9258  133.1037  153.5170 C   0  0  2  0  0  0  0  0  0  0  0  0
  147.3184  133.6204  154.7585 N   0  0  0  0  0  0  0  0  0  0  0  0
  145.9360  133.2834  155.0837 C   0  0  0  0  0  0  0  0  0  0  0  0
  148.0783  133.9050  155.8401 C   0  0  0  0  0  0  0  0  0  0  0  0
  149.2619  133.2622  156.0106 N   0  0  0  0  0  0  0  0  0  0  0  0
  150.0241  133.5344  157.0740 C   0  0  0  0  0  0  0  0  0  0  0  0
  149.7898  134.3900  158.0712 N   0  0  0  0  0  0  0  0  0  0  0  0
  148.5852  135.0115  157.9196 C   0  0  0  0  0  0  0  0  0  0  0  0
  147.6716  134.8235  156.8451 C   0  0  0  0  0  0  0  0  0  0  0  0
  146.5504  135.6221  157.0285 N   0  0  0  0  0  0  0  0  0  0  0  0
  146.7918  136.2558  158.1435 C   0  0  0  0  0  0  0  0  0  0  0  0
  147.9895  135.9461  158.7482 N   0  0  0  0  0  0  0  0  0  0  0  0
  148.5085  136.4988  159.9898 C   0  0  0  0  0  0  0  0  0  0  0  0
  147.6767  136.1083  161.2336 C   0  0  2  0  0  0  0  0  0  0  0  0
  148.1622  136.8210  162.3579 O   0  0  0  0  0  0  0  0  0  0  0  0
  147.7009  134.6170  161.5585 C   0  0  0  0  0  0  0  0  0  0  0  0
  146.3191  134.3745  162.1493 C   0  0  0  0  0  0  0  0  0  0  0  0
  145.4912  135.1847  161.3334 O   0  0  0  0  0  0  0  0  0  0  0  0
  146.1724  136.4085  161.0773 C   0  0  0  0  0  0  0  0  0  0  0  0
  147.0042  133.0061  152.2670 C   0  0  2  0  0  0  0  0  0  0  0  0
  146.1400  134.2475  151.9947 C   0  0  0  0  0  0  0  0  0  0  0  0
  146.1756  131.7047  152.2231 C   0  0  0  0  0  0  0  0  0  0  0  0
  146.5626  127.1351  151.7383 H   0  0  0  0  0  0  0  0  0  0  0  0
  147.7414  127.7874  152.8604 H   0  0  0  0  0  0  0  0  0  0  0  0
  147.8596  128.1622  151.1401 H   0  0  0  0  0  0  0  0  0  0  0  0
  145.6364  129.3363  151.2675 H   0  0  0  0  0  0  0  0  0  0  0  0
  145.5821  129.0997  152.9969 H   0  0  0  0  0  0  0  0  0  0  0  0
  147.1621  130.4248  154.4416 H   0  0  0  0  0  0  0  0  0  0  0  0
  148.4889  129.6469  153.6279 H   0  0  0  0  0  0  0  0  0  0  0  0
  149.2762  131.7879  154.6175 H   0  0  0  0  0  0  0  0  0  0  0  0
  149.4550  131.7278  152.8960 H   0  0  0  0  0  0  0  0  0  0  0  0
  148.6813  133.8519  153.2741 H   0  0  0  0  0  0  0  0  0  0  0  0
  145.8723  132.4251  155.7521 H   0  0  0  0  0  0  0  0  0  0  0  0
  145.3660  133.0535  154.1836 H   0  0  0  0  0  0  0  0  0  0  0  0
  145.4517  134.1282  155.5748 H   0  0  0  0  0  0  0  0  0  0  0  0
  150.9544  132.9891  157.1349 H   0  0  0  0  0  0  0  0  0  0  0  0
  146.0960  136.9702  158.5590 H   0  0  0  0  0  0  0  0  0  0  0  0
  149.5426  136.1722  160.1082 H   0  0  0  0  0  0  0  0  0  0  0  0
  148.5418  137.5843  159.8876 H   0  0  0  0  0  0  0  0  0  0  0  0
  148.7227  136.2474  162.8575 H   0  0  0  0  0  0  0  0  0  0  0  0
  147.7946  134.0324  160.6423 H   0  0  0  0  0  0  0  0  0  0  0  0
  148.5130  134.3226  162.2249 H   0  0  0  0  0  0  0  0  0  0  0  0
  146.0208  133.3266  162.1125 H   0  0  0  0  0  0  0  0  0  0  0  0
  146.2668  134.7154  163.1844 H   0  0  0  0  0  0  0  0  0  0  0  0
  145.8299  137.1692  161.7809 H   0  0  0  0  0  0  0  0  0  0  0  0
  145.9190  136.7557  160.0752 H   0  0  0  0  0  0  0  0  0  0  0  0
  147.6851  132.9429  151.4164 H   0  0  0  0  0  0  0  0  0  0  0  0
  145.3411  134.3511  152.7283 H   0  0  0  0  0  0  0  0  0  0  0  0
  145.6692  134.1850  151.0134 H   0  0  0  0  0  0  0  0  0  0  0  0
  146.7392  135.1581  152.0098 H   0  0  0  0  0  0  0  0  0  0  0  0
  145.6398  131.6645  151.2739 H   0  0  0  0  0  0  0  0  0  0  0  0
  145.4149  131.6863  153.0004 H   0  0  0  0  0  0  0  0  0  0  0  0
  147.6904  130.5480  151.5701 H   0  0  0  0  0  0  0  0  0  0  0  0
  1  2  1  0  0  0  0
  1 28  1  0  0  0  0
  1 29  1  0  0  0  0
  1 30  1  0  0  0  0
  2  3  1  0  0  0  0
  2 31  1  0  0  0  0
  2 32  1  0  0  0  0
  3 27  1  0  0  0  0
  3  4  1  0  0  0  0
  3 58  1  0  0  0  0
  4  5  1  0  0  0  0
  4 33  1  0  0  0  0
  4 34  1  0  0  0  0
  5  6  1  0  0  0  0
  5 35  1  0  0  0  0
  5 36  1  0  0  0  0
  6  7  1  0  0  0  0
  6 25  1  0  0  0  0
  6 37  1  0  0  0  0
  7  8  1  0  0  0  0
  7  9  1  0  0  0  0
  8 38  1  0  0  0  0
  8 39  1  0  0  0  0
  8 40  1  0  0  0  0
  9 14  1  0  0  0  0
  9 10  2  0  0  0  0
 10 11  1  0  0  0  0
 11 12  2  0  0  0  0
 11 41  1  0  0  0  0
 12 13  1  0  0  0  0
 13 17  1  0  0  0  0
 13 14  2  0  0  0  0
 14 15  1  0  0  0  0
 15 16  2  0  0  0  0
 16 17  1  0  0  0  0
 16 42  1  0  0  0  0
 17 18  1  0  0  0  0
 18 19  1  0  0  0  0
 18 43  1  0  0  0  0
 18 44  1  0  0  0  0
 19 24  1  0  0  0  0
 19 20  1  0  0  0  0
 19 21  1  0  0  0  0
 20 45  1  0  0  0  0
 21 22  1  0  0  0  0
 21 46  1  0  0  0  0
 21 47  1  0  0  0  0
 22 23  1  0  0  0  0
 22 48  1  0  0  0  0
 22 49  1  0  0  0  0
 23 24  1  0  0  0  0
 24 50  1  0  0  0  0
 24 51  1  0  0  0  0
 25 26  1  0  0  0  0
 25 27  1  0  0  0  0
 25 52  1  0  0  0  0
 26 53  1  0  0  0  0
 26 54  1  0  0  0  0
 26 55  1  0  0  0  0
 27 56  1  0  0  0  0
 27 57  1  0  0  0  0
M  CHG  1   3   1
M  END
> <s_m_source_file>
AV-unprocessed.smi

> <i_m_source_file_index>
243

> <i_lp_mmshare_version>
43012

> <i_f3d_flags>
0

> <s_epik_input>
W0NIM11bQ0gyXU4xW0NIMl1bQ0gyXVtDQEhdKFtDQEBIXShbQ0gzXSlbQ0gyXTEpTihbQ0gzXSljKG5bY0hdbjIpYyhjMjMpbltjSF1uM1tDSDJdW0NAQF00KFtPSF0pW0NIMl1bQ0gyXU9bQ0gyXTQ=

> <s_epik_cmdline>
J2VwaWtfcHl0aG9uJywgJy1waCcsICc3LjAnLCAnLXRuJywgJzgnLCAnLW1hJywgJzIwMCcsICctbWV0YWxfYmluZGluZycsICctaW1hZScsICc8aW5maWxlLm1hZT4nLCAnLW9tYWUnLCAnPG91dGZpbGUubWFlPic=

> <r_lp_tautomer_probability>
1

> <r_epik_Ionization_Penalty>
0.00253099

> <r_epik_Ionization_Penalty_Charging>
0.00137877

> <r_epik_Ionization_Penalty_Neutral>
0.00115221

> <r_epik_State_Penalty>
-0

> <r_epik_Charging_Adjusted_Penalty>
0.00137877

> <i_epik_Tot_Q>
1

> <i_epik_Tot_abs_Q>
1

> <r_epik_Metal_State_Penalty>
-0

> <b_epik_Metal_Only>
0

> <s_lp_Force_Field>
OPLS_2005

> <r_lp_Energy>
52.4668

> <b_lp_Chiralities_Consistent>
1

> <s_lp_Variant>
AV-unprocessed.smi:243-15

> <Gold.Version>
5.8.1

> <Gold.Id.Protein>
6NUR|6NUR_protein|mol2

> <Gold.PLP.Fitness>
46.5057

> <Gold.PLP.PLP>
-38.7149

> <Gold.PLP.part.hbond>
-3.0000

> <Gold.PLP.part.metal>
0.0000

> <Gold.PLP.part.buried>
-5.6099

> <Gold.PLP.part.nonpolar>
-30.9519

> <Gold.PLP.part.repulsive>
0.0079

> <Gold.PLP.ligand.clash>
0.0000

> <Gold.PLP.ligand.torsion>
1.0833

> <Gold.PLP.Chemscore.Hbond>
3.0000

> <Gold.PLP.Chemscore.CHOScore>
0.0000

> <Gold.PLP.Chemscore.Metal>
0.0000

> <Gold.Chemscore.Hbonds>
donor molecule, donor type, donor heavy atom, donor atom, acceptor molecule, acceptor atom, score
      L1  H     3    58       P1 10747  1.00
      P1  H  6896  6908       L1    12  1.00
      P1  H  6931  6943       L1    20  1.00

> <Gold.PLP.Chemscore.Internal.Correction>
0.9574

> <Gold.Rescore>
     Score         DG    S(hbond)    S(metal)    S(lipo)     H(rot)  DE(clash)    DE(int)     intcor
     17.27     -19.71       2.85        0.00      89.26       2.24       0.06       2.39       ----

> <Gold.Chemscore.Fitness>
17.2735

> <Gold.Chemscore.DG>
-19.7146

> <Gold.Chemscore.ZeroCoef>
-5.4800

> <Gold.Chemscore.Hbond>
2.8505

> <Gold.Chemscore.Metal>
0.0000

> <Gold.Chemscore.Lipo>
89.2575

> <Gold.Chemscore.Internal_Hbond>
0.0000

> <Gold.Chemscore.DEClash>
0.0551

> <Gold.Chemscore.DEInternal>
2.3860

> <Gold.Chemscore.Rot>
2.2379

> <Gold.Chemscore.Internal.Correction>
   9.000000E+99

> <Gold.Chemscore.Hbonds>
donor molecule, donor type, donor heavy atom, donor atom, acceptor molecule, acceptor atom, score
      L1  H     3    58       P1 10747  1.00
      P1  H  6896  6908       L1    12  0.91
      P1  H  6931  6943       L1    20  0.61

> <Gold.Chemscore.Hbond.Weighted>
-9.5206

> <Gold.Chemscore.Metal.Weighted>
-0.0000

> <Gold.Chemscore.Lipo.Weighted>
-10.4431

> <Gold.Chemscore.Internal_Hbond.Weighted>
0.0000

> <Gold.Chemscore.DEClash.Weighted>
0.0551

> <Gold.Chemscore.DEInternal.Weighted>
2.3860

> <Gold.Chemscore.Rot.Weighted>
5.7291

> <Gold.Chemscore.Internal.Correction.Weighted>
   9.000000E+99

> <Gold.Protein.RotatedTorsions>
[ 6907 6896 6895 6894 ] final  149.34 input  -60.11 | X-H torsion
[ 7974 7965 7964 7962 ] final   99.67 input  175.53 | X-H torsion
[ 8008 7997 7996 7995 ] final   51.49 input   59.86 | X-H torsion
[ 10167 10162 10161 10158 ] final  110.31 input  -65.29 | X-H torsion
[ 10718 10713 10712 10709 ] final -125.87 input   66.30 | X-H torsion
[ 10763 10752 10751 10750 ] final   45.76 input  -60.55 | X-H torsion
[ 11005 11000 10999 10996 ] final -104.19 input  -57.11 | X-H torsion

> <Gold.Protein.ActiveResidues>
 VAL166  LYS551  ARG553  GLY616  TRP617  ASP618  TYR619  PRO620  LYS621  CYS622 
 ASP623  PHE694  ASN695  SER759  ASP760  ASP761  ALA762  ILE779  LEU786  VAL792 
 PHE793  MET794  SER795  GLU796  ALA797  LYS798  CYS799  TRP800  GLU811  SER814 

> <Gold.Protein.RotatedAtoms>
  152.1294  133.4399  159.4713 H   0  0  0  0  0  0  0  0  0  0  0  0  # atno 6907 bound_to 6896
  150.6877  134.2439  159.4493 H   0  0  0  0  0  0  0  0  0  0  0  0  # atno 6908 bound_to 6896
  152.0322  134.9760  160.0623 H   0  0  0  0  0  0  0  0  0  0  0  0  # atno 6909 bound_to 6896
  145.3957  139.2355  143.3327 H   0  0  0  0  0  0  0  0  0  0  0  0  # atno 7974 bound_to 7965
  155.4361  140.3452  155.4285 H   0  0  0  0  0  0  0  0  0  0  0  0  # atno 8008 bound_to 7997
  156.1307  140.1513  156.9100 H   0  0  0  0  0  0  0  0  0  0  0  0  # atno 8009 bound_to 7997
  154.4892  140.0846  156.7537 H   0  0  0  0  0  0  0  0  0  0  0  0  # atno 8010 bound_to 7997
  139.6698  144.7126  151.1709 H   0  0  0  0  0  0  0  0  0  0  0  0  # atno 10167 bound_to 10162
  156.1714  130.6670  151.0185 H   0  0  0  0  0  0  0  0  0  0  0  0  # atno 10718 bound_to 10713
  152.9820  135.6029  154.3489 H   0  0  0  0  0  0  0  0  0  0  0  0  # atno 10763 bound_to 10752
  154.3180  135.2770  155.2535 H   0  0  0  0  0  0  0  0  0  0  0  0  # atno 10764 bound_to 10752
  154.4715  135.5940  153.6381 H   0  0  0  0  0  0  0  0  0  0  0  0  # atno 10765 bound_to 10752
  141.1112  133.8703  157.1580 H   0  0  0  0  0  0  0  0  0  0  0  0  # atno 11005 bound_to 11000
  146.2776  140.4647  142.8789 LP  0  0  0  0  0  0  0  0  0  0  0  0  # atno 17320 bound_to 7965
  144.8409  140.6855  143.6230 LP  0  0  0  0  0  0  0  0  0  0  0  0  # atno 17321 bound_to 7965
  140.7614  143.5862  150.8844 LP  0  0  0  0  0  0  0  0  0  0  0  0  # atno 17342 bound_to 10162
  139.9526  143.6255  152.3025 LP  0  0  0  0  0  0  0  0  0  0  0  0  # atno 17343 bound_to 10162
  157.6805  131.0839  150.7382 LP  0  0  0  0  0  0  0  0  0  0  0  0  # atno 17370 bound_to 10713
  156.7441  130.4748  149.5471 LP  0  0  0  0  0  0  0  0  0  0  0  0  # atno 17371 bound_to 10713
  140.0006  135.0029  157.0182 LP  0  0  0  0  0  0  0  0  0  0  0  0  # atno 17394 bound_to 11000
  140.4771  134.1327  155.7211 LP  0  0  0  0  0  0  0  0  0  0  0  0  # atno 17395 bound_to 11000

$$$$
