AV-unprocessed.smi:229|AV-procd|sdf|1753|dock8
  -GOLD-   2262020273D 1   1.00000     0.00000
 Structure written by MMmdl.
 58 62  0  0  0  0  0  0  0  0  1 V2000
  140.5168  141.1603  154.5925 C   0  0  0  0  0  0  0  0  0  0  0  0
  141.0330  142.0796  155.7062 C   0  0  0  0  0  0  0  0  0  0  0  0
  142.2567  142.9056  155.2829 C   0  0  2  0  0  0  0  0  0  0  0  0
  143.5659  142.1168  155.4580 C   0  0  0  0  0  0  0  0  0  0  0  0
  144.7081  142.9716  155.1518 N   0  0  0  0  0  0  0  0  0  0  0  0
  145.9175  142.3874  154.9541 C   0  0  0  0  0  0  0  0  0  0  0  0
  146.2456  141.9056  153.7252 N   0  0  0  0  0  0  0  0  0  0  0  0
  147.4345  141.3323  153.5187 C   0  0  0  0  0  0  0  0  0  0  0  0
  148.4296  141.1409  154.3859 N   0  0  0  0  0  0  0  0  0  0  0  0
  148.1102  141.6215  155.6217 C   0  0  0  0  0  0  0  0  0  0  0  0
  146.8896  142.2573  155.9871 C   0  0  0  0  0  0  0  0  0  0  0  0
  146.9391  142.6380  157.3224 N   0  0  0  0  0  0  0  0  0  0  0  0
  148.1153  142.2422  157.7249 C   0  0  0  0  0  0  0  0  0  0  0  0
  148.8810  141.6054  156.7728 N   0  0  0  0  0  0  0  0  0  0  0  0
  150.2303  141.0774  156.9341 C   0  0  0  0  0  0  0  0  0  0  0  0
  151.2977  142.1360  157.3048 C   0  0  1  0  0  0  0  0  0  0  0  0
  151.0045  143.3228  156.5940 O   0  0  0  0  0  0  0  0  0  0  0  0
  151.3761  142.4901  158.8059 C   0  0  1  0  0  0  0  0  0  0  0  0
  152.1571  141.4876  159.6660 C   0  0  0  0  0  0  0  0  0  0  0  0
  152.8217  142.3349  160.7422 C   0  0  0  0  0  0  0  0  0  0  0  0
  152.4818  143.7692  160.3453 C   0  0  0  0  0  0  0  0  0  0  0  0
  152.1487  143.6710  158.9713 O   0  0  0  0  0  0  0  0  0  0  0  0
  144.7278  144.1934  155.9476 C   0  0  0  0  0  0  0  0  0  0  0  0
  143.3965  144.9652  155.7997 C   0  0  1  0  0  0  0  0  0  0  0  0
  143.3281  146.1304  156.7815 C   0  0  0  0  0  0  0  0  0  0  0  0
  143.8073  147.3126  155.9526 C   0  0  0  0  0  0  0  0  0  0  0  0
  143.1884  147.0739  154.7028 O   0  0  0  0  0  0  0  0  0  0  0  0
  143.2555  145.6783  154.4339 C   0  0  0  0  0  0  0  0  0  0  0  0
  142.3048  144.0863  156.0869 O   0  0  0  0  0  0  0  0  0  0  0  0
  139.6607  140.5792  154.9356 H   0  0  0  0  0  0  0  0  0  0  0  0
  141.2875  140.4592  154.2714 H   0  0  0  0  0  0  0  0  0  0  0  0
  140.2006  141.7334  153.7206 H   0  0  0  0  0  0  0  0  0  0  0  0
  140.2325  142.7462  156.0293 H   0  0  0  0  0  0  0  0  0  0  0  0
  141.2916  141.4684  156.5716 H   0  0  0  0  0  0  0  0  0  0  0  0
  142.1450  143.1729  154.2318 H   0  0  0  0  0  0  0  0  0  0  0  0
  143.6525  141.7502  156.4820 H   0  0  0  0  0  0  0  0  0  0  0  0
  143.5587  141.2476  154.7989 H   0  0  0  0  0  0  0  0  0  0  0  0
  147.6143  140.9768  152.5148 H   0  0  0  0  0  0  0  0  0  0  0  0
  148.4546  142.4098  158.7363 H   0  0  0  0  0  0  0  0  0  0  0  0
  150.2069  140.3064  157.7043 H   0  0  0  0  0  0  0  0  0  0  0  0
  150.5085  140.5651  156.0122 H   0  0  0  0  0  0  0  0  0  0  0  0
  152.2708  141.7773  156.9673 H   0  0  0  0  0  0  0  0  0  0  0  0
  150.0887  143.5235  156.7109 H   0  0  0  0  0  0  0  0  0  0  0  0
  150.3813  142.6430  159.2300 H   0  0  0  0  0  0  0  0  0  0  0  0
  151.5086  140.7244  160.0937 H   0  0  0  0  0  0  0  0  0  0  0  0
  152.9231  140.9836  159.0754 H   0  0  0  0  0  0  0  0  0  0  0  0
  152.4548  142.1010  161.7420 H   0  0  0  0  0  0  0  0  0  0  0  0
  153.9004  142.1749  160.7336 H   0  0  0  0  0  0  0  0  0  0  0  0
  151.6161  144.1317  160.9018 H   0  0  0  0  0  0  0  0  0  0  0  0
  153.3095  144.4598  160.5086 H   0  0  0  0  0  0  0  0  0  0  0  0
  144.8771  143.9108  156.9907 H   0  0  0  0  0  0  0  0  0  0  0  0
  145.5632  144.8399  155.6819 H   0  0  0  0  0  0  0  0  0  0  0  0
  142.2950  146.3063  157.0851 H   0  0  0  0  0  0  0  0  0  0  0  0
  143.9171  145.9787  157.6864 H   0  0  0  0  0  0  0  0  0  0  0  0
  143.5107  148.2733  156.3734 H   0  0  0  0  0  0  0  0  0  0  0  0
  144.8924  147.3013  155.8375 H   0  0  0  0  0  0  0  0  0  0  0  0
  144.1116  145.4775  153.7886 H   0  0  0  0  0  0  0  0  0  0  0  0
  142.3567  145.3860  153.8919 H   0  0  0  0  0  0  0  0  0  0  0  0
  1  2  1  0  0  0  0
  1 30  1  0  0  0  0
  1 31  1  0  0  0  0
  1 32  1  0  0  0  0
  2  3  1  0  0  0  0
  2 33  1  0  0  0  0
  2 34  1  0  0  0  0
  3 29  1  0  0  0  0
  3  4  1  0  0  0  0
  3 35  1  0  0  0  0
  4  5  1  0  0  0  0
  4 36  1  0  0  0  0
  4 37  1  0  0  0  0
  5  6  1  0  0  0  0
  5 23  1  0  0  0  0
  6 11  1  0  0  0  0
  6  7  2  0  0  0  0
  7  8  1  0  0  0  0
  8  9  2  0  0  0  0
  8 38  1  0  0  0  0
  9 10  1  0  0  0  0
 10 14  1  0  0  0  0
 10 11  2  0  0  0  0
 11 12  1  0  0  0  0
 12 13  2  0  0  0  0
 13 14  1  0  0  0  0
 13 39  1  0  0  0  0
 14 15  1  0  0  0  0
 15 16  1  0  0  0  0
 15 40  1  0  0  0  0
 15 41  1  0  0  0  0
 16 17  1  0  0  0  0
 16 18  1  0  0  0  0
 16 42  1  0  0  0  0
 17 43  1  0  0  0  0
 18 22  1  0  0  0  0
 18 19  1  0  0  0  0
 18 44  1  0  0  0  0
 19 20  1  0  0  0  0
 19 45  1  0  0  0  0
 19 46  1  0  0  0  0
 20 21  1  0  0  0  0
 20 47  1  0  0  0  0
 20 48  1  0  0  0  0
 21 22  1  0  0  0  0
 21 49  1  0  0  0  0
 21 50  1  0  0  0  0
 23 24  1  0  0  0  0
 23 51  1  0  0  0  0
 23 52  1  0  0  0  0
 24 28  1  0  0  0  0
 24 25  1  0  0  0  0
 24 29  1  0  0  0  0
 25 26  1  0  0  0  0
 25 53  1  0  0  0  0
 25 54  1  0  0  0  0
 26 27  1  0  0  0  0
 26 55  1  0  0  0  0
 26 56  1  0  0  0  0
 27 28  1  0  0  0  0
 28 57  1  0  0  0  0
 28 58  1  0  0  0  0
M  END
> <s_m_source_file>
AV-unprocessed.smi

> <i_m_source_file_index>
229

> <i_lp_mmshare_version>
43012

> <i_f3d_flags>
0

> <s_epik_input>
W0NIMl0xT1tDSDJdW0NIMl1bQ0BdMTJbQ0gyXU4oW0NIMl1bQ0BIXShPMilbQ0gyXVtDSDNdKWMobltjSF1uMyljKGMzNCluW2NIXW40W0NIMl1bQ0BIXShbT0hdKVtDQEBIXTVbQ0gyXVtDSDJdW0NIMl1PNQ==

> <s_epik_cmdline>
J2VwaWtfcHl0aG9uJywgJy1waCcsICc3LjAnLCAnLXRuJywgJzgnLCAnLW1hJywgJzIwMCcsICctbWV0YWxfYmluZGluZycsICctaW1hZScsICc8aW5maWxlLm1hZT4nLCAnLW9tYWUnLCAnPG91dGZpbGUubWFlPic=

> <r_lp_tautomer_probability>
1

> <r_epik_Ionization_Penalty>
0.00318402

> <r_epik_Ionization_Penalty_Charging>
0

> <r_epik_Ionization_Penalty_Neutral>
0.00318402

> <r_epik_State_Penalty>
0.00215642

> <r_epik_Charging_Adjusted_Penalty>
0.00215642

> <i_epik_Tot_Q>
0

> <i_epik_Tot_abs_Q>
0

> <r_epik_Metal_State_Penalty>
-0

> <b_epik_Metal_Only>
0

> <s_lp_Force_Field>
OPLS_2005

> <r_lp_Energy>
56.4777

> <b_lp_Chiralities_Consistent>
1

> <s_lp_Variant>
AV-unprocessed.smi:229-7

> <Gold.Version>
5.8.1

> <Gold.Id.Protein>
6NUR|6NUR_protein|mol2

> <Gold.PLP.Fitness>
44.6447

> <Gold.PLP.PLP>
-42.3973

> <Gold.PLP.part.hbond>
-2.0000

> <Gold.PLP.part.metal>
0.0000

> <Gold.PLP.part.buried>
-6.4454

> <Gold.PLP.part.nonpolar>
-33.4229

> <Gold.PLP.part.repulsive>
0.7432

> <Gold.PLP.ligand.clash>
0.0000

> <Gold.PLP.ligand.torsion>
1.3755

> <Gold.PLP.Chemscore.Hbond>
0.6240

> <Gold.PLP.Chemscore.CHOScore>
0.9192

> <Gold.PLP.Chemscore.Metal>
0.0000

> <Gold.Chemscore.Hbonds>
donor molecule, donor type, donor heavy atom, donor atom, acceptor molecule, acceptor atom, score
      L1  H    17    43       P1  8028  0.61
      L1  C     8    38       P1  7957  0.92

> <Gold.PLP.Chemscore.Internal.Correction>
0.3687

> <Gold.Rescore>
     Score         DG    S(hbond)    S(metal)    S(lipo)     H(rot)  DE(clash)    DE(int)     intcor
     10.25     -12.44       0.68        0.00      93.95       2.46       0.14       2.04       ----

> <Gold.Chemscore.Fitness>
10.2502

> <Gold.Chemscore.DG>
-12.4366

> <Gold.Chemscore.ZeroCoef>
-5.4800

> <Gold.Chemscore.Hbond>
0.6765

> <Gold.Chemscore.Metal>
0.0000

> <Gold.Chemscore.Lipo>
93.9522

> <Gold.Chemscore.Internal_Hbond>
0.0000

> <Gold.Chemscore.DEClash>
0.1430

> <Gold.Chemscore.DEInternal>
2.0435

> <Gold.Chemscore.Rot>
2.4591

> <Gold.Chemscore.Internal.Correction>
   9.000000E+99

> <Gold.Chemscore.Hbonds>
donor molecule, donor type, donor heavy atom, donor atom, acceptor molecule, acceptor atom, score
      L1  H    17    43       P1  8028  0.58

> <Gold.Chemscore.Hbond.Weighted>
-2.2596

> <Gold.Chemscore.Metal.Weighted>
-0.0000

> <Gold.Chemscore.Lipo.Weighted>
-10.9924

> <Gold.Chemscore.Internal_Hbond.Weighted>
0.0000

> <Gold.Chemscore.DEClash.Weighted>
0.1430

> <Gold.Chemscore.DEInternal.Weighted>
2.0435

> <Gold.Chemscore.Rot.Weighted>
6.2953

> <Gold.Chemscore.Internal.Correction.Weighted>
   9.000000E+99

> <Gold.Protein.RotatedTorsions>
[ 6907 6896 6895 6894 ] final  138.10 input  -60.11 | X-H torsion
[ 7974 7965 7964 7962 ] final  143.81 input  175.53 | X-H torsion
[ 8008 7997 7996 7995 ] final -123.26 input   59.86 | X-H torsion
[ 10167 10162 10161 10158 ] final   21.85 input  -65.29 | X-H torsion
[ 10718 10713 10712 10709 ] final  -44.43 input   66.30 | X-H torsion
[ 10763 10752 10751 10750 ] final  136.39 input  -60.55 | X-H torsion
[ 11005 11000 10999 10996 ] final -100.98 input  -57.11 | X-H torsion

> <Gold.Protein.ActiveResidues>
 VAL166  LYS551  ARG553  GLY616  TRP617  ASP618  TYR619  PRO620  LYS621  CYS622 
 ASP623  PHE694  ASN695  SER759  ASP760  ASP761  ALA762  ILE779  LEU786  VAL792 
 PHE793  MET794  SER795  GLU796  ALA797  LYS798  CYS799  TRP800  GLU811  SER814 

> <Gold.Protein.RotatedAtoms>
  152.2705  133.5378  159.5435 H   0  0  0  0  0  0  0  0  0  0  0  0  # atno 6907 bound_to 6896
  150.7157  134.0704  159.3871 H   0  0  0  0  0  0  0  0  0  0  0  0  # atno 6908 bound_to 6896
  151.8619  135.0521  160.0521 H   0  0  0  0  0  0  0  0  0  0  0  0  # atno 6909 bound_to 6896
  144.8889  139.5587  143.5807 H   0  0  0  0  0  0  0  0  0  0  0  0  # atno 7974 bound_to 7965
  155.1777  140.0410  157.2876 H   0  0  0  0  0  0  0  0  0  0  0  0  # atno 8008 bound_to 7997
  154.6225  140.2504  155.7504 H   0  0  0  0  0  0  0  0  0  0  0  0  # atno 8009 bound_to 7997
  156.2441  140.2892  156.0540 H   0  0  0  0  0  0  0  0  0  0  0  0  # atno 8010 bound_to 7997
  140.5394  143.9703  150.6510 H   0  0  0  0  0  0  0  0  0  0  0  0  # atno 10167 bound_to 10162
  156.2387  130.4178  149.8787 H   0  0  0  0  0  0  0  0  0  0  0  0  # atno 10718 bound_to 10713
  153.8557  135.3073  155.3435 H   0  0  0  0  0  0  0  0  0  0  0  0  # atno 10763 bound_to 10752
  154.7871  135.4803  153.9973 H   0  0  0  0  0  0  0  0  0  0  0  0  # atno 10764 bound_to 10752
  153.1491  135.6839  153.9003 H   0  0  0  0  0  0  0  0  0  0  0  0  # atno 10765 bound_to 10752
  141.1249  133.8442  157.1173 H   0  0  0  0  0  0  0  0  0  0  0  0  # atno 11005 bound_to 11000
  146.3042  139.7524  142.9069 LP  0  0  0  0  0  0  0  0  0  0  0  0  # atno 17320 bound_to 7965
  145.3818  141.0359  143.3173 LP  0  0  0  0  0  0  0  0  0  0  0  0  # atno 17321 bound_to 7965
  140.3100  143.3204  152.0889 LP  0  0  0  0  0  0  0  0  0  0  0  0  # atno 17342 bound_to 10162
  139.4983  144.6642  151.6394 LP  0  0  0  0  0  0  0  0  0  0  0  0  # atno 17343 bound_to 10162
  156.6376  130.8691  151.3507 LP  0  0  0  0  0  0  0  0  0  0  0  0  # atno 17370 bound_to 10713
  157.7166  130.9504  150.1277 LP  0  0  0  0  0  0  0  0  0  0  0  0  # atno 17371 bound_to 10713
  140.0238  134.9933  157.0645 LP  0  0  0  0  0  0  0  0  0  0  0  0  # atno 17394 bound_to 11000
  140.4396  134.1695  155.7173 LP  0  0  0  0  0  0  0  0  0  0  0  0  # atno 17395 bound_to 11000

$$$$
