#       Name:                AV-unprocessed.smi:3196
#       Creating user name   scv26
#       Creation time:       Fri Mar 27 18:05:41 2020


#       File generated by GOLD software.
#

@<TRIPOS>MOLECULE
AV-unprocessed.smi:3196
    36    37     1
SMALL
NO_CHARGES


@<TRIPOS>ATOM
      1 ****         4.4964   1.0455  -4.2835 C.3            1 S1                 0.0000
      2 ****         3.0102   0.7651  -4.5298 C.3            1 S1                 0.0000
      3 ****         2.3681  -0.0427  -3.3938 C.3            1 S1                 0.0000
      4 ****         0.8948  -0.3159  -3.6404 C.3            1 S1                 0.0000
      5 ****        -0.1588   0.6652  -3.2005 C.3            1 S1                 0.0000
      6 ****        -0.0592  -0.6857  -2.5213 C.3            1 S1                 0.0000
      7 ****         0.4198  -0.7031  -1.1705 N.am           1 S1                 0.0000
      8 ****         0.3687  -1.7182  -0.2898 C.2            1 S1                 0.0000
      9 ****        -0.1648  -2.7841  -0.5883 O.2            1 S1                 0.0000
     10 ****         0.9051  -1.4304   0.9132 N.am           1 S1                 0.0000
     11 ****         1.0232  -2.2366   2.0798 C.ar           1 S1                 0.0000
     12 ****         0.6801  -3.6092   2.1554 C.ar           1 S1                 0.0000
     13 ****         0.8550  -4.2828   3.3812 C.ar           1 S1                 0.0000
     14 ****         1.3385  -3.6919   4.4941 N.ar           1 S1                 0.0000
     15 ****         1.6702  -2.3861   4.4177 C.ar           1 S1                 0.0000
     16 ****         1.5331  -1.6203   3.2427 C.ar           1 S1                 0.0000
     17 ****         1.8869  -0.3121   3.2359 F              1 S1                 0.0000
     18 ****         4.9247   1.6193  -5.1054 H              1 S1                 0.0000
     19 ****         5.0624   0.1179  -4.1943 H              1 S1                 0.0000
     20 ****         4.6422   1.6172  -3.3667 H              1 S1                 0.0000
     21 ****         2.4808   1.7110  -4.6498 H              1 S1                 0.0000
     22 ****         2.8978   0.2263  -5.4714 H              1 S1                 0.0000
     23 ****         2.8810  -0.9983  -3.2798 H              1 S1                 0.0000
     24 ****         2.4880   0.4937  -2.4518 H              1 S1                 0.0000
     25 ****         0.7077  -0.8206  -4.5864 H              1 S1                 0.0000
     26 ****         0.1676   1.5414  -2.6429 H              1 S1                 0.0000
     27 ****        -0.9993   0.8302  -3.8715 H              1 S1                 0.0000
     28 ****        -0.8603  -1.3787  -2.7741 H              1 S1                 0.0000
     29 ****         0.7862   0.1724  -0.8254 H              1 S1                 0.0000
     30 ****         1.2679  -0.4931   1.0107 H              1 S1                 0.0000
     31 ****         0.2952  -4.1623   1.3142 H              1 S1                 0.0000
     32 ****         0.6008  -5.3288   3.4686 H              1 S1                 0.0000
     33 ****         2.0580  -1.9377   5.3203 H              1 S1                 0.0000
     34 ****        -0.5678  -2.9047  -1.4955 LP             1 S1                 0.0000
     35 ****        -0.1960  -3.5309   0.0760 LP             1 S1                 0.0000
     36 ****         1.4472  -4.2041   5.3461 LP             1 S1                 0.0000
@<TRIPOS>BOND
    1    1    2 1     
    2    1   18 1     
    3    1   19 1     
    4    1   20 1     
    5    2    3 1     
    6    2   21 1     
    7    2   22 1     
    8    3    4 1     
    9    3   23 1     
   10    3   24 1     
   11    4    6 1     
   12    4    5 1     
   13    4   25 1     
   14    5    6 1     
   15    5   26 1     
   16    5   27 1     
   17    6    7 1     
   18    6   28 1     
   19    7    8 am    
   20    7   29 1     
   21    8    9 2     
   22    8   10 am    
   23   10   11 1     
   24   10   30 1     
   25   11   16 ar    
   26   11   12 ar    
   27   12   13 ar    
   28   12   31 1     
   29   13   14 ar    
   30   13   32 1     
   31   14   15 ar    
   32   15   16 ar    
   33   15   33 1     
   34   16   17 1     
   35    9   34 1     
   36    9   35 1     
   37   14   36 1     
@<TRIPOS>SUBSTRUCTURE
      1 S1             1
@<TRIPOS>SET
LONE_PAIRS      STATIC     ATOMS    <user>   **** ""
3 34 35 36
DONOR_HYDROGENS      STATIC     ATOMS    <user>   **** ""
2 29 30
ATOM$BLUE        STATIC     ATOMS    COLORGROUP SYSTEM
3 34 35 36
ATOM$RED        STATIC     ATOMS    COLORGROUP SYSTEM
2 29 30
