AV-unprocessed.smi:299|AV-procd|sdf|2266|dock5
  -GOLD-   2262022153D 1   1.00000     0.00000
 Structure written by MMmdl.
 42 43  0  0  0  0  0  0  0  0  2 V2000
  145.0228  134.4384  154.2018 C   0  0  0  0  0  0  0  0  0  0  0  0
  146.1862  134.6569  153.2097 C   0  0  1  0  0  0  0  0  0  0  0  0
  146.3229  133.4972  152.2010 C   0  0  0  0  0  0  0  0  0  0  0  0
  145.2034  133.5128  151.1501 C   0  0  0  0  0  0  0  0  0  0  0  0
  145.1479  134.8815  150.4611 C   0  0  0  0  0  0  0  0  0  0  0  0
  145.0172  136.0187  151.4878 C   0  0  0  0  0  0  0  0  0  0  0  0
  146.1159  135.9650  152.4916 N   0  3  1  0  0  0  0  0  0  0  0  0
  146.1558  137.1429  153.3966 C   0  0  0  0  0  0  0  0  0  0  0  0
  146.5662  138.4333  152.6626 C   0  0  0  0  0  0  0  0  0  0  0  0
  147.6510  139.2414  153.3998 C   0  0  0  0  0  0  0  0  0  0  0  0
  148.8941  138.4971  153.5761 N   0  0  0  0  0  0  0  0  0  0  0  0
  150.0205  138.9873  154.1174 C   0  0  0  0  0  0  0  0  0  0  0  0
  150.1183  140.1314  154.5596 O   0  0  0  0  0  0  0  0  0  0  0  0
  151.2213  138.0427  154.1708 C   0  0  0  0  0  0  0  0  0  0  0  0
  151.9359  138.1806  155.4255 N   0  0  0  0  0  0  0  0  0  0  0  0
  152.3680  139.2640  156.0744 C   0  0  0  0  0  0  0  0  0  0  0  0
  152.9953  138.9438  157.1957 N   0  0  0  0  0  0  0  0  0  0  0  0
  152.9279  137.5603  157.2106 N   0  0  0  0  0  0  0  0  0  0  0  0
  152.3005  137.1016  156.1625 N   0  0  0  0  0  0  0  0  0  0  0  0
  145.1279  133.4804  154.7114 H   0  0  0  0  0  0  0  0  0  0  0  0
  144.0509  134.4360  153.7094 H   0  0  0  0  0  0  0  0  0  0  0  0
  145.0002  135.2059  154.9750 H   0  0  0  0  0  0  0  0  0  0  0  0
  147.1048  134.6664  153.7979 H   0  0  0  0  0  0  0  0  0  0  0  0
  147.2859  133.5750  151.6945 H   0  0  0  0  0  0  0  0  0  0  0  0
  146.3334  132.5396  152.7229 H   0  0  0  0  0  0  0  0  0  0  0  0
  145.3709  132.7278  150.4121 H   0  0  0  0  0  0  0  0  0  0  0  0
  144.2439  133.2944  151.6194 H   0  0  0  0  0  0  0  0  0  0  0  0
  146.0510  135.0281  149.8671 H   0  0  0  0  0  0  0  0  0  0  0  0
  144.3111  134.9124  149.7625 H   0  0  0  0  0  0  0  0  0  0  0  0
  145.0399  136.9686  150.9552 H   0  0  0  0  0  0  0  0  0  0  0  0
  144.0489  135.9706  151.9865 H   0  0  0  0  0  0  0  0  0  0  0  0
  145.1887  137.2637  153.8868 H   0  0  0  0  0  0  0  0  0  0  0  0
  146.8848  136.9614  154.1875 H   0  0  0  0  0  0  0  0  0  0  0  0
  146.9409  138.1770  151.6711 H   0  0  0  0  0  0  0  0  0  0  0  0
  145.6975  139.0703  152.4985 H   0  0  0  0  0  0  0  0  0  0  0  0
  147.8778  140.1495  152.8408 H   0  0  0  0  0  0  0  0  0  0  0  0
  147.2801  139.5667  154.3730 H   0  0  0  0  0  0  0  0  0  0  0  0
  148.9106  137.5481  153.2304 H   0  0  0  0  0  0  0  0  0  0  0  0
  150.8889  137.0087  154.0698 H   0  0  0  0  0  0  0  0  0  0  0  0
  151.8990  138.2463  153.3399 H   0  0  0  0  0  0  0  0  0  0  0  0
  152.2280  140.2766  155.7260 H   0  0  0  0  0  0  0  0  0  0  0  0
  146.9729  136.0105  151.9589 H   0  0  0  0  0  0  0  0  0  0  0  0
  1  2  1  0  0  0  0
  1 20  1  0  0  0  0
  1 21  1  0  0  0  0
  1 22  1  0  0  0  0
  2  7  1  0  0  0  0
  2  3  1  0  0  0  0
  2 23  1  0  0  0  0
  3  4  1  0  0  0  0
  3 24  1  0  0  0  0
  3 25  1  0  0  0  0
  4  5  1  0  0  0  0
  4 26  1  0  0  0  0
  4 27  1  0  0  0  0
  5  6  1  0  0  0  0
  5 28  1  0  0  0  0
  5 29  1  0  0  0  0
  6  7  1  0  0  0  0
  6 30  1  0  0  0  0
  6 31  1  0  0  0  0
  7  8  1  0  0  0  0
  7 42  1  0  0  0  0
  8  9  1  0  0  0  0
  8 32  1  0  0  0  0
  8 33  1  0  0  0  0
  9 10  1  0  0  0  0
  9 34  1  0  0  0  0
  9 35  1  0  0  0  0
 10 11  1  0  0  0  0
 10 36  1  0  0  0  0
 10 37  1  0  0  0  0
 11 12  1  0  0  0  0
 11 38  1  0  0  0  0
 12 13  2  0  0  0  0
 12 14  1  0  0  0  0
 14 15  1  0  0  0  0
 14 39  1  0  0  0  0
 14 40  1  0  0  0  0
 15 19  1  0  0  0  0
 15 16  1  0  0  0  0
 16 17  2  0  0  0  0
 16 41  1  0  0  0  0
 17 18  1  0  0  0  0
 18 19  2  0  0  0  0
M  CHG  1   7   1
M  END
> <s_m_source_file>
AV-unprocessed.smi

> <i_m_source_file_index>
299

> <i_lp_mmshare_version>
43012

> <i_f3d_flags>
0

> <s_epik_input>
W0NIM11bQ0BASF0xW0NIMl1bQ0gyXVtDSDJdW0NIMl1OMVtDSDJdW0NIMl1bQ0gyXVtOSF1DKD1PKVtDSDJdbjJbY0hdbm5uMg==

> <s_epik_cmdline>
J2VwaWtfcHl0aG9uJywgJy1waCcsICc3LjAnLCAnLXRuJywgJzgnLCAnLW1hJywgJzIwMCcsICctbWV0YWxfYmluZGluZycsICctaW1hZScsICc8aW5maWxlLm1hZT4nLCAnLW9tYWUnLCAnPG91dGZpbGUubWFlPic=

> <r_lp_tautomer_probability>
1

> <r_epik_Ionization_Penalty>
0.000544863

> <r_epik_Ionization_Penalty_Charging>
0.000543475

> <r_epik_Ionization_Penalty_Neutral>
1.38784e-06

> <r_epik_State_Penalty>
0.000340025

> <r_epik_Charging_Adjusted_Penalty>
0.0008835

> <i_epik_Tot_Q>
1

> <i_epik_Tot_abs_Q>
1

> <r_epik_Metal_State_Penalty>
-0

> <b_epik_Metal_Only>
0

> <s_lp_Force_Field>
OPLS_2005

> <r_lp_Energy>
24.6376

> <b_lp_Chiralities_Consistent>
1

> <s_lp_Variant>
AV-unprocessed.smi:299-2

> <Gold.Version>
5.8.1

> <Gold.Id.Protein>
6NUR|6NUR_protein|mol2

> <Gold.PLP.Fitness>
47.1235

> <Gold.PLP.PLP>
-31.0253

> <Gold.PLP.part.hbond>
-6.0000

> <Gold.PLP.part.metal>
0.0000

> <Gold.PLP.part.buried>
-1.8526

> <Gold.PLP.part.nonpolar>
-23.8695

> <Gold.PLP.part.repulsive>
0.1551

> <Gold.PLP.ligand.clash>
0.0000

> <Gold.PLP.ligand.torsion>
0.8545

> <Gold.PLP.Chemscore.Hbond>
5.9120

> <Gold.PLP.Chemscore.CHOScore>
0.0000

> <Gold.PLP.Chemscore.Metal>
0.0000

> <Gold.Chemscore.Hbonds>
donor molecule, donor type, donor heavy atom, donor atom, acceptor molecule, acceptor atom, score
      L1  H     7    42       P1  7948  2.00
      L1  H    11    38       P1  7948  1.00
      P1  H  7989  7998       L1    13  1.00
      P1  H  7997  8008       L1    17  0.90
      P1  H 10752 10765       L1    19  0.71

> <Gold.PLP.Chemscore.Internal.Correction>
0.0713

> <Gold.Rescore>
     Score         DG    S(hbond)    S(metal)    S(lipo)     H(rot)  DE(clash)    DE(int)     intcor
     14.56     -18.07       4.15        0.00      54.12       2.97       0.98       2.53       ----

> <Gold.Chemscore.Fitness>
14.5593

> <Gold.Chemscore.DG>
-18.0673

> <Gold.Chemscore.ZeroCoef>
-5.4800

> <Gold.Chemscore.Hbond>
4.1477

> <Gold.Chemscore.Metal>
0.0000

> <Gold.Chemscore.Lipo>
54.1198

> <Gold.Chemscore.Internal_Hbond>
0.0000

> <Gold.Chemscore.DEClash>
0.9779

> <Gold.Chemscore.DEInternal>
2.5300

> <Gold.Chemscore.Rot>
2.9680

> <Gold.Chemscore.Internal.Correction>
   9.000000E+99

> <Gold.Chemscore.Hbonds>
donor molecule, donor type, donor heavy atom, donor atom, acceptor molecule, acceptor atom, score
      L1  H     7    42       P1  7948  0.95
      L1  H    11    38       P1  7948  0.97
      P1  H  7989  7998       L1    13  0.33
      P1  H  7997  8008       L1    17  0.17
      P1  H 10752 10765       L1    19  0.59

> <Gold.Chemscore.Hbond.Weighted>
-13.8532

> <Gold.Chemscore.Metal.Weighted>
-0.0000

> <Gold.Chemscore.Lipo.Weighted>
-6.3320

> <Gold.Chemscore.Internal_Hbond.Weighted>
0.0000

> <Gold.Chemscore.DEClash.Weighted>
0.9779

> <Gold.Chemscore.DEInternal.Weighted>
2.5300

> <Gold.Chemscore.Rot.Weighted>
7.5980

> <Gold.Chemscore.Internal.Correction.Weighted>
   9.000000E+99

> <Gold.Protein.RotatedTorsions>
[ 6907 6896 6895 6894 ] final   -4.17 input  -60.11 | X-H torsion
[ 7974 7965 7964 7962 ] final -122.77 input  175.53 | X-H torsion
[ 8008 7997 7996 7995 ] final  -82.79 input   59.86 | X-H torsion
[ 10167 10162 10161 10158 ] final   51.08 input  -65.29 | X-H torsion
[ 10718 10713 10712 10709 ] final  169.13 input   66.30 | X-H torsion
[ 10763 10752 10751 10750 ] final -152.12 input  -60.55 | X-H torsion
[ 11005 11000 10999 10996 ] final  114.27 input  -57.11 | X-H torsion

> <Gold.Protein.ActiveResidues>
 VAL166  LYS551  ARG553  GLY616  TRP617  ASP618  TYR619  PRO620  LYS621  CYS622 
 ASP623  PHE694  ASN695  SER759  ASP760  ASP761  ALA762  ILE779  LEU786  VAL792 
 PHE793  MET794  SER795  GLU796  ALA797  LYS798  CYS799  TRP800  GLU811  SER814 

> <Gold.Protein.RotatedAtoms>
  151.5020  135.1062  159.9831 H   0  0  0  0  0  0  0  0  0  0  0  0  # atno 6907 bound_to 6896
  152.4697  133.7999  159.6958 H   0  0  0  0  0  0  0  0  0  0  0  0  # atno 6908 bound_to 6896
  150.8700  133.7456  159.2990 H   0  0  0  0  0  0  0  0  0  0  0  0  # atno 6909 bound_to 6896
  145.0258  140.8026  143.4353 H   0  0  0  0  0  0  0  0  0  0  0  0  # atno 7974 bound_to 7965
  154.6122  140.0628  156.9509 H   0  0  0  0  0  0  0  0  0  0  0  0  # atno 8008 bound_to 7997
  155.1954  140.3310  155.4333 H   0  0  0  0  0  0  0  0  0  0  0  0  # atno 8009 bound_to 7997
  156.2383  140.1874  156.7041 H   0  0  0  0  0  0  0  0  0  0  0  0  # atno 8010 bound_to 7997
  140.2656  144.3323  150.6305 H   0  0  0  0  0  0  0  0  0  0  0  0  # atno 10167 bound_to 10162
  157.0270  131.0248  151.2756 H   0  0  0  0  0  0  0  0  0  0  0  0  # atno 10718 bound_to 10713
  154.8015  135.3244  154.7539 H   0  0  0  0  0  0  0  0  0  0  0  0  # atno 10763 bound_to 10752
  153.8206  135.6888  153.4832 H   0  0  0  0  0  0  0  0  0  0  0  0  # atno 10764 bound_to 10752
  153.1734  135.4614  154.9876 H   0  0  0  0  0  0  0  0  0  0  0  0  # atno 10765 bound_to 10752
  139.8976  134.9565  156.6866 H   0  0  0  0  0  0  0  0  0  0  0  0  # atno 11005 bound_to 11000
  145.1835  139.2339  143.5280 LP  0  0  0  0  0  0  0  0  0  0  0  0  # atno 17320 bound_to 7965
  146.3492  140.1615  142.8590 LP  0  0  0  0  0  0  0  0  0  0  0  0  # atno 17321 bound_to 7965
  140.5930  143.2167  151.7216 LP  0  0  0  0  0  0  0  0  0  0  0  0  # atno 17342 bound_to 10162
  139.5003  144.3909  152.0280 LP  0  0  0  0  0  0  0  0  0  0  0  0  # atno 17343 bound_to 10162
  157.5206  130.7996  149.7805 LP  0  0  0  0  0  0  0  0  0  0  0  0  # atno 17370 bound_to 10713
  156.0082  130.3845  150.2355 LP  0  0  0  0  0  0  0  0  0  0  0  0  # atno 17371 bound_to 10713
  140.7258  133.9101  155.8177 LP  0  0  0  0  0  0  0  0  0  0  0  0  # atno 17394 bound_to 11000
  141.0192  134.0913  157.4139 LP  0  0  0  0  0  0  0  0  0  0  0  0  # atno 17395 bound_to 11000

$$$$
