#       Name:                AV-unprocessed.smi:2212
#       Creating user name   scv26
#       Creation time:       Fri Mar 27 12:16:46 2020


#       File generated by GOLD software.
#

@<TRIPOS>MOLECULE
AV-unprocessed.smi:2212
    38    39     1
SMALL
NO_CHARGES


@<TRIPOS>ATOM
      1 ****        -1.6492   1.7924  -2.2046 C.3            1 S1                 0.0000
      2 ****        -2.1438   0.9546  -1.1679 O.3            1 S1                 0.0000
      3 ****        -1.7641  -0.4202  -1.2399 C.3            1 S1                 0.0000
      4 ****        -0.2503  -0.6059  -1.0662 C.3            1 S1                 0.0000
      5 ****         0.2038  -0.0066   0.1815 N.am           1 S1                 0.0000
      6 ****         1.4754  -0.0053   0.6008 C.2            1 S1                 0.0000
      7 ****         2.3994  -0.5224  -0.0280 O.2            1 S1                 0.0000
      8 ****         1.6038   0.6257   1.7779 N.am           1 S1                 0.0000
      9 ****         2.8041   0.8115   2.5019 C.2            1 S1                 0.0000
     10 ****         2.8493   1.4518   3.6670 N.2            1 S1                 0.0000
     11 ****         4.1884   1.4115   4.0302 C.2            1 S1                 0.0000
     12 ****         4.8794   0.7419   3.0525 C.2            1 S1                 0.0000
     13 ****         4.0099   0.3520   2.0695 O.3            1 S1                 0.0000
     14 ****        -2.6952  -1.2205  -0.3096 C.3            1 S1                 0.0000
     15 ****        -2.8759  -2.2432  -1.4328 C.3            1 S1                 0.0000
     16 ****        -2.4706  -1.1370  -2.4082 C.3            1 S1                 0.0000
     17 ****        -2.0903   2.7838  -2.1032 H              1 S1                 0.0000
     18 ****        -1.9088   1.4149  -3.1937 H              1 S1                 0.0000
     19 ****        -0.5676   1.9125  -2.1470 H              1 S1                 0.0000
     20 ****         0.0008  -1.6676  -1.0543 H              1 S1                 0.0000
     21 ****         0.3002  -0.1770  -1.9042 H              1 S1                 0.0000
     22 ****        -0.4963   0.4431   0.7534 H              1 S1                 0.0000
     23 ****         0.7688   1.0096   2.1947 H              1 S1                 0.0000
     24 ****         4.5426   1.8583   4.9475 H              1 S1                 0.0000
     25 ****         5.9173   0.4771   2.9148 H              1 S1                 0.0000
     26 ****        -2.2202  -1.6171   0.5883 H              1 S1                 0.0000
     27 ****        -3.6220  -0.6953  -0.0710 H              1 S1                 0.0000
     28 ****        -2.1506  -3.0572  -1.3874 H              1 S1                 0.0000
     29 ****        -3.8945  -2.6118  -1.5566 H              1 S1                 0.0000
     30 ****        -3.3325  -0.5901  -2.7948 H              1 S1                 0.0000
     31 ****        -1.8098  -1.4629  -3.2120 H              1 S1                 0.0000
     32 ****        -3.1427   0.9978  -1.1898 LP             1 S1                 0.0000
     33 ****        -1.8135   1.3181  -0.2968 LP             1 S1                 0.0000
     34 ****         2.2184  -0.9743  -0.9015 LP             1 S1                 0.0000
     35 ****         3.3306  -0.4905   0.3350 LP             1 S1                 0.0000
     36 ****         2.0903   1.8679   4.1679 LP             1 S1                 0.0000
     37 ****         4.2550   0.7653   1.1926 LP             1 S1                 0.0000
     38 ****         3.9995  -0.6437   1.9774 LP             1 S1                 0.0000
@<TRIPOS>BOND
    1    1    2 1     
    2    1   17 1     
    3    1   18 1     
    4    1   19 1     
    5    2    3 1     
    6    3   16 1     
    7    3    4 1     
    8    3   14 1     
    9    4    5 1     
   10    4   20 1     
   11    4   21 1     
   12    5    6 am    
   13    5   22 1     
   14    6    7 2     
   15    6    8 am    
   16    8    9 1     
   17    8   23 1     
   18    9   13 1     
   19    9   10 2     
   20   10   11 1     
   21   11   12 2     
   22   11   24 1     
   23   12   13 1     
   24   12   25 1     
   25   14   15 1     
   26   14   26 1     
   27   14   27 1     
   28   15   16 1     
   29   15   28 1     
   30   15   29 1     
   31   16   30 1     
   32   16   31 1     
   33    2   32 1     
   34    2   33 1     
   35    7   34 1     
   36    7   35 1     
   37   10   36 1     
   38   13   37 1     
   39   13   38 1     
@<TRIPOS>SUBSTRUCTURE
      1 S1             1
@<TRIPOS>SET
LONE_PAIRS      STATIC     ATOMS    <user>   **** ""
7 32 33 34 35 36 37 38
DONOR_HYDROGENS      STATIC     ATOMS    <user>   **** ""
2 22 23
ATOM$BLUE        STATIC     ATOMS    COLORGROUP SYSTEM
7 32 33 34 35 36 37 38
ATOM$RED        STATIC     ATOMS    COLORGROUP SYSTEM
2 22 23
