#       Name:                AV-unprocessed.smi:1584
#       Creating user name   scv26
#       Creation time:       Fri Mar 27 06:59:15 2020


#       File generated by GOLD software.
#

@<TRIPOS>MOLECULE
AV-unprocessed.smi:1584
    44    45     1
SMALL
NO_CHARGES


@<TRIPOS>ATOM
      1 ****        -2.7435  -2.6843   0.7725 C.3            1 S1                 0.0000
      2 ****        -2.4961  -1.4250  -0.0720 C.3            1 S1                 0.0000
      3 ****        -2.8759  -1.6500  -1.5484 C.3            1 S1                 0.0000
      4 ****        -2.7791  -0.4336  -2.3359 N.pl3          1 S1                 0.0000
      5 ****        -1.7822  -0.0554  -3.2109 C.2            1 S1                 0.0000
      6 ****        -2.1213   1.1706  -3.7073 C.2            1 S1                 0.0000
      7 ****        -3.3594   1.4627  -3.0697 C.2            1 S1                 0.0000
      8 ****        -3.7511   0.5001  -2.2505 N.2            1 S1                 0.0000
      9 ****        -1.0928  -1.0287   0.0262 N.am           1 S1                 0.0000
     10 ****        -0.5763  -0.2069   0.9526 C.2            1 S1                 0.0000
     11 ****        -1.2412   0.2909   1.8619 O.2            1 S1                 0.0000
     12 ****         0.9227   0.0977   0.8306 C.3            1 S1                 0.0000
     13 ****         1.6696  -0.3304   2.0995 C.3            1 S1                 0.0000
     14 ****         3.1742  -0.0848   1.9284 C.3            1 S1                 0.0000
     15 ****         3.4966   1.2507   1.4057 N.am           1 S1                 0.0000
     16 ****         4.8855   1.6704   1.6011 C.3            1 S1                 0.0000
     17 ****         2.6283   2.0410   0.7286 C.2            1 S1                 0.0000
     18 ****         2.9579   3.1283   0.2536 O.2            1 S1                 0.0000
     19 ****         1.1642   1.5978   0.5680 C.3            1 S1                 0.0000
     20 ****        -3.7898  -2.9873   0.7253 H              1 S1                 0.0000
     21 ****        -2.5006  -2.5104   1.8214 H              1 S1                 0.0000
     22 ****        -2.1384  -3.5218   0.4240 H              1 S1                 0.0000
     23 ****        -3.1277  -0.6260   0.3215 H              1 S1                 0.0000
     24 ****        -2.2362  -2.4105  -1.9988 H              1 S1                 0.0000
     25 ****        -3.8991  -2.0215  -1.6221 H              1 S1                 0.0000
     26 ****        -0.9229  -0.6814  -3.4018 H              1 S1                 0.0000
     27 ****        -1.5690   1.7683  -4.4172 H              1 S1                 0.0000
     28 ****        -3.9813   2.3391  -3.1774 H              1 S1                 0.0000
     29 ****        -0.4691  -1.3930  -0.6793 H              1 S1                 0.0000
     30 ****         1.3240  -0.4694  -0.0117 H              1 S1                 0.0000
     31 ****         1.3058   0.2341   2.9600 H              1 S1                 0.0000
     32 ****         1.4904  -1.3838   2.3195 H              1 S1                 0.0000
     33 ****         3.6704  -0.2422   2.8872 H              1 S1                 0.0000
     34 ****         3.5868  -0.8225   1.2388 H              1 S1                 0.0000
     35 ****         5.3424   1.9673   0.6557 H              1 S1                 0.0000
     36 ****         5.5011   0.8725   2.0183 H              1 S1                 0.0000
     37 ****         4.9323   2.5187   2.2854 H              1 S1                 0.0000
     38 ****         0.8281   1.8536  -0.4378 H              1 S1                 0.0000
     39 ****         0.5722   2.2057   1.2538 H              1 S1                 0.0000
     40 ****        -4.5808   0.4706  -1.6931 LP             1 S1                 0.0000
     41 ****        -2.2177   0.0884   1.9360 LP             1 S1                 0.0000
     42 ****        -0.8046   0.8976   2.5262 LP             1 S1                 0.0000
     43 ****         3.8962   3.4571   0.3611 LP             1 S1                 0.0000
     44 ****         2.2873   3.6824  -0.2396 LP             1 S1                 0.0000
@<TRIPOS>BOND
    1    1    2 1     
    2    1   20 1     
    3    1   21 1     
    4    1   22 1     
    5    2    3 1     
    6    2    9 1     
    7    2   23 1     
    8    3    4 1     
    9    3   24 1     
   10    3   25 1     
   11    4    8 1     
   12    4    5 1     
   13    5    6 2     
   14    5   26 1     
   15    6    7 1     
   16    6   27 1     
   17    7    8 2     
   18    7   28 1     
   19    9   10 am    
   20    9   29 1     
   21   10   11 2     
   22   10   12 1     
   23   12   19 1     
   24   12   13 1     
   25   12   30 1     
   26   13   14 1     
   27   13   31 1     
   28   13   32 1     
   29   14   15 1     
   30   14   33 1     
   31   14   34 1     
   32   15   16 1     
   33   15   17 am    
   34   16   35 1     
   35   16   36 1     
   36   16   37 1     
   37   17   18 2     
   38   17   19 1     
   39   19   38 1     
   40   19   39 1     
   41    8   40 1     
   42   11   41 1     
   43   11   42 1     
   44   18   43 1     
   45   18   44 1     
@<TRIPOS>SUBSTRUCTURE
      1 S1             1
@<TRIPOS>SET
LONE_PAIRS      STATIC     ATOMS    <user>   **** ""
5 40 41 42 43 44
DONOR_HYDROGENS      STATIC     ATOMS    <user>   **** ""
1 29
ATOM$BLUE        STATIC     ATOMS    COLORGROUP SYSTEM
5 40 41 42 43 44
ATOM$RED        STATIC     ATOMS    COLORGROUP SYSTEM
1 29
