AV-unprocessed.smi:2159|AV-procd|sdf|8792|dock7
  -GOLD-   2272011573D 1   1.00000     0.00000
 Structure written by MMmdl.
 47 49  0  0  0  0  0  0  0  0  1 V2000
  149.4590  137.8107  155.4783 O   0  0  0  0  0  0  0  0  0  0  0  0
  150.4788  137.5458  156.1153 C   0  0  0  0  0  0  0  0  0  0  0  0
  151.8599  137.9227  155.5707 C   0  0  0  0  0  0  0  0  0  0  0  0
  151.9866  139.4189  155.2209 C   0  0  0  0  0  0  0  0  0  0  0  0
  151.6983  140.2621  156.3862 N   0  0  0  0  0  0  0  0  0  0  0  0
  152.3060  140.1317  157.5739 C   0  0  0  0  0  0  0  0  0  0  0  0
  153.1836  139.3154  157.8545 O   0  0  0  0  0  0  0  0  0  0  0  0
  151.7621  141.1380  158.5850 C   0  0  1  0  0  0  0  0  0  0  0  0
  152.8730  142.0407  159.1615 C   0  0  0  0  0  0  0  0  0  0  0  0
  152.2823  143.2518  159.9046 C   0  0  0  0  0  0  0  0  0  0  0  0
  151.2238  144.0239  159.0854 C   0  0  0  0  0  0  0  0  0  0  0  0
  150.9693  143.4271  157.6902 C   0  0  0  0  0  0  0  0  0  0  0  0
  150.7040  141.9088  157.7668 C   0  0  1  0  0  0  0  0  0  0  0  0
  150.7837  141.2421  156.3957 C   0  0  0  0  0  0  0  0  0  0  0  0
  150.0755  141.5832  155.4483 O   0  0  0  0  0  0  0  0  0  0  0  0
  150.4632  136.9165  157.3002 N   0  0  0  0  0  0  0  0  0  0  0  0
  149.2659  136.4515  157.9915 C   0  0  0  0  0  0  0  0  0  0  0  0
  149.0223  137.2254  159.2977 C   0  0  0  0  0  0  0  0  0  0  0  0
  148.3607  136.3649  160.3581 C   0  0  0  0  0  0  0  0  0  0  0  0
  148.3017  134.9624  160.2115 C   0  0  0  0  0  0  0  0  0  0  0  0
  147.6673  134.2084  161.2176 C   0  0  0  0  0  0  0  0  0  0  0  0
  147.1183  134.8821  162.3257 C   0  0  0  0  0  0  0  0  0  0  0  0
  147.2291  136.2860  162.3787 C   0  0  0  0  0  0  0  0  0  0  0  0
  147.8352  137.0183  161.4191 N   0  0  0  0  0  0  0  0  0  0  0  0
  152.6173  137.6556  156.3093 H   0  0  0  0  0  0  0  0  0  0  0  0
  152.0564  137.3141  154.6875 H   0  0  0  0  0  0  0  0  0  0  0  0
  152.9890  139.6369  154.8479 H   0  0  0  0  0  0  0  0  0  0  0  0
  151.3100  139.6713  154.4021 H   0  0  0  0  0  0  0  0  0  0  0  0
  151.2746  140.5934  159.3949 H   0  0  0  0  0  0  0  0  0  0  0  0
  153.5076  141.4680  159.8391 H   0  0  0  0  0  0  0  0  0  0  0  0
  153.5262  142.3940  158.3615 H   0  0  0  0  0  0  0  0  0  0  0  0
  151.8264  142.9085  160.8342 H   0  0  0  0  0  0  0  0  0  0  0  0
  153.0873  143.9257  160.1996 H   0  0  0  0  0  0  0  0  0  0  0  0
  150.2861  144.0342  159.6423 H   0  0  0  0  0  0  0  0  0  0  0  0
  151.5214  145.0682  158.9852 H   0  0  0  0  0  0  0  0  0  0  0  0
  150.1226  143.9324  157.2238 H   0  0  0  0  0  0  0  0  0  0  0  0
  151.8311  143.6282  157.0511 H   0  0  0  0  0  0  0  0  0  0  0  0
  149.7136  141.7303  158.1880 H   0  0  0  0  0  0  0  0  0  0  0  0
  151.3481  136.7372  157.7524 H   0  0  0  0  0  0  0  0  0  0  0  0
  148.3994  136.5267  157.3321 H   0  0  0  0  0  0  0  0  0  0  0  0
  149.3981  135.3917  158.2110 H   0  0  0  0  0  0  0  0  0  0  0  0
  149.9676  137.6069  159.6863 H   0  0  0  0  0  0  0  0  0  0  0  0
  148.3944  138.0977  159.1097 H   0  0  0  0  0  0  0  0  0  0  0  0
  148.7309  134.4750  159.3483 H   0  0  0  0  0  0  0  0  0  0  0  0
  147.6020  133.1332  161.1396 H   0  0  0  0  0  0  0  0  0  0  0  0
  146.6245  134.3363  163.1158 H   0  0  0  0  0  0  0  0  0  0  0  0
  146.8195  136.8355  163.2135 H   0  0  0  0  0  0  0  0  0  0  0  0
  1  2  2  0  0  0  0
  2  3  1  0  0  0  0
  2 16  1  0  0  0  0
  3  4  1  0  0  0  0
  3 25  1  0  0  0  0
  3 26  1  0  0  0  0
  4  5  1  0  0  0  0
  4 27  1  0  0  0  0
  4 28  1  0  0  0  0
  5 14  1  0  0  0  0
  5  6  1  0  0  0  0
  6  7  2  0  0  0  0
  6  8  1  0  0  0  0
  8 13  1  0  0  0  0
  8  9  1  0  0  0  0
  8 29  1  0  0  0  0
  9 10  1  0  0  0  0
  9 30  1  0  0  0  0
  9 31  1  0  0  0  0
 10 11  1  0  0  0  0
 10 32  1  0  0  0  0
 10 33  1  0  0  0  0
 11 12  1  0  0  0  0
 11 34  1  0  0  0  0
 11 35  1  0  0  0  0
 12 13  1  0  0  0  0
 12 36  1  0  0  0  0
 12 37  1  0  0  0  0
 13 14  1  0  0  0  0
 13 38  1  0  0  0  0
 14 15  2  0  0  0  0
 16 17  1  0  0  0  0
 16 39  1  0  0  0  0
 17 18  1  0  0  0  0
 17 40  1  0  0  0  0
 17 41  1  0  0  0  0
 18 19  1  0  0  0  0
 18 42  1  0  0  0  0
 18 43  1  0  0  0  0
 19 24  1  0  0  0  0
 19 20  2  0  0  0  0
 20 21  1  0  0  0  0
 20 44  1  0  0  0  0
 21 22  2  0  0  0  0
 21 45  1  0  0  0  0
 22 23  1  0  0  0  0
 22 46  1  0  0  0  0
 23 24  2  0  0  0  0
 23 47  1  0  0  0  0
M  END
> <s_m_source_file>
AV-unprocessed.smi

> <i_m_source_file_index>
2159

> <i_lp_mmshare_version>
43012

> <i_f3d_flags>
0

> <s_epik_input>
bjFbY0hdW2NIXVtjSF1bY0hdYzFbQ0gyXVtDSDJdW05IXUMoPU8pW0NIMl1bQ0gyXU4oQzI9TylDKD1PKVtDQEhdKFtDQEBIXTIzKVtDSDJdW0NIMl1bQ0gyXVtDSDJdMw==

> <s_epik_cmdline>
J2VwaWtfcHl0aG9uJywgJy1waCcsICc3LjAnLCAnLXRuJywgJzgnLCAnLW1hJywgJzIwMCcsICctbWV0YWxfYmluZGluZycsICctaW1hZScsICc8aW5maWxlLm1hZT4nLCAnLW9tYWUnLCAnPG91dGZpbGUubWFlPic=

> <r_lp_tautomer_probability>
1

> <r_epik_Ionization_Penalty>
0.026624

> <r_epik_Ionization_Penalty_Charging>
0

> <r_epik_Ionization_Penalty_Neutral>
0.026624

> <r_epik_State_Penalty>
0.0217444

> <r_epik_Charging_Adjusted_Penalty>
0.0217444

> <i_epik_Tot_Q>
0

> <i_epik_Tot_abs_Q>
0

> <r_epik_Metal_State_Penalty>
0.0208054

> <b_epik_Metal_Only>
0

> <s_lp_Force_Field>
OPLS_2005

> <r_lp_Energy>
25.0147

> <b_lp_Chiralities_Consistent>
1

> <s_lp_Variant>
AV-unprocessed.smi:2159-2

> <Gold.Version>
5.8.1

> <Gold.Id.Protein>
6NUR|6NUR_protein|mol2

> <Gold.PLP.Fitness>
54.4097

> <Gold.PLP.PLP>
-47.0267

> <Gold.PLP.part.hbond>
-3.0307

> <Gold.PLP.part.metal>
0.0000

> <Gold.PLP.part.buried>
-3.3881

> <Gold.PLP.part.nonpolar>
-40.7846

> <Gold.PLP.part.repulsive>
0.2115

> <Gold.PLP.ligand.clash>
0.0000

> <Gold.PLP.ligand.torsion>
0.4673

> <Gold.PLP.Chemscore.Hbond>
2.7520

> <Gold.PLP.Chemscore.CHOScore>
0.0000

> <Gold.PLP.Chemscore.Metal>
0.0000

> <Gold.Chemscore.Hbonds>
donor molecule, donor type, donor heavy atom, donor atom, acceptor molecule, acceptor atom, score
      P1  H  6931  6943       L1    24  1.00
      P1  H  6934  6947       L1    24  0.52
      P1  H  7997  8010       L1     7  1.00

> <Gold.PLP.Chemscore.Internal.Correction>
0.0616

> <Gold.Rescore>
     Score         DG    S(hbond)    S(metal)    S(lipo)     H(rot)  DE(clash)    DE(int)     intcor
     18.58     -19.07       1.66        0.00     111.85       1.97       0.20       0.29       ----

> <Gold.Chemscore.Fitness>
18.5809

> <Gold.Chemscore.DG>
-19.0687

> <Gold.Chemscore.ZeroCoef>
-5.4800

> <Gold.Chemscore.Hbond>
1.6605

> <Gold.Chemscore.Metal>
0.0000

> <Gold.Chemscore.Lipo>
111.8546

> <Gold.Chemscore.Internal_Hbond>
0.0000

> <Gold.Chemscore.DEClash>
0.1965

> <Gold.Chemscore.DEInternal>
0.2913

> <Gold.Chemscore.Rot>
1.9704

> <Gold.Chemscore.Internal.Correction>
   9.000000E+99

> <Gold.Chemscore.Hbonds>
donor molecule, donor type, donor heavy atom, donor atom, acceptor molecule, acceptor atom, score
      P1  H  6931  6943       L1    24  0.58
      P1  H  6934  6947       L1    24  0.44
      P1  H  7997  8010       L1     7  0.40

> <Gold.Chemscore.Hbond.Weighted>
-5.5460

> <Gold.Chemscore.Metal.Weighted>
-0.0000

> <Gold.Chemscore.Lipo.Weighted>
-13.0870

> <Gold.Chemscore.Internal_Hbond.Weighted>
0.0000

> <Gold.Chemscore.DEClash.Weighted>
0.1965

> <Gold.Chemscore.DEInternal.Weighted>
0.2913

> <Gold.Chemscore.Rot.Weighted>
5.0443

> <Gold.Chemscore.Internal.Correction.Weighted>
   9.000000E+99

> <Gold.Protein.RotatedTorsions>
[ 6907 6896 6895 6894 ] final  -89.57 input  -60.11 | X-H torsion
[ 7974 7965 7964 7962 ] final   72.70 input  175.53 | X-H torsion
[ 8008 7997 7996 7995 ] final   29.00 input   59.86 | X-H torsion
[ 10167 10162 10161 10158 ] final   45.85 input  -65.29 | X-H torsion
[ 10718 10713 10712 10709 ] final   14.42 input   66.30 | X-H torsion
[ 10763 10752 10751 10750 ] final  157.95 input  -60.55 | X-H torsion
[ 11005 11000 10999 10996 ] final   44.00 input  -57.11 | X-H torsion

> <Gold.Protein.ActiveResidues>
 VAL166  LYS551  ARG553  GLY616  TRP617  ASP618  TYR619  PRO620  LYS621  CYS622 
 ASP623  PHE694  ASN695  SER759  ASP760  ASP761  ALA762  ILE779  LEU786  VAL792 
 PHE793  MET794  SER795  GLU796  ALA797  LYS798  CYS799  TRP800  GLU811  SER814 

> <Gold.Protein.RotatedAtoms>
  150.6875  134.2566  159.4531 H   0  0  0  0  0  0  0  0  0  0  0  0  # atno 6907 bound_to 6896
  152.0499  134.9657  160.0584 H   0  0  0  0  0  0  0  0  0  0  0  0  # atno 6908 bound_to 6896
  152.1126  133.4274  159.4675 H   0  0  0  0  0  0  0  0  0  0  0  0  # atno 6909 bound_to 6896
  145.7501  139.2756  143.1436 H   0  0  0  0  0  0  0  0  0  0  0  0  # atno 7974 bound_to 7965
  155.0675  140.3197  155.4641 H   0  0  0  0  0  0  0  0  0  0  0  0  # atno 8008 bound_to 7997
  156.2798  140.2118  156.5748 H   0  0  0  0  0  0  0  0  0  0  0  0  # atno 8009 bound_to 7997
  154.7082  140.0500  157.0511 H   0  0  0  0  0  0  0  0  0  0  0  0  # atno 8010 bound_to 7997
  140.3199  144.2718  150.6184 H   0  0  0  0  0  0  0  0  0  0  0  0  # atno 10167 bound_to 10162
  157.0389  130.6223  149.5747 H   0  0  0  0  0  0  0  0  0  0  0  0  # atno 10718 bound_to 10713
  154.2083  135.2787  155.2967 H   0  0  0  0  0  0  0  0  0  0  0  0  # atno 10763 bound_to 10752
  154.5799  135.5593  153.7178 H   0  0  0  0  0  0  0  0  0  0  0  0  # atno 10764 bound_to 10752
  153.0070  135.6342  154.2222 H   0  0  0  0  0  0  0  0  0  0  0  0  # atno 10765 bound_to 10752
  140.1593  134.4362  155.8328 H   0  0  0  0  0  0  0  0  0  0  0  0  # atno 11005 bound_to 11000
  146.0365  140.8207  142.9850 LP  0  0  0  0  0  0  0  0  0  0  0  0  # atno 17320 bound_to 7965
  144.6851  140.2846  143.7287 LP  0  0  0  0  0  0  0  0  0  0  0  0  # atno 17321 bound_to 7965
  140.5493  143.2209  151.7954 LP  0  0  0  0  0  0  0  0  0  0  0  0  # atno 17342 bound_to 10162
  139.4876  144.4498  151.9668 LP  0  0  0  0  0  0  0  0  0  0  0  0  # atno 17343 bound_to 10162
  156.0044  130.5129  150.7780 LP  0  0  0  0  0  0  0  0  0  0  0  0  # atno 17370 bound_to 10713
  157.5120  131.0926  151.0186 LP  0  0  0  0  0  0  0  0  0  0  0  0  # atno 17371 bound_to 10713
  141.2208  133.6906  156.7564 LP  0  0  0  0  0  0  0  0  0  0  0  0  # atno 17394 bound_to 11000
  140.2509  134.8541  157.3667 LP  0  0  0  0  0  0  0  0  0  0  0  0  # atno 17395 bound_to 11000

$$$$
