AV-unprocessed.smi:3145|AV-procd|sdf|11979|dock3
  -GOLD-   2272017383D 1   1.00000     0.00000
 Structure written by MMmdl.
 35 35  0  0  0  0  0  0  0  0  2 V2000
  144.7212  134.8610  153.0346 C   0  0  0  0  0  0  0  0  0  0  0  0
  144.9504  136.0881  152.1359 C   0  0  2  0  0  0  0  0  0  0  0  0
  145.0701  135.7197  150.6387 C   0  0  0  0  0  0  0  0  0  0  0  0
  145.1677  134.2881  150.4167 N   0  0  0  0  0  0  0  0  0  0  0  0
  144.2975  133.4674  149.7303 C   0  0  0  0  0  0  0  0  0  0  0  0
  144.8032  132.2006  149.7882 C   0  0  0  0  0  0  0  0  0  0  0  0
  146.0037  132.3495  150.5374 C   0  0  0  0  0  0  0  0  0  0  0  0
  146.2195  133.6006  150.9115 N   0  0  0  0  0  0  0  0  0  0  0  0
  146.1526  136.8167  152.6120 N   0  3  0  0  0  0  0  0  0  0  0  0
  146.2662  138.2415  152.2193 C   0  0  0  0  0  0  0  0  0  0  0  0
  147.1112  139.0643  153.1949 C   0  0  0  0  0  0  0  0  0  0  0  0
  146.7538  140.1960  153.5223 O   0  0  0  0  0  0  0  0  0  0  0  0
  148.2299  138.4818  153.6496 N   0  0  0  0  0  0  0  0  0  0  0  0
  149.2013  139.1093  154.5387 C   0  0  0  0  0  0  0  0  0  0  0  0
  150.4214  138.2077  154.7893 C   0  0  0  0  0  0  0  0  0  0  0  0
  151.6103  138.9509  155.2356 C   0  0  0  0  0  0  0  0  0  0  0  0
  152.5458  139.5323  155.5892 N   0  0  0  0  0  0  0  0  0  0  0  0
  143.7854  134.3554  152.7952 H   0  0  0  0  0  0  0  0  0  0  0  0
  144.6681  135.1490  154.0849 H   0  0  0  0  0  0  0  0  0  0  0  0
  145.5285  134.1355  152.9285 H   0  0  0  0  0  0  0  0  0  0  0  0
  144.0817  136.7352  152.2614 H   0  0  0  0  0  0  0  0  0  0  0  0
  144.2043  136.0742  150.0797 H   0  0  0  0  0  0  0  0  0  0  0  0
  145.9432  136.2052  150.1990 H   0  0  0  0  0  0  0  0  0  0  0  0
  143.4003  133.8479  149.2649 H   0  0  0  0  0  0  0  0  0  0  0  0
  144.3812  131.3035  149.3594 H   0  0  0  0  0  0  0  0  0  0  0  0
  146.7197  131.5909  150.8180 H   0  0  0  0  0  0  0  0  0  0  0  0
  146.1522  136.7866  153.6219 H   0  0  0  0  0  0  0  0  0  0  0  0
  146.7550  138.2799  151.2455 H   0  0  0  0  0  0  0  0  0  0  0  0
  145.2808  138.6877  152.0844 H   0  0  0  0  0  0  0  0  0  0  0  0
  148.4398  137.5438  153.3389 H   0  0  0  0  0  0  0  0  0  0  0  0
  149.5184  140.0667  154.1226 H   0  0  0  0  0  0  0  0  0  0  0  0
  148.7058  139.3300  155.4844 H   0  0  0  0  0  0  0  0  0  0  0  0
  150.1988  137.4507  155.5415 H   0  0  0  0  0  0  0  0  0  0  0  0
  150.6864  137.6764  153.8750 H   0  0  0  0  0  0  0  0  0  0  0  0
  146.9695  136.3243  152.2801 H   0  0  0  0  0  0  0  0  0  0  0  0
  1  2  1  0  0  0  0
  1 18  1  0  0  0  0
  1 19  1  0  0  0  0
  1 20  1  0  0  0  0
  2  3  1  0  0  0  0
  2  9  1  0  0  0  0
  2 21  1  0  0  0  0
  3  4  1  0  0  0  0
  3 22  1  0  0  0  0
  3 23  1  0  0  0  0
  4  8  1  0  0  0  0
  4  5  1  0  0  0  0
  5  6  2  0  0  0  0
  5 24  1  0  0  0  0
  6  7  1  0  0  0  0
  6 25  1  0  0  0  0
  7  8  2  0  0  0  0
  7 26  1  0  0  0  0
  9 10  1  0  0  0  0
  9 27  1  0  0  0  0
  9 35  1  0  0  0  0
 10 11  1  0  0  0  0
 10 28  1  0  0  0  0
 10 29  1  0  0  0  0
 11 12  2  0  0  0  0
 11 13  1  0  0  0  0
 13 14  1  0  0  0  0
 13 30  1  0  0  0  0
 14 15  1  0  0  0  0
 14 31  1  0  0  0  0
 14 32  1  0  0  0  0
 15 16  1  0  0  0  0
 15 33  1  0  0  0  0
 15 34  1  0  0  0  0
 16 17  3  0  0  0  0
M  CHG  1   9   1
M  END
> <s_m_source_file>
AV-unprocessed.smi

> <i_m_source_file_index>
3145

> <i_lp_mmshare_version>
43012

> <i_f3d_flags>
0

> <s_epik_input>
bjFbY0hdW2NIXVtjSF1uMVtDSDJdW0NAQEhdKFtDSDNdKVtOSF1bQ0gyXUMoPU8pW05IXVtDSDJdW0NIMl1DI04=

> <s_epik_cmdline>
J2VwaWtfcHl0aG9uJywgJy1waCcsICc3LjAnLCAnLXRuJywgJzgnLCAnLW1hJywgJzIwMCcsICctbWV0YWxfYmluZGluZycsICctaW1hZScsICc8aW5maWxlLm1hZT4nLCAnLW9tYWUnLCAnPG91dGZpbGUubWFlPic=

> <r_lp_tautomer_probability>
1

> <r_epik_Ionization_Penalty>
0.190162

> <r_epik_Ionization_Penalty_Charging>
0.190142

> <r_epik_Ionization_Penalty_Neutral>
2.0165e-05

> <r_epik_State_Penalty>
0.179787

> <r_epik_Charging_Adjusted_Penalty>
0.369929

> <i_epik_Tot_Q>
1

> <i_epik_Tot_abs_Q>
1

> <r_epik_Metal_State_Penalty>
0.191786

> <b_epik_Metal_Only>
0

> <s_lp_Force_Field>
OPLS_2005

> <r_lp_Energy>
3.88931

> <b_lp_Chiralities_Consistent>
1

> <s_lp_Variant>
AV-unprocessed.smi:3145-1

> <Gold.Version>
5.8.1

> <Gold.Id.Protein>
6NUR|6NUR_protein|mol2

> <Gold.PLP.Fitness>
51.4190

> <Gold.PLP.PLP>
-36.0704

> <Gold.PLP.part.hbond>
-5.0000

> <Gold.PLP.part.metal>
0.0000

> <Gold.PLP.part.buried>
-3.3881

> <Gold.PLP.part.nonpolar>
-28.7092

> <Gold.PLP.part.repulsive>
0.4526

> <Gold.PLP.ligand.clash>
0.0000

> <Gold.PLP.ligand.torsion>
1.4064

> <Gold.PLP.Chemscore.Hbond>
3.9840

> <Gold.PLP.Chemscore.CHOScore>
2.0000

> <Gold.PLP.Chemscore.Metal>
0.0000

> <Gold.Chemscore.Hbonds>
donor molecule, donor type, donor heavy atom, donor atom, acceptor molecule, acceptor atom, score
      L1  H     9    35       P1  7948  2.00
      L1  H    13    30       P1  7948  0.98
      P1  H  7997  8008       L1    17  1.00
      L1  C     5    24       P1 10186  1.00
      L1  C     7    26       P1 10747  1.00

> <Gold.PLP.Chemscore.Internal.Correction>
0.2094

> <Gold.Rescore>
     Score         DG    S(hbond)    S(metal)    S(lipo)     H(rot)  DE(clash)    DE(int)     intcor
     12.95     -15.71       2.97        0.00      65.82       2.89       0.26       2.49       ----

> <Gold.Chemscore.Fitness>
12.9517

> <Gold.Chemscore.DG>
-15.7050

> <Gold.Chemscore.ZeroCoef>
-5.4800

> <Gold.Chemscore.Hbond>
2.9702

> <Gold.Chemscore.Metal>
0.0000

> <Gold.Chemscore.Lipo>
65.8225

> <Gold.Chemscore.Internal_Hbond>
0.0000

> <Gold.Chemscore.DEClash>
0.2614

> <Gold.Chemscore.DEInternal>
2.4919

> <Gold.Chemscore.Rot>
2.8894

> <Gold.Chemscore.Internal.Correction>
   9.000000E+99

> <Gold.Chemscore.Hbonds>
donor molecule, donor type, donor heavy atom, donor atom, acceptor molecule, acceptor atom, score
      L1  H     9    35       P1  7948  0.92
      L1  H    13    30       P1  7948  0.87
      P1  H  7997  8008       L1    17  0.97

> <Gold.Chemscore.Hbond.Weighted>
-9.9206

> <Gold.Chemscore.Metal.Weighted>
-0.0000

> <Gold.Chemscore.Lipo.Weighted>
-7.7012

> <Gold.Chemscore.Internal_Hbond.Weighted>
0.0000

> <Gold.Chemscore.DEClash.Weighted>
0.2614

> <Gold.Chemscore.DEInternal.Weighted>
2.4919

> <Gold.Chemscore.Rot.Weighted>
7.3968

> <Gold.Chemscore.Internal.Correction.Weighted>
   9.000000E+99

> <Gold.Protein.RotatedTorsions>
[ 6907 6896 6895 6894 ] final -110.78 input  -60.11 | X-H torsion
[ 7974 7965 7964 7962 ] final   42.22 input  175.53 | X-H torsion
[ 8008 7997 7996 7995 ] final  -28.53 input   59.86 | X-H torsion
[ 10167 10162 10161 10158 ] final -169.77 input  -65.29 | X-H torsion
[ 10718 10713 10712 10709 ] final   51.80 input   66.30 | X-H torsion
[ 10763 10752 10751 10750 ] final  -94.69 input  -60.55 | X-H torsion
[ 11005 11000 10999 10996 ] final   83.40 input  -57.11 | X-H torsion

> <Gold.Protein.ActiveResidues>
 VAL166  LYS551  ARG553  GLY616  TRP617  ASP618  TYR619  PRO620  LYS621  CYS622 
 ASP623  PHE694  ASN695  SER759  ASP760  ASP761  ALA762  ILE779  LEU786  VAL792 
 PHE793  MET794  SER795  GLU796  ALA797  LYS798  CYS799  TRP800  GLU811  SER814 

> <Gold.Protein.RotatedAtoms>
  150.7647  133.9332  159.3432 H   0  0  0  0  0  0  0  0  0  0  0  0  # atno 6907 bound_to 6896
  151.7232  135.0888  160.0297 H   0  0  0  0  0  0  0  0  0  0  0  0  # atno 6908 bound_to 6896
  152.3636  133.6291  159.6070 H   0  0  0  0  0  0  0  0  0  0  0  0  # atno 6909 bound_to 6896
  146.0758  139.5325  142.9568 H   0  0  0  0  0  0  0  0  0  0  0  0  # atno 7974 bound_to 7965
  154.4328  140.1842  156.1105 H   0  0  0  0  0  0  0  0  0  0  0  0  # atno 8008 bound_to 7997
  156.0222  140.3339  155.7025 H   0  0  0  0  0  0  0  0  0  0  0  0  # atno 8009 bound_to 7997
  155.5960  140.0635  157.2736 H   0  0  0  0  0  0  0  0  0  0  0  0  # atno 8010 bound_to 7997
  139.5902  144.1229  152.1625 H   0  0  0  0  0  0  0  0  0  0  0  0  # atno 10167 bound_to 10162
  157.5015  130.8441  149.8322 H   0  0  0  0  0  0  0  0  0  0  0  0  # atno 10718 bound_to 10713
  154.7079  135.5148  153.8622 H   0  0  0  0  0  0  0  0  0  0  0  0  # atno 10763 bound_to 10752
  153.0756  135.6615  154.0161 H   0  0  0  0  0  0  0  0  0  0  0  0  # atno 10764 bound_to 10752
  154.0009  135.3011  155.3382 H   0  0  0  0  0  0  0  0  0  0  0  0  # atno 10765 bound_to 10752
  139.9032  134.8142  156.2304 H   0  0  0  0  0  0  0  0  0  0  0  0  # atno 11005 bound_to 11000
  145.6308  141.0304  143.1864 LP  0  0  0  0  0  0  0  0  0  0  0  0  # atno 17320 bound_to 7965
  144.7261  139.7872  143.7364 LP  0  0  0  0  0  0  0  0  0  0  0  0  # atno 17321 bound_to 7965
  140.0802  144.5707  150.7128 LP  0  0  0  0  0  0  0  0  0  0  0  0  # atno 17342 bound_to 10162
  140.7167  143.2551  151.4412 LP  0  0  0  0  0  0  0  0  0  0  0  0  # atno 17343 bound_to 10162
  156.0232  130.3788  150.1900 LP  0  0  0  0  0  0  0  0  0  0  0  0  # atno 17370 bound_to 10713
  157.0089  130.9945  151.3371 LP  0  0  0  0  0  0  0  0  0  0  0  0  # atno 17371 bound_to 10713
  141.0349  133.6969  156.1494 LP  0  0  0  0  0  0  0  0  0  0  0  0  # atno 17394 bound_to 11000
  140.7042  134.4531  157.5585 LP  0  0  0  0  0  0  0  0  0  0  0  0  # atno 17395 bound_to 11000

$$$$
