#       Name:                AV-unprocessed.smi:648
#       Creating user name   scv26
#       Creation time:       Fri Mar 27 00:09:26 2020


#       File generated by GOLD software.
#

@<TRIPOS>MOLECULE
AV-unprocessed.smi:648
    50    51     1
SMALL
NO_CHARGES


@<TRIPOS>ATOM
      1 ****        -2.6498  -2.1797   1.5842 C.3            1 S1                 0.0000
      2 ****        -2.1511  -1.3791   0.3721 C.3            1 S1                 0.0000
      3 ****        -2.7296   0.0489   0.3785 C.3            1 S1                 0.0000
      4 ****        -2.2821   0.9117  -0.8255 C.3            1 S1                 0.0000
      5 ****        -3.0512   0.5113  -2.1053 C.3            1 S1                 0.0000
      6 ****        -2.6585   2.3810  -0.5348 C.3            1 S1                 0.0000
      7 ****        -0.7347   0.8414  -0.9984 C.3            1 S1                 0.0000
      8 ****        -0.0489  -0.5556  -0.8909 C.3            1 S1                 0.0000
      9 ****        -0.2519  -1.3753  -2.1949 C.3            1 S1                 0.0000
     10 ****         0.4803  -2.5861  -2.1742 O.3            1 S1                 0.0000
     11 ****         1.4266  -0.3522  -0.7902 N.4            1 S1                 1.0000
     12 ****         2.0098   0.0969   0.4957 C.3            1 S1                 0.0000
     13 ****         3.4860   0.4786   0.3146 C.3            1 S1                 0.0000
     14 ****         4.0818   0.9360   1.5548 N.pl3          1 S1                 0.0000
     15 ****         4.9821   0.3597   2.3528 C.2            1 S1                 0.0000
     16 ****         5.3013   1.0886   3.4132 N.2            1 S1                 0.0000
     17 ****         4.5093   2.1789   3.1881 C.2            1 S1                 0.0000
     18 ****         3.7598   2.1386   2.0862 N.2            1 S1                 0.0000
     19 ****        -0.6122  -1.3185   0.3419 C.3            1 S1                 0.0000
     20 ****        -2.3345  -1.7218   2.5224 H              1 S1                 0.0000
     21 ****        -2.2666  -3.2003   1.5660 H              1 S1                 0.0000
     22 ****        -3.7386  -2.2394   1.5930 H              1 S1                 0.0000
     23 ****        -2.5083  -1.9042  -0.5123 H              1 S1                 0.0000
     24 ****        -3.8192   0.0064   0.4153 H              1 S1                 0.0000
     25 ****        -2.4223   0.5370   1.3049 H              1 S1                 0.0000
     26 ****        -2.6389   1.0005  -2.9883 H              1 S1                 0.0000
     27 ****        -4.0994   0.8049  -2.0365 H              1 S1                 0.0000
     28 ****        -3.0627  -0.5584  -2.2893 H              1 S1                 0.0000
     29 ****        -2.3735   3.0350  -1.3600 H              1 S1                 0.0000
     30 ****        -2.1664   2.7561   0.3635 H              1 S1                 0.0000
     31 ****        -3.7323   2.4960  -0.3822 H              1 S1                 0.0000
     32 ****        -0.4467   1.3236  -1.9337 H              1 S1                 0.0000
     33 ****        -0.3131   1.4794  -0.2232 H              1 S1                 0.0000
     34 ****        -1.2868  -1.6496  -2.3636 H              1 S1                 0.0000
     35 ****         0.0645  -0.7997  -3.0660 H              1 S1                 0.0000
     36 ****         0.2872  -3.0682  -2.9646 H              1 S1                 0.0000
     37 ****         1.8604  -1.2365  -1.0159 H              1 S1                 0.0000
     38 ****         1.4611   0.9497   0.8922 H              1 S1                 0.0000
     39 ****         1.9368  -0.7061   1.2298 H              1 S1                 0.0000
     40 ****         4.0581  -0.3751  -0.0516 H              1 S1                 0.0000
     41 ****         3.5876   1.2716  -0.4279 H              1 S1                 0.0000
     42 ****         5.4130  -0.6112   2.1559 H              1 S1                 0.0000
     43 ****         4.4844   3.0276   3.8555 H              1 S1                 0.0000
     44 ****        -0.3046  -0.8281   1.2650 H              1 S1                 0.0000
     45 ****        -0.1969  -2.3259   0.3876 H              1 S1                 0.0000
     46 ****         1.6889   0.3116  -1.5047 H              1 S1                 0.0000
     47 ****         0.2148  -3.1270  -1.3761 LP             1 S1                 0.0000
     48 ****         1.4594  -2.3872  -2.1313 LP             1 S1                 0.0000
     49 ****         5.9371   0.8962   4.1607 LP             1 S1                 0.0000
     50 ****         3.1203   2.8246   1.7394 LP             1 S1                 0.0000
@<TRIPOS>BOND
    1    1    2 1     
    2    1   20 1     
    3    1   21 1     
    4    1   22 1     
    5    2   19 1     
    6    2    3 1     
    7    2   23 1     
    8    3    4 1     
    9    3   24 1     
   10    3   25 1     
   11    4    5 1     
   12    4    6 1     
   13    4    7 1     
   14    5   26 1     
   15    5   27 1     
   16    5   28 1     
   17    6   29 1     
   18    6   30 1     
   19    6   31 1     
   20    7    8 1     
   21    7   32 1     
   22    7   33 1     
   23    8    9 1     
   24    8   11 1     
   25    8   19 1     
   26    9   10 1     
   27    9   34 1     
   28    9   35 1     
   29   10   36 1     
   30   11   12 1     
   31   11   37 1     
   32   11   46 1     
   33   12   13 1     
   34   12   38 1     
   35   12   39 1     
   36   13   14 1     
   37   13   40 1     
   38   13   41 1     
   39   14   18 1     
   40   14   15 1     
   41   15   16 2     
   42   15   42 1     
   43   16   17 1     
   44   17   18 2     
   45   17   43 1     
   46   19   44 1     
   47   19   45 1     
   48   10   47 1     
   49   10   48 1     
   50   16   49 1     
   51   18   50 1     
@<TRIPOS>SUBSTRUCTURE
      1 S1             1
@<TRIPOS>SET
LONE_PAIRS      STATIC     ATOMS    <user>   **** ""
4 47 48 49 50
DONOR_HYDROGENS      STATIC     ATOMS    <user>   **** ""
3 36 37 46
ATOM$BLUE        STATIC     ATOMS    COLORGROUP SYSTEM
4 47 48 49 50
ATOM$RED        STATIC     ATOMS    COLORGROUP SYSTEM
3 36 37 46
