AV-unprocessed.smi:1491|AV-procd|sdf|6032|dock3
  -GOLD-   22720 6133D 1   1.00000     0.00000
 Structure written by MMmdl.
 39 40  0  0  0  0  0  0  0  0  2 V2000
  145.4585  137.9066  154.4416 O   0  0  0  0  0  0  0  0  0  0  0  0
  146.3472  137.4671  153.7123 C   0  0  0  0  0  0  0  0  0  0  0  0
  146.1487  136.5454  152.7598 N   0  0  0  0  0  0  0  0  0  0  0  0
  144.8653  135.9263  152.4395 C   0  0  0  0  0  0  0  0  0  0  0  0
  144.7188  135.5787  150.9443 C   0  0  0  0  0  0  0  0  0  0  0  0
  145.2384  134.2479  150.6180 N   0  0  0  0  0  0  0  0  0  0  0  0
  144.5816  133.2393  149.9608 C   0  0  0  0  0  0  0  0  0  0  0  0
  145.4585  132.1883  149.8827 C   0  0  0  0  0  0  0  0  0  0  0  0
  146.6115  132.5993  150.4966 N   0  3  0  0  0  0  0  0  0  0  0  0
  146.4757  133.8523  150.9430 C   0  0  0  0  0  0  0  0  0  0  0  0
  147.6266  137.8627  153.7623 N   0  0  0  0  0  0  0  0  0  0  0  0
  148.1586  138.8714  154.6736 C   0  0  2  0  0  0  0  0  0  0  0  0
  147.4433  140.2233  154.4679 C   0  0  0  0  0  0  0  0  0  0  0  0
  148.0397  141.3161  155.3699 C   0  0  0  0  0  0  0  0  0  0  0  0
  149.5555  141.4541  155.1468 C   0  0  1  0  0  0  0  0  0  0  0  0
  150.0790  142.4136  156.0405 O   0  0  0  0  0  0  0  0  0  0  0  0
  150.2712  140.1093  155.3590 C   0  0  0  0  0  0  0  0  0  0  0  0
  149.6763  139.0177  154.4548 C   0  0  0  0  0  0  0  0  0  0  0  0
  146.9460  136.2455  152.2176 H   0  0  0  0  0  0  0  0  0  0  0  0
  144.7647  135.0233  153.0424 H   0  0  0  0  0  0  0  0  0  0  0  0
  144.0575  136.5921  152.7472 H   0  0  0  0  0  0  0  0  0  0  0  0
  143.6680  135.6096  150.6529 H   0  0  0  0  0  0  0  0  0  0  0  0
  145.2364  136.3053  150.3168 H   0  0  0  0  0  0  0  0  0  0  0  0
  143.5665  133.3443  149.6049 H   0  0  0  0  0  0  0  0  0  0  0  0
  145.3512  131.2052  149.4481 H   0  0  0  0  0  0  0  0  0  0  0  0
  147.2192  134.4301  151.4630 H   0  0  0  0  0  0  0  0  0  0  0  0
  148.2821  137.4390  153.1223 H   0  0  0  0  0  0  0  0  0  0  0  0
  147.9968  138.5397  155.7012 H   0  0  0  0  0  0  0  0  0  0  0  0
  147.5262  140.5309  153.4245 H   0  0  0  0  0  0  0  0  0  0  0  0
  146.3776  140.1224  154.6760 H   0  0  0  0  0  0  0  0  0  0  0  0
  147.5432  142.2673  155.1746 H   0  0  0  0  0  0  0  0  0  0  0  0
  147.8392  141.0704  156.4137 H   0  0  0  0  0  0  0  0  0  0  0  0
  149.7409  141.8060  154.1312 H   0  0  0  0  0  0  0  0  0  0  0  0
  149.6349  143.2347  155.8938 H   0  0  0  0  0  0  0  0  0  0  0  0
  151.3374  140.2155  155.1557 H   0  0  0  0  0  0  0  0  0  0  0  0
  150.1835  139.8019  156.4021 H   0  0  0  0  0  0  0  0  0  0  0  0
  150.1755  138.0679  154.6503 H   0  0  0  0  0  0  0  0  0  0  0  0
  149.8786  139.2643  153.4114 H   0  0  0  0  0  0  0  0  0  0  0  0
  147.4472  132.0371  150.6003 H   0  0  0  0  0  0  0  0  0  0  0  0
  1  2  2  0  0  0  0
  2  3  1  0  0  0  0
  2 11  1  0  0  0  0
  3  4  1  0  0  0  0
  3 19  1  0  0  0  0
  4  5  1  0  0  0  0
  4 20  1  0  0  0  0
  4 21  1  0  0  0  0
  5  6  1  0  0  0  0
  5 22  1  0  0  0  0
  5 23  1  0  0  0  0
  6 10  1  0  0  0  0
  6  7  1  0  0  0  0
  7  8  2  0  0  0  0
  7 24  1  0  0  0  0
  8  9  1  0  0  0  0
  8 25  1  0  0  0  0
  9 10  2  0  0  0  0
  9 39  1  0  0  0  0
 10 26  1  0  0  0  0
 11 12  1  0  0  0  0
 11 27  1  0  0  0  0
 12 18  1  0  0  0  0
 12 13  1  0  0  0  0
 12 28  1  0  0  0  0
 13 14  1  0  0  0  0
 13 29  1  0  0  0  0
 13 30  1  0  0  0  0
 14 15  1  0  0  0  0
 14 31  1  0  0  0  0
 14 32  1  0  0  0  0
 15 16  1  0  0  0  0
 15 17  1  0  0  0  0
 15 33  1  0  0  0  0
 16 34  1  0  0  0  0
 17 18  1  0  0  0  0
 17 35  1  0  0  0  0
 17 36  1  0  0  0  0
 18 37  1  0  0  0  0
 18 38  1  0  0  0  0
M  CHG  1   9   1
M  END
> <s_m_source_file>
AV-unprocessed.smi

> <i_m_source_file_index>
1491

> <i_lp_mmshare_version>
43012

> <i_f3d_flags>
0

> <s_epik_input>
W0NIMl0xW0NIMl1bQ0BIXShbT0hdKVtDSDJdW0NIMl1bQ0BIXTFbTkhdQyg9TylbTkhdW0NIMl1bQ0gyXW4yW2NIXVtjSF1uW2NIXTI=

> <s_epik_cmdline>
J2VwaWtfcHl0aG9uJywgJy1waCcsICc3LjAnLCAnLXRuJywgJzgnLCAnLW1hJywgJzIwMCcsICctbWV0YWxfYmluZGluZycsICctaW1hZScsICc8aW5maWxlLm1hZT4nLCAnLW9tYWUnLCAnPG91dGZpbGUubWFlPic=

> <r_lp_tautomer_probability>
1

> <r_epik_Ionization_Penalty>
0.254652

> <r_epik_Ionization_Penalty_Charging>
0

> <r_epik_Ionization_Penalty_Neutral>
0.254652

> <r_epik_State_Penalty>
0.246077

> <r_epik_Charging_Adjusted_Penalty>
0.246077

> <i_epik_Tot_Q>
1

> <i_epik_Tot_abs_Q>
1

> <r_epik_Metal_State_Penalty>
0.536042

> <b_epik_Metal_Only>
0

> <s_lp_Force_Field>
OPLS_2005

> <r_lp_Energy>
9.33043

> <b_lp_Chiralities_Consistent>
1

> <s_lp_Variant>
AV-unprocessed.smi:1491-1

> <Gold.Version>
5.8.1

> <Gold.Id.Protein>
6NUR|6NUR_protein|mol2

> <Gold.PLP.Fitness>
47.6711

> <Gold.PLP.PLP>
-31.4638

> <Gold.PLP.part.hbond>
-4.0000

> <Gold.PLP.part.metal>
0.0000

> <Gold.PLP.part.buried>
-3.7170

> <Gold.PLP.part.nonpolar>
-23.5971

> <Gold.PLP.part.repulsive>
0.1985

> <Gold.PLP.ligand.clash>
0.0000

> <Gold.PLP.ligand.torsion>
0.4002

> <Gold.PLP.Chemscore.Hbond>
3.9833

> <Gold.PLP.Chemscore.CHOScore>
1.6775

> <Gold.PLP.Chemscore.Metal>
0.0000

> <Gold.Chemscore.Hbonds>
donor molecule, donor type, donor heavy atom, donor atom, acceptor molecule, acceptor atom, score
      L1  H     3    19       P1  7948  1.00
      L1  H     9    39       P1 10747  1.00
      L1  H    11    27       P1  7948  1.00
      L1  H    16    34       P1  8028  1.00
      L1  C     7    24       P1 10186  0.39
      L1  C    10    26       P1  7948  1.00

> <Gold.PLP.Chemscore.Internal.Correction>
0.0255

> <Gold.Rescore>
     Score         DG    S(hbond)    S(metal)    S(lipo)     H(rot)  DE(clash)    DE(int)     intcor
     17.76     -19.42       3.94        0.00      64.84       2.65       0.07       1.58       ----

> <Gold.Chemscore.Fitness>
17.7634

> <Gold.Chemscore.DG>
-19.4177

> <Gold.Chemscore.ZeroCoef>
-5.4800

> <Gold.Chemscore.Hbond>
3.9356

> <Gold.Chemscore.Metal>
0.0000

> <Gold.Chemscore.Lipo>
64.8388

> <Gold.Chemscore.Internal_Hbond>
0.0000

> <Gold.Chemscore.DEClash>
0.0708

> <Gold.Chemscore.DEInternal>
1.5835

> <Gold.Chemscore.Rot>
2.6536

> <Gold.Chemscore.Internal.Correction>
   9.000000E+99

> <Gold.Chemscore.Hbonds>
donor molecule, donor type, donor heavy atom, donor atom, acceptor molecule, acceptor atom, score
      L1  H     3    19       P1  7948  0.91
      L1  H     9    39       P1 10747  0.99
      L1  H    11    27       P1  7948  1.00
      L1  H    16    34       P1  8028  1.00

> <Gold.Chemscore.Hbond.Weighted>
-13.1449

> <Gold.Chemscore.Metal.Weighted>
-0.0000

> <Gold.Chemscore.Lipo.Weighted>
-7.5861

> <Gold.Chemscore.Internal_Hbond.Weighted>
0.0000

> <Gold.Chemscore.DEClash.Weighted>
0.0708

> <Gold.Chemscore.DEInternal.Weighted>
1.5835

> <Gold.Chemscore.Rot.Weighted>
6.7933

> <Gold.Chemscore.Internal.Correction.Weighted>
   9.000000E+99

> <Gold.Protein.RotatedTorsions>
[ 6907 6896 6895 6894 ] final   87.02 input  -60.11 | X-H torsion
[ 7974 7965 7964 7962 ] final -146.28 input  175.53 | X-H torsion
[ 8008 7997 7996 7995 ] final  -64.79 input   59.86 | X-H torsion
[ 10167 10162 10161 10158 ] final -166.35 input  -65.29 | X-H torsion
[ 10718 10713 10712 10709 ] final  167.42 input   66.30 | X-H torsion
[ 10763 10752 10751 10750 ] final  179.10 input  -60.55 | X-H torsion
[ 11005 11000 10999 10996 ] final  -44.91 input  -57.11 | X-H torsion

> <Gold.Protein.ActiveResidues>
 VAL166  LYS551  ARG553  GLY616  TRP617  ASP618  TYR619  PRO620  LYS621  CYS622 
 ASP623  PHE694  ASN695  SER759  ASP760  ASP761  ALA762  ILE779  LEU786  VAL792 
 PHE793  MET794  SER795  GLU796  ALA797  LYS798  CYS799  TRP800  GLU811  SER814 

> <Gold.Protein.RotatedAtoms>
  152.5404  134.2340  159.8835 H   0  0  0  0  0  0  0  0  0  0  0  0  # atno 6907 bound_to 6896
  151.2311  133.4443  159.2611 H   0  0  0  0  0  0  0  0  0  0  0  0  # atno 6908 bound_to 6896
  151.0715  134.9814  159.8367 H   0  0  0  0  0  0  0  0  0  0  0  0  # atno 6909 bound_to 6896
  144.8170  140.5476  143.5604 H   0  0  0  0  0  0  0  0  0  0  0  0  # atno 7974 bound_to 7965
  154.4632  140.0946  156.6951 H   0  0  0  0  0  0  0  0  0  0  0  0  # atno 8008 bound_to 7997
  155.4933  140.3471  155.4340 H   0  0  0  0  0  0  0  0  0  0  0  0  # atno 8009 bound_to 7997
  156.0909  140.1397  156.9581 H   0  0  0  0  0  0  0  0  0  0  0  0  # atno 8010 bound_to 7997
  139.6121  144.0794  152.1852 H   0  0  0  0  0  0  0  0  0  0  0  0  # atno 10167 bound_to 10162
  157.0517  131.0315  151.2678 H   0  0  0  0  0  0  0  0  0  0  0  0  # atno 10718 bound_to 10713
  154.5163  135.2791  155.1300 H   0  0  0  0  0  0  0  0  0  0  0  0  # atno 10763 bound_to 10752
  154.2876  135.6273  153.5376 H   0  0  0  0  0  0  0  0  0  0  0  0  # atno 10764 bound_to 10752
  152.9928  135.5666  154.5640 H   0  0  0  0  0  0  0  0  0  0  0  0  # atno 10765 bound_to 10752
  141.0481  133.6753  156.2938 H   0  0  0  0  0  0  0  0  0  0  0  0  # atno 11005 bound_to 11000
  145.5192  139.1477  143.3562 LP  0  0  0  0  0  0  0  0  0  0  0  0  # atno 17320 bound_to 7965
  146.2474  140.5332  142.8908 LP  0  0  0  0  0  0  0  0  0  0  0  0  # atno 17321 bound_to 7965
  140.0415  144.6004  150.7407 LP  0  0  0  0  0  0  0  0  0  0  0  0  # atno 17342 bound_to 10162
  140.7326  143.2707  151.3897 LP  0  0  0  0  0  0  0  0  0  0  0  0  # atno 17343 bound_to 10162
  157.5025  130.7888  149.7619 LP  0  0  0  0  0  0  0  0  0  0  0  0  # atno 17370 bound_to 10713
  156.0005  130.3883  150.2623 LP  0  0  0  0  0  0  0  0  0  0  0  0  # atno 17371 bound_to 10713
  140.6108  134.5460  157.5533 LP  0  0  0  0  0  0  0  0  0  0  0  0  # atno 17394 bound_to 11000
  139.9328  134.7932  156.0884 LP  0  0  0  0  0  0  0  0  0  0  0  0  # atno 17395 bound_to 11000

$$$$
