AV-unprocessed.smi:34|AV-procd|sdf|215|dock4
  -GOLD-   2262015523D 1   1.00000     0.00000
 Structure written by MMmdl.
 55 59  0  0  0  0  0  0  0  0  1 V2000
  152.8242  140.0802  157.9614 O   0  0  0  0  0  0  0  0  0  0  0  0
  151.9142  140.9080  157.9054 C   0  0  0  0  0  0  0  0  0  0  0  0
  150.7906  140.7616  156.9974 N   0  0  0  0  0  0  0  0  0  0  0  0
  150.5379  139.7499  156.1346 C   0  0  0  0  0  0  0  0  0  0  0  0
  150.8712  139.8117  154.8187 N   0  0  0  0  0  0  0  0  0  0  0  0
  150.5834  138.7929  154.0044 C   0  0  0  0  0  0  0  0  0  0  0  0
  149.9740  137.6417  154.2940 N   0  0  0  0  0  0  0  0  0  0  0  0
  149.6423  137.5660  155.6149 C   0  0  0  0  0  0  0  0  0  0  0  0
  149.8940  138.5708  156.5910 C   0  0  0  0  0  0  0  0  0  0  0  0
  149.4252  138.1532  157.8291 N   0  0  0  0  0  0  0  0  0  0  0  0
  148.9209  136.9725  157.5923 C   0  0  0  0  0  0  0  0  0  0  0  0
  148.9973  136.5446  156.2852 N   0  0  0  0  0  0  0  0  0  0  0  0
  148.4871  135.2511  155.7321 C   0  0  2  0  0  0  0  0  0  0  0  0
  147.8576  134.5405  156.7611 O   0  0  0  0  0  0  0  0  0  0  0  0
  148.5307  133.3019  156.9829 C   0  0  1  0  0  0  0  0  0  0  0  0
  147.5606  132.2302  157.4962 C   0  0  0  0  0  0  0  0  0  0  0  0
  146.9043  132.7158  158.6562 O   0  0  0  0  0  0  0  0  0  0  0  0
  147.5306  132.6926  159.8482 C   0  0  0  0  0  0  0  0  0  0  0  0
  148.5592  132.0492  160.0660 O   0  0  0  0  0  0  0  0  0  0  0  0
  146.8498  133.5316  160.8768 C   0  0  0  0  0  0  0  0  0  0  0  0
  145.4364  133.5772  160.9098 C   0  0  0  0  0  0  0  0  0  0  0  0
  144.7657  134.3591  161.8706 C   0  0  0  0  0  0  0  0  0  0  0  0
  145.5004  135.1053  162.8103 C   0  0  0  0  0  0  0  0  0  0  0  0
  146.9068  135.0681  162.7887 C   0  0  0  0  0  0  0  0  0  0  0  0
  147.5793  134.2865  161.8289 C   0  0  0  0  0  0  0  0  0  0  0  0
  149.1780  132.9974  155.6325 C   0  0  1  0  0  0  0  0  0  0  0  0
  148.2456  132.5294  154.7966 F   0  0  0  0  0  0  0  0  0  0  0  0
  149.6373  134.3808  155.2061 C   0  0  1  0  0  0  0  0  0  0  0  0
  149.8008  134.4384  153.8033 O   0  0  0  0  0  0  0  0  0  0  0  0
  151.9454  142.1715  158.7154 C   0  0  0  0  0  0  0  0  0  0  0  0
  151.4136  143.3665  158.1806 C   0  0  0  0  0  0  0  0  0  0  0  0
  151.4453  144.5594  158.9289 C   0  0  0  0  0  0  0  0  0  0  0  0
  152.0166  144.5695  160.2153 C   0  0  0  0  0  0  0  0  0  0  0  0
  152.5601  143.3868  160.7511 C   0  0  0  0  0  0  0  0  0  0  0  0
  152.5288  142.1930  160.0038 C   0  0  0  0  0  0  0  0  0  0  0  0
  150.1171  141.5137  157.0041 H   0  0  0  0  0  0  0  0  0  0  0  0
  150.8813  138.9199  152.9740 H   0  0  0  0  0  0  0  0  0  0  0  0
  148.4649  136.3798  158.3721 H   0  0  0  0  0  0  0  0  0  0  0  0
  147.7550  135.5261  154.9716 H   0  0  0  0  0  0  0  0  0  0  0  0
  149.3116  133.4576  157.7263 H   0  0  0  0  0  0  0  0  0  0  0  0
  146.8189  132.0000  156.7305 H   0  0  0  0  0  0  0  0  0  0  0  0
  148.0958  131.3063  157.7204 H   0  0  0  0  0  0  0  0  0  0  0  0
  144.8506  133.0123  160.1988 H   0  0  0  0  0  0  0  0  0  0  0  0
  143.6862  134.3854  161.8863 H   0  0  0  0  0  0  0  0  0  0  0  0
  144.9857  135.7049  163.5467 H   0  0  0  0  0  0  0  0  0  0  0  0
  147.4723  135.6393  163.5101 H   0  0  0  0  0  0  0  0  0  0  0  0
  148.6594  134.2800  161.8411 H   0  0  0  0  0  0  0  0  0  0  0  0
  149.9838  132.2649  155.6887 H   0  0  0  0  0  0  0  0  0  0  0  0
  150.5700  134.6389  155.7092 H   0  0  0  0  0  0  0  0  0  0  0  0
  149.5065  135.2847  153.5030 H   0  0  0  0  0  0  0  0  0  0  0  0
  150.9707  143.3751  157.1947 H   0  0  0  0  0  0  0  0  0  0  0  0
  151.0304  145.4670  158.5154 H   0  0  0  0  0  0  0  0  0  0  0  0
  152.0403  145.4840  160.7894 H   0  0  0  0  0  0  0  0  0  0  0  0
  153.0026  143.3955  161.7363 H   0  0  0  0  0  0  0  0  0  0  0  0
  152.9578  141.2985  160.4315 H   0  0  0  0  0  0  0  0  0  0  0  0
  1  2  2  0  0  0  0
  2  3  1  0  0  0  0
  2 30  1  0  0  0  0
  3  4  1  0  0  0  0
  3 36  1  0  0  0  0
  4  9  1  0  0  0  0
  4  5  2  0  0  0  0
  5  6  1  0  0  0  0
  6  7  2  0  0  0  0
  6 37  1  0  0  0  0
  7  8  1  0  0  0  0
  8 12  1  0  0  0  0
  8  9  2  0  0  0  0
  9 10  1  0  0  0  0
 10 11  2  0  0  0  0
 11 12  1  0  0  0  0
 11 38  1  0  0  0  0
 12 13  1  0  0  0  0
 13 28  1  0  0  0  0
 13 14  1  0  0  0  0
 13 39  1  0  0  0  0
 14 15  1  0  0  0  0
 15 16  1  0  0  0  0
 15 26  1  0  0  0  0
 15 40  1  0  0  0  0
 16 17  1  0  0  0  0
 16 41  1  0  0  0  0
 16 42  1  0  0  0  0
 17 18  1  0  0  0  0
 18 19  2  0  0  0  0
 18 20  1  0  0  0  0
 20 25  1  0  0  0  0
 20 21  2  0  0  0  0
 21 22  1  0  0  0  0
 21 43  1  0  0  0  0
 22 23  2  0  0  0  0
 22 44  1  0  0  0  0
 23 24  1  0  0  0  0
 23 45  1  0  0  0  0
 24 25  2  0  0  0  0
 24 46  1  0  0  0  0
 25 47  1  0  0  0  0
 26 27  1  0  0  0  0
 26 28  1  0  0  0  0
 26 48  1  0  0  0  0
 28 29  1  0  0  0  0
 28 49  1  0  0  0  0
 29 50  1  0  0  0  0
 30 35  1  0  0  0  0
 30 31  2  0  0  0  0
 31 32  1  0  0  0  0
 31 51  1  0  0  0  0
 32 33  2  0  0  0  0
 32 52  1  0  0  0  0
 33 34  1  0  0  0  0
 33 53  1  0  0  0  0
 34 35  2  0  0  0  0
 34 54  1  0  0  0  0
 35 55  1  0  0  0  0
M  END
> <s_m_source_file>
AV-unprocessed.smi

> <i_m_source_file_index>
34

> <i_lp_mmshare_version>
43012

> <i_f3d_flags>
0

> <s_epik_input>
W2NIXTFbY0hdW2NIXVtjSF1bY0hdYzFDKD1PKVtOSF1jKG5bY0hdbjIpYyhjMjMpbltjSF1uM1tDQEBIXTRPW0NASF0oW0NAQEhdKEYpW0NASF00W09IXSlbQ0gyXU9DKD1PKWM1W2NIXVtjSF1bY0hdW2NIXVtjSF01

> <s_epik_cmdline>
J2VwaWtfcHl0aG9uJywgJy1waCcsICc3LjAnLCAnLXRuJywgJzgnLCAnLW1hJywgJzIwMCcsICctbWV0YWxfYmluZGluZycsICctaW1hZScsICc8aW5maWxlLm1hZT4nLCAnLW9tYWUnLCAnPG91dGZpbGUubWFlPic=

> <r_lp_tautomer_probability>
1

> <r_epik_Ionization_Penalty>
0.00257489

> <r_epik_Ionization_Penalty_Charging>
0

> <r_epik_Ionization_Penalty_Neutral>
0.00257489

> <r_epik_State_Penalty>
0.00519398

> <r_epik_Charging_Adjusted_Penalty>
0.00519398

> <i_epik_Tot_Q>
0

> <i_epik_Tot_abs_Q>
0

> <r_epik_Metal_State_Penalty>
0.335891

> <b_epik_Metal_Only>
0

> <s_epik_Chemistry_Notes>
This compound has an ester and may undergo hydrolysis at high or low pH. This compound contains an acetal/aminal-like group ( X-CH(R)-Y where X, Y are N, S, or O) that may be acid/base labile, releasing an aldehyde.

> <s_lp_Force_Field>
OPLS_2005

> <r_lp_Energy>
46.7099

> <b_lp_Chiralities_Consistent>
1

> <s_lp_Variant>
AV-unprocessed.smi:34-1

> <Gold.Version>
5.8.1

> <Gold.Id.Protein>
6NUR|6NUR_protein|mol2

> <Gold.PLP.Fitness>
52.9642

> <Gold.PLP.PLP>
-46.6514

> <Gold.PLP.part.hbond>
-3.8090

> <Gold.PLP.part.metal>
0.0000

> <Gold.PLP.part.buried>
-4.9621

> <Gold.PLP.part.nonpolar>
-40.2920

> <Gold.PLP.part.repulsive>
1.5116

> <Gold.PLP.ligand.clash>
0.0000

> <Gold.PLP.ligand.torsion>
2.0450

> <Gold.PLP.Chemscore.Hbond>
2.3920

> <Gold.PLP.Chemscore.CHOScore>
0.9634

> <Gold.PLP.Chemscore.Metal>
0.0000

> <Gold.Chemscore.Hbonds>
donor molecule, donor type, donor heavy atom, donor atom, acceptor molecule, acceptor atom, score
      L1  H    29    50       P1  7948  0.56
      P1  H  7989  7998       L1     5  0.75
      P1  H  7997  8008       L1     1  0.98
      L1  C     6    37       P1  7957  0.92

> <Gold.PLP.Chemscore.Internal.Correction>
0.3365

> <Gold.Rescore>
     Score         DG    S(hbond)    S(metal)    S(lipo)     H(rot)  DE(clash)    DE(int)     intcor
     16.44     -19.53       1.96        0.00     123.56       2.72       1.34       1.75       ----

> <Gold.Chemscore.Fitness>
16.4436

> <Gold.Chemscore.DG>
-19.5325

> <Gold.Chemscore.ZeroCoef>
-5.4800

> <Gold.Chemscore.Hbond>
1.9649

> <Gold.Chemscore.Metal>
0.0000

> <Gold.Chemscore.Lipo>
123.5612

> <Gold.Chemscore.Internal_Hbond>
0.0000

> <Gold.Chemscore.DEClash>
1.3381

> <Gold.Chemscore.DEInternal>
1.7507

> <Gold.Chemscore.Rot>
2.7215

> <Gold.Chemscore.Internal.Correction>
   9.000000E+99

> <Gold.Chemscore.Hbonds>
donor molecule, donor type, donor heavy atom, donor atom, acceptor molecule, acceptor atom, score
      L1  H    29    50       P1  7948  0.06
      P1  H  7989  7998       L1     5  0.09
      P1  H  7997  8008       L1     1  0.90

> <Gold.Chemscore.Hbond.Weighted>
-6.5629

> <Gold.Chemscore.Metal.Weighted>
-0.0000

> <Gold.Chemscore.Lipo.Weighted>
-14.4567

> <Gold.Chemscore.Internal_Hbond.Weighted>
0.0000

> <Gold.Chemscore.DEClash.Weighted>
1.3381

> <Gold.Chemscore.DEInternal.Weighted>
1.7507

> <Gold.Chemscore.Rot.Weighted>
6.9670

> <Gold.Chemscore.Internal.Correction.Weighted>
   9.000000E+99

> <Gold.Protein.RotatedTorsions>
[ 6907 6896 6895 6894 ] final   35.26 input  -60.11 | X-H torsion
[ 7974 7965 7964 7962 ] final  -26.27 input  175.53 | X-H torsion
[ 8008 7997 7996 7995 ] final  -86.82 input   59.86 | X-H torsion
[ 10167 10162 10161 10158 ] final  -87.82 input  -65.29 | X-H torsion
[ 10718 10713 10712 10709 ] final   82.83 input   66.30 | X-H torsion
[ 10763 10752 10751 10750 ] final   -3.67 input  -60.55 | X-H torsion
[ 11005 11000 10999 10996 ] final  -94.02 input  -57.11 | X-H torsion

> <Gold.Protein.ActiveResidues>
 VAL166  LYS551  ARG553  GLY616  TRP617  ASP618  TYR619  PRO620  LYS621  CYS622 
 ASP623  PHE694  ASN695  SER759  ASP760  ASP761  ALA762  ILE779  LEU786  VAL792 
 PHE793  MET794  SER795  GLU796  ALA797  LYS798  CYS799  TRP800  GLU811  SER814 

> <Gold.Protein.RotatedAtoms>
  152.1137  134.9256  160.0565 H   0  0  0  0  0  0  0  0  0  0  0  0  # atno 6907 bound_to 6896
  152.0423  133.3978  159.4350 H   0  0  0  0  0  0  0  0  0  0  0  0  # atno 6908 bound_to 6896
  150.6845  134.3321  159.4875 H   0  0  0  0  0  0  0  0  0  0  0  0  # atno 6909 bound_to 6896
  146.1437  140.4997  142.8641 H   0  0  0  0  0  0  0  0  0  0  0  0  # atno 7974 bound_to 7965
  154.6562  140.0573  157.0011 H   0  0  0  0  0  0  0  0  0  0  0  0  # atno 8008 bound_to 7997
  155.1297  140.3255  155.4458 H   0  0  0  0  0  0  0  0  0  0  0  0  # atno 8009 bound_to 7997
  156.2598  140.1983  156.6416 H   0  0  0  0  0  0  0  0  0  0  0  0  # atno 8010 bound_to 7997
  140.3807  143.2750  151.9387 H   0  0  0  0  0  0  0  0  0  0  0  0  # atno 10167 bound_to 10162
  157.6866  131.0064  150.2433 H   0  0  0  0  0  0  0  0  0  0  0  0  # atno 10718 bound_to 10713
  153.3744  135.6996  153.6613 H   0  0  0  0  0  0  0  0  0  0  0  0  # atno 10763 bound_to 10752
  153.5249  135.3604  155.2650 H   0  0  0  0  0  0  0  0  0  0  0  0  # atno 10764 bound_to 10752
  154.8685  135.4167  154.3029 H   0  0  0  0  0  0  0  0  0  0  0  0  # atno 10765 bound_to 10752
  141.1482  133.7927  157.0240 H   0  0  0  0  0  0  0  0  0  0  0  0  # atno 11005 bound_to 11000
  144.7821  140.5862  143.6598 LP  0  0  0  0  0  0  0  0  0  0  0  0  # atno 17320 bound_to 7965
  145.4988  139.1484  143.3669 LP  0  0  0  0  0  0  0  0  0  0  0  0  # atno 17321 bound_to 7965
  139.4795  144.5821  151.7915 LP  0  0  0  0  0  0  0  0  0  0  0  0  # atno 17342 bound_to 10162
  140.4940  144.1268  150.5956 LP  0  0  0  0  0  0  0  0  0  0  0  0  # atno 17343 bound_to 10162
  156.3043  130.3763  149.7721 LP  0  0  0  0  0  0  0  0  0  0  0  0  # atno 17370 bound_to 10713
  156.5341  130.8271  151.3247 LP  0  0  0  0  0  0  0  0  0  0  0  0  # atno 17371 bound_to 10713
  140.0797  134.9655  157.1604 LP  0  0  0  0  0  0  0  0  0  0  0  0  # atno 17394 bound_to 11000
  140.3594  134.2511  155.7189 LP  0  0  0  0  0  0  0  0  0  0  0  0  # atno 17395 bound_to 11000

$$$$
