AV-unprocessed.smi:2514|AV-procd|sdf|9893|dock3
  -GOLD-   2272013533D 1   1.00000     0.00000
 Structure written by MMmdl.
 25 26  0  0  0  0  0  0  0  0  2 V2000
  149.2908  133.5982  154.6181 C   0  0  0  0  0  0  0  0  0  0  0  0
  148.5405  132.2787  154.4010 C   0  0  2  0  0  0  0  0  0  0  0  0
  149.4687  131.2512  154.1159 O   0  0  0  0  0  0  0  0  0  0  0  0
  147.5805  132.3479  153.2455 C   0  0  0  0  0  0  0  0  0  0  0  0
  147.2917  133.3815  152.3968 C   0  0  0  0  0  0  0  0  0  0  0  0
  146.3183  132.8576  151.5732 N   0  0  0  0  0  0  0  0  0  0  0  0
  145.6985  133.4830  150.4433 C   0  0  0  0  0  0  0  0  0  0  0  0
  144.7043  134.6266  150.6339 C   0  0  0  0  0  0  0  0  0  0  0  0
  144.0009  134.1316  149.4572 N   0  3  0  0  0  0  0  0  0  0  0  0
  144.5606  132.8044  149.6801 C   0  0  0  0  0  0  0  0  0  0  0  0
  146.0577  131.5633  151.8697 N   0  0  0  0  0  0  0  0  0  0  0  0
  146.7917  131.2526  152.8913 N   0  0  0  0  0  0  0  0  0  0  0  0
  148.5975  134.4099  154.8401 H   0  0  0  0  0  0  0  0  0  0  0  0
  149.8615  133.8810  153.7329 H   0  0  0  0  0  0  0  0  0  0  0  0
  149.9868  133.5203  155.4539 H   0  0  0  0  0  0  0  0  0  0  0  0
  148.0113  132.0095  155.3160 H   0  0  0  0  0  0  0  0  0  0  0  0
  150.1748  131.3051  154.7416 H   0  0  0  0  0  0  0  0  0  0  0  0
  147.6727  134.3891  152.3174 H   0  0  0  0  0  0  0  0  0  0  0  0
  146.5054  133.7737  149.7670 H   0  0  0  0  0  0  0  0  0  0  0  0
  144.1033  134.5367  151.5410 H   0  0  0  0  0  0  0  0  0  0  0  0
  145.1235  135.6262  150.5143 H   0  0  0  0  0  0  0  0  0  0  0  0
  142.9943  134.1720  149.5314 H   0  0  0  0  0  0  0  0  0  0  0  0
  144.8604  132.2888  148.7674 H   0  0  0  0  0  0  0  0  0  0  0  0
  143.9150  132.1879  150.3089 H   0  0  0  0  0  0  0  0  0  0  0  0
  144.3606  134.5472  148.6095 H   0  0  0  0  0  0  0  0  0  0  0  0
  1  2  1  0  0  0  0
  1 13  1  0  0  0  0
  1 14  1  0  0  0  0
  1 15  1  0  0  0  0
  2  3  1  0  0  0  0
  2  4  1  0  0  0  0
  2 16  1  0  0  0  0
  3 17  1  0  0  0  0
  4 12  1  0  0  0  0
  4  5  2  0  0  0  0
  5  6  1  0  0  0  0
  5 18  1  0  0  0  0
  6  7  1  0  0  0  0
  6 11  1  0  0  0  0
  7 10  1  0  0  0  0
  7  8  1  0  0  0  0
  7 19  1  0  0  0  0
  8  9  1  0  0  0  0
  8 20  1  0  0  0  0
  8 21  1  0  0  0  0
  9 10  1  0  0  0  0
  9 22  1  0  0  0  0
  9 25  1  0  0  0  0
 10 23  1  0  0  0  0
 10 24  1  0  0  0  0
 11 12  2  0  0  0  0
M  CHG  1   9   1
M  END
> <s_m_source_file>
AV-unprocessed.smi

> <i_m_source_file_index>
2514

> <i_lp_mmshare_version>
43012

> <i_f3d_flags>
0

> <s_epik_input>
W0NIM11bQ0BIXShbT0hdKWMxW2NIXW4obm4xKVtDSF0yW0NIMl1bTkhdW0NIMl0y

> <s_epik_cmdline>
J2VwaWtfcHl0aG9uJywgJy1waCcsICc3LjAnLCAnLXRuJywgJzgnLCAnLW1hJywgJzIwMCcsICctbWV0YWxfYmluZGluZycsICctaW1hZScsICc8aW5maWxlLm1hZT4nLCAnLW9tYWUnLCAnPG91dGZpbGUubWFlPic=

> <r_lp_tautomer_probability>
1

> <r_epik_Ionization_Penalty>
0.215039

> <r_epik_Ionization_Penalty_Charging>
0.215038

> <r_epik_Ionization_Penalty_Neutral>
9.39085e-07

> <r_epik_State_Penalty>
0.20523

> <r_epik_Charging_Adjusted_Penalty>
0.420268

> <i_epik_Tot_Q>
1

> <i_epik_Tot_abs_Q>
1

> <r_epik_Metal_State_Penalty>
0.205259

> <b_epik_Metal_Only>
0

> <s_lp_Force_Field>
OPLS_2005

> <r_lp_Energy>
12.5086

> <b_lp_Chiralities_Consistent>
1

> <s_lp_Variant>
AV-unprocessed.smi:2514-1

> <Gold.Version>
5.8.1

> <Gold.Id.Protein>
6NUR|6NUR_protein|mol2

> <Gold.PLP.Fitness>
33.9016

> <Gold.PLP.PLP>
-22.8741

> <Gold.PLP.part.hbond>
-2.0000

> <Gold.PLP.part.metal>
0.0000

> <Gold.PLP.part.buried>
-2.9510

> <Gold.PLP.part.nonpolar>
-18.4264

> <Gold.PLP.part.repulsive>
0.3799

> <Gold.PLP.ligand.clash>
0.0000

> <Gold.PLP.ligand.torsion>
0.1397

> <Gold.PLP.Chemscore.Hbond>
2.8160

> <Gold.PLP.Chemscore.CHOScore>
0.8604

> <Gold.PLP.Chemscore.Metal>
0.0000

> <Gold.Chemscore.Hbonds>
donor molecule, donor type, donor heavy atom, donor atom, acceptor molecule, acceptor atom, score
      L1  H     9    22       P1 10186  2.00
      L1  H     9    25       P1  7921  0.81
      L1  C     5    18       P1  7948  1.00

> <Gold.PLP.Chemscore.Internal.Correction>
0.2777

> <Gold.Rescore>
     Score         DG    S(hbond)    S(metal)    S(lipo)     H(rot)  DE(clash)    DE(int)     intcor
     11.45     -12.04       1.76        0.00      45.89       1.83       0.34       0.25       ----

> <Gold.Chemscore.Fitness>
11.4537

> <Gold.Chemscore.DG>
-12.0426

> <Gold.Chemscore.ZeroCoef>
-5.4800

> <Gold.Chemscore.Hbond>
1.7610

> <Gold.Chemscore.Metal>
0.0000

> <Gold.Chemscore.Lipo>
45.8883

> <Gold.Chemscore.Internal_Hbond>
0.0000

> <Gold.Chemscore.DEClash>
0.3382

> <Gold.Chemscore.DEInternal>
0.2506

> <Gold.Chemscore.Rot>
1.8312

> <Gold.Chemscore.Internal.Correction>
   9.000000E+99

> <Gold.Chemscore.Hbonds>
donor molecule, donor type, donor heavy atom, donor atom, acceptor molecule, acceptor atom, score
      L1  H     9    22       P1 10186  0.96
      L1  H     9    25       P1  7921  0.75

> <Gold.Chemscore.Hbond.Weighted>
-5.8816

> <Gold.Chemscore.Metal.Weighted>
-0.0000

> <Gold.Chemscore.Lipo.Weighted>
-5.3689

> <Gold.Chemscore.Internal_Hbond.Weighted>
0.0000

> <Gold.Chemscore.DEClash.Weighted>
0.3382

> <Gold.Chemscore.DEInternal.Weighted>
0.2506

> <Gold.Chemscore.Rot.Weighted>
4.6879

> <Gold.Chemscore.Internal.Correction.Weighted>
   9.000000E+99

> <Gold.Protein.RotatedTorsions>
[ 6907 6896 6895 6894 ] final    8.26 input  -60.11 | X-H torsion
[ 7974 7965 7964 7962 ] final  164.13 input  175.53 | X-H torsion
[ 8008 7997 7996 7995 ] final -163.22 input   59.86 | X-H torsion
[ 10167 10162 10161 10158 ] final -129.80 input  -65.29 | X-H torsion
[ 10718 10713 10712 10709 ] final   27.41 input   66.30 | X-H torsion
[ 10763 10752 10751 10750 ] final -154.86 input  -60.55 | X-H torsion
[ 11005 11000 10999 10996 ] final  115.46 input  -57.11 | X-H torsion

> <Gold.Protein.ActiveResidues>
 VAL166  LYS551  ARG553  GLY616  TRP617  ASP618  TYR619  PRO620  LYS621  CYS622 
 ASP623  PHE694  ASN695  SER759  ASP760  ASP761  ALA762  ILE779  LEU786  VAL792 
 PHE793  MET794  SER795  GLU796  ALA797  LYS798  CYS799  TRP800  GLU811  SER814 

> <Gold.Protein.RotatedAtoms>
  151.7032  135.0926  160.0254 H   0  0  0  0  0  0  0  0  0  0  0  0  # atno 6907 bound_to 6896
  152.3708  133.6412  159.6094 H   0  0  0  0  0  0  0  0  0  0  0  0  # atno 6908 bound_to 6896
  150.7671  133.9190  159.3434 H   0  0  0  0  0  0  0  0  0  0  0  0  # atno 6909 bound_to 6896
  144.7559  139.8281  143.6350 H   0  0  0  0  0  0  0  0  0  0  0  0  # atno 7974 bound_to 7965
  155.8181  140.0915  157.1865 H   0  0  0  0  0  0  0  0  0  0  0  0  # atno 8008 bound_to 7997
  154.3979  140.1442  156.3526 H   0  0  0  0  0  0  0  0  0  0  0  0  # atno 8009 bound_to 7997
  155.8295  140.3443  155.5566 H   0  0  0  0  0  0  0  0  0  0  0  0  # atno 8010 bound_to 7997
  139.9360  143.6217  152.2517 H   0  0  0  0  0  0  0  0  0  0  0  0  # atno 10167 bound_to 10162
  157.2199  130.6974  149.6265 H   0  0  0  0  0  0  0  0  0  0  0  0  # atno 10718 bound_to 10713
  154.7829  135.3180  154.7950 H   0  0  0  0  0  0  0  0  0  0  0  0  # atno 10763 bound_to 10752
  153.8658  135.6849  153.4783 H   0  0  0  0  0  0  0  0  0  0  0  0  # atno 10764 bound_to 10752
  153.1471  135.4715  154.9520 H   0  0  0  0  0  0  0  0  0  0  0  0  # atno 10765 bound_to 10752
  139.9010  134.9584  156.7048 H   0  0  0  0  0  0  0  0  0  0  0  0  # atno 11005 bound_to 11000
  146.1567  139.4668  143.0014 LP  0  0  0  0  0  0  0  0  0  0  0  0  # atno 17320 bound_to 7965
  145.6782  141.0198  143.1620 LP  0  0  0  0  0  0  0  0  0  0  0  0  # atno 17321 bound_to 7965
  139.6743  144.7659  151.1725 LP  0  0  0  0  0  0  0  0  0  0  0  0  # atno 17342 bound_to 10162
  140.7624  143.5818  150.8887 LP  0  0  0  0  0  0  0  0  0  0  0  0  # atno 17343 bound_to 10162
  155.9683  130.4523  150.5770 LP  0  0  0  0  0  0  0  0  0  0  0  0  # atno 17370 bound_to 10713
  157.3587  131.0746  151.1654 LP  0  0  0  0  0  0  0  0  0  0  0  0  # atno 17371 bound_to 10713
  140.7122  133.9213  155.8092 LP  0  0  0  0  0  0  0  0  0  0  0  0  # atno 17394 bound_to 11000
  141.0292  134.0781  157.4034 LP  0  0  0  0  0  0  0  0  0  0  0  0  # atno 17395 bound_to 11000

$$$$
