AV-unprocessed.smi:2799|AV-procd|sdf|10790|dock7
  -GOLD-   2272015223D 1   1.00000     0.00000
 Structure written by MMmdl.
 52 53  0  0  0  0  0  0  0  0  2 V2000
  148.9429  132.7573  153.7236 C   0  0  0  0  0  0  0  0  0  0  0  0
  148.7542  134.1311  154.3891 C   0  0  0  0  0  0  0  0  0  0  0  0
  149.1607  134.0691  155.8687 C   0  0  0  0  0  0  0  0  0  0  0  0
  147.3054  134.6518  154.2495 C   0  0  0  0  0  0  0  0  0  0  0  0
  146.8163  134.7558  152.8455 N   0  3  1  0  0  0  0  0  0  0  0  0
  146.3571  133.4426  152.3179 C   0  0  0  0  0  0  0  0  0  0  0  0
  146.0922  133.5080  150.8054 C   0  0  0  0  0  0  0  0  0  0  0  0
  145.0916  134.6181  150.4666 C   0  0  0  0  0  0  0  0  0  0  0  0
  145.5826  135.9529  151.0430 C   0  0  0  0  0  0  0  0  0  0  0  0
  145.8533  135.8672  152.5639 C   0  0  1  0  0  0  0  0  0  0  0  0
  144.5585  135.7914  153.4193 C   0  0  0  0  0  0  0  0  0  0  0  0
  143.6735  136.9289  153.1910 N   0  0  0  0  0  0  0  0  0  0  0  0
  142.4730  137.0880  153.7659 C   0  0  0  0  0  0  0  0  0  0  0  0
  141.9885  136.2672  154.5450 O   0  0  0  0  0  0  0  0  0  0  0  0
  141.9121  138.2541  153.3970 N   0  0  0  0  0  0  0  0  0  0  0  0
  140.6717  138.8015  153.7689 C   0  0  0  0  0  0  0  0  0  0  0  0
  140.4653  140.1084  154.0697 C   0  0  0  0  0  0  0  0  0  0  0  0
  139.1570  140.5847  154.4492 C   0  0  0  0  0  0  0  0  0  0  0  0
  138.1499  139.7023  154.5086 C   0  0  0  0  0  0  0  0  0  0  0  0
  138.3430  138.3422  154.2127 N   0  0  0  0  0  0  0  0  0  0  0  0
  137.1803  137.4559  154.3087 C   0  0  0  0  0  0  0  0  0  0  0  0
  139.5579  137.8358  153.8457 C   0  0  0  0  0  0  0  0  0  0  0  0
  139.7001  136.6365  153.5942 O   0  0  0  0  0  0  0  0  0  0  0  0
  148.2793  132.0101  154.1598 H   0  0  0  0  0  0  0  0  0  0  0  0
  149.9666  132.4017  153.8446 H   0  0  0  0  0  0  0  0  0  0  0  0
  148.7408  132.7985  152.6532 H   0  0  0  0  0  0  0  0  0  0  0  0
  149.4384  134.8363  153.9181 H   0  0  0  0  0  0  0  0  0  0  0  0
  148.5295  133.3769  156.4269 H   0  0  0  0  0  0  0  0  0  0  0  0
  149.0787  135.0489  156.3404 H   0  0  0  0  0  0  0  0  0  0  0  0
  150.1943  133.7394  155.9789 H   0  0  0  0  0  0  0  0  0  0  0  0
  146.6485  133.9681  154.7891 H   0  0  0  0  0  0  0  0  0  0  0  0
  147.1979  135.6141  154.7503 H   0  0  0  0  0  0  0  0  0  0  0  0
  147.1191  132.6855  152.5071 H   0  0  0  0  0  0  0  0  0  0  0  0
  145.4614  133.1175  152.8482 H   0  0  0  0  0  0  0  0  0  0  0  0
  147.0301  133.6887  150.2785 H   0  0  0  0  0  0  0  0  0  0  0  0
  145.7182  132.5474  150.4497 H   0  0  0  0  0  0  0  0  0  0  0  0
  144.9731  134.6975  149.3855 H   0  0  0  0  0  0  0  0  0  0  0  0
  144.1084  134.3719  150.8684 H   0  0  0  0  0  0  0  0  0  0  0  0
  146.5061  136.2359  150.5355 H   0  0  0  0  0  0  0  0  0  0  0  0
  144.8689  136.7445  150.8138 H   0  0  0  0  0  0  0  0  0  0  0  0
  146.3571  136.7997  152.8140 H   0  0  0  0  0  0  0  0  0  0  0  0
  143.9950  134.8863  153.1964 H   0  0  0  0  0  0  0  0  0  0  0  0
  144.7903  135.7505  154.4837 H   0  0  0  0  0  0  0  0  0  0  0  0
  144.0026  137.6484  152.5635 H   0  0  0  0  0  0  0  0  0  0  0  0
  142.4689  138.8512  152.8025 H   0  0  0  0  0  0  0  0  0  0  0  0
  141.2650  140.8307  154.0525 H   0  0  0  0  0  0  0  0  0  0  0  0
  138.9938  141.6275  154.6782 H   0  0  0  0  0  0  0  0  0  0  0  0
  137.1426  139.9804  154.7826 H   0  0  0  0  0  0  0  0  0  0  0  0
  136.9762  136.9863  153.3453 H   0  0  0  0  0  0  0  0  0  0  0  0
  136.2738  137.9811  154.6117 H   0  0  0  0  0  0  0  0  0  0  0  0
  137.3584  136.6675  155.0414 H   0  0  0  0  0  0  0  0  0  0  0  0
  147.6378  134.9808  152.3028 H   0  0  0  0  0  0  0  0  0  0  0  0
  1  2  1  0  0  0  0
  1 24  1  0  0  0  0
  1 25  1  0  0  0  0
  1 26  1  0  0  0  0
  2  3  1  0  0  0  0
  2  4  1  0  0  0  0
  2 27  1  0  0  0  0
  3 28  1  0  0  0  0
  3 29  1  0  0  0  0
  3 30  1  0  0  0  0
  4  5  1  0  0  0  0
  4 31  1  0  0  0  0
  4 32  1  0  0  0  0
  5 10  1  0  0  0  0
  5  6  1  0  0  0  0
  5 52  1  0  0  0  0
  6  7  1  0  0  0  0
  6 33  1  0  0  0  0
  6 34  1  0  0  0  0
  7  8  1  0  0  0  0
  7 35  1  0  0  0  0
  7 36  1  0  0  0  0
  8  9  1  0  0  0  0
  8 37  1  0  0  0  0
  8 38  1  0  0  0  0
  9 10  1  0  0  0  0
  9 39  1  0  0  0  0
  9 40  1  0  0  0  0
 10 11  1  0  0  0  0
 10 41  1  0  0  0  0
 11 12  1  0  0  0  0
 11 42  1  0  0  0  0
 11 43  1  0  0  0  0
 12 13  1  0  0  0  0
 12 44  1  0  0  0  0
 13 14  2  0  0  0  0
 13 15  1  0  0  0  0
 15 16  1  0  0  0  0
 15 45  1  0  0  0  0
 16 22  1  0  0  0  0
 16 17  2  0  0  0  0
 17 18  1  0  0  0  0
 17 46  1  0  0  0  0
 18 19  2  0  0  0  0
 18 47  1  0  0  0  0
 19 20  1  0  0  0  0
 19 48  1  0  0  0  0
 20 21  1  0  0  0  0
 20 22  1  0  0  0  0
 21 49  1  0  0  0  0
 21 50  1  0  0  0  0
 21 51  1  0  0  0  0
 22 23  2  0  0  0  0
M  CHG  1   5   1
M  END
> <s_m_source_file>
AV-unprocessed.smi

> <i_m_source_file_index>
2799

> <i_lp_mmshare_version>
43012

> <i_f3d_flags>
0

> <s_epik_input>
W0NIM11bQ0hdKFtDSDNdKVtDSDJdTjFbQ0gyXVtDSDJdW0NIMl1bQ0gyXVtDQEhdMVtDSDJdW05IXUMoPU8pW05IXWMyW2NIXVtjSF1bY0hdbihbQ0gzXSljMj1P

> <s_epik_cmdline>
J2VwaWtfcHl0aG9uJywgJy1waCcsICc3LjAnLCAnLXRuJywgJzgnLCAnLW1hJywgJzIwMCcsICctbWV0YWxfYmluZGluZycsICctaW1hZScsICc8aW5maWxlLm1hZT4nLCAnLW9tYWUnLCAnPG91dGZpbGUubWFlPic=

> <r_lp_tautomer_probability>
1

> <r_epik_Ionization_Penalty>
0.0010885

> <r_epik_Ionization_Penalty_Charging>
0.00106921

> <r_epik_Ionization_Penalty_Neutral>
1.92865e-05

> <r_epik_State_Penalty>
0.000697184

> <r_epik_Charging_Adjusted_Penalty>
0.0017664

> <i_epik_Tot_Q>
1

> <i_epik_Tot_abs_Q>
1

> <r_epik_Metal_State_Penalty>
-0

> <b_epik_Metal_Only>
0

> <s_lp_Force_Field>
OPLS_2005

> <r_lp_Energy>
35.5071

> <b_lp_Chiralities_Consistent>
1

> <s_lp_Variant>
AV-unprocessed.smi:2799-2

> <Gold.Version>
5.8.1

> <Gold.Id.Protein>
6NUR|6NUR_protein|mol2

> <Gold.PLP.Fitness>
42.6509

> <Gold.PLP.PLP>
-34.8673

> <Gold.PLP.part.hbond>
-2.0000

> <Gold.PLP.part.metal>
0.0000

> <Gold.PLP.part.buried>
-3.4955

> <Gold.PLP.part.nonpolar>
-29.3297

> <Gold.PLP.part.repulsive>
0.1794

> <Gold.PLP.ligand.clash>
0.0000

> <Gold.PLP.ligand.torsion>
0.6499

> <Gold.PLP.Chemscore.Hbond>
3.0000

> <Gold.PLP.Chemscore.CHOScore>
0.0000

> <Gold.PLP.Chemscore.Metal>
0.0000

> <Gold.Chemscore.Hbonds>
donor molecule, donor type, donor heavy atom, donor atom, acceptor molecule, acceptor atom, score
      L1  H     5    52       P1  7948  1.98
      L1  H    15    45       P1 10175  1.00

> <Gold.PLP.Chemscore.Internal.Correction>
0.0835

> <Gold.Rescore>
     Score         DG    S(hbond)    S(metal)    S(lipo)     H(rot)  DE(clash)    DE(int)     intcor
     11.65     -16.45       1.95        0.00      72.36       1.57       0.02       4.78       ----

> <Gold.Chemscore.Fitness>
11.6500

> <Gold.Chemscore.DG>
-16.4512

> <Gold.Chemscore.ZeroCoef>
-5.4800

> <Gold.Chemscore.Hbond>
1.9526

> <Gold.Chemscore.Metal>
0.0000

> <Gold.Chemscore.Lipo>
72.3555

> <Gold.Chemscore.Internal_Hbond>
0.0000

> <Gold.Chemscore.DEClash>
0.0174

> <Gold.Chemscore.DEInternal>
4.7838

> <Gold.Chemscore.Rot>
1.5688

> <Gold.Chemscore.Internal.Correction>
   9.000000E+99

> <Gold.Chemscore.Hbonds>
donor molecule, donor type, donor heavy atom, donor atom, acceptor molecule, acceptor atom, score
      L1  H     5    52       P1  7948  0.89
      L1  H    15    45       P1 10175  0.95

> <Gold.Chemscore.Hbond.Weighted>
-6.5217

> <Gold.Chemscore.Metal.Weighted>
-0.0000

> <Gold.Chemscore.Lipo.Weighted>
-8.4656

> <Gold.Chemscore.Internal_Hbond.Weighted>
0.0000

> <Gold.Chemscore.DEClash.Weighted>
0.0174

> <Gold.Chemscore.DEInternal.Weighted>
4.7838

> <Gold.Chemscore.Rot.Weighted>
4.0161

> <Gold.Chemscore.Internal.Correction.Weighted>
   9.000000E+99

> <Gold.Protein.RotatedTorsions>
[ 6907 6896 6895 6894 ] final -127.73 input  -60.11 | X-H torsion
[ 7974 7965 7964 7962 ] final  143.77 input  175.53 | X-H torsion
[ 8008 7997 7996 7995 ] final   66.05 input   59.86 | X-H torsion
[ 10167 10162 10161 10158 ] final  -95.96 input  -65.29 | X-H torsion
[ 10718 10713 10712 10709 ] final  102.64 input   66.30 | X-H torsion
[ 10763 10752 10751 10750 ] final -152.83 input  -60.55 | X-H torsion
[ 11005 11000 10999 10996 ] final  -30.55 input  -57.11 | X-H torsion

> <Gold.Protein.ActiveResidues>
 VAL166  LYS551  ARG553  GLY616  TRP617  ASP618  TYR619  PRO620  LYS621  CYS622 
 ASP623  PHE694  ASN695  SER759  ASP760  ASP761  ALA762  ILE779  LEU786  VAL792 
 PHE793  MET794  SER795  GLU796  ALA797  LYS798  CYS799  TRP800  GLU811  SER814 

> <Gold.Protein.RotatedAtoms>
  150.9104  133.7005  159.2856 H   0  0  0  0  0  0  0  0  0  0  0  0  # atno 6907 bound_to 6896
  151.4494  135.1027  159.9703 H   0  0  0  0  0  0  0  0  0  0  0  0  # atno 6908 bound_to 6896
  152.4926  133.8493  159.7248 H   0  0  0  0  0  0  0  0  0  0  0  0  # atno 6909 bound_to 6896
  144.8893  139.5583  143.5806 H   0  0  0  0  0  0  0  0  0  0  0  0  # atno 7974 bound_to 7965
  155.6713  140.3497  155.4819 H   0  0  0  0  0  0  0  0  0  0  0  0  # atno 8008 bound_to 7997
  155.9686  140.1151  157.0855 H   0  0  0  0  0  0  0  0  0  0  0  0  # atno 8009 bound_to 7997
  154.4160  140.1161  156.5262 H   0  0  0  0  0  0  0  0  0  0  0  0  # atno 8010 bound_to 7997
  140.2988  143.3175  152.0270 H   0  0  0  0  0  0  0  0  0  0  0  0  # atno 10167 bound_to 10162
  157.6796  131.0758  150.5434 H   0  0  0  0  0  0  0  0  0  0  0  0  # atno 10718 bound_to 10713
  154.7968  135.3227  154.7646 H   0  0  0  0  0  0  0  0  0  0  0  0  # atno 10763 bound_to 10752
  153.8323  135.6878  153.4817 H   0  0  0  0  0  0  0  0  0  0  0  0  # atno 10764 bound_to 10752
  153.1664  135.4640  154.9785 H   0  0  0  0  0  0  0  0  0  0  0  0  # atno 10765 bound_to 10752
  140.9392  133.7289  156.1051 H   0  0  0  0  0  0  0  0  0  0  0  0  # atno 11005 bound_to 11000
  146.3043  139.7530  142.9067 LP  0  0  0  0  0  0  0  0  0  0  0  0  # atno 17320 bound_to 7965
  145.3813  141.0358  143.3176 LP  0  0  0  0  0  0  0  0  0  0  0  0  # atno 17321 bound_to 7965
  139.4920  144.6471  151.6755 LP  0  0  0  0  0  0  0  0  0  0  0  0  # atno 17342 bound_to 10162
  140.5669  144.0174  150.6197 LP  0  0  0  0  0  0  0  0  0  0  0  0  # atno 17343 bound_to 10162
  156.5740  130.4287  149.6006 LP  0  0  0  0  0  0  0  0  0  0  0  0  # atno 17370 bound_to 10713
  156.2716  130.7020  151.1819 LP  0  0  0  0  0  0  0  0  0  0  0  0  # atno 17371 bound_to 10713
  140.7757  134.3783  157.5498 LP  0  0  0  0  0  0  0  0  0  0  0  0  # atno 17394 bound_to 11000
  139.8816  134.9050  156.2890 LP  0  0  0  0  0  0  0  0  0  0  0  0  # atno 17395 bound_to 11000

$$$$
