AV-unprocessed.smi:2095|AV-procd|sdf|8557|dock1
  -GOLD-   2272011283D 1   1.00000     0.00000
 Structure written by MMmdl.
 42 43  0  0  0  0  0  0  0  0  2 V2000
  145.9277  132.3736  150.2499 C   0  0  0  0  0  0  0  0  0  0  0  0
  146.3606  133.4046  151.3017 C   0  0  1  0  0  0  0  0  0  0  0  0
  145.2116  133.7362  152.2700 C   0  0  0  0  0  0  0  0  0  0  0  0
  145.6767  134.7478  153.3261 C   0  0  0  0  0  0  0  0  0  0  0  0
  146.9304  134.2441  154.0591 C   0  0  0  0  0  0  0  0  0  0  0  0
  148.0188  133.9384  153.0934 N   0  3  1  0  0  0  0  0  0  0  0  0
  149.3365  133.6837  153.7453 C   0  0  2  0  0  0  0  0  0  0  0  0
  149.4133  132.2388  154.2753 C   0  0  0  0  0  0  0  0  0  0  0  0
  149.6999  134.7356  154.8252 C   0  0  0  0  0  0  0  0  0  0  0  0
  150.4806  135.8369  154.2741 N   0  0  0  0  0  0  0  0  0  0  0  0
  150.6036  137.0482  154.8379 C   0  0  0  0  0  0  0  0  0  0  0  0
  150.1156  137.3408  155.9292 O   0  0  0  0  0  0  0  0  0  0  0  0
  151.3682  138.0982  154.0331 C   0  0  0  0  0  0  0  0  0  0  0  0
  151.3589  139.3724  154.7258 N   0  0  0  0  0  0  0  0  0  0  0  0
  151.9214  139.7485  155.8760 C   0  0  0  0  0  0  0  0  0  0  0  0
  151.6379  141.0084  156.1691 N   0  0  0  0  0  0  0  0  0  0  0  0
  150.8455  141.4089  155.1062 N   0  0  0  0  0  0  0  0  0  0  0  0
  150.6759  140.4423  154.2466 N   0  0  0  0  0  0  0  0  0  0  0  0
  147.5960  132.9238  152.0889 C   0  0  0  0  0  0  0  0  0  0  0  0
  145.6365  131.4309  150.7142 H   0  0  0  0  0  0  0  0  0  0  0  0
  146.7361  132.1634  149.5489 H   0  0  0  0  0  0  0  0  0  0  0  0
  145.0774  132.7362  149.6715 H   0  0  0  0  0  0  0  0  0  0  0  0
  146.6323  134.3192  150.7721 H   0  0  0  0  0  0  0  0  0  0  0  0
  144.3586  134.1380  151.7218 H   0  0  0  0  0  0  0  0  0  0  0  0
  144.8648  132.8265  152.7622 H   0  0  0  0  0  0  0  0  0  0  0  0
  145.8915  135.7041  152.8472 H   0  0  0  0  0  0  0  0  0  0  0  0
  144.8755  134.9338  154.0421 H   0  0  0  0  0  0  0  0  0  0  0  0
  147.2596  135.0077  154.7648 H   0  0  0  0  0  0  0  0  0  0  0  0
  146.6888  133.3551  154.6431 H   0  0  0  0  0  0  0  0  0  0  0  0
  150.0859  133.7432  152.9547 H   0  0  0  0  0  0  0  0  0  0  0  0
  150.4301  131.9799  154.5726 H   0  0  0  0  0  0  0  0  0  0  0  0
  149.1124  131.5229  153.5100 H   0  0  0  0  0  0  0  0  0  0  0  0
  148.7734  132.0881  155.1445 H   0  0  0  0  0  0  0  0  0  0  0  0
  148.8059  135.1329  155.3072 H   0  0  0  0  0  0  0  0  0  0  0  0
  150.3016  134.2834  155.6137 H   0  0  0  0  0  0  0  0  0  0  0  0
  150.9171  135.6847  153.3759 H   0  0  0  0  0  0  0  0  0  0  0  0
  152.4024  137.7818  153.8902 H   0  0  0  0  0  0  0  0  0  0  0  0
  150.9251  138.2181  153.0431 H   0  0  0  0  0  0  0  0  0  0  0  0
  152.5245  139.1024  156.4968 H   0  0  0  0  0  0  0  0  0  0  0  0
  147.3675  131.9806  152.5869 H   0  0  0  0  0  0  0  0  0  0  0  0
  148.4096  132.7269  151.3914 H   0  0  0  0  0  0  0  0  0  0  0  0
  148.1511  134.7950  152.5749 H   0  0  0  0  0  0  0  0  0  0  0  0
  1  2  1  0  0  0  0
  1 20  1  0  0  0  0
  1 21  1  0  0  0  0
  1 22  1  0  0  0  0
  2 19  1  0  0  0  0
  2  3  1  0  0  0  0
  2 23  1  0  0  0  0
  3  4  1  0  0  0  0
  3 24  1  0  0  0  0
  3 25  1  0  0  0  0
  4  5  1  0  0  0  0
  4 26  1  0  0  0  0
  4 27  1  0  0  0  0
  5  6  1  0  0  0  0
  5 28  1  0  0  0  0
  5 29  1  0  0  0  0
  6  7  1  0  0  0  0
  6 19  1  0  0  0  0
  6 42  1  0  0  0  0
  7  8  1  0  0  0  0
  7  9  1  0  0  0  0
  7 30  1  0  0  0  0
  8 31  1  0  0  0  0
  8 32  1  0  0  0  0
  8 33  1  0  0  0  0
  9 10  1  0  0  0  0
  9 34  1  0  0  0  0
  9 35  1  0  0  0  0
 10 11  1  0  0  0  0
 10 36  1  0  0  0  0
 11 12  2  0  0  0  0
 11 13  1  0  0  0  0
 13 14  1  0  0  0  0
 13 37  1  0  0  0  0
 13 38  1  0  0  0  0
 14 18  1  0  0  0  0
 14 15  1  0  0  0  0
 15 16  2  0  0  0  0
 15 39  1  0  0  0  0
 16 17  1  0  0  0  0
 17 18  2  0  0  0  0
 19 40  1  0  0  0  0
 19 41  1  0  0  0  0
M  CHG  1   6   1
M  END
> <s_m_source_file>
AV-unprocessed.smi

> <i_m_source_file_index>
2095

> <i_lp_mmshare_version>
43012

> <i_f3d_flags>
0

> <s_epik_input>
W0NIM11bQ0BASF0xW0NIMl1bQ0gyXVtDSDJdTihbQ0gyXTEpW0NASF0oW0NIM10pW0NIMl1bTkhdQyg9TylbQ0gyXW4yW2NIXW5ubjI=

> <s_epik_cmdline>
J2VwaWtfcHl0aG9uJywgJy1waCcsICc3LjAnLCAnLXRuJywgJzgnLCAnLW1hJywgJzIwMCcsICctbWV0YWxfYmluZGluZycsICctaW1hZScsICc8aW5maWxlLm1hZT4nLCAnLW9tYWUnLCAnPG91dGZpbGUubWFlPic=

> <r_lp_tautomer_probability>
1

> <r_epik_Ionization_Penalty>
0.00268321

> <r_epik_Ionization_Penalty_Charging>
0.00267875

> <r_epik_Ionization_Penalty_Neutral>
4.46125e-06

> <r_epik_State_Penalty>
0.00186642

> <r_epik_Charging_Adjusted_Penalty>
0.00454517

> <i_epik_Tot_Q>
1

> <i_epik_Tot_abs_Q>
1

> <r_epik_Metal_State_Penalty>
-0

> <b_epik_Metal_Only>
0

> <s_lp_Force_Field>
OPLS_2005

> <r_lp_Energy>
21.2581

> <b_lp_Chiralities_Consistent>
1

> <s_lp_Variant>
AV-unprocessed.smi:2095-4

> <Gold.Version>
5.8.1

> <Gold.Id.Protein>
6NUR|6NUR_protein|mol2

> <Gold.PLP.Fitness>
42.9069

> <Gold.PLP.PLP>
-33.2317

> <Gold.PLP.part.hbond>
-5.0000

> <Gold.PLP.part.metal>
0.0000

> <Gold.PLP.part.buried>
-0.5397

> <Gold.PLP.part.nonpolar>
-26.5441

> <Gold.PLP.part.repulsive>
0.2651

> <Gold.PLP.ligand.clash>
0.0000

> <Gold.PLP.ligand.torsion>
0.8607

> <Gold.PLP.Chemscore.Hbond>
3.7434

> <Gold.PLP.Chemscore.CHOScore>
0.0000

> <Gold.PLP.Chemscore.Metal>
0.0000

> <Gold.Chemscore.Hbonds>
donor molecule, donor type, donor heavy atom, donor atom, acceptor molecule, acceptor atom, score
      L1  H     6    42       P1  7948  2.00
      L1  H    10    36       P1  7949  0.70
      P1  H  7989  7998       L1    18  0.18

> <Gold.PLP.Chemscore.Internal.Correction>
0.1662

> <Gold.Rescore>
     Score         DG    S(hbond)    S(metal)    S(lipo)     H(rot)  DE(clash)    DE(int)     intcor
      9.04     -10.94       1.79        0.00      53.39       2.64       0.03       1.87       ----

> <Gold.Chemscore.Fitness>
9.0446

> <Gold.Chemscore.DG>
-10.9433

> <Gold.Chemscore.ZeroCoef>
-5.4800

> <Gold.Chemscore.Hbond>
1.7918

> <Gold.Chemscore.Metal>
0.0000

> <Gold.Chemscore.Lipo>
53.3944

> <Gold.Chemscore.Internal_Hbond>
0.0000

> <Gold.Chemscore.DEClash>
0.0312

> <Gold.Chemscore.DEInternal>
1.8676

> <Gold.Chemscore.Rot>
2.6439

> <Gold.Chemscore.Internal.Correction>
   9.000000E+99

> <Gold.Chemscore.Hbonds>
donor molecule, donor type, donor heavy atom, donor atom, acceptor molecule, acceptor atom, score
      L1  H     6    42       P1  7948  0.60
      L1  H    10    36       P1  7949  0.07

> <Gold.Chemscore.Hbond.Weighted>
-5.9846

> <Gold.Chemscore.Metal.Weighted>
-0.0000

> <Gold.Chemscore.Lipo.Weighted>
-6.2471

> <Gold.Chemscore.Internal_Hbond.Weighted>
0.0000

> <Gold.Chemscore.DEClash.Weighted>
0.0312

> <Gold.Chemscore.DEInternal.Weighted>
1.8676

> <Gold.Chemscore.Rot.Weighted>
6.7685

> <Gold.Chemscore.Internal.Correction.Weighted>
   9.000000E+99

> <Gold.Protein.RotatedTorsions>
[ 6907 6896 6895 6894 ] final  -81.68 input  -60.11 | X-H torsion
[ 7974 7965 7964 7962 ] final  -45.13 input  175.53 | X-H torsion
[ 8008 7997 7996 7995 ] final   24.51 input   59.86 | X-H torsion
[ 10167 10162 10161 10158 ] final  -12.83 input  -65.29 | X-H torsion
[ 10718 10713 10712 10709 ] final  141.75 input   66.30 | X-H torsion
[ 10763 10752 10751 10750 ] final   62.73 input  -60.55 | X-H torsion
[ 11005 11000 10999 10996 ] final  -79.35 input  -57.11 | X-H torsion

> <Gold.Protein.ActiveResidues>
 VAL166  LYS551  ARG553  GLY616  TRP617  ASP618  TYR619  PRO620  LYS621  CYS622 
 ASP623  PHE694  ASN695  SER759  ASP760  ASP761  ALA762  ILE779  LEU786  VAL792 
 PHE793  MET794  SER795  GLU796  ALA797  LYS798  CYS799  TRP800  GLU811  SER814 

> <Gold.Protein.RotatedAtoms>
  150.6908  134.3781  159.5021 H   0  0  0  0  0  0  0  0  0  0  0  0  # atno 6907 bound_to 6896
  152.1587  134.8927  160.0552 H   0  0  0  0  0  0  0  0  0  0  0  0  # atno 6908 bound_to 6896
  151.9997  133.3786  159.4213 H   0  0  0  0  0  0  0  0  0  0  0  0  # atno 6909 bound_to 6896
  145.9851  140.7242  142.9344 H   0  0  0  0  0  0  0  0  0  0  0  0  # atno 7974 bound_to 7965
  154.9973  140.3121  155.4881 H   0  0  0  0  0  0  0  0  0  0  0  0  # atno 8008 bound_to 7997
  156.2930  140.2238  156.5022 H   0  0  0  0  0  0  0  0  0  0  0  0  # atno 8009 bound_to 7997
  154.7649  140.0456  157.0992 H   0  0  0  0  0  0  0  0  0  0  0  0  # atno 8010 bound_to 7997
  140.7169  143.5491  150.9321 H   0  0  0  0  0  0  0  0  0  0  0  0  # atno 10167 bound_to 10162
  157.3884  131.1001  151.0671 H   0  0  0  0  0  0  0  0  0  0  0  0  # atno 10718 bound_to 10713
  152.9993  135.5454  154.6239 H   0  0  0  0  0  0  0  0  0  0  0  0  # atno 10763 bound_to 10752
  154.5532  135.2828  155.0991 H   0  0  0  0  0  0  0  0  0  0  0  0  # atno 10764 bound_to 10752
  154.2223  135.6448  153.5201 H   0  0  0  0  0  0  0  0  0  0  0  0  # atno 10765 bound_to 10752
  141.1667  133.7102  156.8109 H   0  0  0  0  0  0  0  0  0  0  0  0  # atno 11005 bound_to 11000
  144.6872  140.2974  143.7268 LP  0  0  0  0  0  0  0  0  0  0  0  0  # atno 17320 bound_to 7965
  145.7712  139.1858  143.2211 LP  0  0  0  0  0  0  0  0  0  0  0  0  # atno 17321 bound_to 7965
  139.9215  143.6600  152.3096 LP  0  0  0  0  0  0  0  0  0  0  0  0  # atno 17342 bound_to 10162
  139.7019  144.7634  151.1259 LP  0  0  0  0  0  0  0  0  0  0  0  0  # atno 17343 bound_to 10162
  157.1714  130.6269  149.5641 LP  0  0  0  0  0  0  0  0  0  0  0  0  # atno 17370 bound_to 10713
  155.9792  130.4784  150.6702 LP  0  0  0  0  0  0  0  0  0  0  0  0  # atno 17371 bound_to 10713
  140.2188  134.8772  157.3355 LP  0  0  0  0  0  0  0  0  0  0  0  0  # atno 17394 bound_to 11000
  140.2009  134.4256  155.7663 LP  0  0  0  0  0  0  0  0  0  0  0  0  # atno 17395 bound_to 11000

$$$$
