AV-unprocessed.smi:1958|AV-procd|sdf|7909|dock10
  -GOLD-   2272010 73D 1   1.00000     0.00000
 Structure written by MMmdl.
 48 49  0  0  0  0  0  0  0  0  2 V2000
  154.7084  137.9809  159.0000 C   0  0  0  0  0  0  0  0  0  0  0  0
  154.1547  138.6133  157.8598 O   0  0  0  0  0  0  0  0  0  0  0  0
  153.2999  137.7549  157.1241 C   0  0  0  0  0  0  0  0  0  0  0  0
  152.8394  138.4870  155.8552 C   0  0  0  0  0  0  0  0  0  0  0  0
  151.5221  138.0204  155.4118 N   0  0  0  0  0  0  0  0  0  0  0  0
  151.3984  136.6420  155.3693 N   0  0  0  0  0  0  0  0  0  0  0  0
  150.2826  136.1002  155.0016 C   0  0  0  0  0  0  0  0  0  0  0  0
  150.1094  134.6219  154.9502 C   0  0  0  0  0  0  0  0  0  0  0  0
  150.5476  133.8848  155.8346 O   0  0  0  0  0  0  0  0  0  0  0  0
  149.4533  134.1590  153.8700 N   0  0  0  0  0  0  0  0  0  0  0  0
  149.1741  132.7561  153.5740 C   0  0  0  0  0  0  0  0  0  0  0  0
  147.6964  132.5148  153.1676 C   0  0  1  0  0  0  0  0  0  0  0  0
  147.1601  133.7084  152.3384 C   0  0  0  0  0  0  0  0  0  0  0  0
  147.5548  131.1966  152.4635 N   0  3  0  0  0  0  0  0  0  0  0  0
  148.2106  130.0771  153.1948 C   0  0  0  0  0  0  0  0  0  0  0  0
  148.1141  128.7636  152.4022 C   0  0  0  0  0  0  0  0  0  0  0  0
  146.7495  128.4572  152.1611 O   0  0  0  0  0  0  0  0  0  0  0  0
  146.1263  129.4588  151.3720 C   0  0  0  0  0  0  0  0  0  0  0  0
  146.1601  130.8072  152.1124 C   0  0  0  0  0  0  0  0  0  0  0  0
  149.1448  136.9218  154.6249 C   0  0  0  0  0  0  0  0  0  0  0  0
  149.2844  138.2653  154.6604 C   0  0  0  0  0  0  0  0  0  0  0  0
  150.5368  138.9039  155.0684 C   0  0  0  0  0  0  0  0  0  0  0  0
  150.6920  140.1242  155.0981 O   0  0  0  0  0  0  0  0  0  0  0  0
  155.3521  138.6823  159.5308 H   0  0  0  0  0  0  0  0  0  0  0  0
  155.3118  137.1174  158.7175 H   0  0  0  0  0  0  0  0  0  0  0  0
  153.9279  137.6532  159.6877 H   0  0  0  0  0  0  0  0  0  0  0  0
  153.8281  136.8365  156.8634 H   0  0  0  0  0  0  0  0  0  0  0  0
  152.4370  137.4787  157.7323 H   0  0  0  0  0  0  0  0  0  0  0  0
  152.8054  139.5606  156.0500 H   0  0  0  0  0  0  0  0  0  0  0  0
  153.5773  138.3607  155.0611 H   0  0  0  0  0  0  0  0  0  0  0  0
  149.1282  134.8385  153.1969 H   0  0  0  0  0  0  0  0  0  0  0  0
  149.8377  132.3743  152.7965 H   0  0  0  0  0  0  0  0  0  0  0  0
  149.4302  132.2113  154.4805 H   0  0  0  0  0  0  0  0  0  0  0  0
  147.0932  132.4690  154.0759 H   0  0  0  0  0  0  0  0  0  0  0  0
  147.2925  134.6572  152.8572 H   0  0  0  0  0  0  0  0  0  0  0  0
  146.0889  133.6316  152.1530 H   0  0  0  0  0  0  0  0  0  0  0  0
  147.6706  133.7879  151.3781 H   0  0  0  0  0  0  0  0  0  0  0  0
  149.2630  130.2835  153.3773 H   0  0  0  0  0  0  0  0  0  0  0  0
  147.7385  129.9537  154.1707 H   0  0  0  0  0  0  0  0  0  0  0  0
  148.6609  128.8329  151.4602 H   0  0  0  0  0  0  0  0  0  0  0  0
  148.5623  127.9485  152.9705 H   0  0  0  0  0  0  0  0  0  0  0  0
  146.6200  129.5349  150.4018 H   0  0  0  0  0  0  0  0  0  0  0  0
  145.0945  129.1638  151.1795 H   0  0  0  0  0  0  0  0  0  0  0  0
  145.5553  130.7527  153.0190 H   0  0  0  0  0  0  0  0  0  0  0  0
  145.7023  131.5461  151.4557 H   0  0  0  0  0  0  0  0  0  0  0  0
  148.2088  136.4777  154.3188 H   0  0  0  0  0  0  0  0  0  0  0  0
  148.4478  138.8886  154.3806 H   0  0  0  0  0  0  0  0  0  0  0  0
  148.0404  131.2949  151.5831 H   0  0  0  0  0  0  0  0  0  0  0  0
  1  2  1  0  0  0  0
  1 24  1  0  0  0  0
  1 25  1  0  0  0  0
  1 26  1  0  0  0  0
  2  3  1  0  0  0  0
  3  4  1  0  0  0  0
  3 27  1  0  0  0  0
  3 28  1  0  0  0  0
  4  5  1  0  0  0  0
  4 29  1  0  0  0  0
  4 30  1  0  0  0  0
  5 22  1  0  0  0  0
  5  6  1  0  0  0  0
  6  7  2  0  0  0  0
  7  8  1  0  0  0  0
  7 20  1  0  0  0  0
  8  9  2  0  0  0  0
  8 10  1  0  0  0  0
 10 11  1  0  0  0  0
 10 31  1  0  0  0  0
 11 12  1  0  0  0  0
 11 32  1  0  0  0  0
 11 33  1  0  0  0  0
 12 13  1  0  0  0  0
 12 14  1  0  0  0  0
 12 34  1  0  0  0  0
 13 35  1  0  0  0  0
 13 36  1  0  0  0  0
 13 37  1  0  0  0  0
 14 19  1  0  0  0  0
 14 15  1  0  0  0  0
 14 48  1  0  0  0  0
 15 16  1  0  0  0  0
 15 38  1  0  0  0  0
 15 39  1  0  0  0  0
 16 17  1  0  0  0  0
 16 40  1  0  0  0  0
 16 41  1  0  0  0  0
 17 18  1  0  0  0  0
 18 19  1  0  0  0  0
 18 42  1  0  0  0  0
 18 43  1  0  0  0  0
 19 44  1  0  0  0  0
 19 45  1  0  0  0  0
 20 21  2  0  0  0  0
 20 46  1  0  0  0  0
 21 22  1  0  0  0  0
 21 47  1  0  0  0  0
 22 23  2  0  0  0  0
M  CHG  1  14   1
M  END
> <s_m_source_file>
AV-unprocessed.smi

> <i_m_source_file_index>
1958

> <i_lp_mmshare_version>
43012

> <i_f3d_flags>
0

> <s_epik_input>
W0NIM11PW0NIMl1bQ0gyXW4xbmMoW2NIXVtjSF1jMT1PKUMoPU8pW05IXVtDSDJdW0NASF0oW0NIM10pTjJbQ0gyXVtDSDJdT1tDSDJdW0NIMl0y

> <s_epik_cmdline>
J2VwaWtfcHl0aG9uJywgJy1waCcsICc3LjAnLCAnLXRuJywgJzgnLCAnLW1hJywgJzIwMCcsICctbWV0YWxfYmluZGluZycsICctaW1hZScsICc8aW5maWxlLm1hZT4nLCAnLW9tYWUnLCAnPG91dGZpbGUubWFlPic=

> <r_lp_tautomer_probability>
1

> <r_epik_Ionization_Penalty>
0.724355

> <r_epik_Ionization_Penalty_Charging>
0.724348

> <r_epik_Ionization_Penalty_Neutral>
6.31911e-06

> <r_epik_State_Penalty>
0.749058

> <r_epik_Charging_Adjusted_Penalty>
1.47341

> <i_epik_Tot_Q>
1

> <i_epik_Tot_abs_Q>
1

> <r_epik_Metal_State_Penalty>
0.750821

> <b_epik_Metal_Only>
0

> <s_lp_Force_Field>
OPLS_2005

> <r_lp_Energy>
42.169

> <b_lp_Chiralities_Consistent>
1

> <s_lp_Variant>
AV-unprocessed.smi:1958-4

> <Gold.Version>
5.8.1

> <Gold.Id.Protein>
6NUR|6NUR_protein|mol2

> <Gold.PLP.Fitness>
45.0634

> <Gold.PLP.PLP>
-33.6614

> <Gold.PLP.part.hbond>
-4.6432

> <Gold.PLP.part.metal>
0.0000

> <Gold.PLP.part.buried>
-3.2797

> <Gold.PLP.part.nonpolar>
-27.0931

> <Gold.PLP.part.repulsive>
0.2645

> <Gold.PLP.ligand.clash>
0.0000

> <Gold.PLP.ligand.torsion>
1.3206

> <Gold.PLP.Chemscore.Hbond>
4.6300

> <Gold.PLP.Chemscore.CHOScore>
0.0000

> <Gold.PLP.Chemscore.Metal>
0.0000

> <Gold.Chemscore.Hbonds>
donor molecule, donor type, donor heavy atom, donor atom, acceptor molecule, acceptor atom, score
      L1  H    10    31       P1  7948  0.65
      L1  H    14    48       P1 10747  1.00
      P1  H  7989  7998       L1    23  1.00
      P1  H  7997  8008       L1     2  0.93
      P1  H 10752 10765       L1     6  1.00

> <Gold.PLP.Chemscore.Internal.Correction>
0.1532

> <Gold.Rescore>
     Score         DG    S(hbond)    S(metal)    S(lipo)     H(rot)  DE(clash)    DE(int)     intcor
     18.98     -22.08       3.75        0.00      81.35       2.12       1.88       1.23       ----

> <Gold.Chemscore.Fitness>
18.9808

> <Gold.Chemscore.DG>
-22.0813

> <Gold.Chemscore.ZeroCoef>
-5.4800

> <Gold.Chemscore.Hbond>
3.7474

> <Gold.Chemscore.Metal>
0.0000

> <Gold.Chemscore.Lipo>
81.3474

> <Gold.Chemscore.Internal_Hbond>
0.0000

> <Gold.Chemscore.DEClash>
1.8750

> <Gold.Chemscore.DEInternal>
1.2256

> <Gold.Chemscore.Rot>
2.1221

> <Gold.Chemscore.Internal.Correction>
   9.000000E+99

> <Gold.Chemscore.Hbonds>
donor molecule, donor type, donor heavy atom, donor atom, acceptor molecule, acceptor atom, score
      L1  H    10    31       P1  7948  0.06
      L1  H    14    48       P1 10747  0.99
      P1  H  7989  7998       L1    23  0.84
      P1  H  7997  8008       L1     2  0.78
      P1  H 10752 10765       L1     6  0.75

> <Gold.Chemscore.Hbond.Weighted>
-12.5162

> <Gold.Chemscore.Metal.Weighted>
-0.0000

> <Gold.Chemscore.Lipo.Weighted>
-9.5176

> <Gold.Chemscore.Internal_Hbond.Weighted>
0.0000

> <Gold.Chemscore.DEClash.Weighted>
1.8750

> <Gold.Chemscore.DEInternal.Weighted>
1.2256

> <Gold.Chemscore.Rot.Weighted>
5.4325

> <Gold.Chemscore.Internal.Correction.Weighted>
   9.000000E+99

> <Gold.Protein.RotatedTorsions>
[ 6907 6896 6895 6894 ] final  132.98 input  -60.11 | X-H torsion
[ 7974 7965 7964 7962 ] final  164.59 input  175.53 | X-H torsion
[ 8008 7997 7996 7995 ] final  -83.39 input   59.86 | X-H torsion
[ 10167 10162 10161 10158 ] final -148.52 input  -65.29 | X-H torsion
[ 10718 10713 10712 10709 ] final   -3.40 input   66.30 | X-H torsion
[ 10763 10752 10751 10750 ] final -168.64 input  -60.55 | X-H torsion
[ 11005 11000 10999 10996 ] final -111.69 input  -57.11 | X-H torsion

> <Gold.Protein.ActiveResidues>
 VAL166  LYS551  ARG553  GLY616  TRP617  ASP618  TYR619  PRO620  LYS621  CYS622 
 ASP623  PHE694  ASN695  SER759  ASP760  ASP761  ALA762  ILE779  LEU786  VAL792 
 PHE793  MET794  SER795  GLU796  ALA797  LYS798  CYS799  TRP800  GLU811  SER814 

> <Gold.Protein.RotatedAtoms>
  152.3267  133.5913  159.5781 H   0  0  0  0  0  0  0  0  0  0  0  0  # atno 6907 bound_to 6896
  150.7401  133.9929  159.3622 H   0  0  0  0  0  0  0  0  0  0  0  0  # atno 6908 bound_to 6896
  151.7808  135.0762  160.0424 H   0  0  0  0  0  0  0  0  0  0  0  0  # atno 6909 bound_to 6896
  144.7538  139.8348  143.6357 H   0  0  0  0  0  0  0  0  0  0  0  0  # atno 7974 bound_to 7965
  154.6186  140.0619  156.9586 H   0  0  0  0  0  0  0  0  0  0  0  0  # atno 8008 bound_to 7997
  155.1855  140.3303  155.4349 H   0  0  0  0  0  0  0  0  0  0  0  0  # atno 8009 bound_to 7997
  156.2418  140.1890  156.6948 H   0  0  0  0  0  0  0  0  0  0  0  0  # atno 8010 bound_to 7997
  139.7524  143.8498  152.2589 H   0  0  0  0  0  0  0  0  0  0  0  0  # atno 10167 bound_to 10162
  156.7766  130.5317  149.5758 H   0  0  0  0  0  0  0  0  0  0  0  0  # atno 10718 bound_to 10713
  154.6608  135.2924  154.9869 H   0  0  0  0  0  0  0  0  0  0  0  0  # atno 10763 bound_to 10752
  154.0930  135.6588  153.4859 H   0  0  0  0  0  0  0  0  0  0  0  0  # atno 10764 bound_to 10752
  153.0428  135.5224  154.7558 H   0  0  0  0  0  0  0  0  0  0  0  0  # atno 10765 bound_to 10752
  141.0719  133.9365  157.2467 H   0  0  0  0  0  0  0  0  0  0  0  0  # atno 11005 bound_to 11000
  146.1524  139.4611  143.0040 LP  0  0  0  0  0  0  0  0  0  0  0  0  # atno 17320 bound_to 7965
  145.6849  141.0181  143.1586 LP  0  0  0  0  0  0  0  0  0  0  0  0  # atno 17321 bound_to 7965
  139.8480  144.7178  150.9249 LP  0  0  0  0  0  0  0  0  0  0  0  0  # atno 17342 bound_to 10162
  140.7799  143.3924  151.1287 LP  0  0  0  0  0  0  0  0  0  0  0  0  # atno 17343 bound_to 10162
  156.1244  130.6133  151.0241 LP  0  0  0  0  0  0  0  0  0  0  0  0  # atno 17370 bound_to 10713
  157.6666  131.0870  150.7714 LP  0  0  0  0  0  0  0  0  0  0  0  0  # atno 17371 bound_to 10713
  139.9532  135.0171  156.9054 LP  0  0  0  0  0  0  0  0  0  0  0  0  # atno 17394 bound_to 11000
  140.5655  134.0494  155.7413 LP  0  0  0  0  0  0  0  0  0  0  0  0  # atno 17395 bound_to 11000

$$$$
