AV-unprocessed.smi:3168|AV-procd|sdf|12102|dock4
  -GOLD-   2272017533D 1   1.00000     0.00000
 Structure written by MMmdl.
 33 34  0  0  0  0  0  0  0  0  1 V2000
  153.5597  141.5110  160.4878 C   0  0  0  0  0  0  0  0  0  0  0  0
  152.8116  142.1430  159.2959 C   0  0  1  0  0  0  0  0  0  0  0  0
  151.8170  141.1774  158.6246 C   0  0  0  0  0  0  0  0  0  0  0  0
  151.7708  139.9910  158.9521 O   0  0  0  0  0  0  0  0  0  0  0  0
  151.0323  141.6987  157.6675 N   0  0  0  0  0  0  0  0  0  0  0  0
  150.0365  140.9601  156.9008 C   0  0  0  0  0  0  0  0  0  0  0  0
  150.5824  140.5383  155.5271 C   0  0  1  0  0  0  0  0  0  0  0  0
  151.8249  139.6540  155.6061 C   0  0  0  0  0  0  0  0  0  0  0  0
  151.7646  138.9275  154.2821 C   0  0  0  0  0  0  0  0  0  0  0  0
  150.2652  138.6907  154.1245 C   0  0  0  0  0  0  0  0  0  0  0  0
  149.6217  139.7532  154.8240 O   0  0  0  0  0  0  0  0  0  0  0  0
  152.1554  143.3909  159.6729 N   0  0  0  0  0  0  0  0  0  0  0  0
  152.3652  144.6513  159.1509 C   0  0  0  0  0  0  0  0  0  0  0  0
  151.5070  145.5055  159.7818 C   0  0  0  0  0  0  0  0  0  0  0  0
  150.7953  144.6651  160.6820 C   0  0  0  0  0  0  0  0  0  0  0  0
  151.1802  143.4015  160.6115 N   0  0  0  0  0  0  0  0  0  0  0  0
  154.1243  140.6307  160.1789 H   0  0  0  0  0  0  0  0  0  0  0  0
  152.8773  141.2048  161.2818 H   0  0  0  0  0  0  0  0  0  0  0  0
  154.2698  142.2177  160.9183 H   0  0  0  0  0  0  0  0  0  0  0  0
  153.5595  142.3901  158.5409 H   0  0  0  0  0  0  0  0  0  0  0  0
  151.1339  142.6801  157.4535 H   0  0  0  0  0  0  0  0  0  0  0  0
  149.7081  140.0840  157.4626 H   0  0  0  0  0  0  0  0  0  0  0  0
  149.1588  141.5947  156.7768 H   0  0  0  0  0  0  0  0  0  0  0  0
  150.8123  141.4155  154.9197 H   0  0  0  0  0  0  0  0  0  0  0  0
  152.7448  140.2237  155.7414 H   0  0  0  0  0  0  0  0  0  0  0  0
  151.7402  138.9399  156.4266 H   0  0  0  0  0  0  0  0  0  0  0  0
  152.1299  139.5746  153.4832 H   0  0  0  0  0  0  0  0  0  0  0  0
  152.3461  138.0054  154.2699 H   0  0  0  0  0  0  0  0  0  0  0  0
  149.9587  138.6596  153.0789 H   0  0  0  0  0  0  0  0  0  0  0  0
  149.9773  137.7474  154.5897 H   0  0  0  0  0  0  0  0  0  0  0  0
  153.0996  144.8339  158.3802 H   0  0  0  0  0  0  0  0  0  0  0  0
  151.4013  146.5682  159.6220 H   0  0  0  0  0  0  0  0  0  0  0  0
  150.0129  144.9325  161.3769 H   0  0  0  0  0  0  0  0  0  0  0  0
  1  2  1  0  0  0  0
  1 17  1  0  0  0  0
  1 18  1  0  0  0  0
  1 19  1  0  0  0  0
  2  3  1  0  0  0  0
  2 12  1  0  0  0  0
  2 20  1  0  0  0  0
  3  4  2  0  0  0  0
  3  5  1  0  0  0  0
  5  6  1  0  0  0  0
  5 21  1  0  0  0  0
  6  7  1  0  0  0  0
  6 22  1  0  0  0  0
  6 23  1  0  0  0  0
  7 11  1  0  0  0  0
  7  8  1  0  0  0  0
  7 24  1  0  0  0  0
  8  9  1  0  0  0  0
  8 25  1  0  0  0  0
  8 26  1  0  0  0  0
  9 10  1  0  0  0  0
  9 27  1  0  0  0  0
  9 28  1  0  0  0  0
 10 11  1  0  0  0  0
 10 29  1  0  0  0  0
 10 30  1  0  0  0  0
 12 16  1  0  0  0  0
 12 13  1  0  0  0  0
 13 14  2  0  0  0  0
 13 31  1  0  0  0  0
 14 15  1  0  0  0  0
 14 32  1  0  0  0  0
 15 16  2  0  0  0  0
 15 33  1  0  0  0  0
M  END
> <s_m_source_file>
AV-unprocessed.smi

> <i_m_source_file_index>
3168

> <i_lp_mmshare_version>
43012

> <i_f3d_flags>
0

> <s_epik_input>
bjFbY0hdW2NIXVtjSF1uMVtDQEhdKFtDSDNdKUMoPU8pW05IXVtDSDJdW0NAQEhdMltDSDJdW0NIMl1bQ0gyXU8y

> <s_epik_cmdline>
J2VwaWtfcHl0aG9uJywgJy1waCcsICc3LjAnLCAnLXRuJywgJzgnLCAnLW1hJywgJzIwMCcsICctbWV0YWxfYmluZGluZycsICctaW1hZScsICc8aW5maWxlLm1hZT4nLCAnLW9tYWUnLCAnPG91dGZpbGUubWFlPic=

> <r_lp_tautomer_probability>
1

> <r_epik_Ionization_Penalty>
4.14877e-05

> <r_epik_Ionization_Penalty_Charging>
0

> <r_epik_Ionization_Penalty_Neutral>
4.14877e-05

> <r_epik_State_Penalty>
-0

> <r_epik_Charging_Adjusted_Penalty>
0

> <i_epik_Tot_Q>
0

> <i_epik_Tot_abs_Q>
0

> <r_epik_Metal_State_Penalty>
-0

> <b_epik_Metal_Only>
0

> <s_lp_Force_Field>
OPLS_2005

> <r_lp_Energy>
21.2002

> <b_lp_Chiralities_Consistent>
1

> <s_lp_Variant>
AV-unprocessed.smi:3168-4

> <Gold.Version>
5.8.1

> <Gold.Id.Protein>
6NUR|6NUR_protein|mol2

> <Gold.PLP.Fitness>
38.9556

> <Gold.PLP.PLP>
-39.6411

> <Gold.PLP.part.hbond>
-0.6929

> <Gold.PLP.part.metal>
0.0000

> <Gold.PLP.part.buried>
-4.1291

> <Gold.PLP.part.nonpolar>
-35.1068

> <Gold.PLP.part.repulsive>
0.2325

> <Gold.PLP.ligand.clash>
0.0000

> <Gold.PLP.ligand.torsion>
0.3975

> <Gold.PLP.Chemscore.Hbond>
0.0000

> <Gold.PLP.Chemscore.CHOScore>
0.0000

> <Gold.PLP.Chemscore.Metal>
0.0000

> <Gold.PLP.Chemscore.Internal.Correction>
0.1095

> <Gold.Rescore>
     Score         DG    S(hbond)    S(metal)    S(lipo)     H(rot)  DE(clash)    DE(int)     intcor
     12.04     -12.35       0.00        0.00      93.92       1.61       0.03       0.28       ----

> <Gold.Chemscore.Fitness>
12.0354

> <Gold.Chemscore.DG>
-12.3487

> <Gold.Chemscore.ZeroCoef>
-5.4800

> <Gold.Chemscore.Hbond>
0.0000

> <Gold.Chemscore.Metal>
0.0000

> <Gold.Chemscore.Lipo>
93.9211

> <Gold.Chemscore.Internal_Hbond>
0.0000

> <Gold.Chemscore.DEClash>
0.0343

> <Gold.Chemscore.DEInternal>
0.2789

> <Gold.Chemscore.Rot>
1.6094

> <Gold.Chemscore.Internal.Correction>
   9.000000E+99

> <Gold.Chemscore.Hbond.Weighted>
-0.0000

> <Gold.Chemscore.Metal.Weighted>
-0.0000

> <Gold.Chemscore.Lipo.Weighted>
-10.9888

> <Gold.Chemscore.Internal_Hbond.Weighted>
0.0000

> <Gold.Chemscore.DEClash.Weighted>
0.0343

> <Gold.Chemscore.DEInternal.Weighted>
0.2789

> <Gold.Chemscore.Rot.Weighted>
4.1201

> <Gold.Chemscore.Internal.Correction.Weighted>
   9.000000E+99

> <Gold.Protein.RotatedTorsions>
[ 6907 6896 6895 6894 ] final   19.84 input  -60.11 | X-H torsion
[ 7974 7965 7964 7962 ] final   89.79 input  175.53 | X-H torsion
[ 8008 7997 7996 7995 ] final   64.74 input   59.86 | X-H torsion
[ 10167 10162 10161 10158 ] final   59.37 input  -65.29 | X-H torsion
[ 10718 10713 10712 10709 ] final   71.66 input   66.30 | X-H torsion
[ 10763 10752 10751 10750 ] final   67.10 input  -60.55 | X-H torsion
[ 11005 11000 10999 10996 ] final   98.80 input  -57.11 | X-H torsion

> <Gold.Protein.ActiveResidues>
 VAL166  LYS551  ARG553  GLY616  TRP617  ASP618  TYR619  PRO620  LYS621  CYS622 
 ASP623  PHE694  ASN695  SER759  ASP760  ASP761  ALA762  ILE779  LEU786  VAL792 
 PHE793  MET794  SER795  GLU796  ALA797  LYS798  CYS799  TRP800  GLU811  SER814 

> <Gold.Protein.RotatedAtoms>
  151.8871  135.0431  160.0494 H   0  0  0  0  0  0  0  0  0  0  0  0  # atno 6907 bound_to 6896
  152.2466  133.5175  159.5309 H   0  0  0  0  0  0  0  0  0  0  0  0  # atno 6908 bound_to 6896
  150.7070  134.0934  159.3982 H   0  0  0  0  0  0  0  0  0  0  0  0  # atno 6909 bound_to 6896
  145.5277  139.2282  143.2636 H   0  0  0  0  0  0  0  0  0  0  0  0  # atno 7974 bound_to 7965
  155.6507  140.3497  155.4747 H   0  0  0  0  0  0  0  0  0  0  0  0  # atno 8008 bound_to 7997
  155.9850  140.1182  157.0715 H   0  0  0  0  0  0  0  0  0  0  0  0  # atno 8009 bound_to 7997
  154.4202  140.1131  156.5473 H   0  0  0  0  0  0  0  0  0  0  0  0  # atno 8010 bound_to 7997
  140.1771  144.4219  150.6633 H   0  0  0  0  0  0  0  0  0  0  0  0  # atno 10167 bound_to 10162
  157.6463  130.9540  150.0821 H   0  0  0  0  0  0  0  0  0  0  0  0  # atno 10718 bound_to 10713
  153.0170  135.5296  154.6927 H   0  0  0  0  0  0  0  0  0  0  0  0  # atno 10763 bound_to 10752
  154.6057  135.2873  155.0489 H   0  0  0  0  0  0  0  0  0  0  0  0  # atno 10764 bound_to 10752
  154.1529  135.6560  153.5020 H   0  0  0  0  0  0  0  0  0  0  0  0  # atno 10765 bound_to 10752
  139.8771  134.9066  156.4510 H   0  0  0  0  0  0  0  0  0  0  0  0  # atno 11005 bound_to 11000
  146.2065  140.6092  142.9079 LP  0  0  0  0  0  0  0  0  0  0  0  0  # atno 17320 bound_to 7965
  144.7642  140.5493  143.6714 LP  0  0  0  0  0  0  0  0  0  0  0  0  # atno 17321 bound_to 7965
  140.6544  143.2233  151.6003 LP  0  0  0  0  0  0  0  0  0  0  0  0  # atno 17342 bound_to 10162
  139.5312  144.2910  152.1152 LP  0  0  0  0  0  0  0  0  0  0  0  0  # atno 17343 bound_to 10162
  156.1794  130.3649  149.9056 LP  0  0  0  0  0  0  0  0  0  0  0  0  # atno 17370 bound_to 10713
  156.7012  130.8934  151.3599 LP  0  0  0  0  0  0  0  0  0  0  0  0  # atno 17371 bound_to 10713
  140.8931  133.7833  155.9595 LP  0  0  0  0  0  0  0  0  0  0  0  0  # atno 17394 bound_to 11000
  140.8731  134.2702  157.5181 LP  0  0  0  0  0  0  0  0  0  0  0  0  # atno 17395 bound_to 11000

$$$$
