#       Name:                AV-unprocessed.smi:1965
#       Creating user name   scv26
#       Creation time:       Fri Mar 27 10:10:32 2020


#       File generated by GOLD software.
#

@<TRIPOS>MOLECULE
AV-unprocessed.smi:1965
    40    42     1
SMALL
NO_CHARGES


@<TRIPOS>ATOM
      1 ****        -1.9728  -2.3784  -0.0062 O.2            1 S1                 0.0000
      2 ****        -0.8059  -2.3712  -0.3939 C.2            1 S1                 0.0000
      3 ****        -0.0672  -3.5013  -0.4005 N.am           1 S1                 0.0000
      4 ****        -0.3790  -4.8389  -0.0186 C.2            1 S1                 0.0000
      5 ****        -1.5659  -5.2569   0.4399 N.2            1 S1                 0.0000
      6 ****        -1.5707  -6.6245   0.7259 C.2            1 S1                 0.0000
      7 ****        -0.3705  -7.2406   0.4751 C.2            1 S1                 0.0000
      8 ****         0.8193  -6.1206  -0.1318 S.3            1 S1                 0.0000
      9 ****        -0.1944  -1.2570  -0.8276 N.am           1 S1                 0.0000
     10 ****        -0.7938   0.0716  -0.8935 C.3            1 S1                 0.0000
     11 ****        -0.1746   0.9521  -1.9935 C.3            1 S1                 0.0000
     12 ****        -0.1086   2.3704  -1.3935 C.3            1 S1                 0.0000
     13 ****        -0.7626   2.2678  -0.0751 N.4            1 S1                 1.0000
     14 ****        -0.3886   3.2739   0.9426 C.3            1 S1                 0.0000
     15 ****        -1.2356   3.0517   2.2117 C.3            1 S1                 0.0000
     16 ****        -1.1380   1.5979   2.7171 C.3            1 S1                 0.0000
     17 ****        -1.4457   0.5942   1.5890 C.3            1 S1                 0.0000
     18 ****        -0.5430   0.8860   0.3780 C.3            1 S1                 0.0000
     19 ****         0.8697  -3.3824  -0.7580 H              1 S1                 0.0000
     20 ****        -2.4740  -7.0795   1.1045 H              1 S1                 0.0000
     21 ****        -0.1153  -8.2813   0.6099 H              1 S1                 0.0000
     22 ****         0.7661  -1.3407  -1.1298 H              1 S1                 0.0000
     23 ****        -1.8683   0.0003  -1.0756 H              1 S1                 0.0000
     24 ****         0.8301   0.6163  -2.2554 H              1 S1                 0.0000
     25 ****        -0.7760   0.9232  -2.9027 H              1 S1                 0.0000
     26 ****         0.9317   2.6770  -1.2737 H              1 S1                 0.0000
     27 ****        -0.6105   3.1105  -2.0173 H              1 S1                 0.0000
     28 ****         0.6749   3.1926   1.1729 H              1 S1                 0.0000
     29 ****        -0.5584   4.2759   0.5472 H              1 S1                 0.0000
     30 ****        -0.9223   3.7415   2.9958 H              1 S1                 0.0000
     31 ****        -2.2785   3.2865   1.9945 H              1 S1                 0.0000
     32 ****        -0.1332   1.4148   3.1001 H              1 S1                 0.0000
     33 ****        -1.8205   1.4438   3.5535 H              1 S1                 0.0000
     34 ****        -1.2869  -0.4235   1.9463 H              1 S1                 0.0000
     35 ****        -2.4957   0.6661   1.3024 H              1 S1                 0.0000
     36 ****         0.5042   0.7787   0.6713 H              1 S1                 0.0000
     37 ****        -1.7550   2.3589  -0.2389 H              1 S1                 0.0000
     38 ****        -2.3891  -3.2305   0.3109 LP             1 S1                 0.0000
     39 ****        -2.5055  -1.5321  -0.0081 LP             1 S1                 0.0000
     40 ****        -2.3578  -4.6588   0.5634 LP             1 S1                 0.0000
@<TRIPOS>BOND
    1    1    2 2     
    2    2    3 am    
    3    2    9 am    
    4    3    4 1     
    5    3   19 1     
    6    4    8 1     
    7    4    5 2     
    8    5    6 1     
    9    6    7 2     
   10    6   20 1     
   11    7    8 1     
   12    7   21 1     
   13    9   10 1     
   14    9   22 1     
   15   10   18 1     
   16   10   11 1     
   17   10   23 1     
   18   11   12 1     
   19   11   24 1     
   20   11   25 1     
   21   12   13 1     
   22   12   26 1     
   23   12   27 1     
   24   13   18 1     
   25   13   14 1     
   26   13   37 1     
   27   14   15 1     
   28   14   28 1     
   29   14   29 1     
   30   15   16 1     
   31   15   30 1     
   32   15   31 1     
   33   16   17 1     
   34   16   32 1     
   35   16   33 1     
   36   17   18 1     
   37   17   34 1     
   38   17   35 1     
   39   18   36 1     
   40    1   38 1     
   41    1   39 1     
   42    5   40 1     
@<TRIPOS>SUBSTRUCTURE
      1 S1             1
@<TRIPOS>SET
LONE_PAIRS      STATIC     ATOMS    <user>   **** ""
3 38 39 40
DONOR_HYDROGENS      STATIC     ATOMS    <user>   **** ""
3 19 22 37
ATOM$BLUE        STATIC     ATOMS    COLORGROUP SYSTEM
3 38 39 40
ATOM$RED        STATIC     ATOMS    COLORGROUP SYSTEM
3 19 22 37
