AV-unprocessed.smi:1637|AV-procd|sdf|6544|dock3
  -GOLD-   22720 7223D 1   1.00000     0.00000
 Structure written by MMmdl.
 38 39  0  0  0  0  0  0  0  0  1 V2000
  152.7854  130.9328  157.5845 C   0  0  0  0  0  0  0  0  0  0  0  0
  152.5912  132.3359  157.4442 O   0  0  0  0  0  0  0  0  0  0  0  0
  151.6692  132.7801  156.5186 C   0  0  0  0  0  0  0  0  0  0  0  0
  151.4886  134.1685  156.3597 C   0  0  0  0  0  0  0  0  0  0  0  0
  150.5469  134.6306  155.4202 C   0  0  0  0  0  0  0  0  0  0  0  0
  149.8076  133.6842  154.6714 C   0  0  0  0  0  0  0  0  0  0  0  0
  148.8437  134.0229  153.6841 N   0  0  0  0  0  0  0  0  0  0  0  0
  147.7662  133.3210  153.2940 C   0  0  0  0  0  0  0  0  0  0  0  0
  147.4316  132.2237  153.7399 O   0  0  0  0  0  0  0  0  0  0  0  0
  147.0970  133.9623  152.3254 N   0  0  0  0  0  0  0  0  0  0  0  0
  145.8761  133.4892  151.6730 C   0  0  2  0  0  0  0  0  0  0  0  0
  146.2167  132.6665  150.4035 C   0  0  0  0  0  0  0  0  0  0  0  0
  145.1215  132.6076  149.3180 C   0  0  0  0  0  0  0  0  0  0  0  0
  143.7338  132.1375  149.7991 C   0  0  0  0  0  0  0  0  0  0  0  0
  143.1068  132.9159  150.9802 C   0  0  0  0  0  0  0  0  0  0  0  0
  143.5996  134.2845  151.1311 N   0  0  0  0  0  0  0  0  0  0  0  0
  144.8550  134.6252  151.4703 C   0  0  0  0  0  0  0  0  0  0  0  0
  145.1893  135.8027  151.5954 O   0  0  0  0  0  0  0  0  0  0  0  0
  150.0757  132.3177  154.8933 C   0  0  0  0  0  0  0  0  0  0  0  0
  150.9750  131.8682  155.7937 N   0  0  0  0  0  0  0  0  0  0  0  0
  153.5438  130.7476  158.3448 H   0  0  0  0  0  0  0  0  0  0  0  0
  153.1336  130.4826  156.6538 H   0  0  0  0  0  0  0  0  0  0  0  0
  151.8690  130.4338  157.9030 H   0  0  0  0  0  0  0  0  0  0  0  0
  152.0651  134.8684  156.9464 H   0  0  0  0  0  0  0  0  0  0  0  0
  150.4224  135.6938  155.2850 H   0  0  0  0  0  0  0  0  0  0  0  0
  149.0323  134.8697  153.1677 H   0  0  0  0  0  0  0  0  0  0  0  0
  147.4452  134.8603  152.0220 H   0  0  0  0  0  0  0  0  0  0  0  0
  145.4030  132.8095  152.3830 H   0  0  0  0  0  0  0  0  0  0  0  0
  147.1149  133.0752  149.9384 H   0  0  0  0  0  0  0  0  0  0  0  0
  146.4791  131.6511  150.7028 H   0  0  0  0  0  0  0  0  0  0  0  0
  145.0264  133.5865  148.8460 H   0  0  0  0  0  0  0  0  0  0  0  0
  145.4576  131.9429  148.5216 H   0  0  0  0  0  0  0  0  0  0  0  0
  143.0536  132.2000  148.9490 H   0  0  0  0  0  0  0  0  0  0  0  0
  143.7769  131.0792  150.0584 H   0  0  0  0  0  0  0  0  0  0  0  0
  142.0243  132.9530  150.8564 H   0  0  0  0  0  0  0  0  0  0  0  0
  143.2690  132.3738  151.9125 H   0  0  0  0  0  0  0  0  0  0  0  0
  142.9330  135.0286  150.9837 H   0  0  0  0  0  0  0  0  0  0  0  0
  149.5479  131.5582  154.3354 H   0  0  0  0  0  0  0  0  0  0  0  0
  1  2  1  0  0  0  0
  1 21  1  0  0  0  0
  1 22  1  0  0  0  0
  1 23  1  0  0  0  0
  2  3  1  0  0  0  0
  3 20  1  0  0  0  0
  3  4  2  0  0  0  0
  4  5  1  0  0  0  0
  4 24  1  0  0  0  0
  5  6  2  0  0  0  0
  5 25  1  0  0  0  0
  6  7  1  0  0  0  0
  6 19  1  0  0  0  0
  7  8  1  0  0  0  0
  7 26  1  0  0  0  0
  8  9  2  0  0  0  0
  8 10  1  0  0  0  0
 10 11  1  0  0  0  0
 10 27  1  0  0  0  0
 11 17  1  0  0  0  0
 11 12  1  0  0  0  0
 11 28  1  0  0  0  0
 12 13  1  0  0  0  0
 12 29  1  0  0  0  0
 12 30  1  0  0  0  0
 13 14  1  0  0  0  0
 13 31  1  0  0  0  0
 13 32  1  0  0  0  0
 14 15  1  0  0  0  0
 14 33  1  0  0  0  0
 14 34  1  0  0  0  0
 15 16  1  0  0  0  0
 15 35  1  0  0  0  0
 15 36  1  0  0  0  0
 16 17  1  0  0  0  0
 16 37  1  0  0  0  0
 17 18  2  0  0  0  0
 19 20  2  0  0  0  0
 19 38  1  0  0  0  0
M  END
> <s_m_source_file>
AV-unprocessed.smi

> <i_m_source_file_index>
1637

> <i_lp_mmshare_version>
43012

> <i_f3d_flags>
0

> <s_epik_input>
W0NIM11PYzFbY0hdW2NIXWMoW2NIXW4xKVtOSF1DKD1PKVtOSF1bQ0BASF0yW0NIMl1bQ0gyXVtDSDJdW0NIMl1bTkhdQzI9Tw==

> <s_epik_cmdline>
J2VwaWtfcHl0aG9uJywgJy1waCcsICc3LjAnLCAnLXRuJywgJzgnLCAnLW1hJywgJzIwMCcsICctbWV0YWxfYmluZGluZycsICctaW1hZScsICc8aW5maWxlLm1hZT4nLCAnLW9tYWUnLCAnPG91dGZpbGUubWFlPic=

> <r_lp_tautomer_probability>
1

> <r_epik_Ionization_Penalty>
8.30847e-05

> <r_epik_Ionization_Penalty_Charging>
0

> <r_epik_Ionization_Penalty_Neutral>
8.30847e-05

> <r_epik_State_Penalty>
-0

> <r_epik_Charging_Adjusted_Penalty>
0

> <i_epik_Tot_Q>
0

> <i_epik_Tot_abs_Q>
0

> <r_epik_Metal_State_Penalty>
-0

> <b_epik_Metal_Only>
0

> <s_lp_Force_Field>
OPLS_2005

> <r_lp_Energy>
17.0101

> <b_lp_Chiralities_Consistent>
1

> <s_lp_Variant>
AV-unprocessed.smi:1637-1

> <Gold.Version>
5.8.1

> <Gold.Id.Protein>
6NUR|6NUR_protein|mol2

> <Gold.PLP.Fitness>
39.1291

> <Gold.PLP.PLP>
-31.3105

> <Gold.PLP.part.hbond>
-4.0000

> <Gold.PLP.part.metal>
0.0000

> <Gold.PLP.part.buried>
-1.3803

> <Gold.PLP.part.nonpolar>
-26.8587

> <Gold.PLP.part.repulsive>
0.2812

> <Gold.PLP.ligand.clash>
0.0000

> <Gold.PLP.ligand.torsion>
0.4861

> <Gold.PLP.Chemscore.Hbond>
2.9120

> <Gold.PLP.Chemscore.CHOScore>
0.0000

> <Gold.PLP.Chemscore.Metal>
0.0000

> <Gold.Chemscore.Hbonds>
donor molecule, donor type, donor heavy atom, donor atom, acceptor molecule, acceptor atom, score
      L1  H     7    26       P1  7948  0.80
      L1  H    10    27       P1  7948  1.00
      P1  H  6896  6907       L1     2  0.47

> <Gold.PLP.Chemscore.Internal.Correction>
0.0548

> <Gold.Rescore>
     Score         DG    S(hbond)    S(metal)    S(lipo)     H(rot)  DE(clash)    DE(int)     intcor
     13.72     -16.81       1.81        0.00      73.91       1.31       1.30       1.78       ----

> <Gold.Chemscore.Fitness>
13.7235

> <Gold.Chemscore.DG>
-16.8057

> <Gold.Chemscore.ZeroCoef>
-5.4800

> <Gold.Chemscore.Hbond>
1.8051

> <Gold.Chemscore.Metal>
0.0000

> <Gold.Chemscore.Lipo>
73.9106

> <Gold.Chemscore.Internal_Hbond>
0.0000

> <Gold.Chemscore.DEClash>
1.3044

> <Gold.Chemscore.DEInternal>
1.7777

> <Gold.Chemscore.Rot>
1.3090

> <Gold.Chemscore.Internal.Correction>
   9.000000E+99

> <Gold.Chemscore.Hbonds>
donor molecule, donor type, donor heavy atom, donor atom, acceptor molecule, acceptor atom, score
      L1  H     7    26       P1  7948  0.12
      L1  H    10    27       P1  7948  0.78
      P1  H  6896  6907       L1     2  0.20

> <Gold.Chemscore.Hbond.Weighted>
-6.0291

> <Gold.Chemscore.Metal.Weighted>
-0.0000

> <Gold.Chemscore.Lipo.Weighted>
-8.6475

> <Gold.Chemscore.Internal_Hbond.Weighted>
0.0000

> <Gold.Chemscore.DEClash.Weighted>
1.3044

> <Gold.Chemscore.DEInternal.Weighted>
1.7777

> <Gold.Chemscore.Rot.Weighted>
3.3509

> <Gold.Chemscore.Internal.Correction.Weighted>
   9.000000E+99

> <Gold.Protein.RotatedTorsions>
[ 6907 6896 6895 6894 ] final  159.20 input  -60.11 | X-H torsion
[ 7974 7965 7964 7962 ] final  120.56 input  175.53 | X-H torsion
[ 8008 7997 7996 7995 ] final   87.30 input   59.86 | X-H torsion
[ 10167 10162 10161 10158 ] final  143.84 input  -65.29 | X-H torsion
[ 10718 10713 10712 10709 ] final   76.14 input   66.30 | X-H torsion
[ 10763 10752 10751 10750 ] final   97.01 input  -60.55 | X-H torsion
[ 11005 11000 10999 10996 ] final  146.58 input  -57.11 | X-H torsion

> <Gold.Protein.ActiveResidues>
 VAL166  LYS551  ARG553  GLY616  TRP617  ASP618  TYR619  PRO620  LYS621  CYS622 
 ASP623  PHE694  ASN695  SER759  ASP760  ASP761  ALA762  ILE779  LEU786  VAL792 
 PHE793  MET794  SER795  GLU796  ALA797  LYS798  CYS799  TRP800  GLU811  SER814 

> <Gold.Protein.RotatedAtoms>
  151.9891  133.3784  159.4136 H   0  0  0  0  0  0  0  0  0  0  0  0  # atno 6907 bound_to 6896
  150.6924  134.3956  159.5105 H   0  0  0  0  0  0  0  0  0  0  0  0  # atno 6908 bound_to 6896
  152.1687  134.8852  160.0587 H   0  0  0  0  0  0  0  0  0  0  0  0  # atno 6909 bound_to 6896
  145.1297  139.3335  143.4671 H   0  0  0  0  0  0  0  0  0  0  0  0  # atno 7974 bound_to 7965
  155.9737  140.3383  155.6599 H   0  0  0  0  0  0  0  0  0  0  0  0  # atno 8008 bound_to 7997
  155.6641  140.0719  157.2562 H   0  0  0  0  0  0  0  0  0  0  0  0  # atno 8009 bound_to 7997
  154.4173  140.1703  156.1796 H   0  0  0  0  0  0  0  0  0  0  0  0  # atno 8010 bound_to 7997
  139.4960  144.6013  151.6475 H   0  0  0  0  0  0  0  0  0  0  0  0  # atno 10167 bound_to 10162
  157.6662  130.9760  150.1455 H   0  0  0  0  0  0  0  0  0  0  0  0  # atno 10718 bound_to 10713
  153.2718  135.4198  155.0995 H   0  0  0  0  0  0  0  0  0  0  0  0  # atno 10763 bound_to 10752
  154.8458  135.3474  154.6234 H   0  0  0  0  0  0  0  0  0  0  0  0  # atno 10764 bound_to 10752
  153.6654  135.7046  153.5221 H   0  0  0  0  0  0  0  0  0  0  0  0  # atno 10765 bound_to 10752
  140.0805  134.9100  157.1493 H   0  0  0  0  0  0  0  0  0  0  0  0  # atno 11005 bound_to 11000
  146.3515  140.1291  142.8597 LP  0  0  0  0  0  0  0  0  0  0  0  0  # atno 17320 bound_to 7965
  145.0648  140.9114  143.4917 LP  0  0  0  0  0  0  0  0  0  0  0  0  # atno 17321 bound_to 7965
  140.5663  144.0184  150.6194 LP  0  0  0  0  0  0  0  0  0  0  0  0  # atno 17342 bound_to 10162
  140.3287  143.3091  152.0710 LP  0  0  0  0  0  0  0  0  0  0  0  0  # atno 17343 bound_to 10162
  156.2267  130.3678  149.8492 LP  0  0  0  0  0  0  0  0  0  0  0  0  # atno 17370 bound_to 10713
  156.6331  130.8674  151.3499 LP  0  0  0  0  0  0  0  0  0  0  0  0  # atno 17371 bound_to 10713
  140.3494  134.2615  155.7200 LP  0  0  0  0  0  0  0  0  0  0  0  0  # atno 17394 bound_to 11000
  141.2045  133.7885  157.0284 LP  0  0  0  0  0  0  0  0  0  0  0  0  # atno 17395 bound_to 11000

$$$$
