AV-unprocessed.smi:1762|AV-procd|sdf|7125|dock9
  -GOLD-   22720 8363D 1   1.00000     0.00000
 Structure written by MMmdl.
 52 53  0  0  0  0  0  0  0  0  3 V2000
  146.4903  132.0782  151.9765 C   0  0  0  0  0  0  0  0  0  0  0  0
  146.9677  133.4371  152.5008 C   0  0  2  0  0  0  0  0  0  0  0  0
  148.2198  133.3106  153.3854 C   0  0  0  0  0  0  0  0  0  0  0  0
  148.6347  134.6359  153.9315 N   0  3  2  0  0  0  0  0  0  0  0  0
  149.8990  134.5705  154.7414 C   0  0  1  0  0  0  0  0  0  0  0  0
  150.2755  135.9697  155.2873 C   0  0  0  0  0  0  0  0  0  0  0  0
  149.5011  136.5239  156.0752 O   0  0  0  0  0  0  0  0  0  0  0  0
  151.4480  136.4113  154.7532 N   0  5  0  0  0  0  0  0  0  0  0  0
  151.8559  137.8148  154.7261 C   0  0  0  0  0  0  0  0  0  0  0  0
  150.6120  138.7325  154.6740 C   0  0  0  0  0  0  0  0  0  0  0  0
  150.6898  139.9470  155.5932 C   0  0  0  0  0  0  0  0  0  0  0  0
  151.0550  139.7984  156.9506 C   0  0  0  0  0  0  0  0  0  0  0  0
  151.1244  140.9480  157.7608 C   0  0  0  0  0  0  0  0  0  0  0  0
  150.8326  142.2006  157.1881 C   0  0  0  0  0  0  0  0  0  0  0  0
  150.4857  142.2486  155.8235 C   0  0  0  0  0  0  0  0  0  0  0  0
  150.4176  141.1530  155.0372 N   0  0  0  0  0  0  0  0  0  0  0  0
  149.8857  133.5001  155.8860 C   0  0  0  0  0  0  0  0  0  0  0  0
  148.7883  133.7124  156.9499 C   0  0  0  0  0  0  0  0  0  0  0  0
  151.2574  133.3315  156.5684 C   0  0  0  0  0  0  0  0  0  0  0  0
  147.4760  135.2561  154.6323 C   0  0  0  0  0  0  0  0  0  0  0  0
  146.2358  135.3159  153.7198 C   0  0  2  0  0  0  0  0  0  0  0  0
  145.0089  135.8751  154.4485 C   0  0  0  0  0  0  0  0  0  0  0  0
  145.9176  134.0066  153.2693 O   0  0  0  0  0  0  0  0  0  0  0  0
  147.2579  131.6015  151.3663 H   0  0  0  0  0  0  0  0  0  0  0  0
  145.5983  132.1902  151.3597 H   0  0  0  0  0  0  0  0  0  0  0  0
  146.2461  131.4013  152.7957 H   0  0  0  0  0  0  0  0  0  0  0  0
  147.1829  134.0810  151.6460 H   0  0  0  0  0  0  0  0  0  0  0  0
  148.0287  132.6235  154.2116 H   0  0  0  0  0  0  0  0  0  0  0  0
  149.0105  132.8638  152.7833 H   0  0  0  0  0  0  0  0  0  0  0  0
  150.6701  134.2444  154.0387 H   0  0  0  0  0  0  0  0  0  0  0  0
  152.4689  138.0811  155.5882 H   0  0  0  0  0  0  0  0  0  0  0  0
  152.4781  138.0170  153.8540 H   0  0  0  0  0  0  0  0  0  0  0  0
  150.4557  139.0823  153.6523 H   0  0  0  0  0  0  0  0  0  0  0  0
  149.7189  138.1617  154.9342 H   0  0  0  0  0  0  0  0  0  0  0  0
  151.2731  138.8239  157.3625 H   0  0  0  0  0  0  0  0  0  0  0  0
  151.3964  140.8700  158.8030 H   0  0  0  0  0  0  0  0  0  0  0  0
  150.8743  143.1028  157.7797 H   0  0  0  0  0  0  0  0  0  0  0  0
  150.2587  143.1923  155.3501 H   0  0  0  0  0  0  0  0  0  0  0  0
  149.7024  132.5304  155.4252 H   0  0  0  0  0  0  0  0  0  0  0  0
  148.9867  134.5890  157.5666 H   0  0  0  0  0  0  0  0  0  0  0  0
  148.7329  132.8557  157.6219 H   0  0  0  0  0  0  0  0  0  0  0  0
  147.8021  133.8385  156.5045 H   0  0  0  0  0  0  0  0  0  0  0  0
  151.5371  134.2115  157.1485 H   0  0  0  0  0  0  0  0  0  0  0  0
  152.0431  133.1538  155.8336 H   0  0  0  0  0  0  0  0  0  0  0  0
  151.2512  132.4819  157.2518 H   0  0  0  0  0  0  0  0  0  0  0  0
  147.2554  134.6887  155.5378 H   0  0  0  0  0  0  0  0  0  0  0  0
  147.7003  136.2764  154.9371 H   0  0  0  0  0  0  0  0  0  0  0  0
  146.4448  135.9522  152.8578 H   0  0  0  0  0  0  0  0  0  0  0  0
  145.1897  136.8905  154.8018 H   0  0  0  0  0  0  0  0  0  0  0  0
  144.7485  135.2615  155.3114 H   0  0  0  0  0  0  0  0  0  0  0  0
  144.1429  135.9030  153.7870 H   0  0  0  0  0  0  0  0  0  0  0  0
  148.8444  135.2243  153.1379 H   0  0  0  0  0  0  0  0  0  0  0  0
  1  2  1  0  0  0  0
  1 24  1  0  0  0  0
  1 25  1  0  0  0  0
  1 26  1  0  0  0  0
  2 23  1  0  0  0  0
  2  3  1  0  0  0  0
  2 27  1  0  0  0  0
  3  4  1  0  0  0  0
  3 28  1  0  0  0  0
  3 29  1  0  0  0  0
  4  5  1  0  0  0  0
  4 20  1  0  0  0  0
  4 52  1  0  0  0  0
  5  6  1  0  0  0  0
  5 17  1  0  0  0  0
  5 30  1  0  0  0  0
  6  7  2  0  0  0  0
  6  8  1  0  0  0  0
  8  9  1  0  0  0  0
  9 10  1  0  0  0  0
  9 31  1  0  0  0  0
  9 32  1  0  0  0  0
 10 11  1  0  0  0  0
 10 33  1  0  0  0  0
 10 34  1  0  0  0  0
 11 16  1  0  0  0  0
 11 12  2  0  0  0  0
 12 13  1  0  0  0  0
 12 35  1  0  0  0  0
 13 14  2  0  0  0  0
 13 36  1  0  0  0  0
 14 15  1  0  0  0  0
 14 37  1  0  0  0  0
 15 16  2  0  0  0  0
 15 38  1  0  0  0  0
 17 18  1  0  0  0  0
 17 19  1  0  0  0  0
 17 39  1  0  0  0  0
 18 40  1  0  0  0  0
 18 41  1  0  0  0  0
 18 42  1  0  0  0  0
 19 43  1  0  0  0  0
 19 44  1  0  0  0  0
 19 45  1  0  0  0  0
 20 21  1  0  0  0  0
 20 46  1  0  0  0  0
 20 47  1  0  0  0  0
 21 22  1  0  0  0  0
 21 23  1  0  0  0  0
 21 48  1  0  0  0  0
 22 49  1  0  0  0  0
 22 50  1  0  0  0  0
 22 51  1  0  0  0  0
M  CHG  1   4   1
M  CHG  1   8  -1
M  END
> <s_m_source_file>
AV-unprocessed.smi

> <i_m_source_file_index>
1762

> <i_lp_mmshare_version>
43012

> <i_f3d_flags>
0

> <s_epik_input>
W0NIM11bQ0BASF0xW0NIMl1OKFtDSDJdW0NASF0oTzEpW0NIM10pW0NAQEhdKFtDSF0oW0NIM10pW0NIM10pQyg9TylbTkhdW0NIMl1bQ0gyXWMyW2NIXVtjSF1bY0hdW2NIXW4y

> <s_epik_cmdline>
J2VwaWtfcHl0aG9uJywgJy1waCcsICc3LjAnLCAnLXRuJywgJzgnLCAnLW1hJywgJzIwMCcsICctbWV0YWxfYmluZGluZycsICctaW1hZScsICc8aW5maWxlLm1hZT4nLCAnLW9tYWUnLCAnPG91dGZpbGUubWFlPic=

> <r_epik_Ionization_Penalty>
7.82966

> <r_epik_Ionization_Penalty_Charging>
7.7461

> <r_epik_Ionization_Penalty_Neutral>
0.0835571

> <r_epik_State_Penalty>
8.52273

> <r_epik_Charging_Adjusted_Penalty>
16.2688

> <i_epik_Tot_Q>
0

> <i_epik_Tot_abs_Q>
2

> <r_epik_Metal_State_Penalty>
4.47451

> <b_epik_Metal_Only>
1

> <s_lp_Force_Field>
OPLS_2005

> <r_lp_Energy>
21.2393

> <b_lp_Chiralities_Consistent>
1

> <s_lp_Variant>
AV-unprocessed.smi:1762-27

> <Gold.Version>
5.8.1

> <Gold.Id.Protein>
6NUR|6NUR_protein|mol2

> <Gold.PLP.Fitness>
48.5537

> <Gold.PLP.PLP>
-32.9461

> <Gold.PLP.part.hbond>
-2.9984

> <Gold.PLP.part.metal>
0.0000

> <Gold.PLP.part.buried>
-2.3933

> <Gold.PLP.part.nonpolar>
-27.0818

> <Gold.PLP.part.repulsive>
0.3577

> <Gold.PLP.ligand.clash>
0.0000

> <Gold.PLP.ligand.torsion>
0.7982

> <Gold.PLP.Chemscore.Hbond>
4.6412

> <Gold.PLP.Chemscore.CHOScore>
1.0000

> <Gold.PLP.Chemscore.Metal>
0.0000

> <Gold.Chemscore.Hbonds>
donor molecule, donor type, donor heavy atom, donor atom, acceptor molecule, acceptor atom, score
      L1  H     4    52       P1  7948  2.00
      P1  H  7989  7998       L1    16  0.47
      P1  H 10752 10764       L1     8  2.00
      L1  C    15    38       P1  8028  1.00

> <Gold.PLP.Chemscore.Internal.Correction>
0.2803

> <Gold.Rescore>
     Score         DG    S(hbond)    S(metal)    S(lipo)     H(rot)  DE(clash)    DE(int)     intcor
     11.82     -16.78       1.70        0.00      83.05       1.60       0.21       4.76       ----

> <Gold.Chemscore.Fitness>
11.8207

> <Gold.Chemscore.DG>
-16.7840

> <Gold.Chemscore.ZeroCoef>
-5.4800

> <Gold.Chemscore.Hbond>
1.7024

> <Gold.Chemscore.Metal>
0.0000

> <Gold.Chemscore.Lipo>
83.0514

> <Gold.Chemscore.Internal_Hbond>
0.0000

> <Gold.Chemscore.DEClash>
0.2052

> <Gold.Chemscore.DEInternal>
4.7581

> <Gold.Chemscore.Rot>
1.6012

> <Gold.Chemscore.Internal.Correction>
   9.000000E+99

> <Gold.Chemscore.Hbonds>
donor molecule, donor type, donor heavy atom, donor atom, acceptor molecule, acceptor atom, score
      L1  H     4    52       P1  7948  0.54
      P1  H  7989  7998       L1    16  0.06
      P1  H 10752 10764       L1     8  0.26

> <Gold.Chemscore.Hbond.Weighted>
-5.6860

> <Gold.Chemscore.Metal.Weighted>
-0.0000

> <Gold.Chemscore.Lipo.Weighted>
-9.7170

> <Gold.Chemscore.Internal_Hbond.Weighted>
0.0000

> <Gold.Chemscore.DEClash.Weighted>
0.2052

> <Gold.Chemscore.DEInternal.Weighted>
4.7581

> <Gold.Chemscore.Rot.Weighted>
4.0990

> <Gold.Chemscore.Internal.Correction.Weighted>
   9.000000E+99

> <Gold.Protein.RotatedTorsions>
[ 6907 6896 6895 6894 ] final -137.50 input  -60.11 | X-H torsion
[ 7974 7965 7964 7962 ] final  135.72 input  175.53 | X-H torsion
[ 8008 7997 7996 7995 ] final  -93.94 input   59.86 | X-H torsion
[ 10167 10162 10161 10158 ] final  154.96 input  -65.29 | X-H torsion
[ 10718 10713 10712 10709 ] final -145.05 input   66.30 | X-H torsion
[ 10763 10752 10751 10750 ] final  -77.47 input  -60.55 | X-H torsion
[ 11005 11000 10999 10996 ] final  -32.05 input  -57.11 | X-H torsion

> <Gold.Protein.ActiveResidues>
 VAL166  LYS551  ARG553  GLY616  TRP617  ASP618  TYR619  PRO620  LYS621  CYS622 
 ASP623  PHE694  ASN695  SER759  ASP760  ASP761  ALA762  ILE779  LEU786  VAL792 
 PHE793  MET794  SER795  GLU796  ALA797  LYS798  CYS799  TRP800  GLU811  SER814 

> <Gold.Protein.RotatedAtoms>
  151.0232  133.5857  159.2668 H   0  0  0  0  0  0  0  0  0  0  0  0  # atno 6907 bound_to 6896
  151.2966  135.0756  159.9233 H   0  0  0  0  0  0  0  0  0  0  0  0  # atno 6908 bound_to 6896
  152.5328  133.9922  159.7910 H   0  0  0  0  0  0  0  0  0  0  0  0  # atno 6909 bound_to 6896
  144.9635  139.4683  143.5468 H   0  0  0  0  0  0  0  0  0  0  0  0  # atno 7974 bound_to 7965
  154.7420  140.0494  157.0819 H   0  0  0  0  0  0  0  0  0  0  0  0  # atno 8008 bound_to 7997
  155.0166  140.3142  155.4790 H   0  0  0  0  0  0  0  0  0  0  0  0  # atno 8009 bound_to 7997
  156.2866  140.2174  156.5282 H   0  0  0  0  0  0  0  0  0  0  0  0  # atno 8010 bound_to 7997
  139.4822  144.5140  151.7980 H   0  0  0  0  0  0  0  0  0  0  0  0  # atno 10167 bound_to 10162
  156.3777  130.7821  151.2009 H   0  0  0  0  0  0  0  0  0  0  0  0  # atno 10718 bound_to 10713
  154.5133  135.5763  153.6622 H   0  0  0  0  0  0  0  0  0  0  0  0  # atno 10763 bound_to 10752
  152.9901  135.6164  154.2850 H   0  0  0  0  0  0  0  0  0  0  0  0  # atno 10764 bound_to 10752
  154.2766  135.2852  155.2695 H   0  0  0  0  0  0  0  0  0  0  0  0  # atno 10765 bound_to 10752
  140.9520  133.7215  156.1234 H   0  0  0  0  0  0  0  0  0  0  0  0  # atno 11005 bound_to 11000
  146.3360  139.8801  142.8825 LP  0  0  0  0  0  0  0  0  0  0  0  0  # atno 17320 bound_to 7965
  145.2664  141.0094  143.3797 LP  0  0  0  0  0  0  0  0  0  0  0  0  # atno 17321 bound_to 7965
  140.4647  144.1672  150.5910 LP  0  0  0  0  0  0  0  0  0  0  0  0  # atno 17342 bound_to 10162
  140.4447  143.2511  151.9427 LP  0  0  0  0  0  0  0  0  0  0  0  0  # atno 17343 bound_to 10162
  157.7489  131.0353  150.4359 LP  0  0  0  0  0  0  0  0  0  0  0  0  # atno 17370 bound_to 10713
  156.4597  130.4029  149.6584 LP  0  0  0  0  0  0  0  0  0  0  0  0  # atno 17371 bound_to 10713
  140.7589  134.3961  157.5529 LP  0  0  0  0  0  0  0  0  0  0  0  0  # atno 17394 bound_to 11000
  139.8850  134.8949  156.2668 LP  0  0  0  0  0  0  0  0  0  0  0  0  # atno 17395 bound_to 11000

$$$$
