#       Name:                AV-unprocessed.smi:1055
#       Creating user name   scv26
#       Creation time:       Fri Mar 27 03:12:42 2020


#       File generated by GOLD software.
#

@<TRIPOS>MOLECULE
AV-unprocessed.smi:1055
    54    55     1
SMALL
NO_CHARGES


@<TRIPOS>ATOM
      1 ****        -6.5366  -3.2737  -2.6199 C.2            1 S1                 0.0000
      2 ****        -5.9058  -3.2162  -1.4351 C.2            1 S1                 0.0000
      3 ****        -5.4863  -4.4677  -0.6868 C.3            1 S1                 0.0000
      4 ****        -5.5742  -1.8946  -0.7599 C.3            1 S1                 0.0000
      5 ****        -4.1089  -1.6860  -0.6491 N.4            1 S1                 1.0000
      6 ****        -3.7631  -0.6383   0.3442 C.3            1 S1                 0.0000
      7 ****        -2.2421  -0.5557   0.5547 C.3            1 S1                 0.0000
      8 ****        -1.5071  -0.3025  -0.7753 C.3            1 S1                 0.0000
      9 ****        -0.0592  -0.3342  -0.5864 N.am           1 S1                 0.0000
     10 ****         0.6769   0.6695  -0.0876 C.2            1 S1                 0.0000
     11 ****         0.1977   1.7425   0.2769 O.2            1 S1                 0.0000
     12 ****         1.9782   0.3354  -0.0301 N.am           1 S1                 0.0000
     13 ****         3.0804   1.1068   0.4313 C.ar           1 S1                 0.0000
     14 ****         4.3048   0.4378   0.6394 C.ar           1 S1                 0.0000
     15 ****         5.4328   1.1563   1.0857 C.ar           1 S1                 0.0000
     16 ****         5.3337   2.5498   1.3189 C.ar           1 S1                 0.0000
     17 ****         6.4167   3.3382   1.7646 N.pl3          1 S1                 0.0000
     18 ****         6.2235   4.7635   2.0075 C.3            1 S1                 0.0000
     19 ****         7.6867   2.7038   2.0937 C.3            1 S1                 0.0000
     20 ****         4.1391   3.1504   1.0966 N.pl3          1 S1                 1.0000
     21 ****         3.0343   2.5014   0.6698 C.ar           1 S1                 0.0000
     22 ****        -1.9202  -1.3694  -1.8027 C.3            1 S1                 0.0000
     23 ****        -3.4489  -1.4368  -1.9581 C.3            1 S1                 0.0000
     24 ****        -6.7679  -4.2202  -3.0867 H              1 S1                 0.0000
     25 ****        -6.8322  -2.3758  -3.1428 H              1 S1                 0.0000
     26 ****        -5.9460  -4.4898   0.3016 H              1 S1                 0.0000
     27 ****        -4.4035  -4.4970  -0.5631 H              1 S1                 0.0000
     28 ****        -5.7885  -5.3700  -1.2199 H              1 S1                 0.0000
     29 ****        -6.0271  -1.0596  -1.2972 H              1 S1                 0.0000
     30 ****        -6.0257  -1.9103   0.2331 H              1 S1                 0.0000
     31 ****        -4.1510   0.3254   0.0100 H              1 S1                 0.0000
     32 ****        -4.2443  -0.8609   1.2973 H              1 S1                 0.0000
     33 ****        -2.0166   0.2367   1.2693 H              1 S1                 0.0000
     34 ****        -1.8880  -1.4852   1.0033 H              1 S1                 0.0000
     35 ****        -1.7945   0.6772  -1.1624 H              1 S1                 0.0000
     36 ****         0.4163  -1.1819  -0.8596 H              1 S1                 0.0000
     37 ****         2.2042  -0.6042  -0.3220 H              1 S1                 0.0000
     38 ****         4.3842  -0.6248   0.4614 H              1 S1                 0.0000
     39 ****         6.3590   0.6234   1.2401 H              1 S1                 0.0000
     40 ****         5.8416   5.2592   1.1145 H              1 S1                 0.0000
     41 ****         7.1606   5.2496   2.2794 H              1 S1                 0.0000
     42 ****         5.5152   4.9195   2.8217 H              1 S1                 0.0000
     43 ****         8.1237   2.2405   1.2087 H              1 S1                 0.0000
     44 ****         7.5478   1.9376   2.8571 H              1 S1                 0.0000
     45 ****         8.4037   3.4296   2.4781 H              1 S1                 0.0000
     46 ****         2.1704   3.1329   0.5311 H              1 S1                 0.0000
     47 ****        -1.4622  -1.1552  -2.7692 H              1 S1                 0.0000
     48 ****        -1.5472  -2.3472  -1.4937 H              1 S1                 0.0000
     49 ****        -3.6971  -2.2303  -2.6633 H              1 S1                 0.0000
     50 ****        -3.8249  -0.5061  -2.3858 H              1 S1                 0.0000
     51 ****        -3.7294  -2.5504  -0.2900 H              1 S1                 0.0000
     52 ****         4.0690   4.1552   1.2588 H              1 S1                 0.0000
     53 ****        -0.7876   1.8992   0.2081 LP             1 S1                 0.0000
     54 ****         0.7934   2.4579   0.6419 LP             1 S1                 0.0000
@<TRIPOS>BOND
    1    1    2 2     
    2    1   24 1     
    3    1   25 1     
    4    2    3 1     
    5    2    4 1     
    6    3   26 1     
    7    3   27 1     
    8    3   28 1     
    9    4    5 1     
   10    4   29 1     
   11    4   30 1     
   12    5   23 1     
   13    5    6 1     
   14    5   51 1     
   15    6    7 1     
   16    6   31 1     
   17    6   32 1     
   18    7    8 1     
   19    7   33 1     
   20    7   34 1     
   21    8    9 1     
   22    8   22 1     
   23    8   35 1     
   24    9   10 am    
   25    9   36 1     
   26   10   11 2     
   27   10   12 am    
   28   12   13 1     
   29   12   37 1     
   30   13   21 ar    
   31   13   14 ar    
   32   14   15 ar    
   33   14   38 1     
   34   15   16 ar    
   35   15   39 1     
   36   16   17 1     
   37   16   20 ar    
   38   17   18 1     
   39   17   19 1     
   40   18   40 1     
   41   18   41 1     
   42   18   42 1     
   43   19   43 1     
   44   19   44 1     
   45   19   45 1     
   46   20   21 ar    
   47   20   52 1     
   48   21   46 1     
   49   22   23 1     
   50   22   47 1     
   51   22   48 1     
   52   23   49 1     
   53   23   50 1     
   54   11   53 1     
   55   11   54 1     
@<TRIPOS>SUBSTRUCTURE
      1 S1             1
@<TRIPOS>SET
LONE_PAIRS      STATIC     ATOMS    <user>   **** ""
2 53 54
DONOR_HYDROGENS      STATIC     ATOMS    <user>   **** ""
4 51 36 37 52
ATOM$BLUE        STATIC     ATOMS    COLORGROUP SYSTEM
2 53 54
ATOM$RED        STATIC     ATOMS    COLORGROUP SYSTEM
4 51 36 37 52
