#       Name:                AV-unprocessed.smi:1844
#       Creating user name   scv26
#       Creation time:       Fri Mar 27 09:21:43 2020


#       File generated by GOLD software.
#

@<TRIPOS>MOLECULE
AV-unprocessed.smi:1844
    51    52     1
SMALL
NO_CHARGES


@<TRIPOS>ATOM
      1 ****        -6.9576   0.7520  -2.7452 C.3            1 S1                 0.0000
      2 ****        -5.5657   1.1595  -2.6279 N.am           1 S1                 0.0000
      3 ****        -4.5768   0.3701  -2.1771 C.2            1 S1                 0.0000
      4 ****        -4.7877  -0.7905  -1.8202 O.2            1 S1                 0.0000
      5 ****        -3.2629   1.0182  -2.1590 C.2            1 S1                 0.0000
      6 ****        -3.0466   2.3917  -2.5893 C.2            1 S1                 0.0000
      7 ****        -1.8158   2.9383  -2.5448 C.2            1 S1                 0.0000
      8 ****        -0.6524   2.1837  -2.0699 C.2            1 S1                 0.0000
      9 ****         0.4741   2.6791  -2.0252 O.2            1 S1                 0.0000
     10 ****        -0.8979   0.8958  -1.6810 N.am           1 S1                 0.0000
     11 ****         0.1921   0.0383  -1.1857 C.3            1 S1                 0.0000
     12 ****         0.5281   0.2710   0.2942 C.2            1 S1                 0.0000
     13 ****        -0.2746   0.8270   1.0450 O.2            1 S1                 0.0000
     14 ****         1.7233  -0.1874   0.6973 N.am           1 S1                 0.0000
     15 ****         2.2775  -0.0914   2.0495 C.3            1 S1                 0.0000
     16 ****         3.6858   0.5344   1.9932 C.3            1 S1                 0.0000
     17 ****         4.7193  -0.4125   1.3584 C.3            1 S1                 0.0000
     18 ****         4.7453  -1.7696   2.0769 C.3            1 S1                 0.0000
     19 ****         3.3486  -2.4105   2.1134 C.3            1 S1                 0.0000
     20 ****         2.3090  -1.4700   2.7581 C.3            1 S1                 0.0000
     21 ****         0.9245  -2.1345   2.8478 C.3            1 S1                 0.0000
     22 ****        -2.1879   0.3310  -1.7253 C.2            1 S1                 0.0000
     23 ****        -7.5511   1.5709  -3.1514 H              1 S1                 0.0000
     24 ****        -7.3672   0.4852  -1.7703 H              1 S1                 0.0000
     25 ****        -7.0574  -0.1052  -3.4121 H              1 S1                 0.0000
     26 ****        -5.3359   2.1024  -2.9063 H              1 S1                 0.0000
     27 ****        -3.8607   3.0026  -2.9506 H              1 S1                 0.0000
     28 ****        -1.6802   3.9599  -2.8682 H              1 S1                 0.0000
     29 ****        -0.0605  -1.0151  -1.3136 H              1 S1                 0.0000
     30 ****         1.0902   0.1895  -1.7877 H              1 S1                 0.0000
     31 ****         2.3058  -0.6400   0.0077 H              1 S1                 0.0000
     32 ****         1.6547   0.5775   2.6459 H              1 S1                 0.0000
     33 ****         3.6584   1.4780   1.4467 H              1 S1                 0.0000
     34 ****         4.0069   0.7819   3.0058 H              1 S1                 0.0000
     35 ****         4.4867  -0.5614   0.3033 H              1 S1                 0.0000
     36 ****         5.7089   0.0440   1.3921 H              1 S1                 0.0000
     37 ****         5.4488  -2.4391   1.5813 H              1 S1                 0.0000
     38 ****         5.1120  -1.6358   3.0953 H              1 S1                 0.0000
     39 ****         3.0390  -2.6701   1.1003 H              1 S1                 0.0000
     40 ****         3.3962  -3.3485   2.6678 H              1 S1                 0.0000
     41 ****         2.6335  -1.2906   3.7842 H              1 S1                 0.0000
     42 ****         0.5457  -2.4144   1.8645 H              1 S1                 0.0000
     43 ****         0.1974  -1.4640   3.3068 H              1 S1                 0.0000
     44 ****         0.9652  -3.0403   3.4532 H              1 S1                 0.0000
     45 ****        -2.2380  -0.6913  -1.3771 H              1 S1                 0.0000
     46 ****        -5.7135  -1.1661  -1.8623 LP             1 S1                 0.0000
     47 ****        -4.0330  -1.3566  -1.4886 LP             1 S1                 0.0000
     48 ****         0.6166   3.6245  -2.3184 LP             1 S1                 0.0000
     49 ****         1.2464   2.1360  -1.6957 LP             1 S1                 0.0000
     50 ****        -1.1589   1.1336   0.6928 LP             1 S1                 0.0000
     51 ****        -0.0420   0.9718   2.0067 LP             1 S1                 0.0000
@<TRIPOS>BOND
    1    1    2 1     
    2    1   23 1     
    3    1   24 1     
    4    1   25 1     
    5    2    3 am    
    6    2   26 1     
    7    3    4 2     
    8    3    5 1     
    9    5   22 2     
   10    5    6 1     
   11    6    7 2     
   12    6   27 1     
   13    7    8 1     
   14    7   28 1     
   15    8    9 2     
   16    8   10 am    
   17   10   11 1     
   18   10   22 1     
   19   11   12 1     
   20   11   29 1     
   21   11   30 1     
   22   12   13 2     
   23   12   14 am    
   24   14   15 1     
   25   14   31 1     
   26   15   20 1     
   27   15   16 1     
   28   15   32 1     
   29   16   17 1     
   30   16   33 1     
   31   16   34 1     
   32   17   18 1     
   33   17   35 1     
   34   17   36 1     
   35   18   19 1     
   36   18   37 1     
   37   18   38 1     
   38   19   20 1     
   39   19   39 1     
   40   19   40 1     
   41   20   21 1     
   42   20   41 1     
   43   21   42 1     
   44   21   43 1     
   45   21   44 1     
   46   22   45 1     
   47    4   46 1     
   48    4   47 1     
   49    9   48 1     
   50    9   49 1     
   51   13   50 1     
   52   13   51 1     
@<TRIPOS>SUBSTRUCTURE
      1 S1             1
@<TRIPOS>SET
LONE_PAIRS      STATIC     ATOMS    <user>   **** ""
6 46 47 48 49 50 51
DONOR_HYDROGENS      STATIC     ATOMS    <user>   **** ""
2 26 31
ATOM$BLUE        STATIC     ATOMS    COLORGROUP SYSTEM
6 46 47 48 49 50 51
ATOM$RED        STATIC     ATOMS    COLORGROUP SYSTEM
2 26 31
