#       Name:                AV-unprocessed.smi:2567
#       Creating user name   scv26
#       Creation time:       Fri Mar 27 14:10:58 2020


#       File generated by GOLD software.
#

@<TRIPOS>MOLECULE
AV-unprocessed.smi:2567
    38    39     1
SMALL
NO_CHARGES


@<TRIPOS>ATOM
      1 ****        -3.3189   2.1681  -1.2059 C.3            1 S1                 0.0000
      2 ****        -2.6684   0.8137  -0.8460 C.3            1 S1                 0.0000
      3 ****        -3.3118   0.3513   0.4798 C.3            1 S1                 0.0000
      4 ****        -2.9632  -0.2168  -1.9507 C.3            1 S1                 0.0000
      5 ****        -1.1739   0.9642  -0.6793 C.2            1 S1                 0.0000
      6 ****        -0.4643   1.7737  -1.4698 N.2            1 S1                 0.0000
      7 ****         0.8039   1.5117  -1.0920 N.pl3          1 S1                 0.0000
      8 ****         0.7991   0.5513  -0.1675 C.2            1 S1                 0.0000
      9 ****         2.0621   0.0121   0.4265 C.3            1 S1                 0.0000
     10 ****         2.4736  -1.3361  -0.1967 C.3            1 S1                 0.0000
     11 ****         3.6591  -1.8644   0.4763 N.3            1 S1                 0.0000
     12 ****         3.4443  -1.9682   1.9189 C.3            1 S1                 0.0000
     13 ****         3.0019  -0.6106   2.4940 C.3            1 S1                 0.0000
     14 ****         1.8286  -0.1658   1.8214 O.3            1 S1                 0.0000
     15 ****        -0.4297   0.1316   0.1153 N.2            1 S1                 0.0000
     16 ****         1.6067   1.9754  -1.4927 H              1 S1                 0.0000
     17 ****        -4.4025   2.0776  -1.2897 H              1 S1                 0.0000
     18 ****        -2.9575   2.5506  -2.1610 H              1 S1                 0.0000
     19 ****        -3.1110   2.9237  -0.4470 H              1 S1                 0.0000
     20 ****        -3.1009   1.0508   1.2897 H              1 S1                 0.0000
     21 ****        -2.9453  -0.6289   0.7870 H              1 S1                 0.0000
     22 ****        -4.3956   0.2716   0.3891 H              1 S1                 0.0000
     23 ****        -4.0360  -0.3530  -2.0908 H              1 S1                 0.0000
     24 ****        -2.5363  -1.1905  -1.7074 H              1 S1                 0.0000
     25 ****        -2.5433   0.0963  -2.9074 H              1 S1                 0.0000
     26 ****         2.8538   0.7503   0.2832 H              1 S1                 0.0000
     27 ****         1.6523  -2.0485  -0.1098 H              1 S1                 0.0000
     28 ****         2.6714  -1.2133  -1.2619 H              1 S1                 0.0000
     29 ****         3.8833  -2.7801   0.1001 H              1 S1                 0.0000
     30 ****         2.6816  -2.7194   2.1271 H              1 S1                 0.0000
     31 ****         4.3575  -2.3040   2.4105 H              1 S1                 0.0000
     32 ****         2.7830  -0.7078   3.5573 H              1 S1                 0.0000
     33 ****         3.7959   0.1320   2.3991 H              1 S1                 0.0000
     34 ****        -0.7908   2.4129  -2.1661 LP             1 S1                 0.0000
     35 ****         4.4186  -1.2339   0.3159 LP             1 S1                 0.0000
     36 ****         1.1054  -0.8451   1.9458 LP             1 S1                 0.0000
     37 ****         1.5385   0.7060   2.2161 LP             1 S1                 0.0000
     38 ****        -0.7290  -0.5924   0.7368 LP             1 S1                 0.0000
@<TRIPOS>BOND
    1    1    2 1     
    2    1   17 1     
    3    1   18 1     
    4    1   19 1     
    5    2    3 1     
    6    2    4 1     
    7    2    5 1     
    8    3   20 1     
    9    3   21 1     
   10    3   22 1     
   11    4   23 1     
   12    4   24 1     
   13    4   25 1     
   14    5   15 1     
   15    5    6 2     
   16    6    7 1     
   17    7   16 1     
   18    7    8 1     
   19    8    9 1     
   20    8   15 2     
   21    9   14 1     
   22    9   10 1     
   23    9   26 1     
   24   10   11 1     
   25   10   27 1     
   26   10   28 1     
   27   11   12 1     
   28   11   29 1     
   29   12   13 1     
   30   12   30 1     
   31   12   31 1     
   32   13   14 1     
   33   13   32 1     
   34   13   33 1     
   35    6   34 1     
   36   11   35 1     
   37   14   36 1     
   38   14   37 1     
   39   15   38 1     
@<TRIPOS>SUBSTRUCTURE
      1 S1             1
@<TRIPOS>SET
LONE_PAIRS      STATIC     ATOMS    <user>   **** ""
5 34 35 36 37 38
DONOR_HYDROGENS      STATIC     ATOMS    <user>   **** ""
2 16 29
ATOM$BLUE        STATIC     ATOMS    COLORGROUP SYSTEM
5 34 35 36 37 38
ATOM$RED        STATIC     ATOMS    COLORGROUP SYSTEM
2 16 29
