AV-unprocessed.smi:1983|AV-procd|sdf|8033|dock1
  -GOLD-   2272010223D 1   1.00000     0.00000
 Structure written by MMmdl.
 49 50  0  0  0  0  0  0  0  0  1 V2000
  148.5729  133.8131  155.2652 C   0  0  0  0  0  0  0  0  0  0  0  0
  149.5588  134.9515  155.5692 C   0  0  1  0  0  0  0  0  0  0  0  0
  151.0280  134.5071  155.4261 C   0  0  0  0  0  0  0  0  0  0  0  0
  151.8935  135.4736  155.9826 O   0  0  0  0  0  0  0  0  0  0  0  0
  149.2794  136.0743  154.6782 N   0  0  0  0  0  0  0  0  0  0  0  0
  148.9014  137.2995  155.0696 C   0  0  0  0  0  0  0  0  0  0  0  0
  148.7431  137.6323  156.2441 O   0  0  0  0  0  0  0  0  0  0  0  0
  148.7266  138.1223  154.0262 N   0  0  0  0  0  0  0  0  0  0  0  0
  148.3387  139.5257  154.1271 C   0  0  0  0  0  0  0  0  0  0  0  0
  149.1204  140.3265  155.1602 C   0  0  0  0  0  0  0  0  0  0  0  0
  150.5282  140.3205  155.1384 C   0  0  0  0  0  0  0  0  0  0  0  0
  151.2342  141.0568  156.1088 C   0  0  0  0  0  0  0  0  0  0  0  0
  150.5102  141.7856  157.0862 C   0  0  0  0  0  0  0  0  0  0  0  0
  151.1537  142.5354  158.0961 N   0  0  0  0  0  0  0  0  0  0  0  0
  152.1411  141.8737  158.9416 C   0  0  0  0  0  0  0  0  0  0  0  0
  152.4205  142.7122  160.2013 C   0  0  1  0  0  0  0  0  0  0  0  0
  153.5533  142.1160  161.0435 C   0  0  0  0  0  0  0  0  0  0  0  0
  152.7977  144.0350  159.8231 O   0  0  0  0  0  0  0  0  0  0  0  0
  151.8291  144.7284  159.0332 C   0  0  2  0  0  0  0  0  0  0  0  0
  150.5879  145.1297  159.8505 C   0  0  0  0  0  0  0  0  0  0  0  0
  151.4922  143.9186  157.7657 C   0  0  0  0  0  0  0  0  0  0  0  0
  149.1553  141.7836  157.1055 N   0  0  0  0  0  0  0  0  0  0  0  0
  148.4843  141.0751  156.1734 C   0  0  0  0  0  0  0  0  0  0  0  0
  148.7185  132.9724  155.9441 H   0  0  0  0  0  0  0  0  0  0  0  0
  148.6950  133.4422  154.2468 H   0  0  0  0  0  0  0  0  0  0  0  0
  147.5410  134.1470  155.3770 H   0  0  0  0  0  0  0  0  0  0  0  0
  149.3878  135.2801  156.5965 H   0  0  0  0  0  0  0  0  0  0  0  0
  151.1958  133.5439  155.9090 H   0  0  0  0  0  0  0  0  0  0  0  0
  151.2966  134.3908  154.3756 H   0  0  0  0  0  0  0  0  0  0  0  0
  151.3965  136.2586  156.1546 H   0  0  0  0  0  0  0  0  0  0  0  0
  149.3841  135.9037  153.6889 H   0  0  0  0  0  0  0  0  0  0  0  0
  148.8799  137.7562  153.0979 H   0  0  0  0  0  0  0  0  0  0  0  0
  148.4916  139.9890  153.1524 H   0  0  0  0  0  0  0  0  0  0  0  0
  147.2699  139.5973  154.3376 H   0  0  0  0  0  0  0  0  0  0  0  0
  151.0647  139.7605  154.3865 H   0  0  0  0  0  0  0  0  0  0  0  0
  152.3132  141.0527  156.0759 H   0  0  0  0  0  0  0  0  0  0  0  0
  151.7808  140.8911  159.2477 H   0  0  0  0  0  0  0  0  0  0  0  0
  153.0593  141.7269  158.3709 H   0  0  0  0  0  0  0  0  0  0  0  0
  151.5251  142.7485  160.8222 H   0  0  0  0  0  0  0  0  0  0  0  0
  153.3083  141.1052  161.3705 H   0  0  0  0  0  0  0  0  0  0  0  0
  153.7351  142.7181  161.9340 H   0  0  0  0  0  0  0  0  0  0  0  0
  154.4839  142.0691  160.4772 H   0  0  0  0  0  0  0  0  0  0  0  0
  152.3064  145.6554  158.7148 H   0  0  0  0  0  0  0  0  0  0  0  0
  149.9338  145.7759  159.2648 H   0  0  0  0  0  0  0  0  0  0  0  0
  150.8739  145.6777  160.7484 H   0  0  0  0  0  0  0  0  0  0  0  0
  149.9969  144.2669  160.1568 H   0  0  0  0  0  0  0  0  0  0  0  0
  152.3563  143.9052  157.1004 H   0  0  0  0  0  0  0  0  0  0  0  0
  150.6893  144.4190  157.2245 H   0  0  0  0  0  0  0  0  0  0  0  0
  147.4075  141.1079  156.2489 H   0  0  0  0  0  0  0  0  0  0  0  0
  1  2  1  0  0  0  0
  1 24  1  0  0  0  0
  1 25  1  0  0  0  0
  1 26  1  0  0  0  0
  2  3  1  0  0  0  0
  2  5  1  0  0  0  0
  2 27  1  0  0  0  0
  3  4  1  0  0  0  0
  3 28  1  0  0  0  0
  3 29  1  0  0  0  0
  4 30  1  0  0  0  0
  5  6  1  0  0  0  0
  5 31  1  0  0  0  0
  6  7  2  0  0  0  0
  6  8  1  0  0  0  0
  8  9  1  0  0  0  0
  8 32  1  0  0  0  0
  9 10  1  0  0  0  0
  9 33  1  0  0  0  0
  9 34  1  0  0  0  0
 10 23  1  0  0  0  0
 10 11  2  0  0  0  0
 11 12  1  0  0  0  0
 11 35  1  0  0  0  0
 12 13  2  0  0  0  0
 12 36  1  0  0  0  0
 13 14  1  0  0  0  0
 13 22  1  0  0  0  0
 14 21  1  0  0  0  0
 14 15  1  0  0  0  0
 15 16  1  0  0  0  0
 15 37  1  0  0  0  0
 15 38  1  0  0  0  0
 16 17  1  0  0  0  0
 16 18  1  0  0  0  0
 16 39  1  0  0  0  0
 17 40  1  0  0  0  0
 17 41  1  0  0  0  0
 17 42  1  0  0  0  0
 18 19  1  0  0  0  0
 19 20  1  0  0  0  0
 19 21  1  0  0  0  0
 19 43  1  0  0  0  0
 20 44  1  0  0  0  0
 20 45  1  0  0  0  0
 20 46  1  0  0  0  0
 21 47  1  0  0  0  0
 21 48  1  0  0  0  0
 22 23  2  0  0  0  0
 23 49  1  0  0  0  0
M  END
> <s_m_source_file>
AV-unprocessed.smi

> <i_m_source_file_index>
1983

> <i_lp_mmshare_version>
43012

> <i_f3d_flags>
0

> <s_epik_input>
W09IXVtDSDJdW0NAQEhdKFtDSDNdKVtOSF1DKD1PKVtOSF1bQ0gyXWMxW2NIXVtjSF1jKG5bY0hdMSlOMltDSDJdW0NAQEhdKFtDSDNdKU9bQ0BASF0oW0NIM10pW0NIMl0y

> <s_epik_cmdline>
J2VwaWtfcHl0aG9uJywgJy1waCcsICc3LjAnLCAnLXRuJywgJzgnLCAnLW1hJywgJzIwMCcsICctbWV0YWxfYmluZGluZycsICctaW1hZScsICc8aW5maWxlLm1hZT4nLCAnLW9tYWUnLCAnPG91dGZpbGUubWFlPic=

> <r_lp_tautomer_probability>
1

> <r_epik_Ionization_Penalty>
0.00801967

> <r_epik_Ionization_Penalty_Charging>
0

> <r_epik_Ionization_Penalty_Neutral>
0.00801967

> <r_epik_State_Penalty>
0.00598289

> <r_epik_Charging_Adjusted_Penalty>
0.00598289

> <i_epik_Tot_Q>
0

> <i_epik_Tot_abs_Q>
0

> <r_epik_Metal_State_Penalty>
0.00590297

> <b_epik_Metal_Only>
0

> <s_lp_Force_Field>
OPLS_2005

> <r_lp_Energy>
16.4024

> <b_lp_Chiralities_Consistent>
1

> <s_lp_Variant>
AV-unprocessed.smi:1983-6

> <Gold.Version>
5.8.1

> <Gold.Id.Protein>
6NUR|6NUR_protein|mol2

> <Gold.PLP.Fitness>
49.7179

> <Gold.PLP.PLP>
-41.4308

> <Gold.PLP.part.hbond>
-3.0000

> <Gold.PLP.part.metal>
0.0000

> <Gold.PLP.part.buried>
-3.7686

> <Gold.PLP.part.nonpolar>
-35.3963

> <Gold.PLP.part.repulsive>
0.3446

> <Gold.PLP.ligand.clash>
0.0000

> <Gold.PLP.ligand.torsion>
0.5939

> <Gold.PLP.Chemscore.Hbond>
3.0000

> <Gold.PLP.Chemscore.CHOScore>
0.0000

> <Gold.PLP.Chemscore.Metal>
0.0000

> <Gold.Chemscore.Hbonds>
donor molecule, donor type, donor heavy atom, donor atom, acceptor molecule, acceptor atom, score
      L1  H     5    31       P1  7948  1.00
      L1  H     8    32       P1  7948  1.00
      P1  H 10752 10765       L1     4  1.00

> <Gold.PLP.Chemscore.Internal.Correction>
0.4748

> <Gold.Rescore>
     Score         DG    S(hbond)    S(metal)    S(lipo)     H(rot)  DE(clash)    DE(int)     intcor
     18.59     -20.65       2.83        0.00     106.14       2.61       0.08       1.98       ----

> <Gold.Chemscore.Fitness>
18.5898

> <Gold.Chemscore.DG>
-20.6547

> <Gold.Chemscore.ZeroCoef>
-5.4800

> <Gold.Chemscore.Hbond>
2.8254

> <Gold.Chemscore.Metal>
0.0000

> <Gold.Chemscore.Lipo>
106.1422

> <Gold.Chemscore.Internal_Hbond>
0.0000

> <Gold.Chemscore.DEClash>
0.0838

> <Gold.Chemscore.DEInternal>
1.9811

> <Gold.Chemscore.Rot>
2.6097

> <Gold.Chemscore.Internal.Correction>
   9.000000E+99

> <Gold.Chemscore.Hbonds>
donor molecule, donor type, donor heavy atom, donor atom, acceptor molecule, acceptor atom, score
      L1  H     5    31       P1  7948  0.59
      L1  H     8    32       P1  7948  0.95
      P1  H 10752 10765       L1     4  0.53

> <Gold.Chemscore.Hbond.Weighted>
-9.4369

> <Gold.Chemscore.Metal.Weighted>
-0.0000

> <Gold.Chemscore.Lipo.Weighted>
-12.4186

> <Gold.Chemscore.Internal_Hbond.Weighted>
0.0000

> <Gold.Chemscore.DEClash.Weighted>
0.0838

> <Gold.Chemscore.DEInternal.Weighted>
1.9811

> <Gold.Chemscore.Rot.Weighted>
6.6809

> <Gold.Chemscore.Internal.Correction.Weighted>
   9.000000E+99

> <Gold.Protein.RotatedTorsions>
[ 6907 6896 6895 6894 ] final   94.49 input  -60.11 | X-H torsion
[ 7974 7965 7964 7962 ] final  -97.46 input  175.53 | X-H torsion
[ 8008 7997 7996 7995 ] final   33.11 input   59.86 | X-H torsion
[ 10167 10162 10161 10158 ] final   88.33 input  -65.29 | X-H torsion
[ 10718 10713 10712 10709 ] final -176.54 input   66.30 | X-H torsion
[ 10763 10752 10751 10750 ] final -144.55 input  -60.55 | X-H torsion
[ 11005 11000 10999 10996 ] final   24.38 input  -57.11 | X-H torsion

> <Gold.Protein.ActiveResidues>
 VAL166  LYS551  ARG553  GLY616  TRP617  ASP618  TYR619  PRO620  LYS621  CYS622 
 ASP623  PHE694  ASN695  SER759  ASP760  ASP761  ALA762  ILE779  LEU786  VAL792 
 PHE793  MET794  SER795  GLU796  ALA797  LYS798  CYS799  TRP800  GLU811  SER814 

> <Gold.Protein.RotatedAtoms>
  152.5449  134.1185  159.8388 H   0  0  0  0  0  0  0  0  0  0  0  0  # atno 6907 bound_to 6896
  151.1243  133.5074  159.2608 H   0  0  0  0  0  0  0  0  0  0  0  0  # atno 6908 bound_to 6896
  151.1744  135.0342  159.8820 H   0  0  0  0  0  0  0  0  0  0  0  0  # atno 6909 bound_to 6896
  145.3335  140.9446  143.2648 H   0  0  0  0  0  0  0  0  0  0  0  0  # atno 7974 bound_to 7965
  155.1334  140.3259  155.4469 H   0  0  0  0  0  0  0  0  0  0  0  0  # atno 8008 bound_to 7997
  156.2627  140.2006  156.6401 H   0  0  0  0  0  0  0  0  0  0  0  0  # atno 8009 bound_to 7997
  154.6596  140.0549  157.0034 H   0  0  0  0  0  0  0  0  0  0  0  0  # atno 8010 bound_to 7997
  139.8684  144.6506  150.8978 H   0  0  0  0  0  0  0  0  0  0  0  0  # atno 10167 bound_to 10162
  156.8163  130.9604  151.3114 H   0  0  0  0  0  0  0  0  0  0  0  0  # atno 10718 bound_to 10713
  154.8423  135.3437  154.6364 H   0  0  0  0  0  0  0  0  0  0  0  0  # atno 10763 bound_to 10752
  153.6975  135.6971  153.5077 H   0  0  0  0  0  0  0  0  0  0  0  0  # atno 10764 bound_to 10752
  153.2548  135.4342  155.0789 H   0  0  0  0  0  0  0  0  0  0  0  0  # atno 10765 bound_to 10752
  140.3593  134.2143  155.7673 H   0  0  0  0  0  0  0  0  0  0  0  0  # atno 11005 bound_to 11000
  144.8846  139.4857  143.6707 LP  0  0  0  0  0  0  0  0  0  0  0  0  # atno 17320 bound_to 7965
  146.3036  139.7506  142.9073 LP  0  0  0  0  0  0  0  0  0  0  0  0  # atno 17321 bound_to 7965
  140.7764  143.3685  151.1694 LP  0  0  0  0  0  0  0  0  0  0  0  0  # atno 17342 bound_to 10162
  139.7307  143.9076  152.3018 LP  0  0  0  0  0  0  0  0  0  0  0  0  # atno 17343 bound_to 10162
  157.6480  130.8860  149.9577 LP  0  0  0  0  0  0  0  0  0  0  0  0  # atno 17370 bound_to 10713
  156.1015  130.3655  150.0210 LP  0  0  0  0  0  0  0  0  0  0  0  0  # atno 17371 bound_to 10713
  141.1989  133.8025  157.0562 LP  0  0  0  0  0  0  0  0  0  0  0  0  # atno 17394 bound_to 11000
  140.0640  134.9739  157.1353 LP  0  0  0  0  0  0  0  0  0  0  0  0  # atno 17395 bound_to 11000

$$$$
