AV-unprocessed.smi:1602|AV-procd|sdf|6442|dock4
  -GOLD-   22720 7 93D 1   1.00000     0.00000
 Structure written by MMmdl.
 35 36  0  0  0  0  0  0  0  0  2 V2000
  148.8385  138.5379  158.2963 C   0  0  0  0  0  0  0  0  0  0  0  0
  148.9294  137.1192  158.8839 C   0  0  1  0  0  0  0  0  0  0  0  0
  147.5577  136.5365  159.3196 C   0  0  0  0  0  0  0  0  0  0  0  0
  147.4314  136.2099  160.7388 N   0  0  0  0  0  0  0  0  0  0  0  0
  146.5164  135.3767  161.3545 C   0  0  0  0  0  0  0  0  0  0  0  0
  146.7685  135.4073  162.6961 C   0  0  0  0  0  0  0  0  0  0  0  0
  147.8607  136.3112  162.8129 C   0  0  0  0  0  0  0  0  0  0  0  0
  148.2472  136.7975  161.6455 N   0  0  0  0  0  0  0  0  0  0  0  0
  149.5595  136.2320  157.9164 N   0  5  0  0  0  0  0  0  0  0  0  0
  151.1489  136.3608  157.6205 S   0  0  0  0  0  0  0  0  0  0  0  0
  151.9466  136.7562  158.7928 O   0  0  0  0  0  0  0  0  0  0  0  0
  151.6598  135.2639  156.7821 O   0  0  0  0  0  0  0  0  0  0  0  0
  151.0765  137.7665  156.6023 N   0  0  0  0  0  0  0  0  0  0  0  0
  151.1595  137.5344  155.1499 C   0  0  0  0  0  0  0  0  0  0  0  0
  150.8574  138.8178  154.3595 C   0  0  0  0  0  0  0  0  0  0  0  0
  151.7060  139.8702  154.7902 O   0  0  0  0  0  0  0  0  0  0  0  0
  151.4840  140.1811  156.1569 C   0  0  0  0  0  0  0  0  0  0  0  0
  151.8190  138.9675  157.0383 C   0  0  0  0  0  0  0  0  0  0  0  0
  148.3232  139.2102  158.9820 H   0  0  0  0  0  0  0  0  0  0  0  0
  148.3000  138.5506  157.3481 H   0  0  0  0  0  0  0  0  0  0  0  0
  149.8292  138.9553  158.1152 H   0  0  0  0  0  0  0  0  0  0  0  0
  149.5329  137.1838  159.7903 H   0  0  0  0  0  0  0  0  0  0  0  0
  146.7519  137.2179  159.0408 H   0  0  0  0  0  0  0  0  0  0  0  0
  147.3722  135.6186  158.7607 H   0  0  0  0  0  0  0  0  0  0  0  0
  145.7737  134.8333  160.7893 H   0  0  0  0  0  0  0  0  0  0  0  0
  146.2497  134.8689  163.4751 H   0  0  0  0  0  0  0  0  0  0  0  0
  148.3769  136.6312  163.7060 H   0  0  0  0  0  0  0  0  0  0  0  0
  152.1592  137.1710  154.9089 H   0  0  0  0  0  0  0  0  0  0  0  0
  150.4558  136.7554  154.8577 H   0  0  0  0  0  0  0  0  0  0  0  0
  151.0203  138.6468  153.2953 H   0  0  0  0  0  0  0  0  0  0  0  0
  149.8117  139.1069  154.4763 H   0  0  0  0  0  0  0  0  0  0  0  0
  152.1149  141.0262  156.4330 H   0  0  0  0  0  0  0  0  0  0  0  0
  150.4502  140.4962  156.3090 H   0  0  0  0  0  0  0  0  0  0  0  0
  151.5898  139.2032  158.0770 H   0  0  0  0  0  0  0  0  0  0  0  0
  152.8879  138.7561  156.9903 H   0  0  0  0  0  0  0  0  0  0  0  0
  1  2  1  0  0  0  0
  1 19  1  0  0  0  0
  1 20  1  0  0  0  0
  1 21  1  0  0  0  0
  2  3  1  0  0  0  0
  2  9  1  0  0  0  0
  2 22  1  0  0  0  0
  3  4  1  0  0  0  0
  3 23  1  0  0  0  0
  3 24  1  0  0  0  0
  4  8  1  0  0  0  0
  4  5  1  0  0  0  0
  5  6  2  0  0  0  0
  5 25  1  0  0  0  0
  6  7  1  0  0  0  0
  6 26  1  0  0  0  0
  7  8  2  0  0  0  0
  7 27  1  0  0  0  0
  9 10  1  0  0  0  0
 10 11  2  0  0  0  0
 10 12  2  0  0  0  0
 10 13  1  0  0  0  0
 13 18  1  0  0  0  0
 13 14  1  0  0  0  0
 14 15  1  0  0  0  0
 14 28  1  0  0  0  0
 14 29  1  0  0  0  0
 15 16  1  0  0  0  0
 15 30  1  0  0  0  0
 15 31  1  0  0  0  0
 16 17  1  0  0  0  0
 17 18  1  0  0  0  0
 17 32  1  0  0  0  0
 17 33  1  0  0  0  0
 18 34  1  0  0  0  0
 18 35  1  0  0  0  0
M  CHG  1   9  -1
M  END
> <s_m_source_file>
AV-unprocessed.smi

> <i_m_source_file_index>
1602

> <i_lp_mmshare_version>
43012

> <i_f3d_flags>
0

> <s_epik_input>
bjFbY0hdW2NIXVtjSF1uMVtDSDJdW0NAQEhdKFtDSDNdKVtOSF1TKD1PKSg9TylOMltDSDJdW0NIMl1PW0NIMl1bQ0gyXTI=

> <s_epik_cmdline>
J2VwaWtfcHl0aG9uJywgJy1waCcsICc3LjAnLCAnLXRuJywgJzgnLCAnLW1hJywgJzIwMCcsICctbWV0YWxfYmluZGluZycsICctaW1hZScsICc8aW5maWxlLm1hZT4nLCAnLW9tYWUnLCAnPG91dGZpbGUubWFlPic=

> <r_lp_tautomer_probability>
1

> <r_epik_Ionization_Penalty>
1.03144

> <r_epik_Ionization_Penalty_Charging>
1.03142

> <r_epik_Ionization_Penalty_Neutral>
2.21579e-05

> <r_epik_State_Penalty>
1.0826

> <r_epik_Charging_Adjusted_Penalty>
2.11402

> <i_epik_Tot_Q>
-1

> <i_epik_Tot_abs_Q>
1

> <r_epik_Metal_State_Penalty>
0.386234

> <b_epik_Metal_Only>
0

> <s_lp_Force_Field>
OPLS_2005

> <r_lp_Energy>
7.84511

> <b_lp_Chiralities_Consistent>
1

> <s_lp_Variant>
AV-unprocessed.smi:1602-4

> <Gold.Version>
5.8.1

> <Gold.Id.Protein>
6NUR|6NUR_protein|mol2

> <Gold.PLP.Fitness>
43.7003

> <Gold.PLP.PLP>
-32.3336

> <Gold.PLP.part.hbond>
-3.9556

> <Gold.PLP.part.metal>
0.0000

> <Gold.PLP.part.buried>
-2.8834

> <Gold.PLP.part.nonpolar>
-24.4010

> <Gold.PLP.part.repulsive>
0.0676

> <Gold.PLP.ligand.clash>
0.0000

> <Gold.PLP.ligand.torsion>
2.0985

> <Gold.PLP.Chemscore.Hbond>
4.6820

> <Gold.PLP.Chemscore.CHOScore>
0.0000

> <Gold.PLP.Chemscore.Metal>
0.0000

> <Gold.Chemscore.Hbonds>
donor molecule, donor type, donor heavy atom, donor atom, acceptor molecule, acceptor atom, score
      P1  H  6896  6909       L1    11  0.05
      P1  H  6931  6943       L1     8  1.00
      P1  H  7989  7998       L1    16  1.00

> <Gold.PLP.Chemscore.Internal.Correction>
1.5178

> <Gold.Rescore>
     Score         DG    S(hbond)    S(metal)    S(lipo)     H(rot)  DE(clash)    DE(int)     intcor
     14.22     -17.11       2.50        0.00      64.56       1.67       0.00       2.89       ----

> <Gold.Chemscore.Fitness>
14.2192

> <Gold.Chemscore.DG>
-17.1106

> <Gold.Chemscore.ZeroCoef>
-5.4800

> <Gold.Chemscore.Hbond>
2.4997

> <Gold.Chemscore.Metal>
0.0000

> <Gold.Chemscore.Lipo>
64.5624

> <Gold.Chemscore.Internal_Hbond>
0.0000

> <Gold.Chemscore.DEClash>
0.0000

> <Gold.Chemscore.DEInternal>
2.8915

> <Gold.Chemscore.Rot>
1.6688

> <Gold.Chemscore.Internal.Correction>
   9.000000E+99

> <Gold.Chemscore.Hbonds>
donor molecule, donor type, donor heavy atom, donor atom, acceptor molecule, acceptor atom, score
      P1  H  6931  6943       L1     8  0.65
      P1  H  7989  7998       L1    16  0.29

> <Gold.Chemscore.Hbond.Weighted>
-8.3491

> <Gold.Chemscore.Metal.Weighted>
-0.0000

> <Gold.Chemscore.Lipo.Weighted>
-7.5538

> <Gold.Chemscore.Internal_Hbond.Weighted>
0.0000

> <Gold.Chemscore.DEClash.Weighted>
0.0000

> <Gold.Chemscore.DEInternal.Weighted>
2.8915

> <Gold.Chemscore.Rot.Weighted>
4.2722

> <Gold.Chemscore.Internal.Correction.Weighted>
   9.000000E+99

> <Gold.Protein.RotatedTorsions>
[ 6907 6896 6895 6894 ] final   80.26 input  -60.11 | X-H torsion
[ 7974 7965 7964 7962 ] final  130.87 input  175.53 | X-H torsion
[ 8008 7997 7996 7995 ] final  -80.50 input   59.86 | X-H torsion
[ 10167 10162 10161 10158 ] final   68.89 input  -65.29 | X-H torsion
[ 10718 10713 10712 10709 ] final  136.69 input   66.30 | X-H torsion
[ 10763 10752 10751 10750 ] final   39.00 input  -60.55 | X-H torsion
[ 11005 11000 10999 10996 ] final   80.04 input  -57.11 | X-H torsion

> <Gold.Protein.ActiveResidues>
 VAL166  LYS551  ARG553  GLY616  TRP617  ASP618  TYR619  PRO620  LYS621  CYS622 
 ASP623  PHE694  ASN695  SER759  ASP760  ASP761  ALA762  ILE779  LEU786  VAL792 
 PHE793  MET794  SER795  GLU796  ALA797  LYS798  CYS799  TRP800  GLU811  SER814 

> <Gold.Protein.RotatedAtoms>
  152.5228  134.3384  159.9208 H   0  0  0  0  0  0  0  0  0  0  0  0  # atno 6907 bound_to 6896
  151.3334  133.3985  159.2672 H   0  0  0  0  0  0  0  0  0  0  0  0  # atno 6908 bound_to 6896
  150.9862  134.9225  159.7931 H   0  0  0  0  0  0  0  0  0  0  0  0  # atno 6909 bound_to 6896
  145.0133  139.4200  143.5234 H   0  0  0  0  0  0  0  0  0  0  0  0  # atno 7974 bound_to 7965
  154.5889  140.0662  156.9210 H   0  0  0  0  0  0  0  0  0  0  0  0  # atno 8008 bound_to 7997
  155.2330  140.3339  155.4283 H   0  0  0  0  0  0  0  0  0  0  0  0  # atno 8009 bound_to 7997
  156.2242  140.1812  156.7388 H   0  0  0  0  0  0  0  0  0  0  0  0  # atno 8010 bound_to 7997
  140.0738  144.5130  150.7209 H   0  0  0  0  0  0  0  0  0  0  0  0  # atno 10167 bound_to 10162
  157.4440  131.1060  151.0111 H   0  0  0  0  0  0  0  0  0  0  0  0  # atno 10718 bound_to 10713
  152.9982  135.6233  154.2395 H   0  0  0  0  0  0  0  0  0  0  0  0  # atno 10763 bound_to 10752
  154.2136  135.2799  155.2951 H   0  0  0  0  0  0  0  0  0  0  0  0  # atno 10764 bound_to 10752
  154.5586  135.5712  153.7046 H   0  0  0  0  0  0  0  0  0  0  0  0  # atno 10765 bound_to 10752
  139.9149  134.7889  156.1857 H   0  0  0  0  0  0  0  0  0  0  0  0  # atno 11005 bound_to 11000
  146.3473  139.9589  142.8719 LP  0  0  0  0  0  0  0  0  0  0  0  0  # atno 17320 bound_to 7965
  145.1994  140.9847  143.4165 LP  0  0  0  0  0  0  0  0  0  0  0  0  # atno 17321 bound_to 7965
  140.7112  143.2507  151.4574 LP  0  0  0  0  0  0  0  0  0  0  0  0  # atno 17342 bound_to 10162
  139.5820  144.1688  152.1980 LP  0  0  0  0  0  0  0  0  0  0  0  0  # atno 17343 bound_to 10162
  157.0964  130.5963  149.5450 LP  0  0  0  0  0  0  0  0  0  0  0  0  # atno 17370 bound_to 10713
  155.9960  130.5028  150.7479 LP  0  0  0  0  0  0  0  0  0  0  0  0  # atno 17371 bound_to 10713
  141.0615  133.6839  156.1961 LP  0  0  0  0  0  0  0  0  0  0  0  0  # atno 17394 bound_to 11000
  140.6653  134.4924  157.5585 LP  0  0  0  0  0  0  0  0  0  0  0  0  # atno 17395 bound_to 11000

$$$$
