AV-unprocessed.smi:2462|AV-procd|sdf|9717|dock8
  -GOLD-   2272013353D 1   1.00000     0.00000
 Structure written by MMmdl.
 40 41  0  0  0  0  0  0  0  0  1 V2000
  152.2769  143.7749  161.3586 C   0  0  0  0  0  0  0  0  0  0  0  0
  152.0806  143.0914  160.0172 C   0  0  0  0  0  0  0  0  0  0  0  0
  151.2761  143.7757  159.1030 N   0  0  0  0  0  0  0  0  0  0  0  0
  151.0329  143.2565  157.9445 C   0  0  0  0  0  0  0  0  0  0  0  0
  151.5444  142.0018  157.5688 N   0  0  0  0  0  0  0  0  0  0  0  0
  151.1668  141.5290  156.2188 C   0  0  0  0  0  0  0  0  0  0  0  0
  150.0365  140.4511  156.1762 C   0  0  1  0  0  0  0  0  0  0  0  0
  150.5430  139.2984  156.8233 O   0  0  0  0  0  0  0  0  0  0  0  0
  148.8233  140.8769  157.0387 C   0  0  0  0  0  0  0  0  0  0  0  0
  147.9409  141.9374  156.3561 C   0  0  0  0  0  0  0  0  0  0  0  0
  147.4605  141.4664  154.9719 C   0  0  1  0  0  0  0  0  0  0  0  0
  146.5810  142.5252  154.2921 C   0  0  0  0  0  0  0  0  0  0  0  0
  148.6637  141.0848  154.0917 C   0  0  0  0  0  0  0  0  0  0  0  0
  149.5520  140.0253  154.7668 C   0  0  0  0  0  0  0  0  0  0  0  0
  152.3980  141.3043  158.3764 C   0  0  0  0  0  0  0  0  0  0  0  0
  152.9238  140.2499  158.0164 O   0  0  0  0  0  0  0  0  0  0  0  0
  152.6455  141.8947  159.7022 C   0  0  0  0  0  0  0  0  0  0  0  0
  153.5340  141.1053  160.6559 C   0  0  0  0  0  0  0  0  0  0  0  0
  153.3334  143.9821  161.5307 H   0  0  0  0  0  0  0  0  0  0  0  0
  151.9083  143.1428  162.1668 H   0  0  0  0  0  0  0  0  0  0  0  0
  151.7387  144.7225  161.4045 H   0  0  0  0  0  0  0  0  0  0  0  0
  150.4223  143.7579  157.1921 H   0  0  0  0  0  0  0  0  0  0  0  0
  150.8866  142.3837  155.5993 H   0  0  0  0  0  0  0  0  0  0  0  0
  152.0478  141.1355  155.7132 H   0  0  0  0  0  0  0  0  0  0  0  0
  149.9059  139.0058  157.4571 H   0  0  0  0  0  0  0  0  0  0  0  0
  148.1981  140.0071  157.2482 H   0  0  0  0  0  0  0  0  0  0  0  0
  149.1589  141.2444  158.0098 H   0  0  0  0  0  0  0  0  0  0  0  0
  147.0809  142.1524  156.9912 H   0  0  0  0  0  0  0  0  0  0  0  0
  148.4856  142.8766  156.2603 H   0  0  0  0  0  0  0  0  0  0  0  0
  146.8498  140.5734  155.1128 H   0  0  0  0  0  0  0  0  0  0  0  0
  147.1336  143.4499  154.1216 H   0  0  0  0  0  0  0  0  0  0  0  0
  145.7113  142.7650  154.9044 H   0  0  0  0  0  0  0  0  0  0  0  0
  146.2172  142.1725  153.3266 H   0  0  0  0  0  0  0  0  0  0  0  0
  148.3143  140.7032  153.1318 H   0  0  0  0  0  0  0  0  0  0  0  0
  149.2455  141.9760  153.8679 H   0  0  0  0  0  0  0  0  0  0  0  0
  150.3908  139.7696  154.1192 H   0  0  0  0  0  0  0  0  0  0  0  0
  148.9657  139.1091  154.8538 H   0  0  0  0  0  0  0  0  0  0  0  0
  153.1023  140.1218  160.8443 H   0  0  0  0  0  0  0  0  0  0  0  0
  153.6701  141.5930  161.6198 H   0  0  0  0  0  0  0  0  0  0  0  0
  154.5226  140.9629  160.2184 H   0  0  0  0  0  0  0  0  0  0  0  0
  1  2  1  0  0  0  0
  1 19  1  0  0  0  0
  1 20  1  0  0  0  0
  1 21  1  0  0  0  0
  2 17  2  0  0  0  0
  2  3  1  0  0  0  0
  3  4  2  0  0  0  0
  4  5  1  0  0  0  0
  4 22  1  0  0  0  0
  5  6  1  0  0  0  0
  5 15  1  0  0  0  0
  6  7  1  0  0  0  0
  6 23  1  0  0  0  0
  6 24  1  0  0  0  0
  7 14  1  0  0  0  0
  7  8  1  0  0  0  0
  7  9  1  0  0  0  0
  8 25  1  0  0  0  0
  9 10  1  0  0  0  0
  9 26  1  0  0  0  0
  9 27  1  0  0  0  0
 10 11  1  0  0  0  0
 10 28  1  0  0  0  0
 10 29  1  0  0  0  0
 11 12  1  0  0  0  0
 11 13  1  0  0  0  0
 11 30  1  0  0  0  0
 12 31  1  0  0  0  0
 12 32  1  0  0  0  0
 12 33  1  0  0  0  0
 13 14  1  0  0  0  0
 13 34  1  0  0  0  0
 13 35  1  0  0  0  0
 14 36  1  0  0  0  0
 14 37  1  0  0  0  0
 15 16  2  0  0  0  0
 15 17  1  0  0  0  0
 17 18  1  0  0  0  0
 18 38  1  0  0  0  0
 18 39  1  0  0  0  0
 18 40  1  0  0  0  0
M  END
> <s_m_source_file>
AV-unprocessed.smi

> <i_m_source_file_index>
2462

> <i_lp_mmshare_version>
43012

> <i_f3d_flags>
0

> <s_epik_input>
W0NIM11jMW5bY0hdbihjKD1PKWMxW0NIM10pW0NIMl1bQ0BAXTIoW09IXSlbQ0gyXVtDSDJdW0NAQEhdKFtDSDNdKVtDSDJdW0NIMl0y

> <s_epik_cmdline>
J2VwaWtfcHl0aG9uJywgJy1waCcsICc3LjAnLCAnLXRuJywgJzgnLCAnLW1hJywgJzIwMCcsICctbWV0YWxfYmluZGluZycsICctaW1hZScsICc8aW5maWxlLm1hZT4nLCAnLW9tYWUnLCAnPG91dGZpbGUubWFlPic=

> <r_lp_tautomer_probability>
1

> <r_epik_Ionization_Penalty>
0.000179745

> <r_epik_Ionization_Penalty_Charging>
2.35483e-07

> <r_epik_Ionization_Penalty_Neutral>
0.00017951

> <r_epik_State_Penalty>
-0

> <r_epik_Charging_Adjusted_Penalty>
2.35483e-07

> <i_epik_Tot_Q>
0

> <i_epik_Tot_abs_Q>
0

> <r_epik_Metal_State_Penalty>
-0

> <b_epik_Metal_Only>
0

> <s_lp_Force_Field>
OPLS_2005

> <r_lp_Energy>
24.5365

> <b_lp_Chiralities_Consistent>
1

> <s_lp_Variant>
AV-unprocessed.smi:2462-1

> <Gold.Version>
5.8.1

> <Gold.Id.Protein>
6NUR|6NUR_protein|mol2

> <Gold.PLP.Fitness>
41.4416

> <Gold.PLP.PLP>
-36.0630

> <Gold.PLP.part.hbond>
-1.0000

> <Gold.PLP.part.metal>
0.0000

> <Gold.PLP.part.buried>
-3.0817

> <Gold.PLP.part.nonpolar>
-31.6216

> <Gold.PLP.part.repulsive>
0.0664

> <Gold.PLP.ligand.clash>
0.0000

> <Gold.PLP.ligand.torsion>
0.3137

> <Gold.PLP.Chemscore.Hbond>
0.9760

> <Gold.PLP.Chemscore.CHOScore>
1.0000

> <Gold.PLP.Chemscore.Metal>
0.0000

> <Gold.Chemscore.Hbonds>
donor molecule, donor type, donor heavy atom, donor atom, acceptor molecule, acceptor atom, score
      P1  H  7997  8010       L1    16  0.94
      L1  C     4    22       P1  8028  1.00

> <Gold.PLP.Chemscore.Internal.Correction>
0.0780

> <Gold.Rescore>
     Score         DG    S(hbond)    S(metal)    S(lipo)     H(rot)  DE(clash)    DE(int)     intcor
     12.78     -14.54       0.90        0.00      88.28       1.68       0.11       1.65       ----

> <Gold.Chemscore.Fitness>
12.7806

> <Gold.Chemscore.DG>
-14.5405

> <Gold.Chemscore.ZeroCoef>
-5.4800

> <Gold.Chemscore.Hbond>
0.9047

> <Gold.Chemscore.Metal>
0.0000

> <Gold.Chemscore.Lipo>
88.2785

> <Gold.Chemscore.Internal_Hbond>
0.0000

> <Gold.Chemscore.DEClash>
0.1067

> <Gold.Chemscore.DEInternal>
1.6532

> <Gold.Chemscore.Rot>
1.6758

> <Gold.Chemscore.Internal.Correction>
   9.000000E+99

> <Gold.Chemscore.Hbonds>
donor molecule, donor type, donor heavy atom, donor atom, acceptor molecule, acceptor atom, score
      P1  H  7997  8010       L1    16  0.90

> <Gold.Chemscore.Hbond.Weighted>
-3.0219

> <Gold.Chemscore.Metal.Weighted>
-0.0000

> <Gold.Chemscore.Lipo.Weighted>
-10.3286

> <Gold.Chemscore.Internal_Hbond.Weighted>
0.0000

> <Gold.Chemscore.DEClash.Weighted>
0.1067

> <Gold.Chemscore.DEInternal.Weighted>
1.6532

> <Gold.Chemscore.Rot.Weighted>
4.2899

> <Gold.Chemscore.Internal.Correction.Weighted>
   9.000000E+99

> <Gold.Protein.RotatedTorsions>
[ 6907 6896 6895 6894 ] final  -48.14 input  -60.11 | X-H torsion
[ 7974 7965 7964 7962 ] final  110.65 input  175.53 | X-H torsion
[ 8008 7997 7996 7995 ] final   37.63 input   59.86 | X-H torsion
[ 10167 10162 10161 10158 ] final -117.02 input  -65.29 | X-H torsion
[ 10718 10713 10712 10709 ] final  100.20 input   66.30 | X-H torsion
[ 10763 10752 10751 10750 ] final   71.28 input  -60.55 | X-H torsion
[ 11005 11000 10999 10996 ] final -142.18 input  -57.11 | X-H torsion

> <Gold.Protein.ActiveResidues>
 VAL166  LYS551  ARG553  GLY616  TRP617  ASP618  TYR619  PRO620  LYS621  CYS622 
 ASP623  PHE694  ASN695  SER759  ASP760  ASP761  ALA762  ILE779  LEU786  VAL792 
 PHE793  MET794  SER795  GLU796  ALA797  LYS798  CYS799  TRP800  GLU811  SER814 

> <Gold.Protein.RotatedAtoms>
  150.8936  134.8342  159.7310 H   0  0  0  0  0  0  0  0  0  0  0  0  # atno 6907 bound_to 6896
  152.4852  134.4610  159.9615 H   0  0  0  0  0  0  0  0  0  0  0  0  # atno 6908 bound_to 6896
  151.4670  133.3539  159.2853 H   0  0  0  0  0  0  0  0  0  0  0  0  # atno 6909 bound_to 6896
  145.2523  139.2735  143.4061 H   0  0  0  0  0  0  0  0  0  0  0  0  # atno 7974 bound_to 7965
  155.2069  140.3320  155.4334 H   0  0  0  0  0  0  0  0  0  0  0  0  # atno 8008 bound_to 7997
  156.2385  140.1884  156.7102 H   0  0  0  0  0  0  0  0  0  0  0  0  # atno 8009 bound_to 7997
  154.6104  140.0610  156.9472 H   0  0  0  0  0  0  0  0  0  0  0  0  # atno 8010 bound_to 7997
  140.0728  143.4861  152.1970 H   0  0  0  0  0  0  0  0  0  0  0  0  # atno 10167 bound_to 10162
  157.6859  131.0691  150.5064 H   0  0  0  0  0  0  0  0  0  0  0  0  # atno 10718 bound_to 10713
  153.0390  135.5142  154.7570 H   0  0  0  0  0  0  0  0  0  0  0  0  # atno 10763 bound_to 10752
  154.6523  135.2927  154.9974 H   0  0  0  0  0  0  0  0  0  0  0  0  # atno 10764 bound_to 10752
  154.0854  135.6658  153.4897 H   0  0  0  0  0  0  0  0  0  0  0  0  # atno 10765 bound_to 10752
  140.8250  134.2585  157.4883 H   0  0  0  0  0  0  0  0  0  0  0  0  # atno 11005 bound_to 11000
  146.3299  140.2917  142.8615 LP  0  0  0  0  0  0  0  0  0  0  0  0  # atno 17320 bound_to 7965
  144.9492  140.8160  143.5582 LP  0  0  0  0  0  0  0  0  0  0  0  0  # atno 17321 bound_to 7965
  139.5825  144.7517  151.3603 LP  0  0  0  0  0  0  0  0  0  0  0  0  # atno 17342 bound_to 10162
  140.7117  143.7374  150.7579 LP  0  0  0  0  0  0  0  0  0  0  0  0  # atno 17343 bound_to 10162
  156.5384  130.4202  149.6166 LP  0  0  0  0  0  0  0  0  0  0  0  0  # atno 17370 bound_to 10713
  156.3007  130.7175  151.2046 LP  0  0  0  0  0  0  0  0  0  0  0  0  # atno 17371 bound_to 10713
  139.8707  134.9556  156.4211 LP  0  0  0  0  0  0  0  0  0  0  0  0  # atno 17394 bound_to 11000
  140.9058  133.7746  155.9734 LP  0  0  0  0  0  0  0  0  0  0  0  0  # atno 17395 bound_to 11000

$$$$
