AV-unprocessed.smi:2855|AV-procd|sdf|10989|dock2
  -GOLD-   2272015443D 1   1.00000     0.00000
 Structure written by MMmdl.
 46 47  0  0  0  0  0  0  0  0  2 V2000
  151.5221  139.0591  155.0032 C   0  0  0  0  0  0  0  0  0  0  0  0
  150.2541  139.8736  154.7104 C   0  0  2  0  0  0  0  0  0  0  0  0
  149.6549  140.4663  155.9964 C   0  0  0  0  0  0  0  0  0  0  0  0
  148.3913  141.2875  155.6996 C   0  0  0  0  0  0  0  0  0  0  0  0
  147.3159  140.4540  154.9620 C   0  0  1  0  0  0  0  0  0  0  0  0
  145.9881  141.2366  154.7295 C   0  0  0  0  0  0  0  0  0  0  0  0
  146.1573  142.5341  153.9176 C   0  0  0  0  0  0  0  0  0  0  0  0
  145.2309  141.5128  156.0400 C   0  0  0  0  0  0  0  0  0  0  0  0
  147.9197  139.8314  153.6709 C   0  0  2  0  0  0  0  0  0  0  0  0
  146.9624  138.9392  153.0178 N   0  0  0  0  0  0  0  0  0  0  0  0
  146.2176  137.9994  153.6204 C   0  0  0  0  0  0  0  0  0  0  0  0
  146.2588  137.7748  154.8309 O   0  0  0  0  0  0  0  0  0  0  0  0
  145.3094  137.1817  152.6910 C   0  0  0  0  0  0  0  0  0  0  0  0
  143.9825  136.8984  153.2620 N   0  0  0  0  0  0  0  0  0  0  0  0
  142.9030  137.6810  152.8158 C   0  0  0  0  0  0  0  0  0  0  0  0
  141.6517  137.4952  153.2774 C   0  0  0  0  0  0  0  0  0  0  0  0
  141.4299  136.4485  154.2673 C   0  0  0  0  0  0  0  0  0  0  0  0
  140.2952  136.2693  154.7053 O   0  0  0  0  0  0  0  0  0  0  0  0
  142.5083  135.7106  154.6632 N   0  5  0  0  0  0  0  0  0  0  0  0
  143.7750  135.9083  154.1818 C   0  0  0  0  0  0  0  0  0  0  0  0
  144.7332  135.2276  154.5491 O   0  0  0  0  0  0  0  0  0  0  0  0
  149.1983  139.0271  153.9784 C   0  0  0  0  0  0  0  0  0  0  0  0
  151.3076  138.2111  155.6545 H   0  0  0  0  0  0  0  0  0  0  0  0
  152.2788  139.6726  155.4930 H   0  0  0  0  0  0  0  0  0  0  0  0
  151.9588  138.6702  154.0828 H   0  0  0  0  0  0  0  0  0  0  0  0
  150.5373  140.6999  154.0566 H   0  0  0  0  0  0  0  0  0  0  0  0
  149.4139  139.6662  156.6977 H   0  0  0  0  0  0  0  0  0  0  0  0
  150.3911  141.0998  156.4926 H   0  0  0  0  0  0  0  0  0  0  0  0
  147.9999  141.6735  156.6400 H   0  0  0  0  0  0  0  0  0  0  0  0
  148.6690  142.1556  155.1015 H   0  0  0  0  0  0  0  0  0  0  0  0
  147.0664  139.6174  155.6172 H   0  0  0  0  0  0  0  0  0  0  0  0
  145.3246  140.5939  154.1511 H   0  0  0  0  0  0  0  0  0  0  0  0
  146.7552  143.2716  154.4524 H   0  0  0  0  0  0  0  0  0  0  0  0
  145.1886  142.9900  153.7123 H   0  0  0  0  0  0  0  0  0  0  0  0
  146.6323  142.3513  152.9545 H   0  0  0  0  0  0  0  0  0  0  0  0
  145.7539  142.2324  156.6696 H   0  0  0  0  0  0  0  0  0  0  0  0
  145.0923  140.5987  156.6179 H   0  0  0  0  0  0  0  0  0  0  0  0
  144.2406  141.9217  155.8368 H   0  0  0  0  0  0  0  0  0  0  0  0
  148.2040  140.6391  152.9951 H   0  0  0  0  0  0  0  0  0  0  0  0
  146.8581  139.0454  152.0193 H   0  0  0  0  0  0  0  0  0  0  0  0
  145.2119  137.7043  151.7378 H   0  0  0  0  0  0  0  0  0  0  0  0
  145.8185  136.2468  152.4524 H   0  0  0  0  0  0  0  0  0  0  0  0
  143.1526  138.4291  152.0778 H   0  0  0  0  0  0  0  0  0  0  0  0
  140.8328  138.1031  152.9218 H   0  0  0  0  0  0  0  0  0  0  0  0
  149.6195  138.6425  153.0482 H   0  0  0  0  0  0  0  0  0  0  0  0
  148.9479  138.1551  154.5848 H   0  0  0  0  0  0  0  0  0  0  0  0
  1  2  1  0  0  0  0
  1 23  1  0  0  0  0
  1 24  1  0  0  0  0
  1 25  1  0  0  0  0
  2 22  1  0  0  0  0
  2  3  1  0  0  0  0
  2 26  1  0  0  0  0
  3  4  1  0  0  0  0
  3 27  1  0  0  0  0
  3 28  1  0  0  0  0
  4  5  1  0  0  0  0
  4 29  1  0  0  0  0
  4 30  1  0  0  0  0
  5  6  1  0  0  0  0
  5  9  1  0  0  0  0
  5 31  1  0  0  0  0
  6  7  1  0  0  0  0
  6  8  1  0  0  0  0
  6 32  1  0  0  0  0
  7 33  1  0  0  0  0
  7 34  1  0  0  0  0
  7 35  1  0  0  0  0
  8 36  1  0  0  0  0
  8 37  1  0  0  0  0
  8 38  1  0  0  0  0
  9 10  1  0  0  0  0
  9 22  1  0  0  0  0
  9 39  1  0  0  0  0
 10 11  1  0  0  0  0
 10 40  1  0  0  0  0
 11 12  2  0  0  0  0
 11 13  1  0  0  0  0
 13 14  1  0  0  0  0
 13 41  1  0  0  0  0
 13 42  1  0  0  0  0
 14 20  1  0  0  0  0
 14 15  1  0  0  0  0
 15 16  2  0  0  0  0
 15 43  1  0  0  0  0
 16 17  1  0  0  0  0
 16 44  1  0  0  0  0
 17 18  2  0  0  0  0
 17 19  1  0  0  0  0
 19 20  1  0  0  0  0
 20 21  2  0  0  0  0
 22 45  1  0  0  0  0
 22 46  1  0  0  0  0
M  CHG  1  19  -1
M  END
> <s_m_source_file>
AV-unprocessed.smi

> <i_m_source_file_index>
2855

> <i_lp_mmshare_version>
43012

> <i_f3d_flags>
0

> <s_epik_input>
W0NIM11bQ0BASF0xW0NIMl1bQ0gyXVtDQEBIXShbQ0hdKFtDSDNdKVtDSDNdKVtDQEhdKFtDSDJdMSlbTkhdQyg9TylbQ0gyXW4yW2NIXVtjSF1jKD1PKVtuSF1jMj1P

> <s_epik_cmdline>
J2VwaWtfcHl0aG9uJywgJy1waCcsICc3LjAnLCAnLXRuJywgJzgnLCAnLW1hJywgJzIwMCcsICctbWV0YWxfYmluZGluZycsICctaW1hZScsICc8aW5maWxlLm1hZT4nLCAnLW9tYWUnLCAnPG91dGZpbGUubWFlPic=

> <r_lp_tautomer_probability>
0.999537

> <r_epik_Ionization_Penalty>
3.12102

> <r_epik_Ionization_Penalty_Charging>
2.9581e-08

> <r_epik_Ionization_Penalty_Neutral>
3.12102

> <r_epik_State_Penalty>
3.12011

> <r_epik_Charging_Adjusted_Penalty>
3.12011

> <i_epik_Tot_Q>
-1

> <i_epik_Tot_abs_Q>
1

> <r_epik_Metal_State_Penalty>
0.463583

> <b_epik_Metal_Only>
1

> <s_lp_Force_Field>
OPLS_2005

> <r_lp_Energy>
24.0282

> <b_lp_Chiralities_Consistent>
1

> <s_lp_Variant>
AV-unprocessed.smi:2855-13

> <Gold.Version>
5.8.1

> <Gold.Id.Protein>
6NUR|6NUR_protein|mol2

> <Gold.PLP.Fitness>
34.9299

> <Gold.PLP.PLP>
-27.6791

> <Gold.PLP.part.hbond>
-1.2967

> <Gold.PLP.part.metal>
0.0000

> <Gold.PLP.part.buried>
-0.0500

> <Gold.PLP.part.nonpolar>
-26.8854

> <Gold.PLP.part.repulsive>
0.2301

> <Gold.PLP.ligand.clash>
0.0000

> <Gold.PLP.ligand.torsion>
0.8180

> <Gold.PLP.Chemscore.Hbond>
0.9675

> <Gold.PLP.Chemscore.CHOScore>
1.9607

> <Gold.PLP.Chemscore.Metal>
0.0000

> <Gold.Chemscore.Hbonds>
donor molecule, donor type, donor heavy atom, donor atom, acceptor molecule, acceptor atom, score
      P1  H 11000 11005       L1    18  0.92
      L1  C    15    43       P1 10171  1.00
      L1  C    15    43       P1 10175  0.94

> <Gold.PLP.Chemscore.Internal.Correction>
0.1021

> <Gold.Rescore>
     Score         DG    S(hbond)    S(metal)    S(lipo)     H(rot)  DE(clash)    DE(int)     intcor
      9.04     -11.36       0.88        0.00      64.80       1.81       0.17       2.15       ----

> <Gold.Chemscore.Fitness>
9.0366

> <Gold.Chemscore.DG>
-11.3616

> <Gold.Chemscore.ZeroCoef>
-5.4800

> <Gold.Chemscore.Hbond>
0.8782

> <Gold.Chemscore.Metal>
0.0000

> <Gold.Chemscore.Lipo>
64.8013

> <Gold.Chemscore.Internal_Hbond>
0.0000

> <Gold.Chemscore.DEClash>
0.1744

> <Gold.Chemscore.DEInternal>
2.1506

> <Gold.Chemscore.Rot>
1.8100

> <Gold.Chemscore.Internal.Correction>
   9.000000E+99

> <Gold.Chemscore.Hbonds>
donor molecule, donor type, donor heavy atom, donor atom, acceptor molecule, acceptor atom, score
      P1  H 11000 11005       L1    18  0.82

> <Gold.Chemscore.Hbond.Weighted>
-2.9333

> <Gold.Chemscore.Metal.Weighted>
-0.0000

> <Gold.Chemscore.Lipo.Weighted>
-7.5818

> <Gold.Chemscore.Internal_Hbond.Weighted>
0.0000

> <Gold.Chemscore.DEClash.Weighted>
0.1744

> <Gold.Chemscore.DEInternal.Weighted>
2.1506

> <Gold.Chemscore.Rot.Weighted>
4.6335

> <Gold.Chemscore.Internal.Correction.Weighted>
   9.000000E+99

> <Gold.Protein.RotatedTorsions>
[ 6907 6896 6895 6894 ] final  100.05 input  -60.11 | X-H torsion
[ 7974 7965 7964 7962 ] final  156.82 input  175.53 | X-H torsion
[ 8008 7997 7996 7995 ] final  -84.72 input   59.86 | X-H torsion
[ 10167 10162 10161 10158 ] final  -81.49 input  -65.29 | X-H torsion
[ 10718 10713 10712 10709 ] final  -64.12 input   66.30 | X-H torsion
[ 10763 10752 10751 10750 ] final   90.27 input  -60.55 | X-H torsion
[ 11005 11000 10999 10996 ] final   74.99 input  -57.11 | X-H torsion

> <Gold.Protein.ActiveResidues>
 VAL166  LYS551  ARG553  GLY616  TRP617  ASP618  TYR619  PRO620  LYS621  CYS622 
 ASP623  PHE694  ASN695  SER759  ASP760  ASP761  ALA762  ILE779  LEU786  VAL792 
 PHE793  MET794  SER795  GLU796  ALA797  LYS798  CYS799  TRP800  GLU811  SER814 

> <Gold.Protein.RotatedAtoms>
  152.5380  134.0336  159.8035 H   0  0  0  0  0  0  0  0  0  0  0  0  # atno 6907 bound_to 6896
  151.0503  133.5622  159.2650 H   0  0  0  0  0  0  0  0  0  0  0  0  # atno 6908 bound_to 6896
  151.2559  135.0645  159.9133 H   0  0  0  0  0  0  0  0  0  0  0  0  # atno 6909 bound_to 6896
  144.7940  139.7256  143.6209 H   0  0  0  0  0  0  0  0  0  0  0  0  # atno 7974 bound_to 7965
  154.6328  140.0601  156.9753 H   0  0  0  0  0  0  0  0  0  0  0  0  # atno 8008 bound_to 7997
  155.1638  140.3285  155.4387 H   0  0  0  0  0  0  0  0  0  0  0  0  # atno 8009 bound_to 7997
  156.2492  140.1926  156.6744 H   0  0  0  0  0  0  0  0  0  0  0  0  # atno 8010 bound_to 7997
  140.4407  143.2515  151.8629 H   0  0  0  0  0  0  0  0  0  0  0  0  # atno 10167 bound_to 10162
  156.0748  130.4229  150.1375 H   0  0  0  0  0  0  0  0  0  0  0  0  # atno 10718 bound_to 10713
  153.1958  135.4440  155.0206 H   0  0  0  0  0  0  0  0  0  0  0  0  # atno 10763 bound_to 10752
  154.8118  135.3297  154.7287 H   0  0  0  0  0  0  0  0  0  0  0  0  # atno 10764 bound_to 10752
  153.7737  135.6983  153.4957 H   0  0  0  0  0  0  0  0  0  0  0  0  # atno 10765 bound_to 10752
  139.9365  134.7480  156.1215 H   0  0  0  0  0  0  0  0  0  0  0  0  # atno 11005 bound_to 11000
  146.2202  139.5621  142.9624 LP  0  0  0  0  0  0  0  0  0  0  0  0  # atno 17320 bound_to 7965
  145.5721  141.0393  143.2168 LP  0  0  0  0  0  0  0  0  0  0  0  0  # atno 17321 bound_to 7965
  139.4789  144.5232  151.8772 LP  0  0  0  0  0  0  0  0  0  0  0  0  # atno 17342 bound_to 10162
  140.4321  144.2101  150.5888 LP  0  0  0  0  0  0  0  0  0  0  0  0  # atno 17343 bound_to 10162
  156.9419  130.9747  151.3514 LP  0  0  0  0  0  0  0  0  0  0  0  0  # atno 17370 bound_to 10713
  157.5838  130.8395  149.8560 LP  0  0  0  0  0  0  0  0  0  0  0  0  # atno 17371 bound_to 10713
  141.0980  133.6688  156.2690 LP  0  0  0  0  0  0  0  0  0  0  0  0  # atno 17394 bound_to 11000
  140.6063  134.5504  157.5526 LP  0  0  0  0  0  0  0  0  0  0  0  0  # atno 17395 bound_to 11000

$$$$
