AV-unprocessed.smi:72|AV-procd|sdf|712|dock9
  -GOLD-   2262017 33D 1   1.00000     0.00000
 Structure written by MMmdl.
 28 29  0  0  0  0  0  0  0  0  2 V2000
  151.6100  134.6476  157.0312 N   0  0  0  0  0  0  0  0  0  0  0  0
  151.4668  135.8407  156.6506 C   0  0  0  0  0  0  0  0  0  0  0  0
  150.1415  136.3983  156.4916 N   0  0  0  0  0  0  0  0  0  0  0  0
  150.0468  137.6287  156.0902 C   0  0  0  0  0  0  0  0  0  0  0  0
  151.2255  138.4354  155.8002 N   0  0  0  0  0  0  0  0  0  0  0  0
  151.1216  139.8771  155.3331 C   0  0  1  0  0  0  0  0  0  0  0  0
  150.1639  139.9808  154.3154 O   0  0  0  0  0  0  0  0  0  0  0  0
  149.0560  140.7449  154.7757 C   0  0  2  0  0  0  0  0  0  0  0  0
  148.2698  141.3397  153.5934 C   0  0  0  0  0  0  0  0  0  0  0  0
  147.9986  140.3788  152.5934 O   0  0  0  0  0  0  0  0  0  0  0  0
  149.6754  141.7282  155.7691 C   0  0  1  0  0  0  0  0  0  0  0  0
  148.7255  142.2952  156.6525 O   0  0  0  0  0  0  0  0  0  0  0  0
  150.7165  140.8561  156.4653 C   0  0  1  0  0  0  0  0  0  0  0  0
  150.1901  140.2088  157.6147 O   0  0  0  0  0  0  0  0  0  0  0  0
  152.5138  137.8654  155.9790 C   0  0  0  0  0  0  0  0  0  0  0  0
  153.4963  138.5727  155.7540 O   0  0  0  0  0  0  0  0  0  0  0  0
  152.6061  136.5730  156.4000 N   0  5  0  0  0  0  0  0  0  0  0  0
  152.0885  140.1139  154.8861 H   0  0  0  0  0  0  0  0  0  0  0  0
  148.4008  140.0592  155.3158 H   0  0  0  0  0  0  0  0  0  0  0  0
  150.1928  142.5299  155.2415 H   0  0  0  0  0  0  0  0  0  0  0  0
  151.5870  141.4375  156.7708 H   0  0  0  0  0  0  0  0  0  0  0  0
  152.5814  134.3817  157.1029 H   0  0  0  0  0  0  0  0  0  0  0  0
  149.0880  138.1274  155.9506 H   0  0  0  0  0  0  0  0  0  0  0  0
  147.3352  141.7818  153.9393 H   0  0  0  0  0  0  0  0  0  0  0  0
  148.8503  142.1406  153.1350 H   0  0  0  0  0  0  0  0  0  0  0  0
  148.7265  140.3589  151.9912 H   0  0  0  0  0  0  0  0  0  0  0  0
  148.3453  143.0524  156.2343 H   0  0  0  0  0  0  0  0  0  0  0  0
  149.6848  140.8395  158.1058 H   0  0  0  0  0  0  0  0  0  0  0  0
  1  2  2  0  0  0  0
  1 22  1  0  0  0  0
  2 17  1  0  0  0  0
  2  3  1  0  0  0  0
  3  4  2  0  0  0  0
  4  5  1  0  0  0  0
  4 23  1  0  0  0  0
  5  6  1  0  0  0  0
  5 15  1  0  0  0  0
  6 18  1  0  0  0  0
  6 13  1  0  0  0  0
  6  7  1  0  0  0  0
  7  8  1  0  0  0  0
  8 19  1  0  0  0  0
  8  9  1  0  0  0  0
  8 11  1  0  0  0  0
  9 10  1  0  0  0  0
  9 24  1  0  0  0  0
  9 25  1  0  0  0  0
 10 26  1  0  0  0  0
 11 20  1  0  0  0  0
 11 12  1  0  0  0  0
 11 13  1  0  0  0  0
 12 27  1  0  0  0  0
 13 21  1  0  0  0  0
 13 14  1  0  0  0  0
 14 28  1  0  0  0  0
 15 16  2  0  0  0  0
 15 17  1  0  0  0  0
M  CHG  1  17  -1
M  END
> <s_m_source_file>
AV-unprocessed.smi

> <i_m_source_file_index>
72

> <i_lp_mmshare_version>
43012

> <i_f3d_flags>
0

> <s_epik_input>
W05IMl1jMW5bY0hdbihjKD1PKW4xKVtDQEBIXTJPW0NASF0oW0NIMl1bT0hdKVtDQEBIXShbT0hdKVtDQEhdMltPSF0=

> <s_epik_cmdline>
J2VwaWtfcHl0aG9uJywgJy1waCcsICc3LjAnLCAnLXRuJywgJzgnLCAnLW1hJywgJzIwMCcsICctbWV0YWxfYmluZGluZycsICctaW1hZScsICc8aW5maWxlLm1hZT4nLCAnLW9tYWUnLCAnPG91dGZpbGUubWFlPic=

> <r_lp_tautomer_probability>
7.17554e-07

> <r_epik_Ionization_Penalty>
12.8705

> <r_epik_Ionization_Penalty_Charging>
5.64144

> <r_epik_Ionization_Penalty_Neutral>
7.22905

> <r_epik_State_Penalty>
3.30104

> <r_epik_Charging_Adjusted_Penalty>
8.94249

> <i_epik_Tot_Q>
-1

> <i_epik_Tot_abs_Q>
1

> <r_epik_Metal_State_Penalty>
0.529074

> <b_epik_Metal_Only>
1

> <s_epik_Chemistry_Notes>
This compound contains an acetal/aminal-like group ( X-CH(R)-Y where X, Y are N, S, or O) that may be acid/base labile, releasing an aldehyde.

> <s_lp_Force_Field>
OPLS_2005

> <r_lp_Energy>
42.9938

> <b_lp_Chiralities_Consistent>
1

> <s_lp_Variant>
AV-unprocessed.smi:72-50

> <Gold.Version>
5.8.1

> <Gold.Id.Protein>
6NUR|6NUR_protein|mol2

> <Gold.PLP.Fitness>
37.7737

> <Gold.PLP.PLP>
-24.1383

> <Gold.PLP.part.hbond>
-5.7329

> <Gold.PLP.part.metal>
0.0000

> <Gold.PLP.part.buried>
-1.0627

> <Gold.PLP.part.nonpolar>
-17.3946

> <Gold.PLP.part.repulsive>
0.1087

> <Gold.PLP.ligand.clash>
0.0000

> <Gold.PLP.ligand.torsion>
0.4247

> <Gold.PLP.Chemscore.Hbond>
4.8160

> <Gold.PLP.Chemscore.CHOScore>
0.0000

> <Gold.PLP.Chemscore.Metal>
0.0000

> <Gold.Chemscore.Hbonds>
donor molecule, donor type, donor heavy atom, donor atom, acceptor molecule, acceptor atom, score
      L1  H    10    26       P1  7957  0.28
      L1  H    12    27       P1  8028  0.78
      P1  H  7997  8009       L1    16  0.77
      P1  H 10752 10765       L1    17  1.70

> <Gold.PLP.Chemscore.Internal.Correction>
0.0369

> <Gold.Rescore>
     Score         DG    S(hbond)    S(metal)    S(lipo)     H(rot)  DE(clash)    DE(int)     intcor
      7.63      -9.04       3.18        0.00      28.14       4.04       0.01       1.39       ----

> <Gold.Chemscore.Fitness>
7.6322

> <Gold.Chemscore.DG>
-9.0385

> <Gold.Chemscore.ZeroCoef>
-5.4800

> <Gold.Chemscore.Hbond>
3.1763

> <Gold.Chemscore.Metal>
0.0000

> <Gold.Chemscore.Lipo>
28.1430

> <Gold.Chemscore.Internal_Hbond>
0.0000

> <Gold.Chemscore.DEClash>
0.0141

> <Gold.Chemscore.DEInternal>
1.3922

> <Gold.Chemscore.Rot>
4.0403

> <Gold.Chemscore.Internal.Correction>
   9.000000E+99

> <Gold.Chemscore.Hbonds>
donor molecule, donor type, donor heavy atom, donor atom, acceptor molecule, acceptor atom, score
      L1  H    10    26       P1  7957  0.27
      L1  H    12    27       P1  8028  0.64
      P1  H  7997  8009       L1    16  0.76
      P1  H 10752 10765       L1    17  0.13

> <Gold.Chemscore.Hbond.Weighted>
-10.6089

> <Gold.Chemscore.Metal.Weighted>
-0.0000

> <Gold.Chemscore.Lipo.Weighted>
-3.2927

> <Gold.Chemscore.Internal_Hbond.Weighted>
0.0000

> <Gold.Chemscore.DEClash.Weighted>
0.0141

> <Gold.Chemscore.DEInternal.Weighted>
1.3922

> <Gold.Chemscore.Rot.Weighted>
10.3431

> <Gold.Chemscore.Internal.Correction.Weighted>
   9.000000E+99

> <Gold.Protein.RotatedTorsions>
[ 6907 6896 6895 6894 ] final   43.07 input  -60.11 | X-H torsion
[ 7974 7965 7964 7962 ] final   87.98 input  175.53 | X-H torsion
[ 8008 7997 7996 7995 ] final -138.45 input   59.86 | X-H torsion
[ 10167 10162 10161 10158 ] final -158.31 input  -65.29 | X-H torsion
[ 10718 10713 10712 10709 ] final  -63.41 input   66.30 | X-H torsion
[ 10763 10752 10751 10750 ] final -137.07 input  -60.55 | X-H torsion
[ 11005 11000 10999 10996 ] final   10.88 input  -57.11 | X-H torsion

> <Gold.Protein.ActiveResidues>
 VAL166  LYS551  ARG553  GLY616  TRP617  ASP618  TYR619  PRO620  LYS621  CYS622 
 ASP623  PHE694  ASN695  SER759  ASP760  ASP761  ALA762  ILE779  LEU786  VAL792 
 PHE793  MET794  SER795  GLU796  ALA797  LYS798  CYS799  TRP800  GLU811  SER814 

> <Gold.Protein.RotatedAtoms>
  152.2158  134.8459  160.0491 H   0  0  0  0  0  0  0  0  0  0  0  0  # atno 6907 bound_to 6896
  151.9261  133.3593  159.3922 H   0  0  0  0  0  0  0  0  0  0  0  0  # atno 6908 bound_to 6896
  150.6987  134.4510  159.5380 H   0  0  0  0  0  0  0  0  0  0  0  0  # atno 6909 bound_to 6896
  145.5518  139.2296  143.2508 H   0  0  0  0  0  0  0  0  0  0  0  0  # atno 7974 bound_to 7965
  155.4286  140.0523  157.3020 H   0  0  0  0  0  0  0  0  0  0  0  0  # atno 8008 bound_to 7997
  154.4870  140.2105  155.9591 H   0  0  0  0  0  0  0  0  0  0  0  0  # atno 8009 bound_to 7997
  156.1289  140.3175  155.8324 H   0  0  0  0  0  0  0  0  0  0  0  0  # atno 8010 bound_to 7997
  139.6702  143.9758  152.2279 H   0  0  0  0  0  0  0  0  0  0  0  0  # atno 10167 bound_to 10162
  156.0793  130.4220  150.1273 H   0  0  0  0  0  0  0  0  0  0  0  0  # atno 10718 bound_to 10713
  154.8670  135.3653  154.5164 H   0  0  0  0  0  0  0  0  0  0  0  0  # atno 10763 bound_to 10752
  153.5796  135.7018  153.5474 H   0  0  0  0  0  0  0  0  0  0  0  0  # atno 10764 bound_to 10752
  153.3469  135.4082  155.1578 H   0  0  0  0  0  0  0  0  0  0  0  0  # atno 10765 bound_to 10752
  140.5095  134.0666  155.7814 H   0  0  0  0  0  0  0  0  0  0  0  0  # atno 11005 bound_to 11000
  146.1911  140.6341  142.9145 LP  0  0  0  0  0  0  0  0  0  0  0  0  # atno 17320 bound_to 7965
  144.7525  140.5227  143.6791 LP  0  0  0  0  0  0  0  0  0  0  0  0  # atno 17321 bound_to 7965
  139.9520  144.6614  150.8162 LP  0  0  0  0  0  0  0  0  0  0  0  0  # atno 17342 bound_to 10162
  140.7615  143.3176  151.2697 LP  0  0  0  0  0  0  0  0  0  0  0  0  # atno 17343 bound_to 10162
  156.9307  130.9713  151.3533 LP  0  0  0  0  0  0  0  0  0  0  0  0  # atno 17370 bound_to 10713
  157.5903  130.8439  149.8649 LP  0  0  0  0  0  0  0  0  0  0  0  0  # atno 17371 bound_to 10713
  141.1393  133.9166  157.2362 LP  0  0  0  0  0  0  0  0  0  0  0  0  # atno 17394 bound_to 11000
  139.9667  135.0140  156.9405 LP  0  0  0  0  0  0  0  0  0  0  0  0  # atno 17395 bound_to 11000

$$$$
