AV-unprocessed.smi:767|AV-procd|sdf|3667|dock8
  -GOLD-   22720 1 73D 1   1.00000     0.00000
 Structure written by MMmdl.
 48 50  0  0  0  0  0  0  0  0  2 V2000
  144.0142  132.6254  148.8766 C   0  0  0  0  0  0  0  0  0  0  0  0
  144.1766  133.5994  150.0242 C   0  0  0  0  0  0  0  0  0  0  0  0
  143.6585  133.3390  151.3106 C   0  0  0  0  0  0  0  0  0  0  0  0
  143.8491  134.2898  152.3340 C   0  0  0  0  0  0  0  0  0  0  0  0
  144.5574  135.4790  152.0534 C   0  0  0  0  0  0  0  0  0  0  0  0
  144.8020  136.5085  153.1438 C   0  0  0  0  0  0  0  0  0  0  0  0
  145.8326  136.0586  154.2003 C   0  0  0  0  0  0  0  0  0  0  0  0
  146.9902  136.9443  154.2904 N   0  0  0  0  0  0  0  0  0  0  0  0
  147.2398  137.7898  155.2994 C   0  0  0  0  0  0  0  0  0  0  0  0
  146.5096  137.9308  156.2800 O   0  0  0  0  0  0  0  0  0  0  0  0
  148.3939  138.4442  155.1202 N   0  0  0  0  0  0  0  0  0  0  0  0
  148.9620  139.4121  156.0600 C   0  0  2  0  0  0  0  0  0  0  0  0
  148.3468  140.8225  155.9093 C   0  0  2  0  0  0  0  0  0  0  0  0
  147.1164  141.0967  155.0791 C   0  0  0  0  0  0  0  0  0  0  0  0
  147.7050  141.5690  153.7459 C   0  0  0  0  0  0  0  0  0  0  0  0
  149.0417  141.0713  153.7398 O   0  0  0  0  0  0  0  0  0  0  0  0
  149.5554  141.1913  155.0649 C   0  0  2  0  0  0  0  0  0  0  0  0
  150.3374  139.9796  155.6121 C   0  0  0  0  0  0  0  0  0  0  0  0
  151.2810  140.3176  156.7701 C   0  0  0  0  0  0  0  0  0  0  0  0
  151.1744  139.1964  154.5923 C   0  0  0  0  0  0  0  0  0  0  0  0
  145.0464  135.6883  150.7465 C   0  0  0  0  0  0  0  0  0  0  0  0
  144.8411  134.7539  149.7925 N   0  3  0  0  0  0  0  0  0  0  0  0
  143.7736  131.6273  149.2443 H   0  0  0  0  0  0  0  0  0  0  0  0
  144.9337  132.5586  148.2943 H   0  0  0  0  0  0  0  0  0  0  0  0
  143.2100  132.9504  148.2162 H   0  0  0  0  0  0  0  0  0  0  0  0
  143.1250  132.4219  151.5148 H   0  0  0  0  0  0  0  0  0  0  0  0
  143.4643  134.1012  153.3258 H   0  0  0  0  0  0  0  0  0  0  0  0
  145.1323  137.4396  152.6824 H   0  0  0  0  0  0  0  0  0  0  0  0
  143.8545  136.7385  153.6330 H   0  0  0  0  0  0  0  0  0  0  0  0
  145.3607  136.0516  155.1831 H   0  0  0  0  0  0  0  0  0  0  0  0
  146.1550  135.0343  154.0073 H   0  0  0  0  0  0  0  0  0  0  0  0
  147.6538  136.9044  153.5307 H   0  0  0  0  0  0  0  0  0  0  0  0
  148.9294  138.2544  154.2855 H   0  0  0  0  0  0  0  0  0  0  0  0
  148.9538  139.0702  157.0964 H   0  0  0  0  0  0  0  0  0  0  0  0
  148.3593  141.3539  156.8622 H   0  0  0  0  0  0  0  0  0  0  0  0
  146.5002  140.2073  154.9497 H   0  0  0  0  0  0  0  0  0  0  0  0
  146.4840  141.8663  155.5223 H   0  0  0  0  0  0  0  0  0  0  0  0
  147.1397  141.2104  152.8856 H   0  0  0  0  0  0  0  0  0  0  0  0
  147.7335  142.6589  153.7053 H   0  0  0  0  0  0  0  0  0  0  0  0
  149.9714  142.1756  155.2858 H   0  0  0  0  0  0  0  0  0  0  0  0
  152.1256  140.9215  156.4366 H   0  0  0  0  0  0  0  0  0  0  0  0
  151.6821  139.4163  157.2348 H   0  0  0  0  0  0  0  0  0  0  0  0
  150.7731  140.8829  157.5519 H   0  0  0  0  0  0  0  0  0  0  0  0
  152.0520  139.7617  154.2775 H   0  0  0  0  0  0  0  0  0  0  0  0
  150.6112  138.9643  153.6885 H   0  0  0  0  0  0  0  0  0  0  0  0
  151.5248  138.2517  155.0090 H   0  0  0  0  0  0  0  0  0  0  0  0
  145.5984  136.5646  150.4389 H   0  0  0  0  0  0  0  0  0  0  0  0
  145.2068  134.9257  148.8556 H   0  0  0  0  0  0  0  0  0  0  0  0
  1  2  1  0  0  0  0
  1 23  1  0  0  0  0
  1 24  1  0  0  0  0
  1 25  1  0  0  0  0
  2 22  1  0  0  0  0
  2  3  2  0  0  0  0
  3  4  1  0  0  0  0
  3 26  1  0  0  0  0
  4  5  2  0  0  0  0
  4 27  1  0  0  0  0
  5  6  1  0  0  0  0
  5 21  1  0  0  0  0
  6  7  1  0  0  0  0
  6 28  1  0  0  0  0
  6 29  1  0  0  0  0
  7  8  1  0  0  0  0
  7 30  1  0  0  0  0
  7 31  1  0  0  0  0
  8  9  1  0  0  0  0
  8 32  1  0  0  0  0
  9 10  2  0  0  0  0
  9 11  1  0  0  0  0
 11 12  1  0  0  0  0
 11 33  1  0  0  0  0
 12 18  1  0  0  0  0
 12 13  1  0  0  0  0
 12 34  1  0  0  0  0
 13 17  1  0  0  0  0
 13 14  1  0  0  0  0
 13 35  1  0  0  0  0
 14 15  1  0  0  0  0
 14 36  1  0  0  0  0
 14 37  1  0  0  0  0
 15 16  1  0  0  0  0
 15 38  1  0  0  0  0
 15 39  1  0  0  0  0
 16 17  1  0  0  0  0
 17 18  1  0  0  0  0
 17 40  1  0  0  0  0
 18 19  1  0  0  0  0
 18 20  1  0  0  0  0
 19 41  1  0  0  0  0
 19 42  1  0  0  0  0
 19 43  1  0  0  0  0
 20 44  1  0  0  0  0
 20 45  1  0  0  0  0
 20 46  1  0  0  0  0
 21 22  2  0  0  0  0
 21 47  1  0  0  0  0
 22 48  1  0  0  0  0
M  CHG  1  22   1
M  END
> <s_m_source_file>
AV-unprocessed.smi

> <i_m_source_file_index>
767

> <i_lp_mmshare_version>
43012

> <i_f3d_flags>
0

> <s_epik_input>
W0NIM11jMVtjSF1bY0hdYyhbY0hdbjEpW0NIMl1bQ0gyXVtOSF1DKD1PKVtOSF1bQ0BIXTJDKFtDSDNdKShbQ0gzXSlbQ0BIXShbQ0BASF0yMylPW0NIMl1bQ0gyXTM=

> <s_epik_cmdline>
J2VwaWtfcHl0aG9uJywgJy1waCcsICc3LjAnLCAnLXRuJywgJzgnLCAnLW1hJywgJzIwMCcsICctbWV0YWxfYmluZGluZycsICctaW1hZScsICc8aW5maWxlLm1hZT4nLCAnLW9tYWUnLCAnPG91dGZpbGUubWFlPic=

> <r_epik_Ionization_Penalty>
1.41853

> <r_epik_Ionization_Penalty_Charging>
1.41848

> <r_epik_Ionization_Penalty_Neutral>
5.17407e-05

> <r_epik_State_Penalty>
1.50205

> <r_epik_Charging_Adjusted_Penalty>
2.92053

> <i_epik_Tot_Q>
1

> <i_epik_Tot_abs_Q>
1

> <r_epik_Metal_State_Penalty>
1.5544

> <b_epik_Metal_Only>
0

> <s_lp_Force_Field>
OPLS_2005

> <r_lp_Energy>
40.587

> <b_lp_Chiralities_Consistent>
1

> <s_lp_Variant>
AV-unprocessed.smi:767-11

> <Gold.Version>
5.8.1

> <Gold.Id.Protein>
6NUR|6NUR_protein|mol2

> <Gold.PLP.Fitness>
39.3039

> <Gold.PLP.PLP>
-32.4949

> <Gold.PLP.part.hbond>
-3.3632

> <Gold.PLP.part.metal>
0.0000

> <Gold.PLP.part.buried>
-4.0540

> <Gold.PLP.part.nonpolar>
-27.7840

> <Gold.PLP.part.repulsive>
2.3726

> <Gold.PLP.ligand.clash>
0.0000

> <Gold.PLP.ligand.torsion>
0.7284

> <Gold.PLP.Chemscore.Hbond>
2.6913

> <Gold.PLP.Chemscore.CHOScore>
0.0000

> <Gold.PLP.Chemscore.Metal>
0.0000

> <Gold.Chemscore.Hbonds>
donor molecule, donor type, donor heavy atom, donor atom, acceptor molecule, acceptor atom, score
      L1  H     8    32       P1  7948  0.52
      L1  H    22    48       P1  7921  1.00
      P1  H  8011  8017       L1    16  0.70

> <Gold.PLP.Chemscore.Internal.Correction>
0.1920

> <Gold.Rescore>
     Score         DG    S(hbond)    S(metal)    S(lipo)     H(rot)  DE(clash)    DE(int)     intcor
     17.05     -19.72       2.16        0.00      93.34       1.52       1.92       0.75       ----

> <Gold.Chemscore.Fitness>
17.0473

> <Gold.Chemscore.DG>
-19.7183

> <Gold.Chemscore.ZeroCoef>
-5.4800

> <Gold.Chemscore.Hbond>
2.1607

> <Gold.Chemscore.Metal>
0.0000

> <Gold.Chemscore.Lipo>
93.3420

> <Gold.Chemscore.Internal_Hbond>
0.0000

> <Gold.Chemscore.DEClash>
1.9185

> <Gold.Chemscore.DEInternal>
0.7525

> <Gold.Chemscore.Rot>
1.5233

> <Gold.Chemscore.Internal.Correction>
   9.000000E+99

> <Gold.Chemscore.Hbonds>
donor molecule, donor type, donor heavy atom, donor atom, acceptor molecule, acceptor atom, score
      L1  H     8    32       P1  7948  0.52
      L1  H    22    48       P1  7921  0.93
      P1  H  8011  8017       L1    16  0.11

> <Gold.Chemscore.Hbond.Weighted>
-7.2168

> <Gold.Chemscore.Metal.Weighted>
-0.0000

> <Gold.Chemscore.Lipo.Weighted>
-10.9210

> <Gold.Chemscore.Internal_Hbond.Weighted>
0.0000

> <Gold.Chemscore.DEClash.Weighted>
1.9185

> <Gold.Chemscore.DEInternal.Weighted>
0.7525

> <Gold.Chemscore.Rot.Weighted>
3.8995

> <Gold.Chemscore.Internal.Correction.Weighted>
   9.000000E+99

> <Gold.Protein.RotatedTorsions>
[ 6907 6896 6895 6894 ] final   83.78 input  -60.11 | X-H torsion
[ 7974 7965 7964 7962 ] final -170.93 input  175.53 | X-H torsion
[ 8008 7997 7996 7995 ] final  -88.67 input   59.86 | X-H torsion
[ 10167 10162 10161 10158 ] final   55.08 input  -65.29 | X-H torsion
[ 10718 10713 10712 10709 ] final    8.24 input   66.30 | X-H torsion
[ 10763 10752 10751 10750 ] final -163.65 input  -60.55 | X-H torsion
[ 11005 11000 10999 10996 ] final  -73.04 input  -57.11 | X-H torsion

> <Gold.Protein.ActiveResidues>
 VAL166  LYS551  ARG553  GLY616  TRP617  ASP618  TYR619  PRO620  LYS621  CYS622 
 ASP623  PHE694  ASN695  SER759  ASP760  ASP761  ALA762  ILE779  LEU786  VAL792 
 PHE793  MET794  SER795  GLU796  ALA797  LYS798  CYS799  TRP800  GLU811  SER814 

> <Gold.Protein.RotatedAtoms>
  152.5336  134.2843  159.9018 H   0  0  0  0  0  0  0  0  0  0  0  0  # atno 6907 bound_to 6896
  151.2796  133.4209  159.2634 H   0  0  0  0  0  0  0  0  0  0  0  0  # atno 6908 bound_to 6896
  151.0295  134.9544  159.8160 H   0  0  0  0  0  0  0  0  0  0  0  0  # atno 6909 bound_to 6896
  144.7163  140.1998  143.6339 H   0  0  0  0  0  0  0  0  0  0  0  0  # atno 7974 bound_to 7965
  154.6775  140.0551  157.0231 H   0  0  0  0  0  0  0  0  0  0  0  0  # atno 8008 bound_to 7997
  155.0999  140.3228  155.4531 H   0  0  0  0  0  0  0  0  0  0  0  0  # atno 8009 bound_to 7997
  156.2681  140.2033  156.6125 H   0  0  0  0  0  0  0  0  0  0  0  0  # atno 8010 bound_to 7997
  140.2233  144.3765  150.6442 H   0  0  0  0  0  0  0  0  0  0  0  0  # atno 10167 bound_to 10162
  156.9487  130.5889  149.5655 H   0  0  0  0  0  0  0  0  0  0  0  0  # atno 10718 bound_to 10713
  154.7103  135.3005  154.9208 H   0  0  0  0  0  0  0  0  0  0  0  0  # atno 10763 bound_to 10752
  154.0112  135.6694  153.4769 H   0  0  0  0  0  0  0  0  0  0  0  0  # atno 10764 bound_to 10752
  153.0749  135.5040  154.8297 H   0  0  0  0  0  0  0  0  0  0  0  0  # atno 10765 bound_to 10752
  141.1617  133.6866  156.7151 H   0  0  0  0  0  0  0  0  0  0  0  0  # atno 11005 bound_to 11000
  145.8690  139.2262  143.1672 LP  0  0  0  0  0  0  0  0  0  0  0  0  # atno 17320 bound_to 7965
  146.0102  140.8442  142.9974 LP  0  0  0  0  0  0  0  0  0  0  0  0  # atno 17321 bound_to 7965
  140.6239  143.2179  151.6637 LP  0  0  0  0  0  0  0  0  0  0  0  0  # atno 17342 bound_to 10162
  139.5136  144.3437  152.0716 LP  0  0  0  0  0  0  0  0  0  0  0  0  # atno 17343 bound_to 10162
  156.0372  130.5458  150.8683 LP  0  0  0  0  0  0  0  0  0  0  0  0  # atno 17370 bound_to 10713
  157.5736  131.0946  150.9380 LP  0  0  0  0  0  0  0  0  0  0  0  0  # atno 17371 bound_to 10713
  140.2858  134.8280  157.3973 LP  0  0  0  0  0  0  0  0  0  0  0  0  # atno 17394 bound_to 11000
  140.1392  134.4994  155.8045 LP  0  0  0  0  0  0  0  0  0  0  0  0  # atno 17395 bound_to 11000

$$$$
