AV-unprocessed.smi:1809|AV-procd|sdf|7315|dock2
  -GOLD-   22720 8573D 1   1.00000     0.00000
 Structure written by MMmdl.
 40 42  0  0  0  0  0  0  0  0  2 V2000
  146.7065  129.6178  152.7303 C   0  0  0  0  0  0  0  0  0  0  0  0
  147.5281  130.7699  153.1987 C   0  0  0  0  0  0  0  0  0  0  0  0
  148.5426  130.6330  154.0613 N   0  0  0  0  0  0  0  0  0  0  0  0
  149.1553  131.8444  154.3496 N   0  0  0  0  0  0  0  0  0  0  0  0
  148.5838  132.8627  153.6919 C   0  0  0  0  0  0  0  0  0  0  0  0
  149.0105  134.2126  153.8045 N   0  0  0  0  0  0  0  0  0  0  0  0
  149.7010  134.7856  154.8059 C   0  0  0  0  0  0  0  0  0  0  0  0
  150.0944  134.2109  155.8212 O   0  0  0  0  0  0  0  0  0  0  0  0
  149.9155  136.0878  154.5689 N   0  0  0  0  0  0  0  0  0  0  0  0
  150.6188  136.9922  155.4724 C   0  0  0  0  0  0  0  0  0  0  0  0
  151.3396  138.1280  154.7111 C   0  0  2  0  0  0  0  0  0  0  0  0
  152.2440  138.9873  155.6278 C   0  0  0  0  0  0  0  0  0  0  0  0
  151.3979  139.8795  156.4417 N   0  3  1  0  0  0  0  0  0  0  0  0
  152.0607  140.7864  157.3944 C   0  0  0  0  0  0  0  0  0  0  0  0
  151.0555  141.9351  157.6111 C   0  0  0  0  0  0  0  0  0  0  0  0
  149.9241  141.6980  156.5943 C   0  0  0  0  0  0  0  0  0  0  0  0
  150.5475  140.7233  155.5997 C   0  0  2  0  0  0  0  0  0  0  0  0
  149.6078  139.8296  154.7825 C   0  0  0  0  0  0  0  0  0  0  0  0
  150.4114  138.9524  153.9879 O   0  0  0  0  0  0  0  0  0  0  0  0
  147.2409  132.4177  152.6525 S   0  0  0  0  0  0  0  0  0  0  0  0
  146.8040  128.7737  153.4142 H   0  0  0  0  0  0  0  0  0  0  0  0
  147.0352  129.3054  151.7391 H   0  0  0  0  0  0  0  0  0  0  0  0
  145.6557  129.9031  152.6784 H   0  0  0  0  0  0  0  0  0  0  0  0
  148.7474  134.8139  153.0380 H   0  0  0  0  0  0  0  0  0  0  0  0
  149.5602  136.4825  153.7101 H   0  0  0  0  0  0  0  0  0  0  0  0
  149.8991  137.3913  156.1865 H   0  0  0  0  0  0  0  0  0  0  0  0
  151.3388  136.4234  156.0631 H   0  0  0  0  0  0  0  0  0  0  0  0
  151.9870  137.6664  153.9649 H   0  0  0  0  0  0  0  0  0  0  0  0
  152.8566  138.3571  156.2733 H   0  0  0  0  0  0  0  0  0  0  0  0
  152.9271  139.5863  155.0236 H   0  0  0  0  0  0  0  0  0  0  0  0
  152.3120  140.2676  158.3197 H   0  0  0  0  0  0  0  0  0  0  0  0
  152.9836  141.1738  156.9592 H   0  0  0  0  0  0  0  0  0  0  0  0
  150.6661  141.9423  158.6298 H   0  0  0  0  0  0  0  0  0  0  0  0
  151.5399  142.8966  157.4382 H   0  0  0  0  0  0  0  0  0  0  0  0
  149.0706  141.2351  157.0919 H   0  0  0  0  0  0  0  0  0  0  0  0
  149.5798  142.6186  156.1218 H   0  0  0  0  0  0  0  0  0  0  0  0
  151.1845  141.2898  154.9167 H   0  0  0  0  0  0  0  0  0  0  0  0
  148.9324  139.2648  155.4256 H   0  0  0  0  0  0  0  0  0  0  0  0
  148.9867  140.4351  154.1224 H   0  0  0  0  0  0  0  0  0  0  0  0
  150.7769  139.2969  156.9847 H   0  0  0  0  0  0  0  0  0  0  0  0
  1  2  1  0  0  0  0
  1 21  1  0  0  0  0
  1 22  1  0  0  0  0
  1 23  1  0  0  0  0
  2 20  1  0  0  0  0
  2  3  2  0  0  0  0
  3  4  1  0  0  0  0
  4  5  2  0  0  0  0
  5  6  1  0  0  0  0
  5 20  1  0  0  0  0
  6  7  1  0  0  0  0
  6 24  1  0  0  0  0
  7  8  2  0  0  0  0
  7  9  1  0  0  0  0
  9 10  1  0  0  0  0
  9 25  1  0  0  0  0
 10 11  1  0  0  0  0
 10 26  1  0  0  0  0
 10 27  1  0  0  0  0
 11 19  1  0  0  0  0
 11 12  1  0  0  0  0
 11 28  1  0  0  0  0
 12 13  1  0  0  0  0
 12 29  1  0  0  0  0
 12 30  1  0  0  0  0
 13 17  1  0  0  0  0
 13 14  1  0  0  0  0
 13 40  1  0  0  0  0
 14 15  1  0  0  0  0
 14 31  1  0  0  0  0
 14 32  1  0  0  0  0
 15 16  1  0  0  0  0
 15 33  1  0  0  0  0
 15 34  1  0  0  0  0
 16 17  1  0  0  0  0
 16 35  1  0  0  0  0
 16 36  1  0  0  0  0
 17 18  1  0  0  0  0
 17 37  1  0  0  0  0
 18 19  1  0  0  0  0
 18 38  1  0  0  0  0
 18 39  1  0  0  0  0
M  CHG  1  13   1
M  END
> <s_m_source_file>
AV-unprocessed.smi

> <i_m_source_file_index>
1809

> <i_lp_mmshare_version>
43012

> <i_f3d_flags>
0

> <s_epik_input>
W0NIM11jMW5uYyhzMSlbTkhdQyg9TylbTkhdW0NIMl1bQ0BIXShbQ0gyXTIpT1tDSDJdW0NAQEhdKE4yMylbQ0gyXVtDSDJdW0NIMl0z

> <s_epik_cmdline>
J2VwaWtfcHl0aG9uJywgJy1waCcsICc3LjAnLCAnLXRuJywgJzgnLCAnLW1hJywgJzIwMCcsICctbWV0YWxfYmluZGluZycsICctaW1hZScsICc8aW5maWxlLm1hZT4nLCAnLW9tYWUnLCAnPG91dGZpbGUubWFlPic=

> <r_lp_tautomer_probability>
1

> <r_epik_Ionization_Penalty>
0.112474

> <r_epik_Ionization_Penalty_Charging>
0.108916

> <r_epik_Ionization_Penalty_Neutral>
0.00355844

> <r_epik_State_Penalty>
0.0565397

> <r_epik_Charging_Adjusted_Penalty>
0.165456

> <i_epik_Tot_Q>
1

> <i_epik_Tot_abs_Q>
1

> <r_epik_Metal_State_Penalty>
0.422831

> <b_epik_Metal_Only>
0

> <s_lp_Force_Field>
OPLS_2005

> <r_lp_Energy>
36.9848

> <b_lp_Chiralities_Consistent>
1

> <s_lp_Variant>
AV-unprocessed.smi:1809-7

> <Gold.Version>
5.8.1

> <Gold.Id.Protein>
6NUR|6NUR_protein|mol2

> <Gold.PLP.Fitness>
38.0263

> <Gold.PLP.PLP>
-32.4339

> <Gold.PLP.part.hbond>
-2.3718

> <Gold.PLP.part.metal>
0.0000

> <Gold.PLP.part.buried>
-4.1055

> <Gold.PLP.part.nonpolar>
-25.9165

> <Gold.PLP.part.repulsive>
0.6031

> <Gold.PLP.ligand.clash>
0.0000

> <Gold.PLP.ligand.torsion>
0.3119

> <Gold.PLP.Chemscore.Hbond>
2.0686

> <Gold.PLP.Chemscore.CHOScore>
0.0000

> <Gold.PLP.Chemscore.Metal>
0.0000

> <Gold.Chemscore.Hbonds>
donor molecule, donor type, donor heavy atom, donor atom, acceptor molecule, acceptor atom, score
      L1  H     6    24       P1  7948  1.00
      L1  H     9    25       P1  7948  0.98
      P1  H  7989  7998       L1    19  0.07

> <Gold.PLP.Chemscore.Internal.Correction>
0.0103

> <Gold.Rescore>
     Score         DG    S(hbond)    S(metal)    S(lipo)     H(rot)  DE(clash)    DE(int)     intcor
     14.09     -15.64       1.62        0.00      69.78       1.34       0.05       1.50       ----

> <Gold.Chemscore.Fitness>
14.0868

> <Gold.Chemscore.DG>
-15.6407

> <Gold.Chemscore.ZeroCoef>
-5.4800

> <Gold.Chemscore.Hbond>
1.6242

> <Gold.Chemscore.Metal>
0.0000

> <Gold.Chemscore.Lipo>
69.7782

> <Gold.Chemscore.Internal_Hbond>
0.0000

> <Gold.Chemscore.DEClash>
0.0530

> <Gold.Chemscore.DEInternal>
1.5008

> <Gold.Chemscore.Rot>
1.3391

> <Gold.Chemscore.Internal.Correction>
   9.000000E+99

> <Gold.Chemscore.Hbonds>
donor molecule, donor type, donor heavy atom, donor atom, acceptor molecule, acceptor atom, score
      L1  H     6    24       P1  7948  0.25
      L1  H     9    25       P1  7948  0.65

> <Gold.Chemscore.Hbond.Weighted>
-5.4247

> <Gold.Chemscore.Metal.Weighted>
-0.0000

> <Gold.Chemscore.Lipo.Weighted>
-8.1640

> <Gold.Chemscore.Internal_Hbond.Weighted>
0.0000

> <Gold.Chemscore.DEClash.Weighted>
0.0530

> <Gold.Chemscore.DEInternal.Weighted>
1.5008

> <Gold.Chemscore.Rot.Weighted>
3.4281

> <Gold.Chemscore.Internal.Correction.Weighted>
   9.000000E+99

> <Gold.Protein.RotatedTorsions>
[ 6907 6896 6895 6894 ] final  151.27 input  -60.11 | X-H torsion
[ 7974 7965 7964 7962 ] final -147.76 input  175.53 | X-H torsion
[ 8008 7997 7996 7995 ] final  159.75 input   59.86 | X-H torsion
[ 10167 10162 10161 10158 ] final  -76.75 input  -65.29 | X-H torsion
[ 10718 10713 10712 10709 ] final -157.59 input   66.30 | X-H torsion
[ 10763 10752 10751 10750 ] final -124.01 input  -60.55 | X-H torsion
[ 11005 11000 10999 10996 ] final   32.66 input  -57.11 | X-H torsion

> <Gold.Protein.ActiveResidues>
 VAL166  LYS551  ARG553  GLY616  TRP617  ASP618  TYR619  PRO620  LYS621  CYS622 
 ASP623  PHE694  ASN695  SER759  ASP760  ASP761  ALA762  ILE779  LEU786  VAL792 
 PHE793  MET794  SER795  GLU796  ALA797  LYS798  CYS799  TRP800  GLU811  SER814 

> <Gold.Protein.RotatedAtoms>
  152.1029  133.4259  159.4595 H   0  0  0  0  0  0  0  0  0  0  0  0  # atno 6907 bound_to 6896
  150.6864  134.2739  159.4608 H   0  0  0  0  0  0  0  0  0  0  0  0  # atno 6908 bound_to 6896
  152.0601  134.9599  160.0625 H   0  0  0  0  0  0  0  0  0  0  0  0  # atno 6909 bound_to 6896
  144.8073  140.5285  143.5666 H   0  0  0  0  0  0  0  0  0  0  0  0  # atno 7974 bound_to 7965
  156.2218  140.1823  156.7458 H   0  0  0  0  0  0  0  0  0  0  0  0  # atno 8008 bound_to 7997
  154.5877  140.0656  156.9224 H   0  0  0  0  0  0  0  0  0  0  0  0  # atno 8009 bound_to 7997
  155.2390  140.3320  155.4297 H   0  0  0  0  0  0  0  0  0  0  0  0  # atno 8010 bound_to 7997
  140.4830  143.2397  151.8028 H   0  0  0  0  0  0  0  0  0  0  0  0  # atno 10167 bound_to 10162
  156.5424  130.8569  151.2753 H   0  0  0  0  0  0  0  0  0  0  0  0  # atno 10718 bound_to 10713
  154.8717  135.4078  154.3035 H   0  0  0  0  0  0  0  0  0  0  0  0  # atno 10763 bound_to 10752
  153.3891  135.7014  153.6514 H   0  0  0  0  0  0  0  0  0  0  0  0  # atno 10764 bound_to 10752
  153.5304  135.3669  155.2644 H   0  0  0  0  0  0  0  0  0  0  0  0  # atno 10765 bound_to 10752
  140.2711  134.3080  155.7827 H   0  0  0  0  0  0  0  0  0  0  0  0  # atno 11005 bound_to 11000
  145.5408  139.1475  143.3448 LP  0  0  0  0  0  0  0  0  0  0  0  0  # atno 17320 bound_to 7965
  146.2366  140.5548  142.8952 LP  0  0  0  0  0  0  0  0  0  0  0  0  # atno 17321 bound_to 7965
  139.4837  144.4748  151.9380 LP  0  0  0  0  0  0  0  0  0  0  0  0  # atno 17342 bound_to 10162
  140.3834  144.2708  150.5906 LP  0  0  0  0  0  0  0  0  0  0  0  0  # atno 17343 bound_to 10162
  157.7403  130.9847  150.2367 LP  0  0  0  0  0  0  0  0  0  0  0  0  # atno 17370 bound_to 10713
  156.2959  130.3752  149.7796 LP  0  0  0  0  0  0  0  0  0  0  0  0  # atno 17371 bound_to 10713
  141.2177  133.7468  156.9337 LP  0  0  0  0  0  0  0  0  0  0  0  0  # atno 17394 bound_to 11000
  140.1372  134.9317  157.2417 LP  0  0  0  0  0  0  0  0  0  0  0  0  # atno 17395 bound_to 11000

$$$$
