#       Name:                AV-unprocessed.smi:1844
#       Creating user name   scv26
#       Creation time:       Fri Mar 27 09:21:36 2020


#       File generated by GOLD software.
#

@<TRIPOS>MOLECULE
AV-unprocessed.smi:1844
    51    52     1
SMALL
NO_CHARGES


@<TRIPOS>ATOM
      1 ****        -3.3105  -3.9159  -2.6612 C.3            1 S1                 0.0000
      2 ****        -2.8944  -2.5499  -2.3817 N.am           1 S1                 0.0000
      3 ****        -1.6475  -2.0828  -2.5586 C.2            1 S1                 0.0000
      4 ****        -0.7414  -2.8021  -2.9825 O.2            1 S1                 0.0000
      5 ****        -1.4876  -0.6711  -2.2013 C.2            1 S1                 0.0000
      6 ****        -2.5757   0.1501  -1.6920 C.2            1 S1                 0.0000
      7 ****        -2.3629   1.4369  -1.3536 C.2            1 S1                 0.0000
      8 ****        -1.0429   2.0607  -1.4805 C.2            1 S1                 0.0000
      9 ****        -0.8368   3.2271  -1.1455 O.2            1 S1                 0.0000
     10 ****        -0.0535   1.2602  -1.9816 N.am           1 S1                 0.0000
     11 ****         1.3273   1.7603  -2.1218 C.3            1 S1                 0.0000
     12 ****         2.1898   1.5980  -0.8577 C.2            1 S1                 0.0000
     13 ****         3.3261   2.0689  -0.8373 O.2            1 S1                 0.0000
     14 ****         1.6512   0.9422   0.1833 N.am           1 S1                 0.0000
     15 ****         2.2796   0.6872   1.4762 C.3            1 S1                 0.0000
     16 ****         2.1362   1.9144   2.4021 C.3            1 S1                 0.0000
     17 ****         0.6762   2.1489   2.8281 C.3            1 S1                 0.0000
     18 ****         0.0817   0.8929   3.4826 C.3            1 S1                 0.0000
     19 ****         0.2066  -0.3325   2.5629 C.3            1 S1                 0.0000
     20 ****         1.6694  -0.5761   2.1333 C.3            1 S1                 0.0000
     21 ****         1.7920  -1.8276   1.2461 C.3            1 S1                 0.0000
     22 ****        -0.2809  -0.0858  -2.3295 C.2            1 S1                 0.0000
     23 ****        -4.3715  -4.0330  -2.4405 H              1 S1                 0.0000
     24 ****        -2.7540  -4.6250  -2.0469 H              1 S1                 0.0000
     25 ****        -3.1510  -4.1637  -3.7112 H              1 S1                 0.0000
     26 ****        -3.5979  -1.9167  -2.0306 H              1 S1                 0.0000
     27 ****        -3.5730  -0.2478  -1.5750 H              1 S1                 0.0000
     28 ****        -3.1862   2.0265  -0.9779 H              1 S1                 0.0000
     29 ****         1.8286   1.2435  -2.9415 H              1 S1                 0.0000
     30 ****         1.3284   2.8125  -2.4109 H              1 S1                 0.0000
     31 ****         0.7119   0.5892   0.0706 H              1 S1                 0.0000
     32 ****         3.3424   0.5026   1.3093 H              1 S1                 0.0000
     33 ****         2.7475   1.7633   3.2927 H              1 S1                 0.0000
     34 ****         2.5301   2.8075   1.9157 H              1 S1                 0.0000
     35 ****         0.6232   2.9887   3.5216 H              1 S1                 0.0000
     36 ****         0.0773   2.4296   1.9605 H              1 S1                 0.0000
     37 ****         0.5952   0.6954   4.4244 H              1 S1                 0.0000
     38 ****        -0.9657   1.0651   3.7324 H              1 S1                 0.0000
     39 ****        -0.1803  -1.2123   3.0781 H              1 S1                 0.0000
     40 ****        -0.4234  -0.1929   1.6832 H              1 S1                 0.0000
     41 ****         2.2444  -0.7754   3.0389 H              1 S1                 0.0000
     42 ****         1.1973  -1.7401   0.3360 H              1 S1                 0.0000
     43 ****         1.4492  -2.7162   1.7765 H              1 S1                 0.0000
     44 ****         2.8279  -1.9996   0.9526 H              1 S1                 0.0000
     45 ****         0.5974  -0.6055  -2.6871 H              1 S1                 0.0000
     46 ****        -0.9254  -3.7597  -3.2043 LP             1 S1                 0.0000
     47 ****         0.1780  -2.4283  -3.1048 LP             1 S1                 0.0000
     48 ****        -1.5826   3.7797  -0.7734 LP             1 S1                 0.0000
     49 ****         0.0764   3.6221  -1.2454 LP             1 S1                 0.0000
     50 ****         3.6816   2.5520  -1.6375 LP             1 S1                 0.0000
     51 ****         3.8943   1.9686  -0.0206 LP             1 S1                 0.0000
@<TRIPOS>BOND
    1    1    2 1     
    2    1   23 1     
    3    1   24 1     
    4    1   25 1     
    5    2    3 am    
    6    2   26 1     
    7    3    4 2     
    8    3    5 1     
    9    5   22 2     
   10    5    6 1     
   11    6    7 2     
   12    6   27 1     
   13    7    8 1     
   14    7   28 1     
   15    8    9 2     
   16    8   10 am    
   17   10   11 1     
   18   10   22 1     
   19   11   12 1     
   20   11   29 1     
   21   11   30 1     
   22   12   13 2     
   23   12   14 am    
   24   14   15 1     
   25   14   31 1     
   26   15   20 1     
   27   15   16 1     
   28   15   32 1     
   29   16   17 1     
   30   16   33 1     
   31   16   34 1     
   32   17   18 1     
   33   17   35 1     
   34   17   36 1     
   35   18   19 1     
   36   18   37 1     
   37   18   38 1     
   38   19   20 1     
   39   19   39 1     
   40   19   40 1     
   41   20   21 1     
   42   20   41 1     
   43   21   42 1     
   44   21   43 1     
   45   21   44 1     
   46   22   45 1     
   47    4   46 1     
   48    4   47 1     
   49    9   48 1     
   50    9   49 1     
   51   13   50 1     
   52   13   51 1     
@<TRIPOS>SUBSTRUCTURE
      1 S1             1
@<TRIPOS>SET
LONE_PAIRS      STATIC     ATOMS    <user>   **** ""
6 46 47 48 49 50 51
DONOR_HYDROGENS      STATIC     ATOMS    <user>   **** ""
2 26 31
ATOM$BLUE        STATIC     ATOMS    COLORGROUP SYSTEM
6 46 47 48 49 50 51
ATOM$RED        STATIC     ATOMS    COLORGROUP SYSTEM
2 26 31
