AV-unprocessed.smi:1898|AV-procd|sdf|7704|dock3
  -GOLD-   22720 9443D 1   1.00000     0.00000
 Structure written by MMmdl.
 46 47  0  0  0  0  0  0  0  0  3 V2000
  143.8570  145.2486  157.3956 C   0  0  0  0  0  0  0  0  0  0  0  0
  143.6373  144.0571  156.5839 N   0  5  0  0  0  0  0  0  0  0  0  0
  144.3634  142.9148  156.7161 C   0  0  0  0  0  0  0  0  0  0  0  0
  145.2098  142.5906  157.5558 O   0  0  0  0  0  0  0  0  0  0  0  0
  144.0070  141.9016  155.6220 C   0  0  0  0  0  0  0  0  0  0  0  0
  145.1857  141.6532  154.7552 N   0  3  2  0  0  0  0  0  0  0  0  0
  146.1394  140.6901  155.3609 C   0  0  0  0  0  0  0  0  0  0  0  0
  147.2698  140.3329  154.3788 C   0  0  0  0  0  0  0  0  0  0  0  0
  148.0086  141.5818  153.8676 C   0  0  2  0  0  0  0  0  0  0  0  0
  148.8336  142.1590  154.9284 N   0  0  0  0  0  0  0  0  0  0  0  0
  149.7683  141.5013  155.6295 C   0  0  0  0  0  0  0  0  0  0  0  0
  150.0543  140.3199  155.4370 O   0  0  0  0  0  0  0  0  0  0  0  0
  150.3458  142.3050  156.5385 N   0  0  0  0  0  0  0  0  0  0  0  0
  151.3641  141.9955  157.4825 C   0  0  0  0  0  0  0  0  0  0  0  0
  151.8263  140.6818  157.7401 C   0  0  0  0  0  0  0  0  0  0  0  0
  152.8254  140.4872  158.7114 C   0  0  0  0  0  0  0  0  0  0  0  0
  153.3220  141.6109  159.3967 C   0  0  0  0  0  0  0  0  0  0  0  0
  152.8824  142.8660  159.1728 N   0  0  0  0  0  0  0  0  0  0  0  0
  151.9186  143.0563  158.2369 C   0  0  0  0  0  0  0  0  0  0  0  0
  151.4657  144.3427  158.0126 O   0  0  0  0  0  0  0  0  0  0  0  0
  151.9458  145.3882  158.8512 C   0  0  0  0  0  0  0  0  0  0  0  0
  146.9921  142.6004  153.3150 C   0  0  0  0  0  0  0  0  0  0  0  0
  145.8683  142.9021  154.3225 C   0  0  0  0  0  0  0  0  0  0  0  0
  143.1260  146.0270  157.1784 H   0  0  0  0  0  0  0  0  0  0  0  0
  144.8393  145.6906  157.2273 H   0  0  0  0  0  0  0  0  0  0  0  0
  143.7815  145.0445  158.4642 H   0  0  0  0  0  0  0  0  0  0  0  0
  143.6183  140.9613  156.0196 H   0  0  0  0  0  0  0  0  0  0  0  0
  143.1994  142.3442  155.0372 H   0  0  0  0  0  0  0  0  0  0  0  0
  146.5494  141.1117  156.2800 H   0  0  0  0  0  0  0  0  0  0  0  0
  145.6120  139.7772  155.6402 H   0  0  0  0  0  0  0  0  0  0  0  0
  147.9716  139.6427  154.8486 H   0  0  0  0  0  0  0  0  0  0  0  0
  146.8437  139.7982  153.5287 H   0  0  0  0  0  0  0  0  0  0  0  0
  148.6698  141.2710  153.0565 H   0  0  0  0  0  0  0  0  0  0  0  0
  148.6713  143.1294  155.1543 H   0  0  0  0  0  0  0  0  0  0  0  0
  150.0618  143.2736  156.5189 H   0  0  0  0  0  0  0  0  0  0  0  0
  151.4274  139.8207  157.2271 H   0  0  0  0  0  0  0  0  0  0  0  0
  153.1985  139.4976  158.9295 H   0  0  0  0  0  0  0  0  0  0  0  0
  154.0880  141.4981  160.1496 H   0  0  0  0  0  0  0  0  0  0  0  0
  151.4945  146.3318  158.5447 H   0  0  0  0  0  0  0  0  0  0  0  0
  153.0282  145.4987  158.7721 H   0  0  0  0  0  0  0  0  0  0  0  0
  151.6779  145.2175  159.8949 H   0  0  0  0  0  0  0  0  0  0  0  0
  147.4933  143.5247  153.0249 H   0  0  0  0  0  0  0  0  0  0  0  0
  146.5489  142.2009  152.4019 H   0  0  0  0  0  0  0  0  0  0  0  0
  145.1519  143.5810  153.8594 H   0  0  0  0  0  0  0  0  0  0  0  0
  146.2707  143.4203  155.1942 H   0  0  0  0  0  0  0  0  0  0  0  0
  144.8237  141.2109  153.9222 H   0  0  0  0  0  0  0  0  0  0  0  0
  1  2  1  0  0  0  0
  1 24  1  0  0  0  0
  1 25  1  0  0  0  0
  1 26  1  0  0  0  0
  2  3  1  0  0  0  0
  3  4  2  0  0  0  0
  3  5  1  0  0  0  0
  5  6  1  0  0  0  0
  5 27  1  0  0  0  0
  5 28  1  0  0  0  0
  6 23  1  0  0  0  0
  6  7  1  0  0  0  0
  6 46  1  0  0  0  0
  7  8  1  0  0  0  0
  7 29  1  0  0  0  0
  7 30  1  0  0  0  0
  8  9  1  0  0  0  0
  8 31  1  0  0  0  0
  8 32  1  0  0  0  0
  9 10  1  0  0  0  0
  9 22  1  0  0  0  0
  9 33  1  0  0  0  0
 10 11  1  0  0  0  0
 10 34  1  0  0  0  0
 11 12  2  0  0  0  0
 11 13  1  0  0  0  0
 13 14  1  0  0  0  0
 13 35  1  0  0  0  0
 14 19  1  0  0  0  0
 14 15  2  0  0  0  0
 15 16  1  0  0  0  0
 15 36  1  0  0  0  0
 16 17  2  0  0  0  0
 16 37  1  0  0  0  0
 17 18  1  0  0  0  0
 17 38  1  0  0  0  0
 18 19  2  0  0  0  0
 19 20  1  0  0  0  0
 20 21  1  0  0  0  0
 21 39  1  0  0  0  0
 21 40  1  0  0  0  0
 21 41  1  0  0  0  0
 22 23  1  0  0  0  0
 22 42  1  0  0  0  0
 22 43  1  0  0  0  0
 23 44  1  0  0  0  0
 23 45  1  0  0  0  0
M  CHG  1   2  -1
M  CHG  1   6   1
M  END
> <s_m_source_file>
AV-unprocessed.smi

> <i_m_source_file_index>
1898

> <i_lp_mmshare_version>
43012

> <i_f3d_flags>
0

> <s_epik_input>
W0NIM11bTkhdQyg9TylbQ0gyXU4xW0NIMl1bQ0gyXVtDSF0oW0NIMl1bQ0gyXTEpW05IXUMoPU8pW05IXWMyW2NIXVtjSF1bY0hdbmMyT1tDSDNd

> <s_epik_cmdline>
J2VwaWtfcHl0aG9uJywgJy1waCcsICc3LjAnLCAnLXRuJywgJzgnLCAnLW1hJywgJzIwMCcsICctbWV0YWxfYmluZGluZycsICctaW1hZScsICc8aW5maWxlLm1hZT4nLCAnLW9tYWUnLCAnPG91dGZpbGUubWFlPic=

> <r_lp_tautomer_probability>
1

> <r_epik_Ionization_Penalty>
6.13954

> <r_epik_Ionization_Penalty_Charging>
6.13946

> <r_epik_Ionization_Penalty_Neutral>
7.84403e-05

> <r_epik_State_Penalty>
6.9595

> <r_epik_Charging_Adjusted_Penalty>
13.099

> <i_epik_Tot_Q>
0

> <i_epik_Tot_abs_Q>
2

> <r_epik_Metal_State_Penalty>
2.89145

> <b_epik_Metal_Only>
1

> <s_lp_Force_Field>
OPLS_2005

> <r_lp_Energy>
15.6721

> <b_lp_Chiralities_Consistent>
1

> <s_lp_Variant>
AV-unprocessed.smi:1898-5

> <Gold.Version>
5.8.1

> <Gold.Id.Protein>
6NUR|6NUR_protein|mol2

> <Gold.PLP.Fitness>
47.0566

> <Gold.PLP.PLP>
-35.6989

> <Gold.PLP.part.hbond>
-3.0000

> <Gold.PLP.part.metal>
0.0000

> <Gold.PLP.part.buried>
-8.4088

> <Gold.PLP.part.nonpolar>
-24.7504

> <Gold.PLP.part.repulsive>
0.5220

> <Gold.PLP.ligand.clash>
0.0000

> <Gold.PLP.ligand.torsion>
0.2315

> <Gold.PLP.Chemscore.Hbond>
3.9040

> <Gold.PLP.Chemscore.CHOScore>
0.0000

> <Gold.PLP.Chemscore.Metal>
0.0000

> <Gold.Chemscore.Hbonds>
donor molecule, donor type, donor heavy atom, donor atom, acceptor molecule, acceptor atom, score
      L1  H     6    46       P1 10175  2.00
      L1  H    10    34       P1  8028  1.00
      L1  H    13    35       P1  8028  0.92

> <Gold.PLP.Chemscore.Internal.Correction>
0.1086

> <Gold.Rescore>
     Score         DG    S(hbond)    S(metal)    S(lipo)     H(rot)  DE(clash)    DE(int)     intcor
     15.02     -19.46       2.83        0.00      80.99       1.93       2.01       2.43       ----

> <Gold.Chemscore.Fitness>
15.0200

> <Gold.Chemscore.DG>
-19.4576

> <Gold.Chemscore.ZeroCoef>
-5.4800

> <Gold.Chemscore.Hbond>
2.8258

> <Gold.Chemscore.Metal>
0.0000

> <Gold.Chemscore.Lipo>
80.9898

> <Gold.Chemscore.Internal_Hbond>
0.0000

> <Gold.Chemscore.DEClash>
2.0104

> <Gold.Chemscore.DEInternal>
2.4271

> <Gold.Chemscore.Rot>
1.9283

> <Gold.Chemscore.Internal.Correction>
   9.000000E+99

> <Gold.Chemscore.Hbonds>
donor molecule, donor type, donor heavy atom, donor atom, acceptor molecule, acceptor atom, score
      L1  H     6    46       P1 10175  0.59
      L1  H    10    34       P1  8028  1.00
      L1  H    13    35       P1  8028  0.83

> <Gold.Chemscore.Hbond.Weighted>
-9.4383

> <Gold.Chemscore.Metal.Weighted>
-0.0000

> <Gold.Chemscore.Lipo.Weighted>
-9.4758

> <Gold.Chemscore.Internal_Hbond.Weighted>
0.0000

> <Gold.Chemscore.DEClash.Weighted>
2.0104

> <Gold.Chemscore.DEInternal.Weighted>
2.4271

> <Gold.Chemscore.Rot.Weighted>
4.9365

> <Gold.Chemscore.Internal.Correction.Weighted>
   9.000000E+99

> <Gold.Protein.RotatedTorsions>
[ 6907 6896 6895 6894 ] final  -13.32 input  -60.11 | X-H torsion
[ 7974 7965 7964 7962 ] final  -36.34 input  175.53 | X-H torsion
[ 8008 7997 7996 7995 ] final   90.75 input   59.86 | X-H torsion
[ 10167 10162 10161 10158 ] final -113.71 input  -65.29 | X-H torsion
[ 10718 10713 10712 10709 ] final   42.35 input   66.30 | X-H torsion
[ 10763 10752 10751 10750 ] final  -97.89 input  -60.55 | X-H torsion
[ 11005 11000 10999 10996 ] final  -59.96 input  -57.11 | X-H torsion

> <Gold.Protein.ActiveResidues>
 VAL166  LYS551  ARG553  GLY616  TRP617  ASP618  TYR619  PRO620  LYS621  CYS622 
 ASP623  PHE694  ASN695  SER759  ASP760  ASP761  ALA762  ILE779  LEU786  VAL792 
 PHE793  MET794  SER795  GLU796  ALA797  LYS798  CYS799  TRP800  GLU811  SER814 

> <Gold.Protein.RotatedAtoms>
  151.3568  135.0896  159.9420 H   0  0  0  0  0  0  0  0  0  0  0  0  # atno 6907 bound_to 6896
  152.5172  133.9298  159.7585 H   0  0  0  0  0  0  0  0  0  0  0  0  # atno 6908 bound_to 6896
  150.9684  133.6316  159.2771 H   0  0  0  0  0  0  0  0  0  0  0  0  # atno 6909 bound_to 6896
  146.0669  140.6267  142.8970 H   0  0  0  0  0  0  0  0  0  0  0  0  # atno 7974 bound_to 7965
  156.0156  140.3346  155.6986 H   0  0  0  0  0  0  0  0  0  0  0  0  # atno 8008 bound_to 7997
  155.6095  140.0664  157.2728 H   0  0  0  0  0  0  0  0  0  0  0  0  # atno 8009 bound_to 7997
  154.4297  140.1796  156.1245 H   0  0  0  0  0  0  0  0  0  0  0  0  # atno 8010 bound_to 7997
  140.1089  143.4546  152.1765 H   0  0  0  0  0  0  0  0  0  0  0  0  # atno 10167 bound_to 10162
  157.4038  130.7875  149.7371 H   0  0  0  0  0  0  0  0  0  0  0  0  # atno 10718 bound_to 10713
  154.7368  135.5029  153.9054 H   0  0  0  0  0  0  0  0  0  0  0  0  # atno 10763 bound_to 10752
  153.1003  135.6683  153.9694 H   0  0  0  0  0  0  0  0  0  0  0  0  # atno 10764 bound_to 10752
  153.9482  135.3060  155.3419 H   0  0  0  0  0  0  0  0  0  0  0  0  # atno 10765 bound_to 10752
  141.1269  133.6619  156.5151 H   0  0  0  0  0  0  0  0  0  0  0  0  # atno 11005 bound_to 11000
  144.7208  140.4366  143.7009 LP  0  0  0  0  0  0  0  0  0  0  0  0  # atno 17320 bound_to 7965
  145.6460  139.1557  143.2888 LP  0  0  0  0  0  0  0  0  0  0  0  0  # atno 17321 bound_to 7965
  139.5630  144.7418  151.4101 LP  0  0  0  0  0  0  0  0  0  0  0  0  # atno 17342 bound_to 10162
  140.6937  143.7801  150.7293 LP  0  0  0  0  0  0  0  0  0  0  0  0  # atno 17343 bound_to 10162
  155.9831  130.4004  150.3383 LP  0  0  0  0  0  0  0  0  0  0  0  0  # atno 17370 bound_to 10713
  157.1513  131.0321  151.2883 LP  0  0  0  0  0  0  0  0  0  0  0  0  # atno 17371 bound_to 10713
  140.4337  134.7078  157.4955 LP  0  0  0  0  0  0  0  0  0  0  0  0  # atno 17394 bound_to 11000
  140.0276  134.6454  155.9151 LP  0  0  0  0  0  0  0  0  0  0  0  0  # atno 17395 bound_to 11000

$$$$
