AV-unprocessed.smi:1289|AV-procd|sdf|5387|dock2
  -GOLD-   22720 4533D 1   1.00000     0.00000
 Structure written by MMmdl.
 38 40  0  0  0  0  0  0  0  0  2 V2000
  145.2444  133.0907  163.0097 N   0  0  0  0  0  0  0  0  0  0  0  0
  146.0119  133.7894  162.4983 C   0  0  0  0  0  0  0  0  0  0  0  0
  146.9759  134.6672  161.8562 C   0  0  0  0  0  0  0  0  0  0  0  0
  147.5366  135.7451  162.5690 C   0  0  0  0  0  0  0  0  0  0  0  0
  148.4724  136.5920  161.9442 C   0  0  0  0  0  0  0  0  0  0  0  0
  148.8611  136.3775  160.6060 C   0  0  0  0  0  0  0  0  0  0  0  0
  149.7826  137.2542  160.0756 O   0  0  0  0  0  0  0  0  0  0  0  0
  150.0930  137.1526  158.6911 C   0  0  0  0  0  0  0  0  0  0  0  0
  149.9452  138.5272  158.0182 C   0  0  2  0  0  0  0  0  0  0  0  0
  149.7197  138.3467  156.6346 O   0  0  0  0  0  0  0  0  0  0  0  0
  151.1309  139.4763  158.2858 C   0  0  0  0  0  0  0  0  0  0  0  0
  150.8626  140.8565  157.8582 N   0  0  0  0  0  0  0  0  0  0  0  0
  149.9922  141.3206  156.9210 C   0  0  0  0  0  0  0  0  0  0  0  0
  150.1035  142.6775  156.8915 N   0  3  0  0  0  0  0  0  0  0  0  0
  151.0579  143.0876  157.8248 C   0  0  0  0  0  0  0  0  0  0  0  0
  151.5163  144.3579  158.1606 C   0  0  0  0  0  0  0  0  0  0  0  0
  152.5057  144.4293  159.1630 C   0  0  0  0  0  0  0  0  0  0  0  0
  153.0022  143.2675  159.7891 C   0  0  0  0  0  0  0  0  0  0  0  0
  152.5303  141.9847  159.4410 C   0  0  0  0  0  0  0  0  0  0  0  0
  151.5505  141.9225  158.4502 C   0  0  0  0  0  0  0  0  0  0  0  0
  148.2909  135.2915  159.8945 C   0  0  0  0  0  0  0  0  0  0  0  0
  147.3546  134.4433  160.5177 C   0  0  0  0  0  0  0  0  0  0  0  0
  147.2541  135.9284  163.5958 H   0  0  0  0  0  0  0  0  0  0  0  0
  148.8975  137.4157  162.4988 H   0  0  0  0  0  0  0  0  0  0  0  0
  151.1016  136.7631  158.5412 H   0  0  0  0  0  0  0  0  0  0  0  0
  149.3956  136.4569  158.2215 H   0  0  0  0  0  0  0  0  0  0  0  0
  149.0390  138.9900  158.4110 H   0  0  0  0  0  0  0  0  0  0  0  0
  148.8088  138.5212  156.4541 H   0  0  0  0  0  0  0  0  0  0  0  0
  151.3433  139.5080  159.3551 H   0  0  0  0  0  0  0  0  0  0  0  0
  152.0440  139.1255  157.8047 H   0  0  0  0  0  0  0  0  0  0  0  0
  149.3310  140.7210  156.3117 H   0  0  0  0  0  0  0  0  0  0  0  0
  151.1381  145.2493  157.6820 H   0  0  0  0  0  0  0  0  0  0  0  0
  152.8920  145.3945  159.4572 H   0  0  0  0  0  0  0  0  0  0  0  0
  153.7616  143.3615  160.5519 H   0  0  0  0  0  0  0  0  0  0  0  0
  152.9215  141.1013  159.9241 H   0  0  0  0  0  0  0  0  0  0  0  0
  148.5550  135.0866  158.8683 H   0  0  0  0  0  0  0  0  0  0  0  0
  146.9304  133.6202  159.9607 H   0  0  0  0  0  0  0  0  0  0  0  0
  149.5653  143.2773  156.2791 H   0  0  0  0  0  0  0  0  0  0  0  0
  1  2  3  0  0  0  0
  2  3  1  0  0  0  0
  3 22  1  0  0  0  0
  3  4  2  0  0  0  0
  4  5  1  0  0  0  0
  4 23  1  0  0  0  0
  5  6  2  0  0  0  0
  5 24  1  0  0  0  0
  6  7  1  0  0  0  0
  6 21  1  0  0  0  0
  7  8  1  0  0  0  0
  8  9  1  0  0  0  0
  8 25  1  0  0  0  0
  8 26  1  0  0  0  0
  9 10  1  0  0  0  0
  9 11  1  0  0  0  0
  9 27  1  0  0  0  0
 10 28  1  0  0  0  0
 11 12  1  0  0  0  0
 11 29  1  0  0  0  0
 11 30  1  0  0  0  0
 12 20  1  0  0  0  0
 12 13  1  0  0  0  0
 13 14  2  0  0  0  0
 13 31  1  0  0  0  0
 14 15  1  0  0  0  0
 14 38  1  0  0  0  0
 15 20  2  0  0  0  0
 15 16  1  0  0  0  0
 16 17  2  0  0  0  0
 16 32  1  0  0  0  0
 17 18  1  0  0  0  0
 17 33  1  0  0  0  0
 18 19  2  0  0  0  0
 18 34  1  0  0  0  0
 19 20  1  0  0  0  0
 19 35  1  0  0  0  0
 21 22  2  0  0  0  0
 21 36  1  0  0  0  0
 22 37  1  0  0  0  0
M  CHG  1  14   1
M  END
> <s_m_source_file>
AV-unprocessed.smi

> <i_m_source_file_index>
1289

> <i_lp_mmshare_version>
43012

> <i_f3d_flags>
0

> <s_epik_input>
TiNDYzFbY0hdW2NIXWMoW2NIXVtjSF0xKU9bQ0gyXVtDQEhdKFtPSF0pW0NIMl1uKFtjSF1uMiljKGMyMylbY0hdW2NIXVtjSF1bY0hdMw==

> <s_epik_cmdline>
J2VwaWtfcHl0aG9uJywgJy1waCcsICc3LjAnLCAnLXRuJywgJzgnLCAnLW1hJywgJzIwMCcsICctbWV0YWxfYmluZGluZycsICctaW1hZScsICc8aW5maWxlLm1hZT4nLCAnLW9tYWUnLCAnPG91dGZpbGUubWFlPic=

> <r_epik_Ionization_Penalty>
1.39523

> <r_epik_Ionization_Penalty_Charging>
1.39523

> <r_epik_Ionization_Penalty_Neutral>
2.3993e-06

> <r_epik_State_Penalty>
1.47691

> <r_epik_Charging_Adjusted_Penalty>
2.87215

> <i_epik_Tot_Q>
1

> <i_epik_Tot_abs_Q>
1

> <r_epik_Metal_State_Penalty>
5.51858

> <b_epik_Metal_Only>
0

> <s_lp_Force_Field>
OPLS_2005

> <r_lp_Energy>
21.3748

> <b_lp_Chiralities_Consistent>
1

> <s_lp_Variant>
AV-unprocessed.smi:1289-3

> <Gold.Version>
5.8.1

> <Gold.Id.Protein>
6NUR|6NUR_protein|mol2

> <Gold.PLP.Fitness>
50.1578

> <Gold.PLP.PLP>
-46.0092

> <Gold.PLP.part.hbond>
-2.6592

> <Gold.PLP.part.metal>
0.0000

> <Gold.PLP.part.buried>
-1.9168

> <Gold.PLP.part.nonpolar>
-42.2379

> <Gold.PLP.part.repulsive>
0.1354

> <Gold.PLP.ligand.clash>
0.0000

> <Gold.PLP.ligand.torsion>
0.9850

> <Gold.PLP.Chemscore.Hbond>
2.0000

> <Gold.PLP.Chemscore.CHOScore>
0.0000

> <Gold.PLP.Chemscore.Metal>
0.0000

> <Gold.Chemscore.Hbonds>
donor molecule, donor type, donor heavy atom, donor atom, acceptor molecule, acceptor atom, score
      L1  H    14    38       P1  8028  2.00

> <Gold.PLP.Chemscore.Internal.Correction>
0.1184

> <Gold.Rescore>
     Score         DG    S(hbond)    S(metal)    S(lipo)     H(rot)  DE(clash)    DE(int)     intcor
     14.00     -16.39       0.98        0.00     121.61       2.58       1.48       0.90       ----

> <Gold.Chemscore.Fitness>
14.0036

> <Gold.Chemscore.DG>
-16.3862

> <Gold.Chemscore.ZeroCoef>
-5.4800

> <Gold.Chemscore.Hbond>
0.9827

> <Gold.Chemscore.Metal>
0.0000

> <Gold.Chemscore.Lipo>
121.6101

> <Gold.Chemscore.Internal_Hbond>
0.0000

> <Gold.Chemscore.DEClash>
1.4824

> <Gold.Chemscore.DEInternal>
0.9001

> <Gold.Chemscore.Rot>
2.5798

> <Gold.Chemscore.Internal.Correction>
   9.000000E+99

> <Gold.Chemscore.Hbonds>
donor molecule, donor type, donor heavy atom, donor atom, acceptor molecule, acceptor atom, score
      L1  H    14    38       P1  8028  0.99

> <Gold.Chemscore.Hbond.Weighted>
-3.2821

> <Gold.Chemscore.Metal.Weighted>
-0.0000

> <Gold.Chemscore.Lipo.Weighted>
-14.2284

> <Gold.Chemscore.Internal_Hbond.Weighted>
0.0000

> <Gold.Chemscore.DEClash.Weighted>
1.4824

> <Gold.Chemscore.DEInternal.Weighted>
0.9001

> <Gold.Chemscore.Rot.Weighted>
6.6043

> <Gold.Chemscore.Internal.Correction.Weighted>
   9.000000E+99

> <Gold.Protein.RotatedTorsions>
[ 6907 6896 6895 6894 ] final  -83.21 input  -60.11 | X-H torsion
[ 7974 7965 7964 7962 ] final   27.69 input  175.53 | X-H torsion
[ 8008 7997 7996 7995 ] final -109.65 input   59.86 | X-H torsion
[ 10167 10162 10161 10158 ] final  142.56 input  -65.29 | X-H torsion
[ 10718 10713 10712 10709 ] final   47.33 input   66.30 | X-H torsion
[ 10763 10752 10751 10750 ] final  -77.33 input  -60.55 | X-H torsion
[ 11005 11000 10999 10996 ] final -143.41 input  -57.11 | X-H torsion

> <Gold.Protein.ActiveResidues>
 VAL166  LYS551  ARG553  GLY616  TRP617  ASP618  TYR619  PRO620  LYS621  CYS622 
 ASP623  PHE694  ASN695  SER759  ASP760  ASP761  ALA762  ILE779  LEU786  VAL792 
 PHE793  MET794  SER795  GLU796  ALA797  LYS798  CYS799  TRP800  GLU811  SER814 

> <Gold.Protein.RotatedAtoms>
  150.6888  134.3546  159.4923 H   0  0  0  0  0  0  0  0  0  0  0  0  # atno 6907 bound_to 6896
  152.1383  134.9080  160.0564 H   0  0  0  0  0  0  0  0  0  0  0  0  # atno 6908 bound_to 6896
  152.0223  133.3869  159.4300 H   0  0  0  0  0  0  0  0  0  0  0  0  # atno 6909 bound_to 6896
  146.1770  139.7157  142.8927 H   0  0  0  0  0  0  0  0  0  0  0  0  # atno 7974 bound_to 7965
  154.9625  140.0399  157.2197 H   0  0  0  0  0  0  0  0  0  0  0  0  # atno 8008 bound_to 7997
  154.7876  140.2830  155.5994 H   0  0  0  0  0  0  0  0  0  0  0  0  # atno 8009 bound_to 7997
  156.2945  140.2579  156.2716 H   0  0  0  0  0  0  0  0  0  0  0  0  # atno 8010 bound_to 7997
  139.4991  144.6098  151.6296 H   0  0  0  0  0  0  0  0  0  0  0  0  # atno 10167 bound_to 10162
  157.4573  130.8175  149.7850 H   0  0  0  0  0  0  0  0  0  0  0  0  # atno 10718 bound_to 10713
  154.5116  135.5767  153.6609 H   0  0  0  0  0  0  0  0  0  0  0  0  # atno 10763 bound_to 10752
  152.9898  135.6160  154.2872 H   0  0  0  0  0  0  0  0  0  0  0  0  # atno 10764 bound_to 10752
  154.2787  135.2851  155.2686 H   0  0  0  0  0  0  0  0  0  0  0  0  # atno 10765 bound_to 10752
  140.8128  134.2724  157.4934 H   0  0  0  0  0  0  0  0  0  0  0  0  # atno 11005 bound_to 11000
  145.4183  141.0404  143.2978 LP  0  0  0  0  0  0  0  0  0  0  0  0  # atno 17320 bound_to 7965
  144.8253  139.5721  143.6968 LP  0  0  0  0  0  0  0  0  0  0  0  0  # atno 17321 bound_to 7965
  140.5770  144.0011  150.6247 LP  0  0  0  0  0  0  0  0  0  0  0  0  # atno 17342 bound_to 10162
  140.3148  143.3175  152.0843 LP  0  0  0  0  0  0  0  0  0  0  0  0  # atno 17343 bound_to 10162
  156.0013  130.3879  150.2595 LP  0  0  0  0  0  0  0  0  0  0  0  0  # atno 17370 bound_to 10713
  157.0771  131.0133  151.3170 LP  0  0  0  0  0  0  0  0  0  0  0  0  # atno 17371 bound_to 10713
  139.8713  134.9492  156.4020 LP  0  0  0  0  0  0  0  0  0  0  0  0  # atno 17394 bound_to 11000
  140.9180  133.7665  155.9872 LP  0  0  0  0  0  0  0  0  0  0  0  0  # atno 17395 bound_to 11000

$$$$
