AV-unprocessed.smi:3222|AV-procd|sdf|12304|dock1
  -GOLD-   2272018143D 1   1.00000     0.00000
 Structure written by MMmdl.
 41 42  0  0  0  0  0  0  0  0  2 V2000
  150.9871  142.2396  156.7943 C   0  0  0  0  0  0  0  0  0  0  0  0
  149.7662  141.3502  156.4747 C   0  0  1  0  0  0  0  0  0  0  0  0
  148.5075  142.0848  156.7420 N   0  3  0  0  0  0  0  0  0  0  0  0
  148.1651  142.2649  158.1681 C   0  0  0  0  0  0  0  0  0  0  0  0
  146.8116  142.9765  158.3192 C   0  0  0  0  0  0  0  0  0  0  0  0
  146.6349  143.5132  159.6657 N   0  0  0  0  0  0  0  0  0  0  0  0
  147.5667  144.4881  160.2074 C   0  0  0  0  0  0  0  0  0  0  0  0
  146.9563  144.9239  161.5478 C   0  0  0  0  0  0  0  0  0  0  0  0
  145.8363  143.9206  161.8460 C   0  0  0  0  0  0  0  0  0  0  0  0
  145.6819  143.1641  160.5379 C   0  0  0  0  0  0  0  0  0  0  0  0
  144.7864  142.3442  160.3407 O   0  0  0  0  0  0  0  0  0  0  0  0
  149.7669  140.8309  155.0109 C   0  0  2  0  0  0  0  0  0  0  0  0
  148.3552  140.4649  154.5122 C   0  0  0  0  0  0  0  0  0  0  0  0
  150.6675  139.6997  154.8233 N   0  0  0  0  0  0  0  0  0  0  0  0
  151.9851  139.5820  155.2163 C   0  0  0  0  0  0  0  0  0  0  0  0
  152.4209  138.3498  154.8215 C   0  0  0  0  0  0  0  0  0  0  0  0
  151.2862  137.7785  154.1815 C   0  0  0  0  0  0  0  0  0  0  0  0
  150.2400  138.5886  154.1812 N   0  0  0  0  0  0  0  0  0  0  0  0
  151.9259  141.7015  156.6629 H   0  0  0  0  0  0  0  0  0  0  0  0
  150.9775  142.5879  157.8265 H   0  0  0  0  0  0  0  0  0  0  0  0
  151.0164  143.1171  156.1477 H   0  0  0  0  0  0  0  0  0  0  0  0
  149.7960  140.4825  157.1359 H   0  0  0  0  0  0  0  0  0  0  0  0
  148.5505  142.9877  156.2915 H   0  0  0  0  0  0  0  0  0  0  0  0
  148.1238  141.2906  158.6568 H   0  0  0  0  0  0  0  0  0  0  0  0
  148.9468  142.8413  158.6621 H   0  0  0  0  0  0  0  0  0  0  0  0
  146.7293  143.7896  157.5960 H   0  0  0  0  0  0  0  0  0  0  0  0
  145.9986  142.2837  158.0970 H   0  0  0  0  0  0  0  0  0  0  0  0
  148.5395  144.0171  160.3550 H   0  0  0  0  0  0  0  0  0  0  0  0
  147.6941  145.3325  159.5287 H   0  0  0  0  0  0  0  0  0  0  0  0
  147.7038  144.9447  162.3416 H   0  0  0  0  0  0  0  0  0  0  0  0
  146.5419  145.9294  161.4630 H   0  0  0  0  0  0  0  0  0  0  0  0
  146.1222  143.2268  162.6372 H   0  0  0  0  0  0  0  0  0  0  0  0
  144.9068  144.4147  162.1312 H   0  0  0  0  0  0  0  0  0  0  0  0
  150.1417  141.6331  154.3729 H   0  0  0  0  0  0  0  0  0  0  0  0
  147.6883  141.3269  154.5223 H   0  0  0  0  0  0  0  0  0  0  0  0
  147.9015  139.6883  155.1287 H   0  0  0  0  0  0  0  0  0  0  0  0
  148.3879  140.0954  153.4867 H   0  0  0  0  0  0  0  0  0  0  0  0
  152.4985  140.3752  155.7398 H   0  0  0  0  0  0  0  0  0  0  0  0
  153.4019  137.9220  154.9661 H   0  0  0  0  0  0  0  0  0  0  0  0
  151.1928  136.8066  153.7197 H   0  0  0  0  0  0  0  0  0  0  0  0
  147.7569  141.5547  156.3228 H   0  0  0  0  0  0  0  0  0  0  0  0
  1  2  1  0  0  0  0
  1 19  1  0  0  0  0
  1 20  1  0  0  0  0
  1 21  1  0  0  0  0
  2  3  1  0  0  0  0
  2 12  1  0  0  0  0
  2 22  1  0  0  0  0
  3  4  1  0  0  0  0
  3 23  1  0  0  0  0
  3 41  1  0  0  0  0
  4  5  1  0  0  0  0
  4 24  1  0  0  0  0
  4 25  1  0  0  0  0
  5  6  1  0  0  0  0
  5 26  1  0  0  0  0
  5 27  1  0  0  0  0
  6 10  1  0  0  0  0
  6  7  1  0  0  0  0
  7  8  1  0  0  0  0
  7 28  1  0  0  0  0
  7 29  1  0  0  0  0
  8  9  1  0  0  0  0
  8 30  1  0  0  0  0
  8 31  1  0  0  0  0
  9 10  1  0  0  0  0
  9 32  1  0  0  0  0
  9 33  1  0  0  0  0
 10 11  2  0  0  0  0
 12 13  1  0  0  0  0
 12 14  1  0  0  0  0
 12 34  1  0  0  0  0
 13 35  1  0  0  0  0
 13 36  1  0  0  0  0
 13 37  1  0  0  0  0
 14 18  1  0  0  0  0
 14 15  1  0  0  0  0
 15 16  2  0  0  0  0
 15 38  1  0  0  0  0
 16 17  1  0  0  0  0
 16 39  1  0  0  0  0
 17 18  2  0  0  0  0
 17 40  1  0  0  0  0
M  CHG  1   3   1
M  END
> <s_m_source_file>
AV-unprocessed.smi

> <i_m_source_file_index>
3222

> <i_lp_mmshare_version>
43012

> <i_f3d_flags>
0

> <s_epik_input>
bjFbY0hdW2NIXVtjSF1uMVtDQEBIXShbQ0gzXSlbQ0BIXShbQ0gzXSlbTkhdW0NIMl1bQ0gyXU4yW0NIMl1bQ0gyXVtDSDJdQzI9Tw==

> <s_epik_cmdline>
J2VwaWtfcHl0aG9uJywgJy1waCcsICc3LjAnLCAnLXRuJywgJzgnLCAnLW1hJywgJzIwMCcsICctbWV0YWxfYmluZGluZycsICctaW1hZScsICc8aW5maWxlLm1hZT4nLCAnLW9tYWUnLCAnPG91dGZpbGUubWFlPic=

> <r_lp_tautomer_probability>
1

> <r_epik_Ionization_Penalty>
0.0064019

> <r_epik_Ionization_Penalty_Charging>
0.00639164

> <r_epik_Ionization_Penalty_Neutral>
1.02567e-05

> <r_epik_State_Penalty>
0.00472531

> <r_epik_Charging_Adjusted_Penalty>
0.011117

> <i_epik_Tot_Q>
1

> <i_epik_Tot_abs_Q>
1

> <r_epik_Metal_State_Penalty>
-0

> <b_epik_Metal_Only>
0

> <s_lp_Force_Field>
OPLS_2005

> <r_lp_Energy>
24.0012

> <b_lp_Chiralities_Consistent>
1

> <s_lp_Variant>
AV-unprocessed.smi:3222-2

> <Gold.Version>
5.8.1

> <Gold.Id.Protein>
6NUR|6NUR_protein|mol2

> <Gold.PLP.Fitness>
43.7963

> <Gold.PLP.PLP>
-36.1238

> <Gold.PLP.part.hbond>
-1.0000

> <Gold.PLP.part.metal>
0.0000

> <Gold.PLP.part.buried>
-2.1817

> <Gold.PLP.part.nonpolar>
-32.9914

> <Gold.PLP.part.repulsive>
0.2315

> <Gold.PLP.ligand.clash>
0.0000

> <Gold.PLP.ligand.torsion>
0.8235

> <Gold.PLP.Chemscore.Hbond>
2.0000

> <Gold.PLP.Chemscore.CHOScore>
1.0000

> <Gold.PLP.Chemscore.Metal>
0.0000

> <Gold.Chemscore.Hbonds>
donor molecule, donor type, donor heavy atom, donor atom, acceptor molecule, acceptor atom, score
      L1  H     3    23       P1  8028  2.00
      L1  C    17    40       P1  7949  1.00

> <Gold.PLP.Chemscore.Internal.Correction>
0.3194

> <Gold.Rescore>
     Score         DG    S(hbond)    S(metal)    S(lipo)     H(rot)  DE(clash)    DE(int)     intcor
     11.28     -12.12       0.97        0.00      72.69       1.99       0.07       0.76       ----

> <Gold.Chemscore.Fitness>
11.2827

> <Gold.Chemscore.DG>
-12.1194

> <Gold.Chemscore.ZeroCoef>
-5.4800

> <Gold.Chemscore.Hbond>
0.9686

> <Gold.Chemscore.Metal>
0.0000

> <Gold.Chemscore.Lipo>
72.6875

> <Gold.Chemscore.Internal_Hbond>
0.0000

> <Gold.Chemscore.DEClash>
0.0748

> <Gold.Chemscore.DEInternal>
0.7619

> <Gold.Chemscore.Rot>
1.9922

> <Gold.Chemscore.Internal.Correction>
   9.000000E+99

> <Gold.Chemscore.Hbonds>
donor molecule, donor type, donor heavy atom, donor atom, acceptor molecule, acceptor atom, score
      L1  H     3    23       P1  8028  0.93

> <Gold.Chemscore.Hbond.Weighted>
-3.2351

> <Gold.Chemscore.Metal.Weighted>
-0.0000

> <Gold.Chemscore.Lipo.Weighted>
-8.5044

> <Gold.Chemscore.Internal_Hbond.Weighted>
0.0000

> <Gold.Chemscore.DEClash.Weighted>
0.0748

> <Gold.Chemscore.DEInternal.Weighted>
0.7619

> <Gold.Chemscore.Rot.Weighted>
5.1002

> <Gold.Chemscore.Internal.Correction.Weighted>
   9.000000E+99

> <Gold.Protein.RotatedTorsions>
[ 6907 6896 6895 6894 ] final -138.43 input  -60.11 | X-H torsion
[ 7974 7965 7964 7962 ] final  -69.54 input  175.53 | X-H torsion
[ 8008 7997 7996 7995 ] final   50.47 input   59.86 | X-H torsion
[ 10167 10162 10161 10158 ] final  103.10 input  -65.29 | X-H torsion
[ 10718 10713 10712 10709 ] final  -95.97 input   66.30 | X-H torsion
[ 10763 10752 10751 10750 ] final  -67.68 input  -60.55 | X-H torsion
[ 11005 11000 10999 10996 ] final   61.13 input  -57.11 | X-H torsion

> <Gold.Protein.ActiveResidues>
 VAL166  LYS551  ARG553  GLY616  TRP617  ASP618  TYR619  PRO620  LYS621  CYS622 
 ASP623  PHE694  ASN695  SER759  ASP760  ASP761  ALA762  ILE779  LEU786  VAL792 
 PHE793  MET794  SER795  GLU796  ALA797  LYS798  CYS799  TRP800  GLU811  SER814 

> <Gold.Protein.RotatedAtoms>
  151.0349  133.5757  159.2656 H   0  0  0  0  0  0  0  0  0  0  0  0  # atno 6907 bound_to 6896
  151.2825  135.0717  159.9184 H   0  0  0  0  0  0  0  0  0  0  0  0  # atno 6908 bound_to 6896
  152.5352  134.0061  159.7971 H   0  0  0  0  0  0  0  0  0  0  0  0  # atno 6909 bound_to 6896
  145.7025  140.9111  143.0724 H   0  0  0  0  0  0  0  0  0  0  0  0  # atno 7974 bound_to 7965
  155.4193  140.3446  155.4270 H   0  0  0  0  0  0  0  0  0  0  0  0  # atno 8008 bound_to 7997
  156.1403  140.1540  156.8963 H   0  0  0  0  0  0  0  0  0  0  0  0  # atno 8009 bound_to 7997
  154.4965  140.0826  156.7688 H   0  0  0  0  0  0  0  0  0  0  0  0  # atno 8010 bound_to 7997
  139.7292  144.7040  151.0749 H   0  0  0  0  0  0  0  0  0  0  0  0  # atno 10167 bound_to 10162
  156.0053  130.5131  150.6156 H   0  0  0  0  0  0  0  0  0  0  0  0  # atno 10718 bound_to 10713
  154.3780  135.6080  153.5775 H   0  0  0  0  0  0  0  0  0  0  0  0  # atno 10763 bound_to 10752
  152.9788  135.5854  154.4443 H   0  0  0  0  0  0  0  0  0  0  0  0  # atno 10764 bound_to 10752
  154.4208  135.2846  155.1954 H   0  0  0  0  0  0  0  0  0  0  0  0  # atno 10765 bound_to 10752
  140.0183  134.6191  155.9677 H   0  0  0  0  0  0  0  0  0  0  0  0  # atno 11005 bound_to 11000
  144.6964  139.8966  143.7456 LP  0  0  0  0  0  0  0  0  0  0  0  0  # atno 17320 bound_to 7965
  146.0785  139.3773  143.0479 LP  0  0  0  0  0  0  0  0  0  0  0  0  # atno 17321 bound_to 7965
  140.7768  143.5065  150.9706 LP  0  0  0  0  0  0  0  0  0  0  0  0  # atno 17342 bound_to 10162
  139.8753  143.7141  152.3162 LP  0  0  0  0  0  0  0  0  0  0  0  0  # atno 17343 bound_to 10162
  157.3981  131.0806  151.1334 LP  0  0  0  0  0  0  0  0  0  0  0  0  # atno 17370 bound_to 10713
  157.2004  130.6392  149.5736 LP  0  0  0  0  0  0  0  0  0  0  0  0  # atno 17371 bound_to 10713
  141.1757  133.6540  156.4820 LP  0  0  0  0  0  0  0  0  0  0  0  0  # atno 17394 bound_to 11000
  140.4432  134.6996  157.5002 LP  0  0  0  0  0  0  0  0  0  0  0  0  # atno 17395 bound_to 11000

$$$$
