AV-unprocessed.smi:2784|AV-procd|sdf|10727|dock5
  -GOLD-   2272015163D 1   1.00000     0.00000
 Structure written by MMmdl.
 31 32  0  0  0  0  0  0  0  0  1 V2000
  150.4315  145.2828  160.0306 C   0  0  0  0  0  0  0  0  0  0  0  0
  150.5719  144.4702  158.8764 O   0  0  0  0  0  0  0  0  0  0  0  0
  151.9264  144.2153  158.5135 C   0  0  1  0  0  0  0  0  0  0  0  0
  152.6891  143.7149  159.7450 C   0  0  0  0  0  0  0  0  0  0  0  0
  152.3317  142.2333  159.8282 C   0  0  0  0  0  0  0  0  0  0  0  0
  152.2411  141.7682  158.3718 C   0  0  0  0  0  0  0  0  0  0  0  0
  151.9950  143.0309  157.5225 C   0  0  1  0  0  0  0  0  0  0  0  0
  150.7911  142.8950  156.7051 N   0  0  0  0  0  0  0  0  0  0  0  0
  150.4480  141.7905  156.0272 C   0  0  0  0  0  0  0  0  0  0  0  0
  151.1175  140.7568  156.0296 O   0  0  0  0  0  0  0  0  0  0  0  0
  149.2975  141.9670  155.3564 N   0  0  0  0  0  0  0  0  0  0  0  0
  148.6302  141.0315  154.5264 C   0  0  0  0  0  0  0  0  0  0  0  0
  148.9936  139.7679  154.3006 N   0  0  0  0  0  0  0  0  0  0  0  0
  148.0309  139.2776  153.4303 C   0  0  0  0  0  0  0  0  0  0  0  0
  147.1321  140.2816  153.1770 C   0  0  0  0  0  0  0  0  0  0  0  0
  147.5011  141.4045  153.8681 O   0  0  0  0  0  0  0  0  0  0  0  0
  149.3732  145.4208  160.2516 H   0  0  0  0  0  0  0  0  0  0  0  0
  150.8700  146.2683  159.8704 H   0  0  0  0  0  0  0  0  0  0  0  0
  150.8997  144.8304  160.9048 H   0  0  0  0  0  0  0  0  0  0  0  0
  152.3831  145.1054  158.0770 H   0  0  0  0  0  0  0  0  0  0  0  0
  153.7614  143.8203  159.5755 H   0  0  0  0  0  0  0  0  0  0  0  0
  152.4483  144.2551  160.6604 H   0  0  0  0  0  0  0  0  0  0  0  0
  153.0553  141.6597  160.4074 H   0  0  0  0  0  0  0  0  0  0  0  0
  151.3592  142.1212  160.3093 H   0  0  0  0  0  0  0  0  0  0  0  0
  153.1796  141.3016  158.0695 H   0  0  0  0  0  0  0  0  0  0  0  0
  151.4590  141.0166  158.2532 H   0  0  0  0  0  0  0  0  0  0  0  0
  152.8579  143.1667  156.8675 H   0  0  0  0  0  0  0  0  0  0  0  0
  150.1893  143.7029  156.6428 H   0  0  0  0  0  0  0  0  0  0  0  0
  148.8524  142.8682  155.4459 H   0  0  0  0  0  0  0  0  0  0  0  0
  148.0602  138.2624  153.0630 H   0  0  0  0  0  0  0  0  0  0  0  0
  146.2401  140.3546  152.5726 H   0  0  0  0  0  0  0  0  0  0  0  0
  1  2  1  0  0  0  0
  1 17  1  0  0  0  0
  1 18  1  0  0  0  0
  1 19  1  0  0  0  0
  2  3  1  0  0  0  0
  3  7  1  0  0  0  0
  3  4  1  0  0  0  0
  3 20  1  0  0  0  0
  4  5  1  0  0  0  0
  4 21  1  0  0  0  0
  4 22  1  0  0  0  0
  5  6  1  0  0  0  0
  5 23  1  0  0  0  0
  5 24  1  0  0  0  0
  6  7  1  0  0  0  0
  6 25  1  0  0  0  0
  6 26  1  0  0  0  0
  7  8  1  0  0  0  0
  7 27  1  0  0  0  0
  8  9  1  0  0  0  0
  8 28  1  0  0  0  0
  9 10  2  0  0  0  0
  9 11  1  0  0  0  0
 11 12  1  0  0  0  0
 11 29  1  0  0  0  0
 12 16  1  0  0  0  0
 12 13  2  0  0  0  0
 13 14  1  0  0  0  0
 14 15  2  0  0  0  0
 14 30  1  0  0  0  0
 15 16  1  0  0  0  0
 15 31  1  0  0  0  0
M  END
> <s_m_source_file>
AV-unprocessed.smi

> <i_m_source_file_index>
2784

> <i_lp_mmshare_version>
43012

> <i_f3d_flags>
0

> <s_epik_input>
W0NIM11PW0NAQEhdMVtDSDJdW0NIMl1bQ0gyXVtDQEhdMVtOSF1DKD1PKVtOSF1jMm5bY0hdW2NIXW8y

> <s_epik_cmdline>
J2VwaWtfcHl0aG9uJywgJy1waCcsICc3LjAnLCAnLXRuJywgJzgnLCAnLW1hJywgJzIwMCcsICctbWV0YWxfYmluZGluZycsICctaW1hZScsICc8aW5maWxlLm1hZT4nLCAnLW9tYWUnLCAnPG91dGZpbGUubWFlPic=

> <r_lp_tautomer_probability>
0.785861

> <r_epik_Ionization_Penalty>
4.58897e-05

> <r_epik_Ionization_Penalty_Charging>
0

> <r_epik_Ionization_Penalty_Neutral>
4.58897e-05

> <r_epik_State_Penalty>
0.0380021

> <r_epik_Charging_Adjusted_Penalty>
0.0380021

> <i_epik_Tot_Q>
0

> <i_epik_Tot_abs_Q>
0

> <r_epik_Metal_State_Penalty>
0.0585611

> <b_epik_Metal_Only>
0

> <s_lp_Force_Field>
OPLS_2005

> <r_lp_Energy>
20.0634

> <b_lp_Chiralities_Consistent>
1

> <s_lp_Variant>
AV-unprocessed.smi:2784-2

> <Gold.Version>
5.8.1

> <Gold.Id.Protein>
6NUR|6NUR_protein|mol2

> <Gold.PLP.Fitness>
41.1988

> <Gold.PLP.PLP>
-29.8265

> <Gold.PLP.part.hbond>
-2.0000

> <Gold.PLP.part.metal>
0.0000

> <Gold.PLP.part.buried>
-4.3334

> <Gold.PLP.part.nonpolar>
-23.9907

> <Gold.PLP.part.repulsive>
0.6922

> <Gold.PLP.ligand.clash>
0.0000

> <Gold.PLP.ligand.torsion>
0.3200

> <Gold.PLP.Chemscore.Hbond>
2.0000

> <Gold.PLP.Chemscore.CHOScore>
2.0000

> <Gold.PLP.Chemscore.Metal>
0.0000

> <Gold.Chemscore.Hbonds>
donor molecule, donor type, donor heavy atom, donor atom, acceptor molecule, acceptor atom, score
      L1  H     8    28       P1  8028  1.00
      L1  H    11    29       P1  8028  1.00
      L1  C    14    30       P1  7948  1.00
      L1  C    15    31       P1 10175  0.94

> <Gold.PLP.Chemscore.Internal.Correction>
0.0123

> <Gold.Rescore>
     Score         DG    S(hbond)    S(metal)    S(lipo)     H(rot)  DE(clash)    DE(int)     intcor
     14.19     -17.44       1.93        0.00      76.10       1.32       0.20       3.05       ----

> <Gold.Chemscore.Fitness>
14.1855

> <Gold.Chemscore.DG>
-17.4360

> <Gold.Chemscore.ZeroCoef>
-5.4800

> <Gold.Chemscore.Hbond>
1.9285

> <Gold.Chemscore.Metal>
0.0000

> <Gold.Chemscore.Lipo>
76.0953

> <Gold.Chemscore.Internal_Hbond>
0.0000

> <Gold.Chemscore.DEClash>
0.1976

> <Gold.Chemscore.DEInternal>
3.0529

> <Gold.Chemscore.Rot>
1.3235

> <Gold.Chemscore.Internal.Correction>
   9.000000E+99

> <Gold.Chemscore.Hbonds>
donor molecule, donor type, donor heavy atom, donor atom, acceptor molecule, acceptor atom, score
      L1  H     8    28       P1  8028  0.94
      L1  H    11    29       P1  8028  0.98

> <Gold.Chemscore.Hbond.Weighted>
-6.4410

> <Gold.Chemscore.Metal.Weighted>
-0.0000

> <Gold.Chemscore.Lipo.Weighted>
-8.9031

> <Gold.Chemscore.Internal_Hbond.Weighted>
0.0000

> <Gold.Chemscore.DEClash.Weighted>
0.1976

> <Gold.Chemscore.DEInternal.Weighted>
3.0529

> <Gold.Chemscore.Rot.Weighted>
3.3882

> <Gold.Chemscore.Internal.Correction.Weighted>
   9.000000E+99

> <Gold.Protein.RotatedTorsions>
[ 6907 6896 6895 6894 ] final -128.58 input  -60.11 | X-H torsion
[ 7974 7965 7964 7962 ] final -135.96 input  175.53 | X-H torsion
[ 8008 7997 7996 7995 ] final    1.76 input   59.86 | X-H torsion
[ 10167 10162 10161 10158 ] final  143.54 input  -65.29 | X-H torsion
[ 10718 10713 10712 10709 ] final   71.99 input   66.30 | X-H torsion
[ 10763 10752 10751 10750 ] final  -90.38 input  -60.55 | X-H torsion
[ 11005 11000 10999 10996 ] final  163.99 input  -57.11 | X-H torsion

> <Gold.Protein.ActiveResidues>
 VAL166  LYS551  ARG553  GLY616  TRP617  ASP618  TYR619  PRO620  LYS621  CYS622 
 ASP623  PHE694  ASN695  SER759  ASP760  ASP761  ALA762  ILE779  LEU786  VAL792 
 PHE793  MET794  SER795  GLU796  ALA797  LYS798  CYS799  TRP800  GLU811  SER814 

> <Gold.Protein.RotatedAtoms>
  150.9194  133.6899  159.2835 H   0  0  0  0  0  0  0  0  0  0  0  0  # atno 6907 bound_to 6896
  151.4359  135.1013  159.9665 H   0  0  0  0  0  0  0  0  0  0  0  0  # atno 6908 bound_to 6896
  152.4971  133.8613  159.7307 H   0  0  0  0  0  0  0  0  0  0  0  0  # atno 6909 bound_to 6896
  144.8968  140.6718  143.5110 H   0  0  0  0  0  0  0  0  0  0  0  0  # atno 7974 bound_to 7965
  154.6835  140.2638  155.6884 H   0  0  0  0  0  0  0  0  0  0  0  0  # atno 8008 bound_to 7997
  156.2706  140.2805  156.1311 H   0  0  0  0  0  0  0  0  0  0  0  0  # atno 8009 bound_to 7997
  155.0997  140.0374  157.2683 H   0  0  0  0  0  0  0  0  0  0  0  0  # atno 8010 bound_to 7997
  139.4967  144.6034  151.6432 H   0  0  0  0  0  0  0  0  0  0  0  0  # atno 10167 bound_to 10162
  157.6479  130.9556  150.0866 H   0  0  0  0  0  0  0  0  0  0  0  0  # atno 10718 bound_to 10713
  154.6652  135.5306  153.8068 H   0  0  0  0  0  0  0  0  0  0  0  0  # atno 10763 bound_to 10752
  153.0466  135.6515  154.0810 H   0  0  0  0  0  0  0  0  0  0  0  0  # atno 10764 bound_to 10752
  154.0715  135.2954  155.3287 H   0  0  0  0  0  0  0  0  0  0  0  0  # atno 10765 bound_to 10752
  140.2414  134.8048  157.3414 H   0  0  0  0  0  0  0  0  0  0  0  0  # atno 11005 bound_to 11000
  145.3686  139.1664  143.4344 LP  0  0  0  0  0  0  0  0  0  0  0  0  # atno 17320 bound_to 7965
  146.3086  140.3755  142.8678 LP  0  0  0  0  0  0  0  0  0  0  0  0  # atno 17321 bound_to 7965
  140.5689  144.0143  150.6206 LP  0  0  0  0  0  0  0  0  0  0  0  0  # atno 17342 bound_to 10162
  140.3254  143.3111  152.0742 LP  0  0  0  0  0  0  0  0  0  0  0  0  # atno 17343 bound_to 10162
  156.1827  130.3651  149.9014 LP  0  0  0  0  0  0  0  0  0  0  0  0  # atno 17370 bound_to 10713
  156.6962  130.8915  151.3594 LP  0  0  0  0  0  0  0  0  0  0  0  0  # atno 17371 bound_to 10713
  140.1649  134.4681  155.7869 LP  0  0  0  0  0  0  0  0  0  0  0  0  # atno 17394 bound_to 11000
  141.2210  133.6917  156.7608 LP  0  0  0  0  0  0  0  0  0  0  0  0  # atno 17395 bound_to 11000

$$$$
