AV-unprocessed.smi:1291|AV-procd|sdf|5394|dock2
  -GOLD-   22720 4553D 1   1.00000     0.00000
 Structure written by MMmdl.
 44 46  0  0  0  0  0  0  0  0  2 V2000
  149.7790  140.7702  153.5144 O   0  0  0  0  0  0  0  0  0  0  0  0
  149.1021  141.0518  154.7208 C   0  0  0  0  0  0  0  0  0  0  0  0
  150.0272  141.4203  155.8364 C   0  0  0  0  0  0  0  0  0  0  0  0
  150.1865  142.6659  156.3680 N   0  3  0  0  0  0  0  0  0  0  0  0
  151.1279  142.6263  157.3965 C   0  0  0  0  0  0  0  0  0  0  0  0
  151.6178  143.6336  158.2220 C   0  0  0  0  0  0  0  0  0  0  0  0
  152.5827  143.2544  159.1781 C   0  0  0  0  0  0  0  0  0  0  0  0
  153.0256  141.9201  159.2846 C   0  0  0  0  0  0  0  0  0  0  0  0
  152.5221  140.9079  158.4414 C   0  0  0  0  0  0  0  0  0  0  0  0
  151.5656  141.2900  157.5005 C   0  0  0  0  0  0  0  0  0  0  0  0
  150.8584  140.5821  156.5205 N   0  0  0  0  0  0  0  0  0  0  0  0
  151.0810  139.1350  156.3682 C   0  0  0  0  0  0  0  0  0  0  0  0
  151.7021  138.7646  155.0058 C   0  0  1  0  0  0  0  0  0  0  0  0
  153.0275  139.2402  154.8827 O   0  0  0  0  0  0  0  0  0  0  0  0
  151.6792  137.2563  154.7108 C   0  0  0  0  0  0  0  0  0  0  0  0
  150.3686  136.7453  154.8978 O   0  0  0  0  0  0  0  0  0  0  0  0
  150.3058  135.7296  155.8839 C   0  0  0  0  0  0  0  0  0  0  0  0
  149.9542  134.3897  155.2674 C   0  0  0  0  0  0  0  0  0  0  0  0
  148.9194  134.3053  154.3122 C   0  0  0  0  0  0  0  0  0  0  0  0
  148.5826  133.0632  153.7397 C   0  0  0  0  0  0  0  0  0  0  0  0
  149.2797  131.9003  154.1199 C   0  0  0  0  0  0  0  0  0  0  0  0
  150.3110  131.9795  155.0756 C   0  0  0  0  0  0  0  0  0  0  0  0
  150.6476  133.2206  155.6508 C   0  0  0  0  0  0  0  0  0  0  0  0
  151.6372  133.2822  156.5741 F   0  0  0  0  0  0  0  0  0  0  0  0
  149.4000  139.9935  153.1313 H   0  0  0  0  0  0  0  0  0  0  0  0
  148.4027  141.8710  154.5537 H   0  0  0  0  0  0  0  0  0  0  0  0
  148.5165  140.1767  155.0028 H   0  0  0  0  0  0  0  0  0  0  0  0
  151.2812  144.6568  158.1404 H   0  0  0  0  0  0  0  0  0  0  0  0
  152.9926  144.0020  159.8419 H   0  0  0  0  0  0  0  0  0  0  0  0
  153.7679  141.6672  160.0276 H   0  0  0  0  0  0  0  0  0  0  0  0
  152.8743  139.8905  158.5292 H   0  0  0  0  0  0  0  0  0  0  0  0
  151.6933  138.7810  157.1976 H   0  0  0  0  0  0  0  0  0  0  0  0
  150.1140  138.6432  156.4791 H   0  0  0  0  0  0  0  0  0  0  0  0
  151.1336  139.2636  154.2204 H   0  0  0  0  0  0  0  0  0  0  0  0
  153.4203  138.8373  154.1238 H   0  0  0  0  0  0  0  0  0  0  0  0
  151.9809  137.0885  153.6757 H   0  0  0  0  0  0  0  0  0  0  0  0
  152.3953  136.7295  155.3436 H   0  0  0  0  0  0  0  0  0  0  0  0
  151.2664  135.6498  156.3957 H   0  0  0  0  0  0  0  0  0  0  0  0
  149.5645  135.9857  156.6424 H   0  0  0  0  0  0  0  0  0  0  0  0
  148.3796  135.1932  154.0171 H   0  0  0  0  0  0  0  0  0  0  0  0
  147.7888  133.0019  153.0097 H   0  0  0  0  0  0  0  0  0  0  0  0
  149.0223  130.9479  153.6808 H   0  0  0  0  0  0  0  0  0  0  0  0
  150.8435  131.0872  155.3698 H   0  0  0  0  0  0  0  0  0  0  0  0
  149.6849  143.4826  156.0428 H   0  0  0  0  0  0  0  0  0  0  0  0
  1  2  1  0  0  0  0
  1 25  1  0  0  0  0
  2  3  1  0  0  0  0
  2 26  1  0  0  0  0
  2 27  1  0  0  0  0
  3 11  1  0  0  0  0
  3  4  2  0  0  0  0
  4  5  1  0  0  0  0
  4 44  1  0  0  0  0
  5 10  2  0  0  0  0
  5  6  1  0  0  0  0
  6  7  2  0  0  0  0
  6 28  1  0  0  0  0
  7  8  1  0  0  0  0
  7 29  1  0  0  0  0
  8  9  2  0  0  0  0
  8 30  1  0  0  0  0
  9 10  1  0  0  0  0
  9 31  1  0  0  0  0
 10 11  1  0  0  0  0
 11 12  1  0  0  0  0
 12 13  1  0  0  0  0
 12 32  1  0  0  0  0
 12 33  1  0  0  0  0
 13 14  1  0  0  0  0
 13 15  1  0  0  0  0
 13 34  1  0  0  0  0
 14 35  1  0  0  0  0
 15 16  1  0  0  0  0
 15 36  1  0  0  0  0
 15 37  1  0  0  0  0
 16 17  1  0  0  0  0
 17 18  1  0  0  0  0
 17 38  1  0  0  0  0
 17 39  1  0  0  0  0
 18 23  1  0  0  0  0
 18 19  2  0  0  0  0
 19 20  1  0  0  0  0
 19 40  1  0  0  0  0
 20 21  2  0  0  0  0
 20 41  1  0  0  0  0
 21 22  1  0  0  0  0
 21 42  1  0  0  0  0
 22 23  2  0  0  0  0
 22 43  1  0  0  0  0
 23 24  1  0  0  0  0
M  CHG  1   4   1
M  END
> <s_m_source_file>
AV-unprocessed.smi

> <i_m_source_file_index>
1291

> <i_lp_mmshare_version>
43012

> <i_f3d_flags>
0

> <s_epik_input>
W2NIXTFbY0hdW2NIXVtjSF1jKGMxMiluKGMobjIpW0NIMl1bT0hdKVtDSDJdW0NASF0oW09IXSlbQ0gyXU9bQ0gyXWMzW2NIXVtjSF1bY0hdW2NIXWMzRg==

> <s_epik_cmdline>
J2VwaWtfcHl0aG9uJywgJy1waCcsICc3LjAnLCAnLXRuJywgJzgnLCAnLW1hJywgJzIwMCcsICctbWV0YWxfYmluZGluZycsICctaW1hZScsICc8aW5maWxlLm1hZT4nLCAnLW9tYWUnLCAnPG91dGZpbGUubWFlPic=

> <r_epik_Ionization_Penalty>
1.34314

> <r_epik_Ionization_Penalty_Charging>
1.34228

> <r_epik_Ionization_Penalty_Neutral>
0.000856861

> <r_epik_State_Penalty>
1.41963

> <r_epik_Charging_Adjusted_Penalty>
2.76191

> <i_epik_Tot_Q>
1

> <i_epik_Tot_abs_Q>
1

> <r_epik_Metal_State_Penalty>
5.45585

> <b_epik_Metal_Only>
0

> <s_lp_Force_Field>
OPLS_2005

> <r_lp_Energy>
19.0817

> <b_lp_Chiralities_Consistent>
1

> <s_lp_Variant>
AV-unprocessed.smi:1291-4

> <Gold.Version>
5.8.1

> <Gold.Id.Protein>
6NUR|6NUR_protein|mol2

> <Gold.PLP.Fitness>
62.6111

> <Gold.PLP.PLP>
-50.7641

> <Gold.PLP.part.hbond>
-4.9849

> <Gold.PLP.part.metal>
0.0000

> <Gold.PLP.part.buried>
-3.2186

> <Gold.PLP.part.nonpolar>
-42.4654

> <Gold.PLP.part.repulsive>
0.2544

> <Gold.PLP.ligand.clash>
0.0000

> <Gold.PLP.ligand.torsion>
1.1663

> <Gold.PLP.Chemscore.Hbond>
4.5920

> <Gold.PLP.Chemscore.CHOScore>
0.0000

> <Gold.PLP.Chemscore.Metal>
0.0000

> <Gold.Chemscore.Hbonds>
donor molecule, donor type, donor heavy atom, donor atom, acceptor molecule, acceptor atom, score
      L1  H     1    25       P1  7957  0.19
      L1  H     4    44       P1  8028  1.95
      P1  H  7989  7998       L1     1  0.37
      P1  H  7997  8008       L1    14  1.00
      P1  H  8011  8017       L1     1  1.00

> <Gold.PLP.Chemscore.Internal.Correction>
0.4037

> <Gold.Rescore>
     Score         DG    S(hbond)    S(metal)    S(lipo)     H(rot)  DE(clash)    DE(int)     intcor
     20.03     -21.85       3.09        0.00     126.87       3.44       0.68       1.14       ----

> <Gold.Chemscore.Fitness>
20.0312

> <Gold.Chemscore.DG>
-21.8539

> <Gold.Chemscore.ZeroCoef>
-5.4800

> <Gold.Chemscore.Hbond>
3.0910

> <Gold.Chemscore.Metal>
0.0000

> <Gold.Chemscore.Lipo>
126.8744

> <Gold.Chemscore.Internal_Hbond>
0.0000

> <Gold.Chemscore.DEClash>
0.6800

> <Gold.Chemscore.DEInternal>
1.1426

> <Gold.Chemscore.Rot>
3.4353

> <Gold.Chemscore.Internal.Correction>
   9.000000E+99

> <Gold.Chemscore.Hbonds>
donor molecule, donor type, donor heavy atom, donor atom, acceptor molecule, acceptor atom, score
      L1  H     1    25       P1  7957  0.20
      L1  H     4    44       P1  8028  0.91
      P1  H  7989  7998       L1     1  0.33
      P1  H  7997  8008       L1    14  0.68
      P1  H  8011  8017       L1     1  0.64

> <Gold.Chemscore.Hbond.Weighted>
-10.3240

> <Gold.Chemscore.Metal.Weighted>
-0.0000

> <Gold.Chemscore.Lipo.Weighted>
-14.8443

> <Gold.Chemscore.Internal_Hbond.Weighted>
0.0000

> <Gold.Chemscore.DEClash.Weighted>
0.6800

> <Gold.Chemscore.DEInternal.Weighted>
1.1426

> <Gold.Chemscore.Rot.Weighted>
8.7944

> <Gold.Chemscore.Internal.Correction.Weighted>
   9.000000E+99

> <Gold.Protein.RotatedTorsions>
[ 6907 6896 6895 6894 ] final   16.45 input  -60.11 | X-H torsion
[ 7974 7965 7964 7962 ] final -114.30 input  175.53 | X-H torsion
[ 8008 7997 7996 7995 ] final  -17.74 input   59.86 | X-H torsion
[ 10167 10162 10161 10158 ] final -105.97 input  -65.29 | X-H torsion
[ 10718 10713 10712 10709 ] final   64.96 input   66.30 | X-H torsion
[ 10763 10752 10751 10750 ] final   84.27 input  -60.55 | X-H torsion
[ 11005 11000 10999 10996 ] final -162.55 input  -57.11 | X-H torsion

> <Gold.Protein.ActiveResidues>
 VAL166  LYS551  ARG553  GLY616  TRP617  ASP618  TYR619  PRO620  LYS621  CYS622 
 ASP623  PHE694  ASN695  SER759  ASP760  ASP761  ALA762  ILE779  LEU786  VAL792 
 PHE793  MET794  SER795  GLU796  ALA797  LYS798  CYS799  TRP800  GLU811  SER814 

> <Gold.Protein.RotatedAtoms>
  151.8341  135.0612  160.0440 H   0  0  0  0  0  0  0  0  0  0  0  0  # atno 6907 bound_to 6896
  152.2858  133.5509  159.5534 H   0  0  0  0  0  0  0  0  0  0  0  0  # atno 6908 bound_to 6896
  150.7208  134.0415  159.3809 H   0  0  0  0  0  0  0  0  0  0  0  0  # atno 6909 bound_to 6896
  145.1218  140.8673  143.3809 H   0  0  0  0  0  0  0  0  0  0  0  0  # atno 7974 bound_to 7965
  154.4956  140.2134  155.9454 H   0  0  0  0  0  0  0  0  0  0  0  0  # atno 8008 bound_to 7997
  156.1365  140.3187  155.8397 H   0  0  0  0  0  0  0  0  0  0  0  0  # atno 8009 bound_to 7997
  155.4199  140.0496  157.3017 H   0  0  0  0  0  0  0  0  0  0  0  0  # atno 8010 bound_to 7997
  140.1928  143.3878  152.1192 H   0  0  0  0  0  0  0  0  0  0  0  0  # atno 10167 bound_to 10162
  157.6074  130.9188  149.9914 H   0  0  0  0  0  0  0  0  0  0  0  0  # atno 10718 bound_to 10713
  153.1366  135.4660  154.9432 H   0  0  0  0  0  0  0  0  0  0  0  0  # atno 10763 bound_to 10752
  154.7711  135.3159  154.8189 H   0  0  0  0  0  0  0  0  0  0  0  0  # atno 10764 bound_to 10752
  153.8720  135.6902  153.4827 H   0  0  0  0  0  0  0  0  0  0  0  0  # atno 10765 bound_to 10752
  140.6080  134.4879  157.5212 H   0  0  0  0  0  0  0  0  0  0  0  0  # atno 11005 bound_to 11000
  145.0732  139.3016  143.5821 LP  0  0  0  0  0  0  0  0  0  0  0  0  # atno 17320 bound_to 7965
  146.3520  140.0213  142.8658 LP  0  0  0  0  0  0  0  0  0  0  0  0  # atno 17321 bound_to 7965
  139.5249  144.7089  151.5268 LP  0  0  0  0  0  0  0  0  0  0  0  0  # atno 17342 bound_to 10162
  140.6444  143.8824  150.6723 LP  0  0  0  0  0  0  0  0  0  0  0  0  # atno 17343 bound_to 10162
  156.1165  130.3647  149.9960 LP  0  0  0  0  0  0  0  0  0  0  0  0  # atno 17370 bound_to 10713
  156.8048  130.9303  151.3645 LP  0  0  0  0  0  0  0  0  0  0  0  0  # atno 17371 bound_to 10713
  139.9204  134.8160  156.1229 LP  0  0  0  0  0  0  0  0  0  0  0  0  # atno 17394 bound_to 11000
  141.0827  133.6747  156.2371 LP  0  0  0  0  0  0  0  0  0  0  0  0  # atno 17395 bound_to 11000

$$$$
