#       Name:                AV-unprocessed.smi:37
#       Creating user name   scv26
#       Creation time:       Thu Mar 26 16:11:29 2020


#       File generated by GOLD software.
#

@<TRIPOS>MOLECULE
AV-unprocessed.smi:37
    54    55     1
SMALL
NO_CHARGES


@<TRIPOS>ATOM
      1 ****        -3.5215   2.8646  -2.1643 C.3            1 S1                 0.0000
      2 ****        -3.8092   2.0644  -0.8867 C.3            1 S1                 0.0000
      3 ****        -3.2717   0.6366  -0.9612 C.2            1 S1                 0.0000
      4 ****        -4.0222  -0.3360  -0.8840 O.2            1 S1                 0.0000
      5 ****        -1.9378   0.5911  -1.0995 O.3            1 S1                 0.0000
      6 ****        -1.2791  -0.6627  -1.1686 C.3            1 S1                 0.0000
      7 ****         0.2327  -0.4310  -1.2788 C.3            1 S1                 0.0000
      8 ****         0.9222  -1.6499  -1.5581 O.3            1 S1                 0.0000
      9 ****         2.1285  -1.7072  -0.8489 C.3            1 S1                 0.0000
     10 ****         2.0583  -2.8098   0.1888 N.am           1 S1                 0.0000
     11 ****         0.8541  -3.3575   0.6161 C.2            1 S1                 0.0000
     12 ****         0.7792  -4.3359   1.5492 C.2            1 S1                 0.0000
     13 ****        -0.4226  -4.8153   1.9124 F              1 S1                 0.0000
     14 ****         1.9885  -4.8729   2.1656 C.2            1 S1                 0.0000
     15 ****         2.0215  -5.7576   3.0185 O.2            1 S1                 0.0000
     16 ****         3.1749  -4.2923   1.7086 N.am           1 S1                 0.0000
     17 ****         3.2661  -3.2830   0.7491 C.2            1 S1                 0.0000
     18 ****         4.3667  -2.8369   0.4276 O.2            1 S1                 0.0000
     19 ****         2.3149  -0.3507  -0.1614 C.3            1 S1                 0.0000
     20 ****         3.3214   0.8668  -1.3817 Br             1 S1                 0.0000
     21 ****         0.8751   0.1064  -0.0011 C.3            1 S1                 0.0000
     22 ****         0.7501   1.5184   0.0971 O.3            1 S1                 0.0000
     23 ****         0.8222   2.1225   1.2951 C.2            1 S1                 0.0000
     24 ****         1.0356   1.5672   2.3729 O.2            1 S1                 0.0000
     25 ****         0.6157   3.6321   1.2032 C.3            1 S1                 0.0000
     26 ****        -0.8033   3.9924   0.7422 C.3            1 S1                 0.0000
     27 ****         4.0382  -4.6302   2.1090 H              1 S1                 0.0000
     28 ****        -3.9561   3.8620  -2.0974 H              1 S1                 0.0000
     29 ****        -3.9465   2.3770  -3.0422 H              1 S1                 0.0000
     30 ****        -2.4503   2.9840  -2.3302 H              1 S1                 0.0000
     31 ****        -3.3662   2.5627  -0.0246 H              1 S1                 0.0000
     32 ****        -4.8844   2.0262  -0.7099 H              1 S1                 0.0000
     33 ****        -1.5153  -1.2617  -0.2886 H              1 S1                 0.0000
     34 ****        -1.6359  -1.2072  -2.0437 H              1 S1                 0.0000
     35 ****         0.4423   0.2434  -2.1109 H              1 S1                 0.0000
     36 ****         2.9430  -1.9872  -1.5197 H              1 S1                 0.0000
     37 ****        -0.0774  -3.0043   0.2032 H              1 S1                 0.0000
     38 ****         2.8633  -0.4226   0.7784 H              1 S1                 0.0000
     39 ****         0.4227  -0.3950   0.8566 H              1 S1                 0.0000
     40 ****         0.8124   4.0756   2.1796 H              1 S1                 0.0000
     41 ****         1.3503   4.0470   0.5126 H              1 S1                 0.0000
     42 ****        -0.9392   5.0736   0.7251 H              1 S1                 0.0000
     43 ****        -1.5556   3.5753   1.4126 H              1 S1                 0.0000
     44 ****        -1.0038   3.6196  -0.2628 H              1 S1                 0.0000
     45 ****        -5.0064  -0.2004  -0.7700 LP             1 S1                 0.0000
     46 ****        -3.6478  -1.2619  -0.9353 LP             1 S1                 0.0000
     47 ****         1.1142  -1.7018  -2.5381 LP             1 S1                 0.0000
     48 ****         0.3462  -2.4222  -1.2900 LP             1 S1                 0.0000
     49 ****         1.1707  -6.1701   3.3443 LP             1 S1                 0.0000
     50 ****         2.8990  -6.0649   3.3866 LP             1 S1                 0.0000
     51 ****         4.4312  -2.1099  -0.2560 LP             1 S1                 0.0000
     52 ****         5.1967  -3.2014   0.8499 LP             1 S1                 0.0000
     53 ****         1.1737   0.5773   2.4067 LP             1 S1                 0.0000
     54 ****         1.0708   2.1059   3.2146 LP             1 S1                 0.0000
@<TRIPOS>BOND
    1    1    2 1     
    2    1   28 1     
    3    1   29 1     
    4    1   30 1     
    5    2    3 1     
    6    2   31 1     
    7    2   32 1     
    8    3    4 2     
    9    3    5 1     
   10    5    6 1     
   11    6    7 1     
   12    6   33 1     
   13    6   34 1     
   14    7   21 1     
   15    7    8 1     
   16    7   35 1     
   17    8    9 1     
   18    9   10 1     
   19    9   19 1     
   20    9   36 1     
   21   10   17 1     
   22   10   11 1     
   23   11   12 2     
   24   11   37 1     
   25   12   13 1     
   26   12   14 1     
   27   14   15 2     
   28   14   16 1     
   29   16   27 1     
   30   16   17 1     
   31   17   18 2     
   32   19   20 1     
   33   19   21 1     
   34   19   38 1     
   35   21   22 1     
   36   21   39 1     
   37   22   23 1     
   38   23   24 2     
   39   23   25 1     
   40   25   26 1     
   41   25   40 1     
   42   25   41 1     
   43   26   42 1     
   44   26   43 1     
   45   26   44 1     
   46    4   45 1     
   47    4   46 1     
   48    8   47 1     
   49    8   48 1     
   50   15   49 1     
   51   15   50 1     
   52   18   51 1     
   53   18   52 1     
   54   24   53 1     
   55   24   54 1     
@<TRIPOS>SUBSTRUCTURE
      1 S1             1
@<TRIPOS>SET
LONE_PAIRS      STATIC     ATOMS    <user>   **** ""
10 45 46 47 48 49 50 51 52 53 54
DONOR_HYDROGENS      STATIC     ATOMS    <user>   **** ""
1 27
ATOM$BLUE        STATIC     ATOMS    COLORGROUP SYSTEM
10 45 46 47 48 49 50 51 52 53 54
ATOM$RED        STATIC     ATOMS    COLORGROUP SYSTEM
1 27
