AV-unprocessed.smi:2084|AV-procd|sdf|8515|dock9
  -GOLD-   2272011233D 1   1.00000     0.00000
 Structure written by MMmdl.
 38 39  0  0  0  0  0  0  0  0  3 V2000
  146.7029  138.7541  153.8788 C   0  0  0  0  0  0  0  0  0  0  0  0
  146.4923  140.0753  153.2237 N   0  3  0  0  0  0  0  0  0  0  0  0
  146.8011  139.9814  151.7730 C   0  0  0  0  0  0  0  0  0  0  0  0
  147.0874  141.2696  153.9282 C   0  0  0  0  0  0  0  0  0  0  0  0
  148.6457  141.1548  153.9332 C   0  0  0  0  0  0  0  0  0  0  0  0
  149.2942  141.9758  154.9567 N   0  0  0  0  0  0  0  0  0  0  0  0
  150.4614  141.7258  155.5663 C   0  0  0  0  0  0  0  0  0  0  0  0
  151.0947  140.7033  155.2946 O   0  0  0  0  0  0  0  0  0  0  0  0
  150.8276  142.6875  156.4422 N   0  5  0  0  0  0  0  0  0  0  0  0
  151.6059  142.3783  157.4920 C   0  0  0  0  0  0  0  0  0  0  0  0
  151.7785  141.1260  157.9299 N   0  0  0  0  0  0  0  0  0  0  0  0
  152.6240  141.0372  159.0373 C   0  0  0  0  0  0  0  0  0  0  0  0
  153.0985  142.2513  159.4580 C   0  0  0  0  0  0  0  0  0  0  0  0
  152.4953  143.5500  158.4687 S   0  0  0  0  0  0  0  0  0  0  0  0
  146.6608  142.5925  153.2192 C   0  0  0  0  0  0  0  0  0  0  0  0
  145.6994  143.3117  154.1680 C   0  0  0  0  0  0  0  0  0  0  0  0
  146.1589  142.8845  155.5567 C   0  0  0  0  0  0  0  0  0  0  0  0
  146.5535  141.4166  155.3835 C   0  0  0  0  0  0  0  0  0  0  0  0
  147.7375  138.4205  153.8104 H   0  0  0  0  0  0  0  0  0  0  0  0
  146.0916  137.9974  153.3861 H   0  0  0  0  0  0  0  0  0  0  0  0
  146.4128  138.7375  154.9269 H   0  0  0  0  0  0  0  0  0  0  0  0
  147.8761  139.9925  151.5916 H   0  0  0  0  0  0  0  0  0  0  0  0
  146.3412  140.7890  151.2054 H   0  0  0  0  0  0  0  0  0  0  0  0
  146.4041  139.0573  151.3510 H   0  0  0  0  0  0  0  0  0  0  0  0
  148.9599  140.1389  154.1671 H   0  0  0  0  0  0  0  0  0  0  0  0
  149.0392  141.3712  152.9387 H   0  0  0  0  0  0  0  0  0  0  0  0
  148.8183  142.8261  155.2207 H   0  0  0  0  0  0  0  0  0  0  0  0
  152.8320  140.0674  159.4641 H   0  0  0  0  0  0  0  0  0  0  0  0
  153.7610  142.4609  160.2839 H   0  0  0  0  0  0  0  0  0  0  0  0
  147.5101  143.2518  153.0520 H   0  0  0  0  0  0  0  0  0  0  0  0
  146.2376  142.4494  152.2253 H   0  0  0  0  0  0  0  0  0  0  0  0
  145.7154  144.3941  154.0374 H   0  0  0  0  0  0  0  0  0  0  0  0
  144.6776  142.9714  153.9973 H   0  0  0  0  0  0  0  0  0  0  0  0
  147.0288  143.4724  155.8530 H   0  0  0  0  0  0  0  0  0  0  0  0
  145.3892  143.0258  156.3157 H   0  0  0  0  0  0  0  0  0  0  0  0
  145.6724  140.8033  155.5623 H   0  0  0  0  0  0  0  0  0  0  0  0
  147.2826  141.1096  156.1341 H   0  0  0  0  0  0  0  0  0  0  0  0
  145.4945  140.2261  153.2695 H   0  0  0  0  0  0  0  0  0  0  0  0
  1  2  1  0  0  0  0
  1 19  1  0  0  0  0
  1 20  1  0  0  0  0
  1 21  1  0  0  0  0
  2  3  1  0  0  0  0
  2  4  1  0  0  0  0
  2 38  1  0  0  0  0
  3 22  1  0  0  0  0
  3 23  1  0  0  0  0
  3 24  1  0  0  0  0
  4 18  1  0  0  0  0
  4  5  1  0  0  0  0
  4 15  1  0  0  0  0
  5  6  1  0  0  0  0
  5 25  1  0  0  0  0
  5 26  1  0  0  0  0
  6  7  1  0  0  0  0
  6 27  1  0  0  0  0
  7  8  2  0  0  0  0
  7  9  1  0  0  0  0
  9 10  1  0  0  0  0
 10 14  1  0  0  0  0
 10 11  2  0  0  0  0
 11 12  1  0  0  0  0
 12 13  2  0  0  0  0
 12 28  1  0  0  0  0
 13 14  1  0  0  0  0
 13 29  1  0  0  0  0
 15 16  1  0  0  0  0
 15 30  1  0  0  0  0
 15 31  1  0  0  0  0
 16 17  1  0  0  0  0
 16 32  1  0  0  0  0
 16 33  1  0  0  0  0
 17 18  1  0  0  0  0
 17 34  1  0  0  0  0
 17 35  1  0  0  0  0
 18 36  1  0  0  0  0
 18 37  1  0  0  0  0
M  CHG  1   2   1
M  CHG  1   9  -1
M  END
> <s_m_source_file>
AV-unprocessed.smi

> <i_m_source_file_index>
2084

> <i_lp_mmshare_version>
43012

> <i_f3d_flags>
0

> <s_epik_input>
W0NIMl0xW0NIMl1bQ0gyXVtDSDJdQzEoTihbQ0gzXSlbQ0gzXSlbQ0gyXVtOSF1DKD1PKVtOSF1jMm5bY0hdW2NIXXMy

> <s_epik_cmdline>
J2VwaWtfcHl0aG9uJywgJy1waCcsICc3LjAnLCAnLXRuJywgJzgnLCAnLW1hJywgJzIwMCcsICctbWV0YWxfYmluZGluZycsICctaW1hZScsICc8aW5maWxlLm1hZT4nLCAnLW9tYWUnLCAnPG91dGZpbGUubWFlPic=

> <r_lp_tautomer_probability>
1

> <r_epik_Ionization_Penalty>
7.73928

> <r_epik_Ionization_Penalty_Charging>
6.33943

> <r_epik_Ionization_Penalty_Neutral>
1.39985

> <r_epik_State_Penalty>
6.33766

> <r_epik_Charging_Adjusted_Penalty>
12.6771

> <i_epik_Tot_Q>
0

> <i_epik_Tot_abs_Q>
2

> <r_epik_Metal_State_Penalty>
2.27131

> <b_epik_Metal_Only>
1

> <s_lp_Force_Field>
OPLS_2005

> <r_lp_Energy>
28.85

> <b_lp_Chiralities_Consistent>
1

> <s_lp_Variant>
AV-unprocessed.smi:2084-2

> <Gold.Version>
5.8.1

> <Gold.Id.Protein>
6NUR|6NUR_protein|mol2

> <Gold.PLP.Fitness>
43.6807

> <Gold.PLP.PLP>
-33.4025

> <Gold.PLP.part.hbond>
-3.0000

> <Gold.PLP.part.metal>
0.0000

> <Gold.PLP.part.buried>
-3.0835

> <Gold.PLP.part.nonpolar>
-27.2368

> <Gold.PLP.part.repulsive>
1.0239

> <Gold.PLP.ligand.clash>
0.0000

> <Gold.PLP.ligand.torsion>
0.7686

> <Gold.PLP.Chemscore.Hbond>
3.8960

> <Gold.PLP.Chemscore.CHOScore>
0.0000

> <Gold.PLP.Chemscore.Metal>
0.0000

> <Gold.Chemscore.Hbonds>
donor molecule, donor type, donor heavy atom, donor atom, acceptor molecule, acceptor atom, score
      L1  H     2    38       P1 10175  2.00
      L1  H     6    27       P1  8028  1.00
      P1  H  7989  7998       L1     8  0.85

> <Gold.PLP.Chemscore.Internal.Correction>
0.1274

> <Gold.Rescore>
     Score         DG    S(hbond)    S(metal)    S(lipo)     H(rot)  DE(clash)    DE(int)     intcor
     13.55     -18.98       2.19        0.00      86.89       1.55       3.09       2.34       ----

> <Gold.Chemscore.Fitness>
13.5502

> <Gold.Chemscore.DG>
-18.9798

> <Gold.Chemscore.ZeroCoef>
-5.4800

> <Gold.Chemscore.Hbond>
2.1898

> <Gold.Chemscore.Metal>
0.0000

> <Gold.Chemscore.Lipo>
86.8858

> <Gold.Chemscore.Internal_Hbond>
0.0000

> <Gold.Chemscore.DEClash>
3.0851

> <Gold.Chemscore.DEInternal>
2.3446

> <Gold.Chemscore.Rot>
1.5546

> <Gold.Chemscore.Internal.Correction>
   9.000000E+99

> <Gold.Chemscore.Hbonds>
donor molecule, donor type, donor heavy atom, donor atom, acceptor molecule, acceptor atom, score
      L1  H     2    38       P1 10175  0.94
      L1  H     6    27       P1  8028  0.94
      P1  H  7989  7998       L1     8  0.46

> <Gold.Chemscore.Hbond.Weighted>
-7.3140

> <Gold.Chemscore.Metal.Weighted>
-0.0000

> <Gold.Chemscore.Lipo.Weighted>
-10.1656

> <Gold.Chemscore.Internal_Hbond.Weighted>
0.0000

> <Gold.Chemscore.DEClash.Weighted>
3.0851

> <Gold.Chemscore.DEInternal.Weighted>
2.3446

> <Gold.Chemscore.Rot.Weighted>
3.9798

> <Gold.Chemscore.Internal.Correction.Weighted>
   9.000000E+99

> <Gold.Protein.RotatedTorsions>
[ 6907 6896 6895 6894 ] final -172.53 input  -60.11 | X-H torsion
[ 7974 7965 7964 7962 ] final  -63.23 input  175.53 | X-H torsion
[ 8008 7997 7996 7995 ] final   42.53 input   59.86 | X-H torsion
[ 10167 10162 10161 10158 ] final -142.82 input  -65.29 | X-H torsion
[ 10718 10713 10712 10709 ] final  162.31 input   66.30 | X-H torsion
[ 10763 10752 10751 10750 ] final  -39.55 input  -60.55 | X-H torsion
[ 11005 11000 10999 10996 ] final  159.14 input  -57.11 | X-H torsion

> <Gold.Protein.ActiveResidues>
 VAL166  LYS551  ARG553  GLY616  TRP617  ASP618  TYR619  PRO620  LYS621  CYS622 
 ASP623  PHE694  ASN695  SER759  ASP760  ASP761  ALA762  ILE779  LEU786  VAL792 
 PHE793  MET794  SER795  GLU796  ALA797  LYS798  CYS799  TRP800  GLU811  SER814 

> <Gold.Protein.RotatedAtoms>
  151.5415  133.3432  159.2936 H   0  0  0  0  0  0  0  0  0  0  0  0  # atno 6907 bound_to 6896
  150.8533  134.7866  159.7036 H   0  0  0  0  0  0  0  0  0  0  0  0  # atno 6908 bound_to 6896
  152.4573  134.5271  159.9851 H   0  0  0  0  0  0  0  0  0  0  0  0  # atno 6909 bound_to 6896
  145.7816  140.8759  143.0327 H   0  0  0  0  0  0  0  0  0  0  0  0  # atno 7974 bound_to 7965
  155.2878  140.3377  155.4254 H   0  0  0  0  0  0  0  0  0  0  0  0  # atno 8008 bound_to 7997
  156.2060  140.1751  156.7838 H   0  0  0  0  0  0  0  0  0  0  0  0  # atno 8009 bound_to 7997
  154.5622  140.0685  156.8820 H   0  0  0  0  0  0  0  0  0  0  0  0  # atno 8010 bound_to 7997
  139.8052  143.7778  152.2660 H   0  0  0  0  0  0  0  0  0  0  0  0  # atno 10167 bound_to 10162
  157.1243  131.0500  151.2401 H   0  0  0  0  0  0  0  0  0  0  0  0  # atno 10718 bound_to 10713
  153.9312  135.6772  153.4745 H   0  0  0  0  0  0  0  0  0  0  0  0  # atno 10763 bound_to 10752
  153.0979  135.4842  154.8809 H   0  0  0  0  0  0  0  0  0  0  0  0  # atno 10764 bound_to 10752
  154.7427  135.3164  154.8657 H   0  0  0  0  0  0  0  0  0  0  0  0  # atno 10765 bound_to 10752
  140.1933  134.8391  157.2937 H   0  0  0  0  0  0  0  0  0  0  0  0  # atno 11005 bound_to 11000
  144.6795  139.9997  143.7484 LP  0  0  0  0  0  0  0  0  0  0  0  0  # atno 17320 bound_to 7965
  146.0068  139.3136  143.0894 LP  0  0  0  0  0  0  0  0  0  0  0  0  # atno 17321 bound_to 7965
  139.7910  144.7410  150.9955 LP  0  0  0  0  0  0  0  0  0  0  0  0  # atno 17342 bound_to 10162
  140.7819  143.4442  151.0507 LP  0  0  0  0  0  0  0  0  0  0  0  0  # atno 17343 bound_to 10162
  157.4449  130.7565  149.7101 LP  0  0  0  0  0  0  0  0  0  0  0  0  # atno 17370 bound_to 10713
  155.9822  130.4012  150.3432 LP  0  0  0  0  0  0  0  0  0  0  0  0  # atno 17371 bound_to 10713
  140.2135  134.4110  155.7601 LP  0  0  0  0  0  0  0  0  0  0  0  0  # atno 17394 bound_to 11000
  141.2226  133.7130  156.8376 LP  0  0  0  0  0  0  0  0  0  0  0  0  # atno 17395 bound_to 11000

$$$$
