AV-unprocessed.smi:1100|AV-procd|sdf|4760|dock5
  -GOLD-   22720 3293D 1   1.00000     0.00000
 Structure written by MMmdl.
 43 44  0  0  0  0  0  0  0  0  1 V2000
  146.1398  140.6250  155.1912 C   0  0  0  0  0  0  0  0  0  0  0  0
  147.0110  139.4282  154.7314 C   0  0  1  0  0  0  0  0  0  0  0  0
  146.8859  139.2760  153.1866 C   0  0  0  0  0  0  0  0  0  0  0  0
  146.9560  137.8902  152.7301 N   0  0  0  0  0  0  0  0  0  0  0  0
  145.8994  137.1233  152.4251 C   0  0  0  0  0  0  0  0  0  0  0  0
  144.7356  137.5084  152.5320 O   0  0  0  0  0  0  0  0  0  0  0  0
  146.2962  135.9172  151.9799 N   0  0  0  0  0  0  0  0  0  0  0  0
  145.5182  134.8299  151.5578 C   0  0  0  0  0  0  0  0  0  0  0  0
  144.1197  134.6107  151.8981 C   0  0  0  0  0  0  0  0  0  0  0  0
  143.4586  133.5296  151.4387 C   0  0  0  0  0  0  0  0  0  0  0  0
  144.1096  132.5334  150.5843 C   0  0  0  0  0  0  0  0  0  0  0  0
  143.5144  131.5439  150.1566 O   0  0  0  0  0  0  0  0  0  0  0  0
  145.4212  132.7725  150.2957 N   0  0  0  0  0  0  0  0  0  0  0  0
  146.1644  131.8333  149.4522 C   0  0  0  0  0  0  0  0  0  0  0  0
  146.1066  133.9017  150.7814 C   0  0  0  0  0  0  0  0  0  0  0  0
  148.4134  139.5283  155.1990 N   0  0  0  0  0  0  0  0  0  0  0  0
  149.3355  138.7300  154.3822 C   0  0  0  0  0  0  0  0  0  0  0  0
  150.7998  138.8517  154.8375 C   0  0  0  0  0  0  0  0  0  0  0  0
  151.1937  140.2164  154.8226 O   0  0  0  0  0  0  0  0  0  0  0  0
  150.3757  141.0152  155.6660 C   0  0  0  0  0  0  0  0  0  0  0  0
  148.9074  140.9103  155.2174 C   0  0  0  0  0  0  0  0  0  0  0  0
  145.1216  140.5713  154.8082 H   0  0  0  0  0  0  0  0  0  0  0  0
  146.5646  141.5731  154.8601 H   0  0  0  0  0  0  0  0  0  0  0  0
  146.0302  140.6638  156.2740 H   0  0  0  0  0  0  0  0  0  0  0  0
  146.5764  138.5325  155.1778 H   0  0  0  0  0  0  0  0  0  0  0  0
  145.9377  139.6954  152.8491 H   0  0  0  0  0  0  0  0  0  0  0  0
  147.6683  139.8191  152.6581 H   0  0  0  0  0  0  0  0  0  0  0  0
  147.8785  137.4970  152.6144 H   0  0  0  0  0  0  0  0  0  0  0  0
  147.2931  135.7691  151.9238 H   0  0  0  0  0  0  0  0  0  0  0  0
  143.5769  135.2914  152.5331 H   0  0  0  0  0  0  0  0  0  0  0  0
  142.4231  133.3892  151.7117 H   0  0  0  0  0  0  0  0  0  0  0  0
  147.1796  132.1699  149.2392 H   0  0  0  0  0  0  0  0  0  0  0  0
  145.6630  131.6962  148.4929 H   0  0  0  0  0  0  0  0  0  0  0  0
  146.2372  130.8600  149.9397 H   0  0  0  0  0  0  0  0  0  0  0  0
  147.1413  133.9687  150.4767 H   0  0  0  0  0  0  0  0  0  0  0  0
  149.0752  137.6741  154.4302 H   0  0  0  0  0  0  0  0  0  0  0  0
  149.2563  139.0295  153.3360 H   0  0  0  0  0  0  0  0  0  0  0  0
  150.9300  138.4371  155.8384 H   0  0  0  0  0  0  0  0  0  0  0  0
  151.4511  138.2870  154.1702 H   0  0  0  0  0  0  0  0  0  0  0  0
  150.4868  140.6952  156.7033 H   0  0  0  0  0  0  0  0  0  0  0  0
  150.7143  142.0499  155.6126 H   0  0  0  0  0  0  0  0  0  0  0  0
  148.7986  141.3560  154.2274 H   0  0  0  0  0  0  0  0  0  0  0  0
  148.3247  141.5190  155.9055 H   0  0  0  0  0  0  0  0  0  0  0  0
  1  2  1  0  0  0  0
  1 22  1  0  0  0  0
  1 23  1  0  0  0  0
  1 24  1  0  0  0  0
  2  3  1  0  0  0  0
  2 16  1  0  0  0  0
  2 25  1  0  0  0  0
  3  4  1  0  0  0  0
  3 26  1  0  0  0  0
  3 27  1  0  0  0  0
  4  5  1  0  0  0  0
  4 28  1  0  0  0  0
  5  6  2  0  0  0  0
  5  7  1  0  0  0  0
  7  8  1  0  0  0  0
  7 29  1  0  0  0  0
  8 15  2  0  0  0  0
  8  9  1  0  0  0  0
  9 10  2  0  0  0  0
  9 30  1  0  0  0  0
 10 11  1  0  0  0  0
 10 31  1  0  0  0  0
 11 12  2  0  0  0  0
 11 13  1  0  0  0  0
 13 14  1  0  0  0  0
 13 15  1  0  0  0  0
 14 32  1  0  0  0  0
 14 33  1  0  0  0  0
 14 34  1  0  0  0  0
 15 35  1  0  0  0  0
 16 21  1  0  0  0  0
 16 17  1  0  0  0  0
 17 18  1  0  0  0  0
 17 36  1  0  0  0  0
 17 37  1  0  0  0  0
 18 19  1  0  0  0  0
 18 38  1  0  0  0  0
 18 39  1  0  0  0  0
 19 20  1  0  0  0  0
 20 21  1  0  0  0  0
 20 40  1  0  0  0  0
 20 41  1  0  0  0  0
 21 42  1  0  0  0  0
 21 43  1  0  0  0  0
M  END
> <s_m_source_file>
AV-unprocessed.smi

> <i_m_source_file_index>
1100

> <i_lp_mmshare_version>
43012

> <i_f3d_flags>
0

> <s_epik_input>
W0NIMl0xW0NIMl1PW0NIMl1bQ0gyXU4xW0NASF0oW0NIM10pW0NIMl1bTkhdQyg9TylbTkhdYzJbY0hdW2NIXWMoPU8pbihbQ0gzXSlbY0hdMg==

> <s_epik_cmdline>
J2VwaWtfcHl0aG9uJywgJy1waCcsICc3LjAnLCAnLXRuJywgJzgnLCAnLW1hJywgJzIwMCcsICctbWV0YWxfYmluZGluZycsICctaW1hZScsICc8aW5maWxlLm1hZT4nLCAnLW9tYWUnLCAnPG91dGZpbGUubWFlPic=

> <r_lp_tautomer_probability>
1

> <r_epik_Ionization_Penalty>
0.266016

> <r_epik_Ionization_Penalty_Charging>
5.79683e-06

> <r_epik_Ionization_Penalty_Neutral>
0.26601

> <r_epik_State_Penalty>
0.257924

> <r_epik_Charging_Adjusted_Penalty>
0.25793

> <i_epik_Tot_Q>
0

> <i_epik_Tot_abs_Q>
0

> <r_epik_Metal_State_Penalty>
0.260326

> <b_epik_Metal_Only>
0

> <s_lp_Force_Field>
OPLS_2005

> <r_lp_Energy>
41.8839

> <b_lp_Chiralities_Consistent>
1

> <s_lp_Variant>
AV-unprocessed.smi:1100-2

> <Gold.Version>
5.8.1

> <Gold.Id.Protein>
6NUR|6NUR_protein|mol2

> <Gold.PLP.Fitness>
45.3680

> <Gold.PLP.PLP>
-35.9866

> <Gold.PLP.part.hbond>
-3.8961

> <Gold.PLP.part.metal>
0.0000

> <Gold.PLP.part.buried>
-5.8407

> <Gold.PLP.part.nonpolar>
-28.7319

> <Gold.PLP.part.repulsive>
1.6731

> <Gold.PLP.ligand.clash>
0.0000

> <Gold.PLP.ligand.torsion>
1.1931

> <Gold.PLP.Chemscore.Hbond>
3.9113

> <Gold.PLP.Chemscore.CHOScore>
0.0000

> <Gold.PLP.Chemscore.Metal>
0.0000

> <Gold.Chemscore.Hbonds>
donor molecule, donor type, donor heavy atom, donor atom, acceptor molecule, acceptor atom, score
      L1  H     4    28       P1  7948  0.98
      L1  H     7    29       P1  7948  1.00
      P1  H  7989  7998       L1    19  1.00
      P1  H 10785 10796       L1    12  0.93

> <Gold.PLP.Chemscore.Internal.Correction>
0.0338

> <Gold.Rescore>
     Score         DG    S(hbond)    S(metal)    S(lipo)     H(rot)  DE(clash)    DE(int)     intcor
     17.36     -22.48       3.65        0.00      73.67       1.49       2.00       3.12       ----

> <Gold.Chemscore.Fitness>
17.3620

> <Gold.Chemscore.DG>
-22.4826

> <Gold.Chemscore.ZeroCoef>
-5.4800

> <Gold.Chemscore.Hbond>
3.6548

> <Gold.Chemscore.Metal>
0.0000

> <Gold.Chemscore.Lipo>
73.6747

> <Gold.Chemscore.Internal_Hbond>
0.0000

> <Gold.Chemscore.DEClash>
1.9965

> <Gold.Chemscore.DEInternal>
3.1242

> <Gold.Chemscore.Rot>
1.4938

> <Gold.Chemscore.Internal.Correction>
   9.000000E+99

> <Gold.Chemscore.Hbonds>
donor molecule, donor type, donor heavy atom, donor atom, acceptor molecule, acceptor atom, score
      L1  H     4    28       P1  7948  0.93
      L1  H     7    29       P1  7948  0.99
      P1  H  7989  7998       L1    19  0.85
      P1  H 10785 10796       L1    12  0.87

> <Gold.Chemscore.Hbond.Weighted>
-12.2069

> <Gold.Chemscore.Metal.Weighted>
-0.0000

> <Gold.Chemscore.Lipo.Weighted>
-8.6199

> <Gold.Chemscore.Internal_Hbond.Weighted>
0.0000

> <Gold.Chemscore.DEClash.Weighted>
1.9965

> <Gold.Chemscore.DEInternal.Weighted>
3.1242

> <Gold.Chemscore.Rot.Weighted>
3.8242

> <Gold.Chemscore.Internal.Correction.Weighted>
   9.000000E+99

> <Gold.Protein.RotatedTorsions>
[ 6907 6896 6895 6894 ] final  148.45 input  -60.11 | X-H torsion
[ 7974 7965 7964 7962 ] final   53.12 input  175.53 | X-H torsion
[ 8008 7997 7996 7995 ] final   95.35 input   59.86 | X-H torsion
[ 10167 10162 10161 10158 ] final  178.14 input  -65.29 | X-H torsion
[ 10718 10713 10712 10709 ] final -173.91 input   66.30 | X-H torsion
[ 10763 10752 10751 10750 ] final  -98.61 input  -60.55 | X-H torsion
[ 11005 11000 10999 10996 ] final   63.59 input  -57.11 | X-H torsion

> <Gold.Protein.ActiveResidues>
 VAL166  LYS551  ARG553  GLY616  TRP617  ASP618  TYR619  PRO620  LYS621  CYS622 
 ASP623  PHE694  ASN695  SER759  ASP760  ASP761  ALA762  ILE779  LEU786  VAL792 
 PHE793  MET794  SER795  GLU796  ALA797  LYS798  CYS799  TRP800  GLU811  SER814 

> <Gold.Protein.RotatedAtoms>
  152.1413  133.4466  159.4768 H   0  0  0  0  0  0  0  0  0  0  0  0  # atno 6907 bound_to 6896
  150.6886  134.2301  159.4440 H   0  0  0  0  0  0  0  0  0  0  0  0  # atno 6908 bound_to 6896
  152.0192  134.9832  160.0621 H   0  0  0  0  0  0  0  0  0  0  0  0  # atno 6909 bound_to 6896
  145.9744  139.4180  143.0170 H   0  0  0  0  0  0  0  0  0  0  0  0  # atno 7974 bound_to 7965
  156.0679  140.3287  155.7540 H   0  0  0  0  0  0  0  0  0  0  0  0  # atno 8008 bound_to 7997
  155.5351  140.0597  157.2898 H   0  0  0  0  0  0  0  0  0  0  0  0  # atno 8009 bound_to 7997
  154.4515  140.1920  156.0523 H   0  0  0  0  0  0  0  0  0  0  0  0  # atno 8010 bound_to 7997
  139.5281  144.2716  152.0623 H   0  0  0  0  0  0  0  0  0  0  0  0  # atno 10167 bound_to 10162
  156.7774  130.9471  151.3120 H   0  0  0  0  0  0  0  0  0  0  0  0  # atno 10718 bound_to 10713
  154.7429  135.5003  153.9153 H   0  0  0  0  0  0  0  0  0  0  0  0  # atno 10763 bound_to 10752
  153.1061  135.6697  153.9592 H   0  0  0  0  0  0  0  0  0  0  0  0  # atno 10764 bound_to 10752
  153.9364  135.3072  155.3423 H   0  0  0  0  0  0  0  0  0  0  0  0  # atno 10765 bound_to 10752
  140.0015  134.6435  155.9924 H   0  0  0  0  0  0  0  0  0  0  0  0  # atno 11005 bound_to 11000
  145.7860  140.9835  143.1074 LP  0  0  0  0  0  0  0  0  0  0  0  0  # atno 17320 bound_to 7965
  144.6845  139.9623  143.7480 LP  0  0  0  0  0  0  0  0  0  0  0  0  # atno 17321 bound_to 7965
  140.2175  144.4500  150.6357 LP  0  0  0  0  0  0  0  0  0  0  0  0  # atno 17342 bound_to 10162
  140.6440  143.2209  151.6227 LP  0  0  0  0  0  0  0  0  0  0  0  0  # atno 17343 bound_to 10162
  157.6663  130.9010  149.9939 LP  0  0  0  0  0  0  0  0  0  0  0  0  # atno 17370 bound_to 10713
  156.1240  130.3645  149.9841 LP  0  0  0  0  0  0  0  0  0  0  0  0  # atno 17371 bound_to 10713
  141.1645  133.6537  156.4432 LP  0  0  0  0  0  0  0  0  0  0  0  0  # atno 17394 bound_to 11000
  140.4720  134.6744  157.5133 LP  0  0  0  0  0  0  0  0  0  0  0  0  # atno 17395 bound_to 11000

$$$$
