AV-unprocessed.smi:74|AV-procd|sdf|764|dock2
  -GOLD-   2262017103D 1   1.00000     0.00000
 Structure written by MMmdl.
 58 62  0  0  0  0  0  0  0  0  1 V2000
  147.0669  132.5515  149.9102 O   0  0  0  0  0  0  0  0  0  0  0  0
  145.7420  132.0726  149.7993 C   0  0  0  0  0  0  0  0  0  0  0  0
  144.7797  132.8888  150.6777 C   0  0  0  0  0  0  0  0  0  0  0  0
  143.3827  132.2361  150.6400 C   0  0  0  0  0  0  0  0  0  0  0  0
  142.9050  132.1147  149.3154 O   0  0  0  0  0  0  0  0  0  0  0  0
  145.3034  133.2425  152.0883 C   0  0  0  0  0  0  0  0  0  0  0  0
  144.7135  134.6472  151.9456 C   0  0  0  0  0  0  0  0  0  0  0  0
  145.3405  135.7776  152.5645 N   0  0  0  0  0  0  0  0  0  0  0  0
  144.9489  137.0938  152.4708 C   0  0  0  0  0  0  0  0  0  0  0  0
  145.6569  137.9361  153.1727 N   0  0  0  0  0  0  0  0  0  0  0  0
  146.5900  137.1376  153.8240 C   0  0  0  0  0  0  0  0  0  0  0  0
  147.6414  137.3933  154.7497 C   0  0  0  0  0  0  0  0  0  0  0  0
  147.9535  138.6422  155.1817 N   0  0  0  0  0  0  0  0  0  0  0  0
  148.2464  139.6072  154.1266 C   0  0  0  0  0  0  0  0  0  0  0  0
  148.2644  141.0326  154.7032 C   0  0  0  0  0  0  0  0  0  0  0  0
  149.1917  141.1057  155.7815 O   0  0  0  0  0  0  0  0  0  0  0  0
  148.8547  140.2195  156.8458 C   0  0  2  0  0  0  0  0  0  0  0  0
  149.8373  140.4398  158.0043 C   0  0  0  0  0  0  0  0  0  0  0  0
  149.9247  141.8239  158.3025 O   0  0  0  0  0  0  0  0  0  0  0  0
  151.2609  142.2787  158.4173 C   0  0  0  0  0  0  0  0  0  0  0  0
  151.2524  143.7846  158.5700 C   0  0  0  0  0  0  0  0  0  0  0  0
  152.3875  144.6217  158.0245 C   0  0  0  0  0  0  0  0  0  0  0  0
  152.2196  144.4621  159.5140 C   0  0  0  0  0  0  0  0  0  0  0  0
  148.8435  138.7657  156.3337 C   0  0  0  0  0  0  0  0  0  0  0  0
  148.3396  136.3208  155.2112 N   0  0  0  0  0  0  0  0  0  0  0  0
  148.0409  135.0875  154.7936 C   0  0  0  0  0  0  0  0  0  0  0  0
  147.0973  134.7048  153.9320 N   0  0  0  0  0  0  0  0  0  0  0  0
  146.3896  135.7737  153.4670 C   0  0  0  0  0  0  0  0  0  0  0  0
  144.8003  134.4146  150.4351 C   0  0  0  0  0  0  0  0  0  0  0  0
  147.6598  131.8341  149.7474 H   0  0  0  0  0  0  0  0  0  0  0  0
  145.4443  132.0916  148.7508 H   0  0  0  0  0  0  0  0  0  0  0  0
  145.7424  131.0233  150.0964 H   0  0  0  0  0  0  0  0  0  0  0  0
  143.4015  131.2380  151.0781 H   0  0  0  0  0  0  0  0  0  0  0  0
  142.6590  132.8064  151.2227 H   0  0  0  0  0  0  0  0  0  0  0  0
  142.2506  132.7806  149.1697 H   0  0  0  0  0  0  0  0  0  0  0  0
  144.8763  132.6571  152.9032 H   0  0  0  0  0  0  0  0  0  0  0  0
  146.3934  133.2549  152.1499 H   0  0  0  0  0  0  0  0  0  0  0  0
  143.6734  134.6635  152.2756 H   0  0  0  0  0  0  0  0  0  0  0  0
  144.1187  137.4149  151.8587 H   0  0  0  0  0  0  0  0  0  0  0  0
  149.2180  139.3703  153.6912 H   0  0  0  0  0  0  0  0  0  0  0  0
  147.5175  139.5542  153.3192 H   0  0  0  0  0  0  0  0  0  0  0  0
  148.5599  141.7453  153.9334 H   0  0  0  0  0  0  0  0  0  0  0  0
  147.2698  141.3253  155.0435 H   0  0  0  0  0  0  0  0  0  0  0  0
  147.8561  140.4799  157.2018 H   0  0  0  0  0  0  0  0  0  0  0  0
  149.5127  139.8805  158.8829 H   0  0  0  0  0  0  0  0  0  0  0  0
  150.8227  140.0641  157.7244 H   0  0  0  0  0  0  0  0  0  0  0  0
  151.7381  141.8354  159.2923 H   0  0  0  0  0  0  0  0  0  0  0  0
  151.8420  141.9982  157.5371 H   0  0  0  0  0  0  0  0  0  0  0  0
  150.2589  144.2261  158.5183 H   0  0  0  0  0  0  0  0  0  0  0  0
  153.2201  144.1023  157.5539 H   0  0  0  0  0  0  0  0  0  0  0  0
  152.1347  145.5866  157.5895 H   0  0  0  0  0  0  0  0  0  0  0  0
  151.8557  145.3214  160.0736 H   0  0  0  0  0  0  0  0  0  0  0  0
  152.9416  143.8373  160.0362 H   0  0  0  0  0  0  0  0  0  0  0  0
  148.5175  138.0983  157.1326 H   0  0  0  0  0  0  0  0  0  0  0  0
  149.8492  138.4590  156.0419 H   0  0  0  0  0  0  0  0  0  0  0  0
  148.6448  134.2945  155.2093 H   0  0  0  0  0  0  0  0  0  0  0  0
  145.7444  134.7633  150.0116 H   0  0  0  0  0  0  0  0  0  0  0  0
  143.9519  134.8007  149.8692 H   0  0  0  0  0  0  0  0  0  0  0  0
  1  2  1  0  0  0  0
  1 30  1  0  0  0  0
  2  3  1  0  0  0  0
  2 31  1  0  0  0  0
  2 32  1  0  0  0  0
  3 29  1  0  0  0  0
  3  4  1  0  0  0  0
  3  6  1  0  0  0  0
  4  5  1  0  0  0  0
  4 33  1  0  0  0  0
  4 34  1  0  0  0  0
  5 35  1  0  0  0  0
  6  7  1  0  0  0  0
  6 36  1  0  0  0  0
  6 37  1  0  0  0  0
  7  8  1  0  0  0  0
  7 29  1  0  0  0  0
  7 38  1  0  0  0  0
  8 28  1  0  0  0  0
  8  9  1  0  0  0  0
  9 10  2  0  0  0  0
  9 39  1  0  0  0  0
 10 11  1  0  0  0  0
 11 28  2  0  0  0  0
 11 12  1  0  0  0  0
 12 13  1  0  0  0  0
 12 25  2  0  0  0  0
 13 24  1  0  0  0  0
 13 14  1  0  0  0  0
 14 15  1  0  0  0  0
 14 40  1  0  0  0  0
 14 41  1  0  0  0  0
 15 16  1  0  0  0  0
 15 42  1  0  0  0  0
 15 43  1  0  0  0  0
 16 17  1  0  0  0  0
 17 18  1  0  0  0  0
 17 24  1  0  0  0  0
 17 44  1  0  0  0  0
 18 19  1  0  0  0  0
 18 45  1  0  0  0  0
 18 46  1  0  0  0  0
 19 20  1  0  0  0  0
 20 21  1  0  0  0  0
 20 47  1  0  0  0  0
 20 48  1  0  0  0  0
 21 23  1  0  0  0  0
 21 22  1  0  0  0  0
 21 49  1  0  0  0  0
 22 23  1  0  0  0  0
 22 50  1  0  0  0  0
 22 51  1  0  0  0  0
 23 52  1  0  0  0  0
 23 53  1  0  0  0  0
 24 54  1  0  0  0  0
 24 55  1  0  0  0  0
 25 26  1  0  0  0  0
 26 27  2  0  0  0  0
 26 56  1  0  0  0  0
 27 28  1  0  0  0  0
 29 57  1  0  0  0  0
 29 58  1  0  0  0  0
M  END
> <s_m_source_file>
AV-unprocessed.smi

> <i_m_source_file_index>
74

> <i_lp_mmshare_version>
43012

> <i_f3d_flags>
0

> <s_epik_input>
W09IXVtDSDJdQzEoW0NIMl1bT0hdKVtDSDJdW0NIXShbQ0gyXTEpbihbY0hdbjIpYyhjMjMpbltjSF1uYzNONFtDSDJdW0NIMl1PW0NASF0oW0NIMl00KVtDSDJdT1tDSDJdW0NIXTVbQ0gyXVtDSDJdNQ==

> <s_epik_cmdline>
J2VwaWtfcHl0aG9uJywgJy1waCcsICc3LjAnLCAnLXRuJywgJzgnLCAnLW1hJywgJzIwMCcsICctbWV0YWxfYmluZGluZycsICctaW1hZScsICc8aW5maWxlLm1hZT4nLCAnLW9tYWUnLCAnPG91dGZpbGUubWFlPic=

> <r_lp_tautomer_probability>
1

> <r_epik_Ionization_Penalty>
5.89322e-05

> <r_epik_Ionization_Penalty_Charging>
0

> <r_epik_Ionization_Penalty_Neutral>
5.89322e-05

> <r_epik_State_Penalty>
-0

> <r_epik_Charging_Adjusted_Penalty>
0

> <i_epik_Tot_Q>
0

> <i_epik_Tot_abs_Q>
0

> <r_epik_Metal_State_Penalty>
-0

> <b_epik_Metal_Only>
0

> <s_lp_Force_Field>
OPLS_2005

> <r_lp_Energy>
49.4071

> <b_lp_Chiralities_Consistent>
1

> <s_lp_Variant>
AV-unprocessed.smi:74-2

> <Gold.Version>
5.8.1

> <Gold.Id.Protein>
6NUR|6NUR_protein|mol2

> <Gold.PLP.Fitness>
53.7890

> <Gold.PLP.PLP>
-43.5222

> <Gold.PLP.part.hbond>
-4.8790

> <Gold.PLP.part.metal>
0.0000

> <Gold.PLP.part.buried>
-4.1526

> <Gold.PLP.part.nonpolar>
-35.1610

> <Gold.PLP.part.repulsive>
0.6215

> <Gold.PLP.ligand.clash>
0.0000

> <Gold.PLP.ligand.torsion>
1.3210

> <Gold.PLP.Chemscore.Hbond>
2.8038

> <Gold.PLP.Chemscore.CHOScore>
1.0000

> <Gold.PLP.Chemscore.Metal>
0.0000

> <Gold.Chemscore.Hbonds>
donor molecule, donor type, donor heavy atom, donor atom, acceptor molecule, acceptor atom, score
      L1  H     1    30       P1 10747  1.00
      L1  H     5    35       P1 10186  0.88
      P1  H 10785 10796       L1     5  0.89
      L1  C     9    39       P1 10171  1.00

> <Gold.PLP.Chemscore.Internal.Correction>
1.4975

> <Gold.Rescore>
     Score         DG    S(hbond)    S(metal)    S(lipo)     H(rot)  DE(clash)    DE(int)     intcor
     14.83     -17.46       2.63        0.00     114.08       3.97       0.15       2.47       ----

> <Gold.Chemscore.Fitness>
14.8281

> <Gold.Chemscore.DG>
-17.4562

> <Gold.Chemscore.ZeroCoef>
-5.4800

> <Gold.Chemscore.Hbond>
2.6291

> <Gold.Chemscore.Metal>
0.0000

> <Gold.Chemscore.Lipo>
114.0838

> <Gold.Chemscore.Internal_Hbond>
0.0000

> <Gold.Chemscore.DEClash>
0.1548

> <Gold.Chemscore.DEInternal>
2.4733

> <Gold.Chemscore.Rot>
3.9660

> <Gold.Chemscore.Internal.Correction>
   9.000000E+99

> <Gold.Chemscore.Hbonds>
donor molecule, donor type, donor heavy atom, donor atom, acceptor molecule, acceptor atom, score
      L1  H     1    30       P1 10747  0.94
      L1  H     5    35       P1 10186  0.85
      P1  H 10785 10796       L1     5  0.52

> <Gold.Chemscore.Hbond.Weighted>
-8.7813

> <Gold.Chemscore.Metal.Weighted>
-0.0000

> <Gold.Chemscore.Lipo.Weighted>
-13.3478

> <Gold.Chemscore.Internal_Hbond.Weighted>
0.0000

> <Gold.Chemscore.DEClash.Weighted>
0.1548

> <Gold.Chemscore.DEInternal.Weighted>
2.4733

> <Gold.Chemscore.Rot.Weighted>
10.1529

> <Gold.Chemscore.Internal.Correction.Weighted>
   9.000000E+99

> <Gold.Protein.RotatedTorsions>
[ 6907 6896 6895 6894 ] final  -44.65 input  -60.11 | X-H torsion
[ 7974 7965 7964 7962 ] final  -81.06 input  175.53 | X-H torsion
[ 8008 7997 7996 7995 ] final  135.28 input   59.86 | X-H torsion
[ 10167 10162 10161 10158 ] final   70.54 input  -65.29 | X-H torsion
[ 10718 10713 10712 10709 ] final  -98.05 input   66.30 | X-H torsion
[ 10763 10752 10751 10750 ] final   16.43 input  -60.55 | X-H torsion
[ 11005 11000 10999 10996 ] final  -61.15 input  -57.11 | X-H torsion

> <Gold.Protein.ActiveResidues>
 VAL166  LYS551  ARG553  GLY616  TRP617  ASP618  TYR619  PRO620  LYS621  CYS622 
 ASP623  PHE694  ASN695  SER759  ASP760  ASP761  ALA762  ILE779  LEU786  VAL792 
 PHE793  MET794  SER795  GLU796  ALA797  LYS798  CYS799  TRP800  GLU811  SER814 

> <Gold.Protein.RotatedAtoms>
  150.9305  134.8720  159.7547 H   0  0  0  0  0  0  0  0  0  0  0  0  # atno 6907 bound_to 6896
  152.5035  134.4086  159.9451 H   0  0  0  0  0  0  0  0  0  0  0  0  # atno 6908 bound_to 6896
  151.4114  133.3686  159.2779 H   0  0  0  0  0  0  0  0  0  0  0  0  # atno 6909 bound_to 6896
  145.5516  140.9495  143.1496 H   0  0  0  0  0  0  0  0  0  0  0  0  # atno 7974 bound_to 7965
  156.3002  140.2475  156.3555 H   0  0  0  0  0  0  0  0  0  0  0  0  # atno 8008 bound_to 7997
  154.8926  140.0409  157.1866 H   0  0  0  0  0  0  0  0  0  0  0  0  # atno 8009 bound_to 7997
  154.8582  140.2916  155.5559 H   0  0  0  0  0  0  0  0  0  0  0  0  # atno 8010 bound_to 7997
  140.0558  144.5274  150.7330 H   0  0  0  0  0  0  0  0  0  0  0  0  # atno 10167 bound_to 10162
  156.0098  130.5221  150.6466 H   0  0  0  0  0  0  0  0  0  0  0  0  # atno 10718 bound_to 10713
  153.1432  135.6764  153.8995 H   0  0  0  0  0  0  0  0  0  0  0  0  # atno 10763 bound_to 10752
  153.8445  135.3101  155.3429 H   0  0  0  0  0  0  0  0  0  0  0  0  # atno 10764 bound_to 10752
  154.7804  135.4891  153.9917 H   0  0  0  0  0  0  0  0  0  0  0  0  # atno 10765 bound_to 10752
  141.1313  133.6627  156.5331 H   0  0  0  0  0  0  0  0  0  0  0  0  # atno 11005 bound_to 11000
  144.7526  139.7154  143.7267 LP  0  0  0  0  0  0  0  0  0  0  0  0  # atno 17320 bound_to 7965
  146.1912  139.5154  142.9803 LP  0  0  0  0  0  0  0  0  0  0  0  0  # atno 17321 bound_to 7965
  140.7195  143.2575  151.4324 LP  0  0  0  0  0  0  0  0  0  0  0  0  # atno 17342 bound_to 10162
  139.5924  144.1469  152.2104 LP  0  0  0  0  0  0  0  0  0  0  0  0  # atno 17343 bound_to 10162
  157.4236  131.0840  151.1107 LP  0  0  0  0  0  0  0  0  0  0  0  0  # atno 17370 bound_to 10713
  157.1702  130.6264  149.5638 LP  0  0  0  0  0  0  0  0  0  0  0  0  # atno 17371 bound_to 10713
  140.4200  134.7196  157.4884 LP  0  0  0  0  0  0  0  0  0  0  0  0  # atno 17394 bound_to 11000
  140.0367  134.6327  155.9035 LP  0  0  0  0  0  0  0  0  0  0  0  0  # atno 17395 bound_to 11000

$$$$
