AV-unprocessed.smi:937|AV-procd|sdf|4212|dock5
  -GOLD-   22720 2123D 1   1.00000     0.00000
 Structure written by MMmdl.
 45 46  0  0  0  0  0  0  0  0  1 V2000
  152.4558  142.1411  159.9511 C   0  0  0  0  0  0  0  0  0  0  0  0
  151.8691  141.5510  158.6858 C   0  0  0  0  0  0  0  0  0  0  0  0
  152.1011  140.2032  158.3391 C   0  0  0  0  0  0  0  0  0  0  0  0
  151.5355  139.7105  157.1472 C   0  0  0  0  0  0  0  0  0  0  0  0
  150.7616  140.5802  156.3515 C   0  0  0  0  0  0  0  0  0  0  0  0
  150.1385  140.1060  155.0534 C   0  0  0  0  0  0  0  0  0  0  0  0
  150.7542  138.7871  154.5678 C   0  0  0  0  0  0  0  0  0  0  0  0
  149.7242  137.9029  154.0413 N   0  0  0  0  0  0  0  0  0  0  0  0
  148.5814  137.6005  154.6780 C   0  0  0  0  0  0  0  0  0  0  0  0
  148.2811  138.0534  155.7808 O   0  0  0  0  0  0  0  0  0  0  0  0
  147.7785  136.7436  154.0217 N   0  0  0  0  0  0  0  0  0  0  0  0
  146.4740  136.2136  154.4320 C   0  0  1  0  0  0  0  0  0  0  0  0
  145.4655  137.3420  154.7391 C   0  0  0  0  0  0  0  0  0  0  0  0
  145.0348  138.0940  153.4695 C   0  0  0  0  0  0  0  0  0  0  0  0
  144.4746  137.1292  152.4133 C   0  0  0  0  0  0  0  0  0  0  0  0
  145.4858  136.0176  152.0625 C   0  0  2  0  0  0  0  0  0  0  0  0
  144.9356  135.0522  150.9922 C   0  0  0  0  0  0  0  0  0  0  0  0
  145.8795  134.2004  150.5904 F   0  0  0  0  0  0  0  0  0  0  0  0
  143.9105  134.3579  151.4863 F   0  0  0  0  0  0  0  0  0  0  0  0
  144.5002  135.7418  149.9377 F   0  0  0  0  0  0  0  0  0  0  0  0
  145.9232  135.2698  153.3436 C   0  0  0  0  0  0  0  0  0  0  0  0
  150.5882  141.9099  156.7903 C   0  0  0  0  0  0  0  0  0  0  0  0
  151.1276  142.3914  157.9308 N   0  0  0  0  0  0  0  0  0  0  0  0
  153.0227  141.3960  160.5099 H   0  0  0  0  0  0  0  0  0  0  0  0
  151.6632  142.5196  160.5972 H   0  0  0  0  0  0  0  0  0  0  0  0
  153.1262  142.9660  159.7082 H   0  0  0  0  0  0  0  0  0  0  0  0
  152.6997  139.5606  158.9681 H   0  0  0  0  0  0  0  0  0  0  0  0
  151.6966  138.6845  156.8508 H   0  0  0  0  0  0  0  0  0  0  0  0
  149.0626  139.9906  155.1920 H   0  0  0  0  0  0  0  0  0  0  0  0
  150.2708  140.8817  154.2979 H   0  0  0  0  0  0  0  0  0  0  0  0
  151.4977  138.9891  153.7948 H   0  0  0  0  0  0  0  0  0  0  0  0
  151.2691  138.2848  155.3877 H   0  0  0  0  0  0  0  0  0  0  0  0
  149.8934  137.4847  153.1382 H   0  0  0  0  0  0  0  0  0  0  0  0
  148.1290  136.3952  153.1412 H   0  0  0  0  0  0  0  0  0  0  0  0
  146.6164  135.6169  155.3348 H   0  0  0  0  0  0  0  0  0  0  0  0
  144.5819  136.9090  155.2096 H   0  0  0  0  0  0  0  0  0  0  0  0
  145.8757  138.0442  155.4655 H   0  0  0  0  0  0  0  0  0  0  0  0
  144.2830  138.8425  153.7211 H   0  0  0  0  0  0  0  0  0  0  0  0
  145.8838  138.6400  153.0563 H   0  0  0  0  0  0  0  0  0  0  0  0
  143.5496  136.6847  152.7828 H   0  0  0  0  0  0  0  0  0  0  0  0
  144.2087  137.6912  151.5177 H   0  0  0  0  0  0  0  0  0  0  0  0
  146.3679  136.4984  151.6367 H   0  0  0  0  0  0  0  0  0  0  0  0
  146.6716  134.5142  153.1012 H   0  0  0  0  0  0  0  0  0  0  0  0
  145.0693  134.7256  153.7492 H   0  0  0  0  0  0  0  0  0  0  0  0
  150.0047  142.6082  156.2085 H   0  0  0  0  0  0  0  0  0  0  0  0
  1  2  1  0  0  0  0
  1 24  1  0  0  0  0
  1 25  1  0  0  0  0
  1 26  1  0  0  0  0
  2 23  1  0  0  0  0
  2  3  2  0  0  0  0
  3  4  1  0  0  0  0
  3 27  1  0  0  0  0
  4  5  2  0  0  0  0
  4 28  1  0  0  0  0
  5  6  1  0  0  0  0
  5 22  1  0  0  0  0
  6  7  1  0  0  0  0
  6 29  1  0  0  0  0
  6 30  1  0  0  0  0
  7  8  1  0  0  0  0
  7 31  1  0  0  0  0
  7 32  1  0  0  0  0
  8  9  1  0  0  0  0
  8 33  1  0  0  0  0
  9 10  2  0  0  0  0
  9 11  1  0  0  0  0
 11 12  1  0  0  0  0
 11 34  1  0  0  0  0
 12 21  1  0  0  0  0
 12 13  1  0  0  0  0
 12 35  1  0  0  0  0
 13 14  1  0  0  0  0
 13 36  1  0  0  0  0
 13 37  1  0  0  0  0
 14 15  1  0  0  0  0
 14 38  1  0  0  0  0
 14 39  1  0  0  0  0
 15 16  1  0  0  0  0
 15 40  1  0  0  0  0
 15 41  1  0  0  0  0
 16 17  1  0  0  0  0
 16 21  1  0  0  0  0
 16 42  1  0  0  0  0
 17 18  1  0  0  0  0
 17 19  1  0  0  0  0
 17 20  1  0  0  0  0
 21 43  1  0  0  0  0
 21 44  1  0  0  0  0
 22 23  2  0  0  0  0
 22 45  1  0  0  0  0
M  END
> <s_m_source_file>
AV-unprocessed.smi

> <i_m_source_file_index>
937

> <i_lp_mmshare_version>
43012

> <i_f3d_flags>
0

> <s_epik_input>
W0NIM11jMVtjSF1bY0hdYyhbY0hdbjEpW0NIMl1bQ0gyXVtOSF1DKD1PKVtOSF1bQ0BASF0yW0NIMl1bQ0gyXVtDSDJdW0NAQEhdKEMoRikoRilGKVtDSDJdMg==

> <s_epik_cmdline>
J2VwaWtfcHl0aG9uJywgJy1waCcsICc3LjAnLCAnLXRuJywgJzgnLCAnLW1hJywgJzIwMCcsICctbWV0YWxfYmluZGluZycsICctaW1hZScsICc8aW5maWxlLm1hZT4nLCAnLW9tYWUnLCAnPG91dGZpbGUubWFlPic=

> <r_epik_Ionization_Penalty>
0.0563445

> <r_epik_Ionization_Penalty_Charging>
0

> <r_epik_Ionization_Penalty_Neutral>
0.0563445

> <r_epik_State_Penalty>
0.0485409

> <r_epik_Charging_Adjusted_Penalty>
0.0485409

> <i_epik_Tot_Q>
0

> <i_epik_Tot_abs_Q>
0

> <r_epik_Metal_State_Penalty>
0.0443056

> <b_epik_Metal_Only>
0

> <s_lp_Force_Field>
OPLS_2005

> <r_lp_Energy>
18.524

> <b_lp_Chiralities_Consistent>
1

> <s_lp_Variant>
AV-unprocessed.smi:937-4

> <Gold.Version>
5.8.1

> <Gold.Id.Protein>
6NUR|6NUR_protein|mol2

> <Gold.PLP.Fitness>
43.4894

> <Gold.PLP.PLP>
-36.1833

> <Gold.PLP.part.hbond>
-2.0000

> <Gold.PLP.part.metal>
0.0000

> <Gold.PLP.part.buried>
-3.5897

> <Gold.PLP.part.nonpolar>
-31.1109

> <Gold.PLP.part.repulsive>
0.1348

> <Gold.PLP.ligand.clash>
0.0000

> <Gold.PLP.ligand.torsion>
0.5948

> <Gold.PLP.Chemscore.Hbond>
1.8160

> <Gold.PLP.Chemscore.CHOScore>
1.0000

> <Gold.PLP.Chemscore.Metal>
0.0000

> <Gold.Chemscore.Hbonds>
donor molecule, donor type, donor heavy atom, donor atom, acceptor molecule, acceptor atom, score
      L1  H     8    33       P1  7948  0.80
      L1  H    11    34       P1  7948  0.99
      L1  C    22    45       P1  8028  1.00

> <Gold.PLP.Chemscore.Internal.Correction>
0.0476

> <Gold.Rescore>
     Score         DG    S(hbond)    S(metal)    S(lipo)     H(rot)  DE(clash)    DE(int)     intcor
     14.41     -16.04       1.76        0.00      74.65       1.58       0.04       1.59       ----

> <Gold.Chemscore.Fitness>
14.4094

> <Gold.Chemscore.DG>
-16.0433

> <Gold.Chemscore.ZeroCoef>
-5.4800

> <Gold.Chemscore.Hbond>
1.7624

> <Gold.Chemscore.Metal>
0.0000

> <Gold.Chemscore.Lipo>
74.6523

> <Gold.Chemscore.Internal_Hbond>
0.0000

> <Gold.Chemscore.DEClash>
0.0444

> <Gold.Chemscore.DEInternal>
1.5895

> <Gold.Chemscore.Rot>
1.5849

> <Gold.Chemscore.Internal.Correction>
   9.000000E+99

> <Gold.Chemscore.Hbonds>
donor molecule, donor type, donor heavy atom, donor atom, acceptor molecule, acceptor atom, score
      L1  H     8    33       P1  7948  0.31
      L1  H    11    34       P1  7948  0.93

> <Gold.Chemscore.Hbond.Weighted>
-5.8864

> <Gold.Chemscore.Metal.Weighted>
-0.0000

> <Gold.Chemscore.Lipo.Weighted>
-8.7343

> <Gold.Chemscore.Internal_Hbond.Weighted>
0.0000

> <Gold.Chemscore.DEClash.Weighted>
0.0444

> <Gold.Chemscore.DEInternal.Weighted>
1.5895

> <Gold.Chemscore.Rot.Weighted>
4.0574

> <Gold.Chemscore.Internal.Correction.Weighted>
   9.000000E+99

> <Gold.Protein.RotatedTorsions>
[ 6907 6896 6895 6894 ] final  174.14 input  -60.11 | X-H torsion
[ 7974 7965 7964 7962 ] final  108.81 input  175.53 | X-H torsion
[ 8008 7997 7996 7995 ] final   -9.60 input   59.86 | X-H torsion
[ 10167 10162 10161 10158 ] final  -44.05 input  -65.29 | X-H torsion
[ 10718 10713 10712 10709 ] final  125.22 input   66.30 | X-H torsion
[ 10763 10752 10751 10750 ] final   98.44 input  -60.55 | X-H torsion
[ 11005 11000 10999 10996 ] final   87.63 input  -57.11 | X-H torsion

> <Gold.Protein.ActiveResidues>
 VAL166  LYS551  ARG553  GLY616  TRP617  ASP618  TYR619  PRO620  LYS621  CYS622 
 ASP623  PHE694  ASN695  SER759  ASP760  ASP761  ALA762  ILE779  LEU786  VAL792 
 PHE793  MET794  SER795  GLU796  ALA797  LYS798  CYS799  TRP800  GLU811  SER814 

> <Gold.Protein.RotatedAtoms>
  151.7571  133.3331  159.3407 H   0  0  0  0  0  0  0  0  0  0  0  0  # atno 6907 bound_to 6896
  150.7512  134.6139  159.6110 H   0  0  0  0  0  0  0  0  0  0  0  0  # atno 6908 bound_to 6896
  152.3430  134.7111  160.0310 H   0  0  0  0  0  0  0  0  0  0  0  0  # atno 6909 bound_to 6896
  145.2759  139.2650  143.3941 H   0  0  0  0  0  0  0  0  0  0  0  0  # atno 7974 bound_to 7965
  154.5631  140.2351  155.8304 H   0  0  0  0  0  0  0  0  0  0  0  0  # atno 8008 bound_to 7997
  156.2046  140.3043  155.9558 H   0  0  0  0  0  0  0  0  0  0  0  0  # atno 8009 bound_to 7997
  155.2851  140.0424  157.3009 H   0  0  0  0  0  0  0  0  0  0  0  0  # atno 8010 bound_to 7997
  140.6911  143.2950  151.3439 H   0  0  0  0  0  0  0  0  0  0  0  0  # atno 10167 bound_to 10162
  157.5521  131.1093  150.8684 H   0  0  0  0  0  0  0  0  0  0  0  0  # atno 10718 bound_to 10713
  153.2891  135.4148  155.1150 H   0  0  0  0  0  0  0  0  0  0  0  0  # atno 10763 bound_to 10752
  154.8514  135.3514  154.6006 H   0  0  0  0  0  0  0  0  0  0  0  0  # atno 10764 bound_to 10752
  153.6428  135.7056  153.5293 H   0  0  0  0  0  0  0  0  0  0  0  0  # atno 10765 bound_to 10752
  139.8915  134.8435  156.2887 H   0  0  0  0  0  0  0  0  0  0  0  0  # atno 11005 bound_to 11000
  146.3232  140.3214  142.8633 LP  0  0  0  0  0  0  0  0  0  0  0  0  # atno 17320 bound_to 7965
  144.9295  140.7959  143.5698 LP  0  0  0  0  0  0  0  0  0  0  0  0  # atno 17321 bound_to 7965
  139.6316  144.0710  152.2481 LP  0  0  0  0  0  0  0  0  0  0  0  0  # atno 17342 bound_to 10162
  140.0187  144.6169  150.7585 LP  0  0  0  0  0  0  0  0  0  0  0  0  # atno 17343 bound_to 10162
  156.9206  130.5314  149.5279 LP  0  0  0  0  0  0  0  0  0  0  0  0  # atno 17370 bound_to 10713
  156.0586  130.5643  150.9144 LP  0  0  0  0  0  0  0  0  0  0  0  0  # atno 17371 bound_to 10713
  140.9991  133.7162  156.0932 LP  0  0  0  0  0  0  0  0  0  0  0  0  # atno 17394 bound_to 11000
  140.7523  134.4032  157.5539 LP  0  0  0  0  0  0  0  0  0  0  0  0  # atno 17395 bound_to 11000

$$$$
