AV-unprocessed.smi:1669|AV-procd|sdf|6684|dock1
  -GOLD-   22720 7403D 1   1.00000     0.00000
 Structure written by MMmdl.
 48 50  0  0  0  0  0  0  0  0  2 V2000
  147.1256  136.8727  158.1758 C   0  0  0  0  0  0  0  0  0  0  0  0
  148.4839  136.4640  158.6140 N   0  3  2  0  0  0  0  0  0  0  0  0
  148.6870  136.6153  160.0779 C   0  0  0  0  0  0  0  0  0  0  0  0
  147.8436  135.6449  160.8873 C   0  0  0  0  0  0  0  0  0  0  0  0
  147.1169  136.0967  162.0095 C   0  0  0  0  0  0  0  0  0  0  0  0
  146.3321  135.1949  162.7543 C   0  0  0  0  0  0  0  0  0  0  0  0
  146.2729  133.8382  162.3818 C   0  0  0  0  0  0  0  0  0  0  0  0
  146.9997  133.3828  161.2648 C   0  0  0  0  0  0  0  0  0  0  0  0
  147.7849  134.2839  160.5195 C   0  0  0  0  0  0  0  0  0  0  0  0
  149.5568  137.1266  157.8286 C   0  0  0  0  0  0  0  0  0  0  0  0
  149.9145  138.5231  158.3841 C   0  0  2  0  0  0  0  0  0  0  0  0
  148.8056  139.3789  158.1998 O   0  0  0  0  0  0  0  0  0  0  0  0
  151.1334  139.1714  157.6962 C   0  0  0  0  0  0  0  0  0  0  0  0
  151.9449  139.9517  158.6210 N   0  0  0  0  0  0  0  0  0  0  0  0
  152.8908  139.5156  159.4924 C   0  0  0  0  0  0  0  0  0  0  0  0
  153.2451  138.0596  159.6082 C   0  0  0  0  0  0  0  0  0  0  0  0
  152.1487  137.2252  159.9217 O   0  0  0  0  0  0  0  0  0  0  0  0
  153.4756  140.4641  160.2276 N   0  0  0  0  0  0  0  0  0  0  0  0
  152.8591  141.6189  159.7894 C   0  0  0  0  0  0  0  0  0  0  0  0
  153.0400  142.9637  160.1836 C   0  0  0  0  0  0  0  0  0  0  0  0
  152.2831  143.9912  159.5834 C   0  0  0  0  0  0  0  0  0  0  0  0
  151.3370  143.6893  158.5826 C   0  0  0  0  0  0  0  0  0  0  0  0
  151.1407  142.3555  158.1759 C   0  0  0  0  0  0  0  0  0  0  0  0
  151.8977  141.3335  158.7797 C   0  0  0  0  0  0  0  0  0  0  0  0
  146.9393  137.9203  158.4152 H   0  0  0  0  0  0  0  0  0  0  0  0
  146.3563  136.2717  158.6600 H   0  0  0  0  0  0  0  0  0  0  0  0
  146.9939  136.7456  157.1023 H   0  0  0  0  0  0  0  0  0  0  0  0
  149.7318  136.4268  160.3293 H   0  0  0  0  0  0  0  0  0  0  0  0
  148.4751  137.6430  160.3776 H   0  0  0  0  0  0  0  0  0  0  0  0
  147.1555  137.1363  162.3010 H   0  0  0  0  0  0  0  0  0  0  0  0
  145.7753  135.5437  163.6116 H   0  0  0  0  0  0  0  0  0  0  0  0
  145.6704  133.1470  162.9531 H   0  0  0  0  0  0  0  0  0  0  0  0
  146.9545  132.3418  160.9802 H   0  0  0  0  0  0  0  0  0  0  0  0
  148.3395  133.9276  159.6638 H   0  0  0  0  0  0  0  0  0  0  0  0
  150.4270  136.4695  157.8127 H   0  0  0  0  0  0  0  0  0  0  0  0
  149.2508  137.2430  156.7879 H   0  0  0  0  0  0  0  0  0  0  0  0
  150.1145  138.4666  159.4531 H   0  0  0  0  0  0  0  0  0  0  0  0
  148.0625  139.0146  158.6572 H   0  0  0  0  0  0  0  0  0  0  0  0
  151.7495  138.4126  157.2144 H   0  0  0  0  0  0  0  0  0  0  0  0
  150.8012  139.8383  156.8990 H   0  0  0  0  0  0  0  0  0  0  0  0
  153.6710  137.7121  158.6671 H   0  0  0  0  0  0  0  0  0  0  0  0
  154.0081  137.9419  160.3779 H   0  0  0  0  0  0  0  0  0  0  0  0
  151.3811  137.7645  160.0346 H   0  0  0  0  0  0  0  0  0  0  0  0
  153.7632  143.2055  160.9484 H   0  0  0  0  0  0  0  0  0  0  0  0
  152.4308  145.0160  159.8916 H   0  0  0  0  0  0  0  0  0  0  0  0
  150.7628  144.4828  158.1270 H   0  0  0  0  0  0  0  0  0  0  0  0
  150.4179  142.1233  157.4081 H   0  0  0  0  0  0  0  0  0  0  0  0
  148.5732  135.4758  158.4238 H   0  0  0  0  0  0  0  0  0  0  0  0
  1  2  1  0  0  0  0
  1 25  1  0  0  0  0
  1 26  1  0  0  0  0
  1 27  1  0  0  0  0
  2  3  1  0  0  0  0
  2 10  1  0  0  0  0
  2 48  1  0  0  0  0
  3  4  1  0  0  0  0
  3 28  1  0  0  0  0
  3 29  1  0  0  0  0
  4  9  1  0  0  0  0
  4  5  2  0  0  0  0
  5  6  1  0  0  0  0
  5 30  1  0  0  0  0
  6  7  2  0  0  0  0
  6 31  1  0  0  0  0
  7  8  1  0  0  0  0
  7 32  1  0  0  0  0
  8  9  2  0  0  0  0
  8 33  1  0  0  0  0
  9 34  1  0  0  0  0
 10 11  1  0  0  0  0
 10 35  1  0  0  0  0
 10 36  1  0  0  0  0
 11 12  1  0  0  0  0
 11 13  1  0  0  0  0
 11 37  1  0  0  0  0
 12 38  1  0  0  0  0
 13 14  1  0  0  0  0
 13 39  1  0  0  0  0
 13 40  1  0  0  0  0
 14 24  1  0  0  0  0
 14 15  1  0  0  0  0
 15 16  1  0  0  0  0
 15 18  2  0  0  0  0
 16 17  1  0  0  0  0
 16 41  1  0  0  0  0
 16 42  1  0  0  0  0
 17 43  1  0  0  0  0
 18 19  1  0  0  0  0
 19 24  2  0  0  0  0
 19 20  1  0  0  0  0
 20 21  2  0  0  0  0
 20 44  1  0  0  0  0
 21 22  1  0  0  0  0
 21 45  1  0  0  0  0
 22 23  2  0  0  0  0
 22 46  1  0  0  0  0
 23 24  1  0  0  0  0
 23 47  1  0  0  0  0
M  CHG  1   2   1
M  END
> <s_m_source_file>
AV-unprocessed.smi

> <i_m_source_file_index>
1669

> <i_lp_mmshare_version>
43012

> <i_f3d_flags>
0

> <s_epik_input>
W2NIXTFbY0hdW2NIXVtjSF1bY0hdYzFbQ0gyXU4oW0NIM10pW0NIMl1bQ0BIXShbT0hdKVtDSDJdbihjKG4yKVtDSDJdW09IXSljKGMyMylbY0hdW2NIXVtjSF1bY0hdMw==

> <s_epik_cmdline>
J2VwaWtfcHl0aG9uJywgJy1waCcsICc3LjAnLCAnLXRuJywgJzgnLCAnLW1hJywgJzIwMCcsICctbWV0YWxfYmluZGluZycsICctaW1hZScsICc8aW5maWxlLm1hZT4nLCAnLW9tYWUnLCAnPG91dGZpbGUubWFlPic=

> <r_epik_Ionization_Penalty>
0.0949884

> <r_epik_Ionization_Penalty_Charging>
0.0475377

> <r_epik_Ionization_Penalty_Neutral>
0.0474507

> <r_epik_State_Penalty>
0.078247

> <r_epik_Charging_Adjusted_Penalty>
0.125785

> <i_epik_Tot_Q>
1

> <i_epik_Tot_abs_Q>
1

> <r_epik_Metal_State_Penalty>
0.0403451

> <b_epik_Metal_Only>
0

> <s_lp_Force_Field>
OPLS_2005

> <r_lp_Energy>
17.3617

> <b_lp_Chiralities_Consistent>
1

> <s_lp_Variant>
AV-unprocessed.smi:1669-2

> <Gold.Version>
5.8.1

> <Gold.Id.Protein>
6NUR|6NUR_protein|mol2

> <Gold.PLP.Fitness>
48.2394

> <Gold.PLP.PLP>
-47.1601

> <Gold.PLP.part.hbond>
-1.5315

> <Gold.PLP.part.metal>
0.0000

> <Gold.PLP.part.buried>
-6.6340

> <Gold.PLP.part.nonpolar>
-39.7265

> <Gold.PLP.part.repulsive>
0.1147

> <Gold.PLP.ligand.clash>
0.0000

> <Gold.PLP.ligand.torsion>
1.2535

> <Gold.PLP.Chemscore.Hbond>
0.9913

> <Gold.PLP.Chemscore.CHOScore>
0.0000

> <Gold.PLP.Chemscore.Metal>
0.0000

> <Gold.Chemscore.Hbonds>
donor molecule, donor type, donor heavy atom, donor atom, acceptor molecule, acceptor atom, score
      P1  H  6896  6907       L1    17  0.80

> <Gold.PLP.Chemscore.Internal.Correction>
0.6124

> <Gold.Rescore>
     Score         DG    S(hbond)    S(metal)    S(lipo)     H(rot)  DE(clash)    DE(int)     intcor
     14.48     -15.93       0.99        0.00     130.53       3.17       0.01       1.44       ----

> <Gold.Chemscore.Fitness>
14.4841

> <Gold.Chemscore.DG>
-15.9273

> <Gold.Chemscore.ZeroCoef>
-5.4800

> <Gold.Chemscore.Hbond>
0.9876

> <Gold.Chemscore.Metal>
0.0000

> <Gold.Chemscore.Lipo>
130.5271

> <Gold.Chemscore.Internal_Hbond>
0.0000

> <Gold.Chemscore.DEClash>
0.0053

> <Gold.Chemscore.DEInternal>
1.4380

> <Gold.Chemscore.Rot>
3.1731

> <Gold.Chemscore.Internal.Correction>
   9.000000E+99

> <Gold.Chemscore.Hbonds>
donor molecule, donor type, donor heavy atom, donor atom, acceptor molecule, acceptor atom, score
      P1  H  6896  6907       L1    17  0.67

> <Gold.Chemscore.Hbond.Weighted>
-3.2987

> <Gold.Chemscore.Metal.Weighted>
-0.0000

> <Gold.Chemscore.Lipo.Weighted>
-15.2717

> <Gold.Chemscore.Internal_Hbond.Weighted>
0.0000

> <Gold.Chemscore.DEClash.Weighted>
0.0053

> <Gold.Chemscore.DEInternal.Weighted>
1.4380

> <Gold.Chemscore.Rot.Weighted>
8.1230

> <Gold.Chemscore.Internal.Correction.Weighted>
   9.000000E+99

> <Gold.Protein.RotatedTorsions>
[ 6907 6896 6895 6894 ] final    8.10 input  -60.11 | X-H torsion
[ 7974 7965 7964 7962 ] final   55.63 input  175.53 | X-H torsion
[ 8008 7997 7996 7995 ] final  -90.18 input   59.86 | X-H torsion
[ 10167 10162 10161 10158 ] final  -61.87 input  -65.29 | X-H torsion
[ 10718 10713 10712 10709 ] final  -13.95 input   66.30 | X-H torsion
[ 10763 10752 10751 10750 ] final -172.39 input  -60.55 | X-H torsion
[ 11005 11000 10999 10996 ] final -140.18 input  -57.11 | X-H torsion

> <Gold.Protein.ActiveResidues>
 VAL166  LYS551  ARG553  GLY616  TRP617  ASP618  TYR619  PRO620  LYS621  CYS622 
 ASP623  PHE694  ASN695  SER759  ASP760  ASP761  ALA762  ILE779  LEU786  VAL792 
 PHE793  MET794  SER795  GLU796  ALA797  LYS798  CYS799  TRP800  GLU811  SER814 

> <Gold.Protein.RotatedAtoms>
  151.7005  135.0931  160.0249 H   0  0  0  0  0  0  0  0  0  0  0  0  # atno 6907 bound_to 6896
  152.3723  133.6431  159.6105 H   0  0  0  0  0  0  0  0  0  0  0  0  # atno 6908 bound_to 6896
  150.7683  133.9166  159.3427 H   0  0  0  0  0  0  0  0  0  0  0  0  # atno 6909 bound_to 6896
  145.9484  139.3950  143.0321 H   0  0  0  0  0  0  0  0  0  0  0  0  # atno 7974 bound_to 7965
  154.6955  140.0533  157.0406 H   0  0  0  0  0  0  0  0  0  0  0  0  # atno 8008 bound_to 7997
  155.0757  140.3204  155.4598 H   0  0  0  0  0  0  0  0  0  0  0  0  # atno 8009 bound_to 7997
  156.2743  140.2074  156.5885 H   0  0  0  0  0  0  0  0  0  0  0  0  # atno 8010 bound_to 7997
  140.5977  143.2354  151.5998 H   0  0  0  0  0  0  0  0  0  0  0  0  # atno 10167 bound_to 10162
  156.6230  130.4880  149.6157 H   0  0  0  0  0  0  0  0  0  0  0  0  # atno 10718 bound_to 10713
  154.6198  135.2874  155.0339 H   0  0  0  0  0  0  0  0  0  0  0  0  # atno 10763 bound_to 10752
  154.1538  135.6499  153.4973 H   0  0  0  0  0  0  0  0  0  0  0  0  # atno 10764 bound_to 10752
  153.0231  135.5362  154.6983 H   0  0  0  0  0  0  0  0  0  0  0  0  # atno 10765 bound_to 10752
  140.8448  134.2358  157.4791 H   0  0  0  0  0  0  0  0  0  0  0  0  # atno 11005 bound_to 11000
  145.8205  140.9681  143.0901 LP  0  0  0  0  0  0  0  0  0  0  0  0  # atno 17320 bound_to 7965
  144.6791  140.0035  143.7484 LP  0  0  0  0  0  0  0  0  0  0  0  0  # atno 17321 bound_to 7965
  139.5270  144.3030  152.1057 LP  0  0  0  0  0  0  0  0  0  0  0  0  # atno 17342 bound_to 10162
  140.2206  144.4470  150.6344 LP  0  0  0  0  0  0  0  0  0  0  0  0  # atno 17343 bound_to 10162
  156.2296  130.6787  151.1451 LP  0  0  0  0  0  0  0  0  0  0  0  0  # atno 17370 bound_to 10713
  157.7222  131.0674  150.6086 LP  0  0  0  0  0  0  0  0  0  0  0  0  # atno 17371 bound_to 10713
  139.8703  134.9653  156.4526 LP  0  0  0  0  0  0  0  0  0  0  0  0  # atno 17394 bound_to 11000
  140.8856  133.7886  155.9514 LP  0  0  0  0  0  0  0  0  0  0  0  0  # atno 17395 bound_to 11000

$$$$
