#       Name:                AV-unprocessed.smi:2447
#       Creating user name   scv26
#       Creation time:       Fri Mar 27 13:28:15 2020


#       File generated by GOLD software.
#

@<TRIPOS>MOLECULE
AV-unprocessed.smi:2447
    34    35     1
SMALL
NO_CHARGES


@<TRIPOS>ATOM
      1 ****        -5.3963  -0.9994   0.6114 N.am           1 S1                 0.0000
      2 ****        -4.1235  -0.6320   0.4517 C.2            1 S1                 0.0000
      3 ****        -3.8031   0.5181   0.1570 O.2            1 S1                 0.0000
      4 ****        -3.2776  -1.6582   0.6522 N.am           1 S1                 0.0000
      5 ****        -1.8596  -1.6529   0.5809 C.2            1 S1                 0.0000
      6 ****        -1.1762  -2.8045   0.8447 N.2            1 S1                 0.0000
      7 ****         0.0618  -2.3609   0.6689 C.2            1 S1                 0.0000
      8 ****         0.1367  -1.0689   0.3368 N.pl3          1 S1                 0.0000
      9 ****         1.2976  -0.2413   0.0461 C.3            1 S1                 0.0000
     10 ****         1.3478   1.0139   0.9430 C.3            1 S1                 0.0000
     11 ****         2.5854   1.8718   0.6315 C.3            1 S1                 0.0000
     12 ****         2.6386   2.2539  -0.8566 C.3            1 S1                 0.0000
     13 ****         2.5862   1.0073  -1.7545 C.3            1 S1                 0.0000
     14 ****         1.3491   0.1482  -1.4452 C.3            1 S1                 0.0000
     15 ****        -1.1268  -0.5828   0.2649 N.2            1 S1                 0.0000
     16 ****        -6.1297  -0.3160   0.4889 H              1 S1                 0.0000
     17 ****        -5.6252  -1.9519   0.8541 H              1 S1                 0.0000
     18 ****        -3.6939  -2.5463   0.8897 H              1 S1                 0.0000
     19 ****         0.9314  -2.9916   0.7823 H              1 S1                 0.0000
     20 ****         2.1796  -0.8448   0.2663 H              1 S1                 0.0000
     21 ****         0.4505   1.6170   0.7976 H              1 S1                 0.0000
     22 ****         1.3575   0.7225   1.9939 H              1 S1                 0.0000
     23 ****         2.5769   2.7723   1.2463 H              1 S1                 0.0000
     24 ****         3.4883   1.3225   0.9007 H              1 S1                 0.0000
     25 ****         1.8006   2.9102  -1.0947 H              1 S1                 0.0000
     26 ****         3.5459   2.8229  -1.0625 H              1 S1                 0.0000
     27 ****         2.5790   1.3042  -2.8035 H              1 S1                 0.0000
     28 ****         3.4889   0.4131  -1.6075 H              1 S1                 0.0000
     29 ****         1.3607  -0.7488  -2.0656 H              1 S1                 0.0000
     30 ****         0.4491   0.7011  -1.7184 H              1 S1                 0.0000
     31 ****        -4.5076   1.2161   0.0285 LP             1 S1                 0.0000
     32 ****        -2.8380   0.7554   0.0458 LP             1 S1                 0.0000
     33 ****        -1.5097  -3.7131   1.0960 LP             1 S1                 0.0000
     34 ****        -1.4318   0.3412   0.0341 LP             1 S1                 0.0000
@<TRIPOS>BOND
    1    1    2 am    
    2    1   16 1     
    3    1   17 1     
    4    2    3 2     
    5    2    4 am    
    6    4    5 1     
    7    4   18 1     
    8    5   15 2     
    9    5    6 1     
   10    6    7 2     
   11    7    8 1     
   12    7   19 1     
   13    8    9 1     
   14    8   15 1     
   15    9   14 1     
   16    9   10 1     
   17    9   20 1     
   18   10   11 1     
   19   10   21 1     
   20   10   22 1     
   21   11   12 1     
   22   11   23 1     
   23   11   24 1     
   24   12   13 1     
   25   12   25 1     
   26   12   26 1     
   27   13   14 1     
   28   13   27 1     
   29   13   28 1     
   30   14   29 1     
   31   14   30 1     
   32    3   31 1     
   33    3   32 1     
   34    6   33 1     
   35   15   34 1     
@<TRIPOS>SUBSTRUCTURE
      1 S1             1
@<TRIPOS>SET
LONE_PAIRS      STATIC     ATOMS    <user>   **** ""
4 31 32 33 34
DONOR_HYDROGENS      STATIC     ATOMS    <user>   **** ""
3 16 17 18
ATOM$BLUE        STATIC     ATOMS    COLORGROUP SYSTEM
4 31 32 33 34
ATOM$RED        STATIC     ATOMS    COLORGROUP SYSTEM
3 16 17 18
