AV-unprocessed.smi:3313|AV-procd|sdf|12730|dock3
  -GOLD-   2272019 73D 1   1.00000     0.00000
 Structure written by MMmdl.
 43 43  0  0  0  0  0  0  0  0  2 V2000
  144.4881  135.2328  150.3829 C   0  0  0  0  0  0  0  0  0  0  0  0
  145.6951  135.1675  151.3336 C   0  0  1  0  0  0  0  0  0  0  0  0
  146.5862  133.9550  151.0003 C   0  0  0  0  0  0  0  0  0  0  0  0
  145.9537  132.6930  151.3416 N   0  0  0  0  0  0  0  0  0  0  0  0
  144.7446  132.1957  150.9030 C   0  0  0  0  0  0  0  0  0  0  0  0
  144.5668  130.9790  151.4966 C   0  0  0  0  0  0  0  0  0  0  0  0
  145.7363  130.8151  152.2904 C   0  0  0  0  0  0  0  0  0  0  0  0
  146.5634  131.8441  152.1977 N   0  0  0  0  0  0  0  0  0  0  0  0
  146.4865  136.4169  151.2657 N   0  3  0  0  0  0  0  0  0  0  0  0
  145.9693  137.5419  152.0755 C   0  0  0  0  0  0  0  0  0  0  0  0
  146.7012  138.8613  151.7595 C   0  0  0  0  0  0  0  0  0  0  0  0
  147.4905  139.4445  152.9386 C   0  0  0  0  0  0  0  0  0  0  0  0
  147.0272  140.3730  153.6014 O   0  0  0  0  0  0  0  0  0  0  0  0
  148.6880  138.8797  153.1748 N   0  0  0  0  0  0  0  0  0  0  0  0
  149.6705  139.2214  154.2107 C   0  0  0  0  0  0  0  0  0  0  0  0
  149.8723  140.7458  154.1490 C   0  0  0  0  0  0  0  0  0  0  0  0
  151.0201  138.5254  153.9345 C   0  0  0  0  0  0  0  0  0  0  0  0
  149.1401  138.8425  155.6097 C   0  0  0  0  0  0  0  0  0  0  0  0
  143.9176  134.3041  150.4122 H   0  0  0  0  0  0  0  0  0  0  0  0
  144.8044  135.3940  149.3515 H   0  0  0  0  0  0  0  0  0  0  0  0
  143.8031  136.0368  150.6509 H   0  0  0  0  0  0  0  0  0  0  0  0
  145.3277  135.0438  152.3537 H   0  0  0  0  0  0  0  0  0  0  0  0
  146.8095  133.9366  149.9325 H   0  0  0  0  0  0  0  0  0  0  0  0
  147.5460  134.0242  151.5154 H   0  0  0  0  0  0  0  0  0  0  0  0
  144.1183  132.7425  150.2133 H   0  0  0  0  0  0  0  0  0  0  0  0
  143.7299  130.3065  151.3799 H   0  0  0  0  0  0  0  0  0  0  0  0
  146.0063  129.9854  152.9272 H   0  0  0  0  0  0  0  0  0  0  0  0
  147.4158  136.2050  151.6016 H   0  0  0  0  0  0  0  0  0  0  0  0
  144.8984  137.6626  151.9113 H   0  0  0  0  0  0  0  0  0  0  0  0
  146.0987  137.3043  153.1319 H   0  0  0  0  0  0  0  0  0  0  0  0
  147.3980  138.6994  150.9364 H   0  0  0  0  0  0  0  0  0  0  0  0
  145.9798  139.6027  151.4123 H   0  0  0  0  0  0  0  0  0  0  0  0
  148.9553  138.1213  152.5636 H   0  0  0  0  0  0  0  0  0  0  0  0
  150.5917  141.0819  154.8965 H   0  0  0  0  0  0  0  0  0  0  0  0
  148.9387  141.2794  154.3314 H   0  0  0  0  0  0  0  0  0  0  0  0
  150.2450  141.0594  153.1728 H   0  0  0  0  0  0  0  0  0  0  0  0
  151.3899  138.7583  152.9352 H   0  0  0  0  0  0  0  0  0  0  0  0
  150.9484  137.4407  154.0156 H   0  0  0  0  0  0  0  0  0  0  0  0
  151.7798  138.8477  154.6471 H   0  0  0  0  0  0  0  0  0  0  0  0
  149.8225  139.1781  156.3912 H   0  0  0  0  0  0  0  0  0  0  0  0
  149.0261  137.7652  155.7289 H   0  0  0  0  0  0  0  0  0  0  0  0
  148.1700  139.3010  155.8046 H   0  0  0  0  0  0  0  0  0  0  0  0
  146.5560  136.7072  150.3004 H   0  0  0  0  0  0  0  0  0  0  0  0
  1  2  1  0  0  0  0
  1 19  1  0  0  0  0
  1 20  1  0  0  0  0
  1 21  1  0  0  0  0
  2  3  1  0  0  0  0
  2  9  1  0  0  0  0
  2 22  1  0  0  0  0
  3  4  1  0  0  0  0
  3 23  1  0  0  0  0
  3 24  1  0  0  0  0
  4  8  1  0  0  0  0
  4  5  1  0  0  0  0
  5  6  2  0  0  0  0
  5 25  1  0  0  0  0
  6  7  1  0  0  0  0
  6 26  1  0  0  0  0
  7  8  2  0  0  0  0
  7 27  1  0  0  0  0
  9 10  1  0  0  0  0
  9 28  1  0  0  0  0
  9 43  1  0  0  0  0
 10 11  1  0  0  0  0
 10 29  1  0  0  0  0
 10 30  1  0  0  0  0
 11 12  1  0  0  0  0
 11 31  1  0  0  0  0
 11 32  1  0  0  0  0
 12 13  2  0  0  0  0
 12 14  1  0  0  0  0
 14 15  1  0  0  0  0
 14 33  1  0  0  0  0
 15 16  1  0  0  0  0
 15 17  1  0  0  0  0
 15 18  1  0  0  0  0
 16 34  1  0  0  0  0
 16 35  1  0  0  0  0
 16 36  1  0  0  0  0
 17 37  1  0  0  0  0
 17 38  1  0  0  0  0
 17 39  1  0  0  0  0
 18 40  1  0  0  0  0
 18 41  1  0  0  0  0
 18 42  1  0  0  0  0
M  CHG  1   9   1
M  END
> <s_m_source_file>
AV-unprocessed.smi

> <i_m_source_file_index>
3313

> <i_lp_mmshare_version>
43012

> <i_f3d_flags>
0

> <s_epik_input>
bjFbY0hdW2NIXVtjSF1uMVtDSDJdW0NAQEhdKFtDSDNdKVtOSF1bQ0gyXVtDSDJdQyg9TylbTkhdQyhbQ0gzXSkoW0NIM10pW0NIM10=

> <s_epik_cmdline>
J2VwaWtfcHl0aG9uJywgJy1waCcsICc3LjAnLCAnLXRuJywgJzgnLCAnLW1hJywgJzIwMCcsICctbWV0YWxfYmluZGluZycsICctaW1hZScsICc8aW5maWxlLm1hZT4nLCAnLW9tYWUnLCAnPG91dGZpbGUubWFlPic=

> <r_lp_tautomer_probability>
1

> <r_epik_Ionization_Penalty>
0.0056766

> <r_epik_Ionization_Penalty_Charging>
0.00567288

> <r_epik_Ionization_Penalty_Neutral>
3.71277e-06

> <r_epik_State_Penalty>
0.0041598

> <r_epik_Charging_Adjusted_Penalty>
0.00983268

> <i_epik_Tot_Q>
1

> <i_epik_Tot_abs_Q>
1

> <r_epik_Metal_State_Penalty>
-0

> <b_epik_Metal_Only>
0

> <s_lp_Force_Field>
OPLS_2005

> <r_lp_Energy>
4.0528

> <b_lp_Chiralities_Consistent>
1

> <s_lp_Variant>
AV-unprocessed.smi:3313-2

> <Gold.Version>
5.8.1

> <Gold.Id.Protein>
6NUR|6NUR_protein|mol2

> <Gold.PLP.Fitness>
43.5772

> <Gold.PLP.PLP>
-36.5601

> <Gold.PLP.part.hbond>
-3.0000

> <Gold.PLP.part.metal>
0.0000

> <Gold.PLP.part.buried>
-5.1342

> <Gold.PLP.part.nonpolar>
-29.7072

> <Gold.PLP.part.repulsive>
0.6296

> <Gold.PLP.ligand.clash>
0.0000

> <Gold.PLP.ligand.torsion>
1.1383

> <Gold.PLP.Chemscore.Hbond>
3.0000

> <Gold.PLP.Chemscore.CHOScore>
0.0000

> <Gold.PLP.Chemscore.Metal>
0.0000

> <Gold.Chemscore.Hbonds>
donor molecule, donor type, donor heavy atom, donor atom, acceptor molecule, acceptor atom, score
      L1  H     9    28       P1  7948  1.98
      L1  H    14    33       P1  7948  1.00

> <Gold.PLP.Chemscore.Internal.Correction>
0.2937

> <Gold.Rescore>
     Score         DG    S(hbond)    S(metal)    S(lipo)     H(rot)  DE(clash)    DE(int)     intcor
     13.62     -16.56       1.98        0.00      86.32       2.20       0.12       2.82       ----

> <Gold.Chemscore.Fitness>
13.6228

> <Gold.Chemscore.DG>
-16.5601

> <Gold.Chemscore.ZeroCoef>
-5.4800

> <Gold.Chemscore.Hbond>
1.9820

> <Gold.Chemscore.Metal>
0.0000

> <Gold.Chemscore.Lipo>
86.3189

> <Gold.Chemscore.Internal_Hbond>
0.0000

> <Gold.Chemscore.DEClash>
0.1155

> <Gold.Chemscore.DEInternal>
2.8218

> <Gold.Chemscore.Rot>
2.2027

> <Gold.Chemscore.Internal.Correction>
   9.000000E+99

> <Gold.Chemscore.Hbonds>
donor molecule, donor type, donor heavy atom, donor atom, acceptor molecule, acceptor atom, score
      L1  H     9    28       P1  7948  0.92
      L1  H    14    33       P1  7948  0.96

> <Gold.Chemscore.Hbond.Weighted>
-6.6198

> <Gold.Chemscore.Metal.Weighted>
-0.0000

> <Gold.Chemscore.Lipo.Weighted>
-10.0993

> <Gold.Chemscore.Internal_Hbond.Weighted>
0.0000

> <Gold.Chemscore.DEClash.Weighted>
0.1155

> <Gold.Chemscore.DEInternal.Weighted>
2.8218

> <Gold.Chemscore.Rot.Weighted>
5.6390

> <Gold.Chemscore.Internal.Correction.Weighted>
   9.000000E+99

> <Gold.Protein.RotatedTorsions>
[ 6907 6896 6895 6894 ] final -140.84 input  -60.11 | X-H torsion
[ 7974 7965 7964 7962 ] final   62.49 input  175.53 | X-H torsion
[ 8008 7997 7996 7995 ] final -152.70 input   59.86 | X-H torsion
[ 10167 10162 10161 10158 ] final -175.74 input  -65.29 | X-H torsion
[ 10718 10713 10712 10709 ] final  -55.66 input   66.30 | X-H torsion
[ 10763 10752 10751 10750 ] final -154.45 input  -60.55 | X-H torsion
[ 11005 11000 10999 10996 ] final  112.55 input  -57.11 | X-H torsion

> <Gold.Protein.ActiveResidues>
 VAL166  LYS551  ARG553  GLY616  TRP617  ASP618  TYR619  PRO620  LYS621  CYS622 
 ASP623  PHE694  ASN695  SER759  ASP760  ASP761  ALA762  ILE779  LEU786  VAL792 
 PHE793  MET794  SER795  GLU796  ALA797  LYS798  CYS799  TRP800  GLU811  SER814 

> <Gold.Protein.RotatedAtoms>
  151.0660  133.5505  159.2630 H   0  0  0  0  0  0  0  0  0  0  0  0  # atno 6907 bound_to 6896
  151.2463  135.0606  159.9054 H   0  0  0  0  0  0  0  0  0  0  0  0  # atno 6908 bound_to 6896
  152.5404  134.0427  159.8128 H   0  0  0  0  0  0  0  0  0  0  0  0  # atno 6909 bound_to 6896
  145.8727  139.3389  143.0753 H   0  0  0  0  0  0  0  0  0  0  0  0  # atno 7974 bound_to 7965
  155.6592  140.0720  157.2560 H   0  0  0  0  0  0  0  0  0  0  0  0  # atno 8008 bound_to 7997
  154.4146  140.1719  156.1809 H   0  0  0  0  0  0  0  0  0  0  0  0  # atno 8009 bound_to 7997
  155.9711  140.3362  155.6580 H   0  0  0  0  0  0  0  0  0  0  0  0  # atno 8010 bound_to 7997
  139.5565  144.1975  152.1168 H   0  0  0  0  0  0  0  0  0  0  0  0  # atno 10167 bound_to 10162
  156.1350  130.4157  150.0201 H   0  0  0  0  0  0  0  0  0  0  0  0  # atno 10718 bound_to 10713
  154.7858  135.3190  154.7890 H   0  0  0  0  0  0  0  0  0  0  0  0  # atno 10763 bound_to 10752
  153.8590  135.6855  153.4789 H   0  0  0  0  0  0  0  0  0  0  0  0  # atno 10764 bound_to 10752
  153.1509  135.4700  154.9574 H   0  0  0  0  0  0  0  0  0  0  0  0  # atno 10765 bound_to 10752
  139.8930  134.9532  156.6602 H   0  0  0  0  0  0  0  0  0  0  0  0  # atno 11005 bound_to 11000
  145.9117  140.9175  143.0450 LP  0  0  0  0  0  0  0  0  0  0  0  0  # atno 17320 bound_to 7965
  144.6726  140.1169  143.7452 LP  0  0  0  0  0  0  0  0  0  0  0  0  # atno 17321 bound_to 7965
  140.1480  144.5140  150.6704 LP  0  0  0  0  0  0  0  0  0  0  0  0  # atno 17342 bound_to 10162
  140.6839  143.2340  151.5312 LP  0  0  0  0  0  0  0  0  0  0  0  0  # atno 17343 bound_to 10162
  156.8103  130.9322  151.3644 LP  0  0  0  0  0  0  0  0  0  0  0  0  # atno 17370 bound_to 10713
  157.6524  130.8895  149.9660 LP  0  0  0  0  0  0  0  0  0  0  0  0  # atno 17371 bound_to 10713
  140.7452  133.8943  155.8307 LP  0  0  0  0  0  0  0  0  0  0  0  0  # atno 17394 bound_to 11000
  141.0045  134.1105  157.4284 LP  0  0  0  0  0  0  0  0  0  0  0  0  # atno 17395 bound_to 11000

$$$$
