#       Name:                AV-unprocessed.smi:551
#       Creating user name   scv26
#       Creation time:       Thu Mar 26 23:39:34 2020


#       File generated by GOLD software.
#

@<TRIPOS>MOLECULE
AV-unprocessed.smi:551
    41    42     1
SMALL
NO_CHARGES


@<TRIPOS>ATOM
      1 ****         0.1982  -3.2517  -2.2162 C.3            1 S1                 0.0000
      2 ****         0.5577  -2.5028  -0.9260 C.3            1 S1                 0.0000
      3 ****         2.0853  -2.4490  -0.7138 C.3            1 S1                 0.0000
      4 ****         2.4540  -1.8590   0.5602 N.pl3          1 S1                 0.0000
      5 ****         2.9551  -0.5821   0.7790 C.2            1 S1                 0.0000
      6 ****         3.1481  -0.4631   2.1366 C.2            1 S1                 0.0000
      7 ****         2.7808  -1.6491   2.7681 N.2            1 S1                 0.0000
      8 ****         2.3813  -2.4282   1.7712 C.2            1 S1                 0.0000
      9 ****        -0.0039  -1.1540  -0.9868 N.am           1 S1                 0.0000
     10 ****        -0.6260  -0.5176   0.0188 C.2            1 S1                 0.0000
     11 ****        -0.8248  -1.0266   1.1224 O.2            1 S1                 0.0000
     12 ****        -1.0756   0.9222  -0.2603 C.3            1 S1                 0.0000
     13 ****        -0.3015   1.9169   0.6308 C.3            1 S1                 0.0000
     14 ****        -0.7504   3.3646   0.3740 C.3            1 S1                 0.0000
     15 ****        -2.2663   3.5209   0.5728 C.3            1 S1                 0.0000
     16 ****        -3.0470   2.5304  -0.3059 C.3            1 S1                 0.0000
     17 ****        -2.5965   1.0830  -0.0481 C.3            1 S1                 0.0000
     18 ****         0.5764  -4.2741  -2.1938 H              1 S1                 0.0000
     19 ****         0.6212  -2.7599  -3.0929 H              1 S1                 0.0000
     20 ****        -0.8826  -3.3045  -2.3520 H              1 S1                 0.0000
     21 ****         0.1100  -3.0563  -0.0984 H              1 S1                 0.0000
     22 ****         2.5051  -3.4551  -0.7498 H              1 S1                 0.0000
     23 ****         2.5643  -1.8829  -1.5139 H              1 S1                 0.0000
     24 ****         3.1216   0.1188  -0.0256 H              1 S1                 0.0000
     25 ****         3.5206   0.3780   2.7025 H              1 S1                 0.0000
     26 ****         2.0222  -3.4352   1.9256 H              1 S1                 0.0000
     27 ****         0.1137  -0.6537  -1.8559 H              1 S1                 0.0000
     28 ****        -0.8527   1.1555  -1.3032 H              1 S1                 0.0000
     29 ****        -0.4525   1.6759   1.6845 H              1 S1                 0.0000
     30 ****         0.7704   1.8305   0.4471 H              1 S1                 0.0000
     31 ****        -0.2162   4.0431   1.0395 H              1 S1                 0.0000
     32 ****        -0.4833   3.6549  -0.6427 H              1 S1                 0.0000
     33 ****        -2.5159   3.3543   1.6215 H              1 S1                 0.0000
     34 ****        -2.5684   4.5427   0.3412 H              1 S1                 0.0000
     35 ****        -4.1160   2.6265  -0.1143 H              1 S1                 0.0000
     36 ****        -2.8979   2.7780  -1.3576 H              1 S1                 0.0000
     37 ****        -3.1415   0.4090  -0.7101 H              1 S1                 0.0000
     38 ****        -2.8675   0.8008   0.9707 H              1 S1                 0.0000
     39 ****         2.8111  -1.8633   3.7445 LP             1 S1                 0.0000
     40 ****        -0.5172  -1.9604   1.3051 LP             1 S1                 0.0000
     41 ****        -1.2938  -0.5061   1.8359 LP             1 S1                 0.0000
@<TRIPOS>BOND
    1    1    2 1     
    2    1   18 1     
    3    1   19 1     
    4    1   20 1     
    5    2    3 1     
    6    2    9 1     
    7    2   21 1     
    8    3    4 1     
    9    3   22 1     
   10    3   23 1     
   11    4    8 1     
   12    4    5 1     
   13    5    6 2     
   14    5   24 1     
   15    6    7 1     
   16    6   25 1     
   17    7    8 2     
   18    8   26 1     
   19    9   10 am    
   20    9   27 1     
   21   10   11 2     
   22   10   12 1     
   23   12   17 1     
   24   12   13 1     
   25   12   28 1     
   26   13   14 1     
   27   13   29 1     
   28   13   30 1     
   29   14   15 1     
   30   14   31 1     
   31   14   32 1     
   32   15   16 1     
   33   15   33 1     
   34   15   34 1     
   35   16   17 1     
   36   16   35 1     
   37   16   36 1     
   38   17   37 1     
   39   17   38 1     
   40    7   39 1     
   41   11   40 1     
   42   11   41 1     
@<TRIPOS>SUBSTRUCTURE
      1 S1             1
@<TRIPOS>SET
LONE_PAIRS      STATIC     ATOMS    <user>   **** ""
3 39 40 41
DONOR_HYDROGENS      STATIC     ATOMS    <user>   **** ""
1 27
ATOM$BLUE        STATIC     ATOMS    COLORGROUP SYSTEM
3 39 40 41
ATOM$RED        STATIC     ATOMS    COLORGROUP SYSTEM
1 27
