AV-unprocessed.smi:1632|AV-procd|sdf|6530|dock4
  -GOLD-   22720 7213D 1   1.00000     0.00000
 Structure written by MMmdl.
 43 45  0  0  0  0  0  0  0  0  2 V2000
  149.6144  139.4228  153.7039 O   0  0  0  0  0  0  0  0  0  0  0  0
  148.7425  140.4336  154.1585 C   0  0  0  0  0  0  0  0  0  0  0  0
  149.5096  141.4089  155.0653 C   0  0  0  0  0  0  0  0  0  0  0  0
  150.3886  140.7141  156.1183 C   0  0  0  0  0  0  0  0  0  0  0  0
  150.8382  141.6521  157.1936 C   0  0  0  0  0  0  0  0  0  0  0  0
  150.7506  143.0114  157.1485 N   0  3  0  0  0  0  0  0  0  0  0  0
  151.2784  143.5589  158.3181 C   0  0  0  0  0  0  0  0  0  0  0  0
  151.4053  144.8830  158.7266 C   0  0  0  0  0  0  0  0  0  0  0  0
  151.9920  145.1018  159.9901 C   0  0  0  0  0  0  0  0  0  0  0  0
  152.4244  144.0276  160.7946 C   0  0  0  0  0  0  0  0  0  0  0  0
  152.2904  142.6896  160.3693 C   0  0  0  0  0  0  0  0  0  0  0  0
  151.7117  142.4813  159.1172 C   0  0  0  0  0  0  0  0  0  0  0  0
  151.4230  141.3245  158.3823 N   0  0  0  0  0  0  0  0  0  0  0  0
  151.7605  140.0060  158.9434 C   0  0  0  0  0  0  0  0  0  0  0  0
  153.2771  139.8099  159.1449 C   0  0  2  0  0  0  0  0  0  0  0  0
  153.8625  139.2458  157.9875 O   0  0  0  0  0  0  0  0  0  0  0  0
  153.5739  138.9966  160.3969 C   0  0  0  0  0  0  0  0  0  0  0  0
  153.1397  137.6553  160.4750 C   0  0  0  0  0  0  0  0  0  0  0  0
  153.4098  136.8841  161.6218 C   0  0  0  0  0  0  0  0  0  0  0  0
  154.1181  137.4486  162.6991 C   0  0  0  0  0  0  0  0  0  0  0  0
  154.5573  138.7841  162.6278 C   0  0  0  0  0  0  0  0  0  0  0  0
  154.2888  139.5577  161.4815 C   0  0  0  0  0  0  0  0  0  0  0  0
  154.7254  140.8393  161.4294 F   0  0  0  0  0  0  0  0  0  0  0  0
  149.6700  139.4733  152.7617 H   0  0  0  0  0  0  0  0  0  0  0  0
  148.3248  140.9555  153.2975 H   0  0  0  0  0  0  0  0  0  0  0  0
  147.9151  139.9660  154.6927 H   0  0  0  0  0  0  0  0  0  0  0  0
  150.1270  142.0689  154.4544 H   0  0  0  0  0  0  0  0  0  0  0  0
  148.7942  142.0522  155.5790 H   0  0  0  0  0  0  0  0  0  0  0  0
  149.8296  139.9009  156.5820 H   0  0  0  0  0  0  0  0  0  0  0  0
  151.2553  140.2553  155.6422 H   0  0  0  0  0  0  0  0  0  0  0  0
  151.0726  145.7074  158.1128 H   0  0  0  0  0  0  0  0  0  0  0  0
  152.1113  146.1134  160.3504 H   0  0  0  0  0  0  0  0  0  0  0  0
  152.8667  144.2331  161.7586 H   0  0  0  0  0  0  0  0  0  0  0  0
  152.6189  141.8748  160.9979 H   0  0  0  0  0  0  0  0  0  0  0  0
  151.2478  139.9208  159.9016 H   0  0  0  0  0  0  0  0  0  0  0  0
  151.3349  139.2277  158.3105 H   0  0  0  0  0  0  0  0  0  0  0  0
  153.7343  140.7930  159.2633 H   0  0  0  0  0  0  0  0  0  0  0  0
  153.1865  138.8079  157.4929 H   0  0  0  0  0  0  0  0  0  0  0  0
  152.5970  137.2097  159.6541 H   0  0  0  0  0  0  0  0  0  0  0  0
  153.0737  135.8589  161.6745 H   0  0  0  0  0  0  0  0  0  0  0  0
  154.3256  136.8573  163.5788 H   0  0  0  0  0  0  0  0  0  0  0  0
  155.1028  139.2162  163.4539 H   0  0  0  0  0  0  0  0  0  0  0  0
  150.3578  143.5256  156.3706 H   0  0  0  0  0  0  0  0  0  0  0  0
  1  2  1  0  0  0  0
  1 24  1  0  0  0  0
  2  3  1  0  0  0  0
  2 25  1  0  0  0  0
  2 26  1  0  0  0  0
  3  4  1  0  0  0  0
  3 27  1  0  0  0  0
  3 28  1  0  0  0  0
  4  5  1  0  0  0  0
  4 29  1  0  0  0  0
  4 30  1  0  0  0  0
  5 13  1  0  0  0  0
  5  6  2  0  0  0  0
  6  7  1  0  0  0  0
  6 43  1  0  0  0  0
  7 12  2  0  0  0  0
  7  8  1  0  0  0  0
  8  9  2  0  0  0  0
  8 31  1  0  0  0  0
  9 10  1  0  0  0  0
  9 32  1  0  0  0  0
 10 11  2  0  0  0  0
 10 33  1  0  0  0  0
 11 12  1  0  0  0  0
 11 34  1  0  0  0  0
 12 13  1  0  0  0  0
 13 14  1  0  0  0  0
 14 15  1  0  0  0  0
 14 35  1  0  0  0  0
 14 36  1  0  0  0  0
 15 16  1  0  0  0  0
 15 17  1  0  0  0  0
 15 37  1  0  0  0  0
 16 38  1  0  0  0  0
 17 22  1  0  0  0  0
 17 18  2  0  0  0  0
 18 19  1  0  0  0  0
 18 39  1  0  0  0  0
 19 20  2  0  0  0  0
 19 40  1  0  0  0  0
 20 21  1  0  0  0  0
 20 41  1  0  0  0  0
 21 22  2  0  0  0  0
 21 42  1  0  0  0  0
 22 23  1  0  0  0  0
M  CHG  1   6   1
M  END
> <s_m_source_file>
AV-unprocessed.smi

> <i_m_source_file_index>
1632

> <i_lp_mmshare_version>
43012

> <i_f3d_flags>
0

> <s_epik_input>
W09IXVtDSDJdW0NIMl1bQ0gyXWMobjEpbihjKGMxMilbY0hdW2NIXVtjSF1bY0hdMilbQ0gyXVtDQEhdKFtPSF0pYzNbY0hdW2NIXVtjSF1bY0hdYzNG

> <s_epik_cmdline>
J2VwaWtfcHl0aG9uJywgJy1waCcsICc3LjAnLCAnLXRuJywgJzgnLCAnLW1hJywgJzIwMCcsICctbWV0YWxfYmluZGluZycsICctaW1hZScsICc8aW5maWxlLm1hZT4nLCAnLW9tYWUnLCAnPG91dGZpbGUubWFlPic=

> <r_epik_Ionization_Penalty>
0.786441

> <r_epik_Ionization_Penalty_Charging>
0.786439

> <r_epik_Ionization_Penalty_Neutral>
1.50852e-06

> <r_epik_State_Penalty>
0.816472

> <r_epik_Charging_Adjusted_Penalty>
1.60291

> <i_epik_Tot_Q>
1

> <i_epik_Tot_abs_Q>
1

> <r_epik_Metal_State_Penalty>
4.73733

> <b_epik_Metal_Only>
0

> <s_lp_Force_Field>
OPLS_2005

> <r_lp_Energy>
17.2969

> <b_lp_Chiralities_Consistent>
1

> <s_lp_Variant>
AV-unprocessed.smi:1632-3

> <Gold.Version>
5.8.1

> <Gold.Id.Protein>
6NUR|6NUR_protein|mol2

> <Gold.PLP.Fitness>
61.0652

> <Gold.PLP.PLP>
-51.4166

> <Gold.PLP.part.hbond>
-2.6351

> <Gold.PLP.part.metal>
0.0000

> <Gold.PLP.part.buried>
-4.3325

> <Gold.PLP.part.nonpolar>
-45.5033

> <Gold.PLP.part.repulsive>
0.0122

> <Gold.PLP.ligand.clash>
0.0000

> <Gold.PLP.ligand.torsion>
0.7040

> <Gold.PLP.Chemscore.Hbond>
3.6403

> <Gold.PLP.Chemscore.CHOScore>
0.0000

> <Gold.PLP.Chemscore.Metal>
0.0000

> <Gold.Chemscore.Hbonds>
donor molecule, donor type, donor heavy atom, donor atom, acceptor molecule, acceptor atom, score
      L1  H     1    24       P1  7957  1.00
      L1  H     6    43       P1  8028  1.95
      P1  H  7997  8008       L1    16  0.70

> <Gold.PLP.Chemscore.Internal.Correction>
0.1356

> <Gold.Rescore>
     Score         DG    S(hbond)    S(metal)    S(lipo)     H(rot)  DE(clash)    DE(int)     intcor
     22.40     -23.30       2.70        0.00     144.40       3.16       0.20       0.70       ----

> <Gold.Chemscore.Fitness>
22.4002

> <Gold.Chemscore.DG>
-23.3013

> <Gold.Chemscore.ZeroCoef>
-5.4800

> <Gold.Chemscore.Hbond>
2.6999

> <Gold.Chemscore.Metal>
0.0000

> <Gold.Chemscore.Lipo>
144.3958

> <Gold.Chemscore.Internal_Hbond>
0.0000

> <Gold.Chemscore.DEClash>
0.2035

> <Gold.Chemscore.DEInternal>
0.6977

> <Gold.Chemscore.Rot>
3.1604

> <Gold.Chemscore.Internal.Correction>
   9.000000E+99

> <Gold.Chemscore.Hbonds>
donor molecule, donor type, donor heavy atom, donor atom, acceptor molecule, acceptor atom, score
      L1  H     1    24       P1  7957  1.00
      L1  H     6    43       P1  8028  0.88
      P1  H  7997  8008       L1    16  0.66

> <Gold.Chemscore.Hbond.Weighted>
-9.0177

> <Gold.Chemscore.Metal.Weighted>
-0.0000

> <Gold.Chemscore.Lipo.Weighted>
-16.8943

> <Gold.Chemscore.Internal_Hbond.Weighted>
0.0000

> <Gold.Chemscore.DEClash.Weighted>
0.2035

> <Gold.Chemscore.DEInternal.Weighted>
0.6977

> <Gold.Chemscore.Rot.Weighted>
8.0907

> <Gold.Chemscore.Internal.Correction.Weighted>
   9.000000E+99

> <Gold.Protein.RotatedTorsions>
[ 6907 6896 6895 6894 ] final -115.76 input  -60.11 | X-H torsion
[ 7974 7965 7964 7962 ] final  124.98 input  175.53 | X-H torsion
[ 8008 7997 7996 7995 ] final -123.00 input   59.86 | X-H torsion
[ 10167 10162 10161 10158 ] final   -2.27 input  -65.29 | X-H torsion
[ 10718 10713 10712 10709 ] final  -10.83 input   66.30 | X-H torsion
[ 10763 10752 10751 10750 ] final -142.44 input  -60.55 | X-H torsion
[ 11005 11000 10999 10996 ] final   45.54 input  -57.11 | X-H torsion

> <Gold.Protein.ActiveResidues>
 VAL166  LYS551  ARG553  GLY616  TRP617  ASP618  TYR619  PRO620  LYS621  CYS622 
 ASP623  PHE694  ASN695  SER759  ASP760  ASP761  ALA762  ILE779  LEU786  VAL792 
 PHE793  MET794  SER795  GLU796  ALA797  LYS798  CYS799  TRP800  GLU811  SER814 

> <Gold.Protein.RotatedAtoms>
  150.8003  133.8612  159.3232 H   0  0  0  0  0  0  0  0  0  0  0  0  # atno 6907 bound_to 6896
  151.6426  135.1009  160.0154 H   0  0  0  0  0  0  0  0  0  0  0  0  # atno 6908 bound_to 6896
  152.4089  133.6893  159.6416 H   0  0  0  0  0  0  0  0  0  0  0  0  # atno 6909 bound_to 6896
  145.0782  139.3677  143.4923 H   0  0  0  0  0  0  0  0  0  0  0  0  # atno 7974 bound_to 7965
  155.1733  140.0408  157.2867 H   0  0  0  0  0  0  0  0  0  0  0  0  # atno 8008 bound_to 7997
  154.6254  140.2511  155.7471 H   0  0  0  0  0  0  0  0  0  0  0  0  # atno 8009 bound_to 7997
  156.2456  140.2886  156.0581 H   0  0  0  0  0  0  0  0  0  0  0  0  # atno 8010 bound_to 7997
  140.6844  143.6677  150.8212 H   0  0  0  0  0  0  0  0  0  0  0  0  # atno 10167 bound_to 10162
  156.6678  130.5000  149.6010 H   0  0  0  0  0  0  0  0  0  0  0  0  # atno 10718 bound_to 10713
  154.8508  135.3496  154.6029 H   0  0  0  0  0  0  0  0  0  0  0  0  # atno 10763 bound_to 10752
  153.6638  135.6988  153.5173 H   0  0  0  0  0  0  0  0  0  0  0  0  # atno 10764 bound_to 10752
  153.2797  135.4267  155.1024 H   0  0  0  0  0  0  0  0  0  0  0  0  # atno 10765 bound_to 10752
  140.1450  134.4534  155.8422 H   0  0  0  0  0  0  0  0  0  0  0  0  # atno 11005 bound_to 11000
  146.3530  140.0559  142.8632 LP  0  0  0  0  0  0  0  0  0  0  0  0  # atno 17320 bound_to 7965
  145.1210  140.9462  143.4600 LP  0  0  0  0  0  0  0  0  0  0  0  0  # atno 17321 bound_to 7965
  140.0382  143.5373  152.2730 LP  0  0  0  0  0  0  0  0  0  0  0  0  # atno 17342 bound_to 10162
  139.6191  144.7625  151.2780 LP  0  0  0  0  0  0  0  0  0  0  0  0  # atno 17343 bound_to 10162
  156.1962  130.6591  151.1117 LP  0  0  0  0  0  0  0  0  0  0  0  0  # atno 17370 bound_to 10713
  157.7088  131.0744  150.6575 LP  0  0  0  0  0  0  0  0  0  0  0  0  # atno 17371 bound_to 10713
  141.2191  133.6849  156.7317 LP  0  0  0  0  0  0  0  0  0  0  0  0  # atno 17394 bound_to 11000
  140.2675  134.8419  157.3816 LP  0  0  0  0  0  0  0  0  0  0  0  0  # atno 17395 bound_to 11000

$$$$
