AV-unprocessed.smi:2770|AV-procd|sdf|10660|dock5
  -GOLD-   2272015103D 1   1.00000     0.00000
 Structure written by MMmdl.
 35 36  0  0  0  0  0  0  0  0  2 V2000
  146.8792  139.0770  152.1278 C   0  0  0  0  0  0  0  0  0  0  0  0
  147.9430  138.9370  153.1102 N   0  0  0  0  0  0  0  0  0  0  0  0
  148.3826  139.9309  153.8966 C   0  0  0  0  0  0  0  0  0  0  0  0
  147.9123  141.0687  153.8614 O   0  0  0  0  0  0  0  0  0  0  0  0
  149.5080  139.5816  154.8807 C   0  0  2  0  0  0  0  0  0  0  0  0
  149.9389  140.7926  155.7392 C   0  0  0  0  0  0  0  0  0  0  0  0
  151.0739  140.4385  156.5815 N   0  0  0  0  0  0  0  0  0  0  0  0
  151.4442  141.4700  157.4541 C   0  0  0  0  0  0  0  0  0  0  0  0
  150.9608  142.7950  157.3461 C   0  0  0  0  0  0  0  0  0  0  0  0
  151.3879  143.7633  158.2779 C   0  0  0  0  0  0  0  0  0  0  0  0
  152.2868  143.3918  159.2983 C   0  0  0  0  0  0  0  0  0  0  0  0
  152.7376  142.0565  159.3638 C   0  0  0  0  0  0  0  0  0  0  0  0
  153.7007  141.5772  160.4290 C   0  0  0  0  0  0  0  0  0  0  0  0
  152.3034  141.1595  158.4504 N   0  3  0  0  0  0  0  0  0  0  0  0
  152.1883  139.8881  155.8219 C   0  0  0  0  0  0  0  0  0  0  0  0
  151.7074  138.6950  154.9811 C   0  0  0  0  0  0  0  0  0  0  0  0
  150.6364  139.1124  154.1402 O   0  0  0  0  0  0  0  0  0  0  0  0
  146.7268  138.1317  151.6073 H   0  0  0  0  0  0  0  0  0  0  0  0
  147.1311  139.8369  151.3872 H   0  0  0  0  0  0  0  0  0  0  0  0
  145.9412  139.3566  152.6089 H   0  0  0  0  0  0  0  0  0  0  0  0
  148.3760  138.0287  153.1984 H   0  0  0  0  0  0  0  0  0  0  0  0
  149.1445  138.7803  155.5267 H   0  0  0  0  0  0  0  0  0  0  0  0
  150.2078  141.6332  155.0970 H   0  0  0  0  0  0  0  0  0  0  0  0
  149.1118  141.1205  156.3708 H   0  0  0  0  0  0  0  0  0  0  0  0
  150.2685  143.0698  156.5635 H   0  0  0  0  0  0  0  0  0  0  0  0
  151.0288  144.7798  158.2116 H   0  0  0  0  0  0  0  0  0  0  0  0
  152.6223  144.1230  160.0196 H   0  0  0  0  0  0  0  0  0  0  0  0
  153.9222  142.3701  161.1441 H   0  0  0  0  0  0  0  0  0  0  0  0
  154.6384  141.2551  159.9755 H   0  0  0  0  0  0  0  0  0  0  0  0
  153.2750  140.7355  160.9758 H   0  0  0  0  0  0  0  0  0  0  0  0
  152.6089  140.6531  155.1682 H   0  0  0  0  0  0  0  0  0  0  0  0
  152.9794  139.5721  156.5030 H   0  0  0  0  0  0  0  0  0  0  0  0
  152.5209  138.3191  154.3605 H   0  0  0  0  0  0  0  0  0  0  0  0
  151.3848  137.8708  155.6194 H   0  0  0  0  0  0  0  0  0  0  0  0
  152.6418  140.1992  158.5166 H   0  0  0  0  0  0  0  0  0  0  0  0
  1  2  1  0  0  0  0
  1 18  1  0  0  0  0
  1 19  1  0  0  0  0
  1 20  1  0  0  0  0
  2  3  1  0  0  0  0
  2 21  1  0  0  0  0
  3  4  2  0  0  0  0
  3  5  1  0  0  0  0
  5 17  1  0  0  0  0
  5  6  1  0  0  0  0
  5 22  1  0  0  0  0
  6  7  1  0  0  0  0
  6 23  1  0  0  0  0
  6 24  1  0  0  0  0
  7  8  1  0  0  0  0
  7 15  1  0  0  0  0
  8 14  1  0  0  0  0
  8  9  2  0  0  0  0
  9 10  1  0  0  0  0
  9 25  1  0  0  0  0
 10 11  2  0  0  0  0
 10 26  1  0  0  0  0
 11 12  1  0  0  0  0
 11 27  1  0  0  0  0
 12 13  1  0  0  0  0
 12 14  2  0  0  0  0
 13 28  1  0  0  0  0
 13 29  1  0  0  0  0
 13 30  1  0  0  0  0
 14 35  1  0  0  0  0
 15 16  1  0  0  0  0
 15 31  1  0  0  0  0
 15 32  1  0  0  0  0
 16 17  1  0  0  0  0
 16 33  1  0  0  0  0
 16 34  1  0  0  0  0
M  CHG  1  14   1
M  END
> <s_m_source_file>
AV-unprocessed.smi

> <i_m_source_file_index>
2770

> <i_lp_mmshare_version>
43012

> <i_f3d_flags>
0

> <s_epik_input>
W0NIM11bTkhdQyg9TylbQ0BASF0xW0NIMl1OKFtDSDJdW0NIMl1PMSljMltjSF1bY0hdW2NIXWMobjIpW0NIM10=

> <s_epik_cmdline>
J2VwaWtfcHl0aG9uJywgJy1waCcsICc3LjAnLCAnLXRuJywgJzgnLCAnLW1hJywgJzIwMCcsICctbWV0YWxfYmluZGluZycsICctaW1hZScsICc8aW5maWxlLm1hZT4nLCAnLW9tYWUnLCAnPG91dGZpbGUubWFlPic=

> <r_lp_tautomer_probability>
0.999994

> <r_epik_Ionization_Penalty>
2.33902

> <r_epik_Ionization_Penalty_Charging>
2.33902

> <r_epik_Ionization_Penalty_Neutral>
5.66859e-08

> <r_epik_State_Penalty>
2.4925

> <r_epik_Charging_Adjusted_Penalty>
4.83152

> <i_epik_Tot_Q>
1

> <i_epik_Tot_abs_Q>
1

> <r_epik_Metal_State_Penalty>
2.50392

> <b_epik_Metal_Only>
0

> <s_lp_Force_Field>
OPLS_2005

> <r_lp_Energy>
23.5554

> <b_lp_Chiralities_Consistent>
1

> <s_lp_Variant>
AV-unprocessed.smi:2770-3

> <Gold.Version>
5.8.1

> <Gold.Id.Protein>
6NUR|6NUR_protein|mol2

> <Gold.PLP.Fitness>
38.9916

> <Gold.PLP.PLP>
-35.6956

> <Gold.PLP.part.hbond>
-2.7985

> <Gold.PLP.part.metal>
0.0000

> <Gold.PLP.part.buried>
0.9225

> <Gold.PLP.part.nonpolar>
-34.1875

> <Gold.PLP.part.repulsive>
0.5103

> <Gold.PLP.ligand.clash>
0.0000

> <Gold.PLP.ligand.torsion>
0.1477

> <Gold.PLP.Chemscore.Hbond>
1.1640

> <Gold.PLP.Chemscore.CHOScore>
0.0000

> <Gold.PLP.Chemscore.Metal>
0.0000

> <Gold.Chemscore.Hbonds>
donor molecule, donor type, donor heavy atom, donor atom, acceptor molecule, acceptor atom, score
      L1  H     2    21       P1  7948  0.26
      P1  H  7989  7998       L1    17  0.56

> <Gold.PLP.Chemscore.Internal.Correction>
0.0995

> <Gold.Rescore>
     Score         DG    S(hbond)    S(metal)    S(lipo)     H(rot)  DE(clash)    DE(int)     intcor
     14.17     -14.87       0.66        0.00      89.81       1.30       0.60       0.10       ----

> <Gold.Chemscore.Fitness>
14.1677

> <Gold.Chemscore.DG>
-14.8676

> <Gold.Chemscore.ZeroCoef>
-5.4800

> <Gold.Chemscore.Hbond>
0.6582

> <Gold.Chemscore.Metal>
0.0000

> <Gold.Chemscore.Lipo>
89.8083

> <Gold.Chemscore.Internal_Hbond>
0.0000

> <Gold.Chemscore.DEClash>
0.6011

> <Gold.Chemscore.DEInternal>
0.0988

> <Gold.Chemscore.Rot>
1.2963

> <Gold.Chemscore.Internal.Correction>
   9.000000E+99

> <Gold.Chemscore.Hbonds>
donor molecule, donor type, donor heavy atom, donor atom, acceptor molecule, acceptor atom, score
      L1  H     2    21       P1  7948  0.26
      P1  H  7989  7998       L1    17  0.03

> <Gold.Chemscore.Hbond.Weighted>
-2.1985

> <Gold.Chemscore.Metal.Weighted>
-0.0000

> <Gold.Chemscore.Lipo.Weighted>
-10.5076

> <Gold.Chemscore.Internal_Hbond.Weighted>
0.0000

> <Gold.Chemscore.DEClash.Weighted>
0.6011

> <Gold.Chemscore.DEInternal.Weighted>
0.0988

> <Gold.Chemscore.Rot.Weighted>
3.3185

> <Gold.Chemscore.Internal.Correction.Weighted>
   9.000000E+99

> <Gold.Protein.RotatedTorsions>
[ 6907 6896 6895 6894 ] final -149.03 input  -60.11 | X-H torsion
[ 7974 7965 7964 7962 ] final -146.19 input  175.53 | X-H torsion
[ 8008 7997 7996 7995 ] final -112.68 input   59.86 | X-H torsion
[ 10167 10162 10161 10158 ] final  -66.11 input  -65.29 | X-H torsion
[ 10718 10713 10712 10709 ] final -112.05 input   66.30 | X-H torsion
[ 10763 10752 10751 10750 ] final -146.99 input  -60.55 | X-H torsion
[ 11005 11000 10999 10996 ] final   19.91 input  -57.11 | X-H torsion

> <Gold.Protein.ActiveResidues>
 VAL166  LYS551  ARG553  GLY616  TRP617  ASP618  TYR619  PRO620  LYS621  CYS622 
 ASP623  PHE694  ASN695  SER759  ASP760  ASP761  ALA762  ILE779  LEU786  VAL792 
 PHE793  MET794  SER795  GLU796  ALA797  LYS798  CYS799  TRP800  GLU811  SER814 

> <Gold.Protein.RotatedAtoms>
  151.1783  133.4741  159.2593 H   0  0  0  0  0  0  0  0  0  0  0  0  # atno 6907 bound_to 6896
  151.1285  135.0117  159.8581 H   0  0  0  0  0  0  0  0  0  0  0  0  # atno 6908 bound_to 6896
  152.5459  134.1688  159.8641 H   0  0  0  0  0  0  0  0  0  0  0  0  # atno 6909 bound_to 6896
  144.8176  140.5488  143.5600 H   0  0  0  0  0  0  0  0  0  0  0  0  # atno 7974 bound_to 7965
  155.0090  140.0393  157.2391 H   0  0  0  0  0  0  0  0  0  0  0  0  # atno 8008 bound_to 7997
  154.7477  140.2761  155.6296 H   0  0  0  0  0  0  0  0  0  0  0  0  # atno 8009 bound_to 7997
  156.2878  140.2653  156.2221 H   0  0  0  0  0  0  0  0  0  0  0  0  # atno 8010 bound_to 7997
  140.5681  143.2316  151.6594 H   0  0  0  0  0  0  0  0  0  0  0  0  # atno 10167 bound_to 10162
  156.0683  130.5899  150.8456 H   0  0  0  0  0  0  0  0  0  0  0  0  # atno 10718 bound_to 10713
  154.8308  135.3372  154.6748 H   0  0  0  0  0  0  0  0  0  0  0  0  # atno 10763 bound_to 10752
  153.7368  135.6948  153.4981 H   0  0  0  0  0  0  0  0  0  0  0  0  # atno 10764 bound_to 10752
  153.2272  135.4428  155.0507 H   0  0  0  0  0  0  0  0  0  0  0  0  # atno 10765 bound_to 10752
  140.4084  134.1644  155.7666 H   0  0  0  0  0  0  0  0  0  0  0  0  # atno 11005 bound_to 11000
  145.5178  139.1477  143.3569 LP  0  0  0  0  0  0  0  0  0  0  0  0  # atno 17320 bound_to 7965
  146.2480  140.5319  142.8905 LP  0  0  0  0  0  0  0  0  0  0  0  0  # atno 17321 bound_to 7965
  139.5103  144.3547  152.0619 LP  0  0  0  0  0  0  0  0  0  0  0  0  # atno 17342 bound_to 10162
  140.2681  144.3994  150.6161 LP  0  0  0  0  0  0  0  0  0  0  0  0  # atno 17343 bound_to 10162
  157.5738  131.0946  150.9377 LP  0  0  0  0  0  0  0  0  0  0  0  0  # atno 17370 bound_to 10713
  156.9587  130.5447  149.5285 LP  0  0  0  0  0  0  0  0  0  0  0  0  # atno 17371 bound_to 10713
  141.1830  133.8373  157.1188 LP  0  0  0  0  0  0  0  0  0  0  0  0  # atno 17394 bound_to 11000
  140.0285  134.9912  157.0734 LP  0  0  0  0  0  0  0  0  0  0  0  0  # atno 17395 bound_to 11000

$$$$
