AV-unprocessed.smi:2294|AV-procd|sdf|9217|dock7
  -GOLD-   2272012433D 1   1.00000     0.00000
 Structure written by MMmdl.
 34 35  0  0  0  0  0  0  0  0  1 V2000
  152.5041  143.6450  161.0993 C   0  0  0  0  0  0  0  0  0  0  0  0
  152.1218  142.6393  160.0281 C   0  0  0  0  0  0  0  0  0  0  0  0
  150.8913  142.8613  159.4028 N   0  0  0  0  0  0  0  0  0  0  0  0
  150.4804  142.0515  158.4824 C   0  0  0  0  0  0  0  0  0  0  0  0
  151.2434  140.9430  158.0809 N   0  0  0  0  0  0  0  0  0  0  0  0
  150.6574  140.0931  157.0304 C   0  0  0  0  0  0  0  0  0  0  0  0
  150.7704  140.7344  155.6293 C   0  0  1  0  0  0  0  0  0  0  0  0
  151.8806  140.1662  154.9612 O   0  0  0  0  0  0  0  0  0  0  0  0
  149.4828  140.5423  154.8378 C   0  0  0  0  0  0  0  0  0  0  0  0
  148.6802  141.6540  154.4947 C   0  0  0  0  0  0  0  0  0  0  0  0
  147.4934  141.4762  153.7579 C   0  0  0  0  0  0  0  0  0  0  0  0
  147.1022  140.1859  153.3538 C   0  0  0  0  0  0  0  0  0  0  0  0
  147.9008  139.0747  153.6840 C   0  0  0  0  0  0  0  0  0  0  0  0
  149.0883  139.2501  154.4212 C   0  0  0  0  0  0  0  0  0  0  0  0
  149.8468  138.1690  154.7231 F   0  0  0  0  0  0  0  0  0  0  0  0
  152.4547  140.6536  158.6387 C   0  0  0  0  0  0  0  0  0  0  0  0
  153.1131  139.6741  158.2831 O   0  0  0  0  0  0  0  0  0  0  0  0
  152.9080  141.5820  159.6868 C   0  0  0  0  0  0  0  0  0  0  0  0
  154.2548  141.2874  160.3357 C   0  0  0  0  0  0  0  0  0  0  0  0
  153.4456  144.1338  160.8471 H   0  0  0  0  0  0  0  0  0  0  0  0
  152.6145  143.1499  162.0646 H   0  0  0  0  0  0  0  0  0  0  0  0
  151.7439  144.4200  161.2065 H   0  0  0  0  0  0  0  0  0  0  0  0
  149.5248  142.1751  157.9700 H   0  0  0  0  0  0  0  0  0  0  0  0
  151.0766  139.0847  157.0261 H   0  0  0  0  0  0  0  0  0  0  0  0
  149.6030  139.9430  157.2715 H   0  0  0  0  0  0  0  0  0  0  0  0
  150.9647  141.8034  155.7185 H   0  0  0  0  0  0  0  0  0  0  0  0
  152.5047  139.8790  155.6103 H   0  0  0  0  0  0  0  0  0  0  0  0
  148.9724  142.6500  154.7937 H   0  0  0  0  0  0  0  0  0  0  0  0
  146.8838  142.3302  153.5017 H   0  0  0  0  0  0  0  0  0  0  0  0
  146.1921  140.0488  152.7884 H   0  0  0  0  0  0  0  0  0  0  0  0
  147.6030  138.0850  153.3700 H   0  0  0  0  0  0  0  0  0  0  0  0
  154.2393  140.3011  160.8008 H   0  0  0  0  0  0  0  0  0  0  0  0
  154.5278  142.0074  161.1056 H   0  0  0  0  0  0  0  0  0  0  0  0
  155.0444  141.2953  159.5836 H   0  0  0  0  0  0  0  0  0  0  0  0
  1  2  1  0  0  0  0
  1 20  1  0  0  0  0
  1 21  1  0  0  0  0
  1 22  1  0  0  0  0
  2 18  2  0  0  0  0
  2  3  1  0  0  0  0
  3  4  2  0  0  0  0
  4  5  1  0  0  0  0
  4 23  1  0  0  0  0
  5  6  1  0  0  0  0
  5 16  1  0  0  0  0
  6  7  1  0  0  0  0
  6 24  1  0  0  0  0
  6 25  1  0  0  0  0
  7  8  1  0  0  0  0
  7  9  1  0  0  0  0
  7 26  1  0  0  0  0
  8 27  1  0  0  0  0
  9 14  1  0  0  0  0
  9 10  2  0  0  0  0
 10 11  1  0  0  0  0
 10 28  1  0  0  0  0
 11 12  2  0  0  0  0
 11 29  1  0  0  0  0
 12 13  1  0  0  0  0
 12 30  1  0  0  0  0
 13 14  2  0  0  0  0
 13 31  1  0  0  0  0
 14 15  1  0  0  0  0
 16 17  2  0  0  0  0
 16 18  1  0  0  0  0
 18 19  1  0  0  0  0
 19 32  1  0  0  0  0
 19 33  1  0  0  0  0
 19 34  1  0  0  0  0
M  END
> <s_m_source_file>
AV-unprocessed.smi

> <i_m_source_file_index>
2294

> <i_lp_mmshare_version>
43012

> <i_f3d_flags>
0

> <s_epik_input>
W0NIM11jMW5bY0hdbihjKD1PKWMxW0NIM10pW0NIMl1bQ0BIXShbT0hdKWMyW2NIXVtjSF1bY0hdW2NIXWMyRg==

> <s_epik_cmdline>
J2VwaWtfcHl0aG9uJywgJy1waCcsICc3LjAnLCAnLXRuJywgJzgnLCAnLW1hJywgJzIwMCcsICctbWV0YWxfYmluZGluZycsICctaW1hZScsICc8aW5maWxlLm1hZT4nLCAnLW9tYWUnLCAnPG91dGZpbGUubWFlPic=

> <r_lp_tautomer_probability>
1

> <r_epik_Ionization_Penalty>
5.07259e-05

> <r_epik_Ionization_Penalty_Charging>
7.56727e-08

> <r_epik_Ionization_Penalty_Neutral>
5.06502e-05

> <r_epik_State_Penalty>
-0

> <r_epik_Charging_Adjusted_Penalty>
7.56727e-08

> <i_epik_Tot_Q>
0

> <i_epik_Tot_abs_Q>
0

> <r_epik_Metal_State_Penalty>
-0

> <b_epik_Metal_Only>
0

> <s_lp_Force_Field>
OPLS_2005

> <r_lp_Energy>
19.7062

> <b_lp_Chiralities_Consistent>
1

> <s_lp_Variant>
AV-unprocessed.smi:2294-2

> <Gold.Version>
5.8.1

> <Gold.Id.Protein>
6NUR|6NUR_protein|mol2

> <Gold.PLP.Fitness>
46.3964

> <Gold.PLP.PLP>
-42.5943

> <Gold.PLP.part.hbond>
-2.3961

> <Gold.PLP.part.metal>
0.0000

> <Gold.PLP.part.buried>
-3.3552

> <Gold.PLP.part.nonpolar>
-36.4840

> <Gold.PLP.part.repulsive>
0.0211

> <Gold.PLP.ligand.clash>
0.0000

> <Gold.PLP.ligand.torsion>
0.8506

> <Gold.PLP.Chemscore.Hbond>
1.8320

> <Gold.PLP.Chemscore.CHOScore>
0.0000

> <Gold.PLP.Chemscore.Metal>
0.0000

> <Gold.Chemscore.Hbonds>
donor molecule, donor type, donor heavy atom, donor atom, acceptor molecule, acceptor atom, score
      P1  H  7989  7998       L1     8  0.78
      P1  H  7997  8009       L1    17  1.00

> <Gold.PLP.Chemscore.Internal.Correction>
0.0074

> <Gold.Rescore>
     Score         DG    S(hbond)    S(metal)    S(lipo)     H(rot)  DE(clash)    DE(int)     intcor
     14.29     -16.41       1.75        0.00      87.59       2.02       0.00       2.11       ----

> <Gold.Chemscore.Fitness>
14.2938

> <Gold.Chemscore.DG>
-16.4110

> <Gold.Chemscore.ZeroCoef>
-5.4800

> <Gold.Chemscore.Hbond>
1.7512

> <Gold.Chemscore.Metal>
0.0000

> <Gold.Chemscore.Lipo>
87.5923

> <Gold.Chemscore.Internal_Hbond>
0.0000

> <Gold.Chemscore.DEClash>
0.0042

> <Gold.Chemscore.DEInternal>
2.1130

> <Gold.Chemscore.Rot>
2.0181

> <Gold.Chemscore.Internal.Correction>
   9.000000E+99

> <Gold.Chemscore.Hbonds>
donor molecule, donor type, donor heavy atom, donor atom, acceptor molecule, acceptor atom, score
      P1  H  7989  7998       L1     8  0.15
      P1  H  7997  8009       L1    17  0.90

> <Gold.Chemscore.Hbond.Weighted>
-5.8490

> <Gold.Chemscore.Metal.Weighted>
-0.0000

> <Gold.Chemscore.Lipo.Weighted>
-10.2483

> <Gold.Chemscore.Internal_Hbond.Weighted>
0.0000

> <Gold.Chemscore.DEClash.Weighted>
0.0042

> <Gold.Chemscore.DEInternal.Weighted>
2.1130

> <Gold.Chemscore.Rot.Weighted>
5.1663

> <Gold.Chemscore.Internal.Correction.Weighted>
   9.000000E+99

> <Gold.Protein.RotatedTorsions>
[ 6907 6896 6895 6894 ] final -116.71 input  -60.11 | X-H torsion
[ 7974 7965 7964 7962 ] final   52.39 input  175.53 | X-H torsion
[ 8008 7997 7996 7995 ] final  148.69 input   59.86 | X-H torsion
[ 10167 10162 10161 10158 ] final   45.99 input  -65.29 | X-H torsion
[ 10718 10713 10712 10709 ] final -168.50 input   66.30 | X-H torsion
[ 10763 10752 10751 10750 ] final   53.16 input  -60.55 | X-H torsion
[ 11005 11000 10999 10996 ] final  167.57 input  -57.11 | X-H torsion

> <Gold.Protein.ActiveResidues>
 VAL166  LYS551  ARG553  GLY616  TRP617  ASP618  TYR619  PRO620  LYS621  CYS622 
 ASP623  PHE694  ASN695  SER759  ASP760  ASP761  ALA762  ILE779  LEU786  VAL792 
 PHE793  MET794  SER795  GLU796  ALA797  LYS798  CYS799  TRP800  GLU811  SER814 

> <Gold.Protein.RotatedAtoms>
  150.8077  133.8479  159.3197 H   0  0  0  0  0  0  0  0  0  0  0  0  # atno 6907 bound_to 6896
  151.6273  135.1024  160.0124 H   0  0  0  0  0  0  0  0  0  0  0  0  # atno 6908 bound_to 6896
  152.4168  133.7012  159.6481 H   0  0  0  0  0  0  0  0  0  0  0  0  # atno 6909 bound_to 6896
  145.9818  139.4250  143.0127 H   0  0  0  0  0  0  0  0  0  0  0  0  # atno 7974 bound_to 7965
  156.2782  140.2122  156.5738 H   0  0  0  0  0  0  0  0  0  0  0  0  # atno 8008 bound_to 7997
  154.7114  140.0511  157.0577 H   0  0  0  0  0  0  0  0  0  0  0  0  # atno 8009 bound_to 7997
  155.0600  140.3165  155.4666 H   0  0  0  0  0  0  0  0  0  0  0  0  # atno 8010 bound_to 7997
  140.3185  144.2734  150.6187 H   0  0  0  0  0  0  0  0  0  0  0  0  # atno 10167 bound_to 10162
  156.6978  130.9185  151.3076 H   0  0  0  0  0  0  0  0  0  0  0  0  # atno 10718 bound_to 10713
  152.9793  135.5788  154.4696 H   0  0  0  0  0  0  0  0  0  0  0  0  # atno 10763 bound_to 10752
  154.4260  135.2772  155.1946 H   0  0  0  0  0  0  0  0  0  0  0  0  # atno 10764 bound_to 10752
  154.3674  135.6175  153.5776 H   0  0  0  0  0  0  0  0  0  0  0  0  # atno 10765 bound_to 10752
  140.2782  134.7772  157.3735 H   0  0  0  0  0  0  0  0  0  0  0  0  # atno 11005 bound_to 11000
  145.7758  140.9877  143.1125 LP  0  0  0  0  0  0  0  0  0  0  0  0  # atno 17320 bound_to 7965
  144.6863  139.9503  143.7478 LP  0  0  0  0  0  0  0  0  0  0  0  0  # atno 17321 bound_to 7965
  140.5505  143.2207  151.7936 LP  0  0  0  0  0  0  0  0  0  0  0  0  # atno 17342 bound_to 10162
  139.4879  144.4483  151.9684 LP  0  0  0  0  0  0  0  0  0  0  0  0  # atno 17343 bound_to 10162
  157.6984  130.9307  150.0713 LP  0  0  0  0  0  0  0  0  0  0  0  0  # atno 17370 bound_to 10713
  156.1750  130.3648  149.9112 LP  0  0  0  0  0  0  0  0  0  0  0  0  # atno 17371 bound_to 10713
  140.1309  134.5097  155.8107 LP  0  0  0  0  0  0  0  0  0  0  0  0  # atno 17394 bound_to 11000
  141.2167  133.6789  156.7037 LP  0  0  0  0  0  0  0  0  0  0  0  0  # atno 17395 bound_to 11000

$$$$
