AV-unprocessed.smi:2363|AV-procd|sdf|9416|dock5
  -GOLD-   2272013 53D 1   1.00000     0.00000
 Structure written by MMmdl.
 44 45  0  0  0  0  0  0  0  0  1 V2000
  145.4376  132.4051  151.2400 C   0  0  0  0  0  0  0  0  0  0  0  0
  146.1545  132.7822  152.5445 C   0  0  0  0  0  0  0  0  0  0  0  0
  147.6540  133.0832  152.3727 C   0  0  0  0  0  0  0  0  0  0  0  0
  148.4530  132.6214  153.4968 N   0  0  0  0  0  0  0  0  0  0  0  0
  148.4207  131.3167  153.8473 N   0  0  0  0  0  0  0  0  0  0  0  0
  149.2422  131.2179  154.8844 C   0  0  0  0  0  0  0  0  0  0  0  0
  149.8392  132.4596  155.2434 C   0  0  0  0  0  0  0  0  0  0  0  0
  149.3053  133.3219  154.3249 C   0  0  0  0  0  0  0  0  0  0  0  0
  149.5226  134.6564  154.1818 N   0  0  0  0  0  0  0  0  0  0  0  0
  150.2762  135.4716  154.9393 C   0  0  0  0  0  0  0  0  0  0  0  0
  150.9166  135.1299  155.9335 O   0  0  0  0  0  0  0  0  0  0  0  0
  150.2432  136.7288  154.4719 N   0  0  0  0  0  0  0  0  0  0  0  0
  150.9500  137.8769  155.0416 C   0  0  1  0  0  0  0  0  0  0  0  0
  152.2373  138.0916  154.2274 C   0  0  0  0  0  0  0  0  0  0  0  0
  150.0292  139.1263  155.0757 C   0  0  0  0  0  0  0  0  0  0  0  0
  149.1478  139.2431  153.8153 C   0  0  0  0  0  0  0  0  0  0  0  0
  148.3051  140.5287  153.8359 C   0  0  0  0  0  0  0  0  0  0  0  0
  149.1505  141.6650  153.9631 O   0  0  0  0  0  0  0  0  0  0  0  0
  149.8855  141.6655  155.1801 C   0  0  0  0  0  0  0  0  0  0  0  0
  150.8179  140.4448  155.2317 C   0  0  0  0  0  0  0  0  0  0  0  0
  144.3710  132.2612  151.4131 H   0  0  0  0  0  0  0  0  0  0  0  0
  145.8287  131.4779  150.8208 H   0  0  0  0  0  0  0  0  0  0  0  0
  145.5502  133.1878  150.4896 H   0  0  0  0  0  0  0  0  0  0  0  0
  145.6669  133.6557  152.9782 H   0  0  0  0  0  0  0  0  0  0  0  0
  146.0273  131.9758  153.2679 H   0  0  0  0  0  0  0  0  0  0  0  0
  148.0281  132.6208  151.4588 H   0  0  0  0  0  0  0  0  0  0  0  0
  147.8070  134.1572  152.2567 H   0  0  0  0  0  0  0  0  0  0  0  0
  149.3798  130.2510  155.3452 H   0  0  0  0  0  0  0  0  0  0  0  0
  150.5377  132.6604  156.0417 H   0  0  0  0  0  0  0  0  0  0  0  0
  149.0696  135.0820  153.3867 H   0  0  0  0  0  0  0  0  0  0  0  0
  149.6855  136.9096  153.6503 H   0  0  0  0  0  0  0  0  0  0  0  0
  151.2506  137.6511  156.0662 H   0  0  0  0  0  0  0  0  0  0  0  0
  152.8844  138.8401  154.6834 H   0  0  0  0  0  0  0  0  0  0  0  0
  152.0158  138.4141  153.2095 H   0  0  0  0  0  0  0  0  0  0  0  0
  152.8174  137.1700  154.1644 H   0  0  0  0  0  0  0  0  0  0  0  0
  149.3672  139.0340  155.9385 H   0  0  0  0  0  0  0  0  0  0  0  0
  149.7759  139.2381  152.9234 H   0  0  0  0  0  0  0  0  0  0  0  0
  148.4777  138.3882  153.7310 H   0  0  0  0  0  0  0  0  0  0  0  0
  147.7361  140.6169  152.9102 H   0  0  0  0  0  0  0  0  0  0  0  0
  147.5811  140.5072  154.6521 H   0  0  0  0  0  0  0  0  0  0  0  0
  150.4694  142.5844  155.2372 H   0  0  0  0  0  0  0  0  0  0  0  0
  149.2028  141.6696  156.0311 H   0  0  0  0  0  0  0  0  0  0  0  0
  151.3645  140.4609  156.1747 H   0  0  0  0  0  0  0  0  0  0  0  0
  151.5633  140.5247  154.4393 H   0  0  0  0  0  0  0  0  0  0  0  0
  1  2  1  0  0  0  0
  1 21  1  0  0  0  0
  1 22  1  0  0  0  0
  1 23  1  0  0  0  0
  2  3  1  0  0  0  0
  2 24  1  0  0  0  0
  2 25  1  0  0  0  0
  3  4  1  0  0  0  0
  3 26  1  0  0  0  0
  3 27  1  0  0  0  0
  4  8  1  0  0  0  0
  4  5  1  0  0  0  0
  5  6  2  0  0  0  0
  6  7  1  0  0  0  0
  6 28  1  0  0  0  0
  7  8  2  0  0  0  0
  7 29  1  0  0  0  0
  8  9  1  0  0  0  0
  9 10  1  0  0  0  0
  9 30  1  0  0  0  0
 10 11  2  0  0  0  0
 10 12  1  0  0  0  0
 12 13  1  0  0  0  0
 12 31  1  0  0  0  0
 13 14  1  0  0  0  0
 13 15  1  0  0  0  0
 13 32  1  0  0  0  0
 14 33  1  0  0  0  0
 14 34  1  0  0  0  0
 14 35  1  0  0  0  0
 15 20  1  0  0  0  0
 15 16  1  0  0  0  0
 15 36  1  0  0  0  0
 16 17  1  0  0  0  0
 16 37  1  0  0  0  0
 16 38  1  0  0  0  0
 17 18  1  0  0  0  0
 17 39  1  0  0  0  0
 17 40  1  0  0  0  0
 18 19  1  0  0  0  0
 19 20  1  0  0  0  0
 19 41  1  0  0  0  0
 19 42  1  0  0  0  0
 20 43  1  0  0  0  0
 20 44  1  0  0  0  0
M  END
> <s_m_source_file>
AV-unprocessed.smi

> <i_m_source_file_index>
2363

> <i_lp_mmshare_version>
43012

> <i_f3d_flags>
0

> <s_epik_input>
W0NIM11bQ0gyXVtDSDJdbjFuW2NIXVtjSF1jMVtOSF1DKD1PKVtOSF1bQ0BIXShbQ0gzXSlbQ0hdMltDSDJdW0NIMl1PW0NIMl1bQ0gyXTI=

> <s_epik_cmdline>
J2VwaWtfcHl0aG9uJywgJy1waCcsICc3LjAnLCAnLXRuJywgJzgnLCAnLW1hJywgJzIwMCcsICctbWV0YWxfYmluZGluZycsICctaW1hZScsICc8aW5maWxlLm1hZT4nLCAnLW9tYWUnLCAnPG91dGZpbGUubWFlPic=

> <r_lp_tautomer_probability>
1

> <r_epik_Ionization_Penalty>
3.26671e-05

> <r_epik_Ionization_Penalty_Charging>
0

> <r_epik_Ionization_Penalty_Neutral>
3.26671e-05

> <r_epik_State_Penalty>
-0

> <r_epik_Charging_Adjusted_Penalty>
0

> <i_epik_Tot_Q>
0

> <i_epik_Tot_abs_Q>
0

> <r_epik_Metal_State_Penalty>
-0

> <b_epik_Metal_Only>
0

> <s_lp_Force_Field>
OPLS_2005

> <r_lp_Energy>
15.2221

> <b_lp_Chiralities_Consistent>
1

> <s_lp_Variant>
AV-unprocessed.smi:2363-2

> <Gold.Version>
5.8.1

> <Gold.Id.Protein>
6NUR|6NUR_protein|mol2

> <Gold.PLP.Fitness>
43.1125

> <Gold.PLP.PLP>
-37.3771

> <Gold.PLP.part.hbond>
-4.0188

> <Gold.PLP.part.metal>
0.0000

> <Gold.PLP.part.buried>
0.2279

> <Gold.PLP.part.nonpolar>
-33.8739

> <Gold.PLP.part.repulsive>
0.4079

> <Gold.PLP.ligand.clash>
0.0000

> <Gold.PLP.ligand.torsion>
0.9071

> <Gold.PLP.Chemscore.Hbond>
2.4956

> <Gold.PLP.Chemscore.CHOScore>
0.0000

> <Gold.PLP.Chemscore.Metal>
0.0000

> <Gold.Chemscore.Hbonds>
donor molecule, donor type, donor heavy atom, donor atom, acceptor molecule, acceptor atom, score
      L1  H     9    30       P1  7948  1.00
      L1  H    12    31       P1  7948  0.94
      P1  H  8011  8017       L1    18  0.61

> <Gold.PLP.Chemscore.Internal.Correction>
0.0628

> <Gold.Rescore>
     Score         DG    S(hbond)    S(metal)    S(lipo)     H(rot)  DE(clash)    DE(int)     intcor
     13.49     -16.25       1.73        0.00      76.03       1.52       0.61       2.15       ----

> <Gold.Chemscore.Fitness>
13.4857

> <Gold.Chemscore.DG>
-16.2533

> <Gold.Chemscore.ZeroCoef>
-5.4800

> <Gold.Chemscore.Hbond>
1.7253

> <Gold.Chemscore.Metal>
0.0000

> <Gold.Chemscore.Lipo>
76.0338

> <Gold.Chemscore.Internal_Hbond>
0.0000

> <Gold.Chemscore.DEClash>
0.6132

> <Gold.Chemscore.DEInternal>
2.1544

> <Gold.Chemscore.Rot>
1.5176

> <Gold.Chemscore.Internal.Correction>
   9.000000E+99

> <Gold.Chemscore.Hbonds>
donor molecule, donor type, donor heavy atom, donor atom, acceptor molecule, acceptor atom, score
      L1  H     9    30       P1  7948  0.25
      L1  H    12    31       P1  7948  0.60
      P1  H  8011  8017       L1    18  0.58

> <Gold.Chemscore.Hbond.Weighted>
-5.7625

> <Gold.Chemscore.Metal.Weighted>
-0.0000

> <Gold.Chemscore.Lipo.Weighted>
-8.8960

> <Gold.Chemscore.Internal_Hbond.Weighted>
0.0000

> <Gold.Chemscore.DEClash.Weighted>
0.6132

> <Gold.Chemscore.DEInternal.Weighted>
2.1544

> <Gold.Chemscore.Rot.Weighted>
3.8851

> <Gold.Chemscore.Internal.Correction.Weighted>
   9.000000E+99

> <Gold.Protein.RotatedTorsions>
[ 6907 6896 6895 6894 ] final   12.85 input  -60.11 | X-H torsion
[ 7974 7965 7964 7962 ] final  -20.02 input  175.53 | X-H torsion
[ 8008 7997 7996 7995 ] final -146.68 input   59.86 | X-H torsion
[ 10167 10162 10161 10158 ] final -105.37 input  -65.29 | X-H torsion
[ 10718 10713 10712 10709 ] final   28.23 input   66.30 | X-H torsion
[ 10763 10752 10751 10750 ] final   56.37 input  -60.55 | X-H torsion
[ 11005 11000 10999 10996 ] final    3.17 input  -57.11 | X-H torsion

> <Gold.Protein.ActiveResidues>
 VAL166  LYS551  ARG553  GLY616  TRP617  ASP618  TYR619  PRO620  LYS621  CYS622 
 ASP623  PHE694  ASN695  SER759  ASP760  ASP761  ALA762  ILE779  LEU786  VAL792 
 PHE793  MET794  SER795  GLU796  ALA797  LYS798  CYS799  TRP800  GLU811  SER814 

> <Gold.Protein.RotatedAtoms>
  151.7769  135.0772  160.0367 H   0  0  0  0  0  0  0  0  0  0  0  0  # atno 6907 bound_to 6896
  152.3250  133.5890  159.5778 H   0  0  0  0  0  0  0  0  0  0  0  0  # atno 6908 bound_to 6896
  150.7390  133.9870  159.3636 H   0  0  0  0  0  0  0  0  0  0  0  0  # atno 6909 bound_to 6896
  146.1810  140.4144  142.8494 H   0  0  0  0  0  0  0  0  0  0  0  0  # atno 7974 bound_to 7965
  155.5632  140.0627  157.2824 H   0  0  0  0  0  0  0  0  0  0  0  0  # atno 8008 bound_to 7997
  154.4384  140.1882  156.0849 H   0  0  0  0  0  0  0  0  0  0  0  0  # atno 8009 bound_to 7997
  156.0431  140.3293  155.7270 H   0  0  0  0  0  0  0  0  0  0  0  0  # atno 8010 bound_to 7997
  140.1993  143.3831  152.1143 H   0  0  0  0  0  0  0  0  0  0  0  0  # atno 10167 bound_to 10162
  157.2306  130.7022  149.6312 H   0  0  0  0  0  0  0  0  0  0  0  0  # atno 10718 bound_to 10713
  152.9831  135.5678  154.5218 H   0  0  0  0  0  0  0  0  0  0  0  0  # atno 10763 bound_to 10752
  154.4705  135.2784  155.1648 H   0  0  0  0  0  0  0  0  0  0  0  0  # atno 10764 bound_to 10752
  154.3198  135.6271  153.5556 H   0  0  0  0  0  0  0  0  0  0  0  0  # atno 10765 bound_to 10752
  140.5961  133.9879  155.8111 H   0  0  0  0  0  0  0  0  0  0  0  0  # atno 11005 bound_to 11000
  144.8316  140.6715  143.6287 LP  0  0  0  0  0  0  0  0  0  0  0  0  # atno 17320 bound_to 7965
  145.4075  139.1586  143.4144 LP  0  0  0  0  0  0  0  0  0  0  0  0  # atno 17321 bound_to 7965
  139.5224  144.7058  151.5358 LP  0  0  0  0  0  0  0  0  0  0  0  0  # atno 17342 bound_to 10162
  140.6402  143.8904  150.6684 LP  0  0  0  0  0  0  0  0  0  0  0  0  # atno 17343 bound_to 10162
  155.9675  130.4490  150.5641 LP  0  0  0  0  0  0  0  0  0  0  0  0  # atno 17370 bound_to 10713
  157.3481  131.0729  151.1735 LP  0  0  0  0  0  0  0  0  0  0  0  0  # atno 17371 bound_to 10713
  141.0903  133.9927  157.3248 LP  0  0  0  0  0  0  0  0  0  0  0  0  # atno 17394 bound_to 11000
  139.9252  135.0201  156.8210 LP  0  0  0  0  0  0  0  0  0  0  0  0  # atno 17395 bound_to 11000

$$$$
