#       Name:                AV-unprocessed.smi:3068
#       Creating user name   scv26
#       Creation time:       Fri Mar 27 17:11:22 2020


#       File generated by GOLD software.
#

@<TRIPOS>MOLECULE
AV-unprocessed.smi:3068
    45    47     1
SMALL
NO_CHARGES


@<TRIPOS>ATOM
      1 ****        -1.9665  -5.4884   1.9920 N.1            1 S1                 0.0000
      2 ****        -2.4626  -4.4431   1.9712 C.1            1 S1                 0.0000
      3 ****        -3.0867  -3.1264   1.9453 C.ar           1 S1                 0.0000
      4 ****        -4.4293  -3.0937   1.7786 N.ar           1 S1                 0.0000
      5 ****        -5.0198  -1.8800   1.7524 C.ar           1 S1                 0.0000
      6 ****        -4.2741  -0.6938   1.8940 C.ar           1 S1                 0.0000
      7 ****        -2.9351  -0.7172   2.0621 N.ar           1 S1                 0.0000
      8 ****        -2.3277  -1.9302   2.0867 C.ar           1 S1                 0.0000
      9 ****        -0.9320  -1.9715   2.2629 N.pl3          1 S1                 0.0000
     10 ****        -0.1125  -0.7681   2.1789 C.3            1 S1                 0.0000
     11 ****         0.0956  -0.2986   0.7297 C.3            1 S1                 0.0000
     12 ****         0.7995   1.0694   0.6713 C.3            1 S1                 0.0000
     13 ****         1.0657   1.4850  -0.6999 N.3            1 S1                 0.0000
     14 ****         1.7400   2.7814  -0.7414 C.3            1 S1                 0.0000
     15 ****         2.0009   3.2598  -2.1785 C.3            1 S1                 0.0000
     16 ****         2.8159   2.2116  -2.9494 C.3            1 S1                 0.0000
     17 ****         2.1317   0.8390  -2.8565 C.3            1 S1                 0.0000
     18 ****         1.8548   0.4584  -1.3873 C.3            1 S1                 0.0000
     19 ****         1.1629  -0.9174  -1.3021 C.3            1 S1                 0.0000
     20 ****         0.9161  -1.2526   0.0597 O.3            1 S1                 0.0000
     21 ****        -6.0913  -1.8553   1.6191 H              1 S1                 0.0000
     22 ****        -4.7517   0.2745   1.8729 H              1 S1                 0.0000
     23 ****        -0.4623  -2.8653   2.2322 H              1 S1                 0.0000
     24 ****        -0.5681   0.0246   2.7734 H              1 S1                 0.0000
     25 ****         0.8528  -0.9755   2.6416 H              1 S1                 0.0000
     26 ****        -0.8667  -0.2262   0.2201 H              1 S1                 0.0000
     27 ****         0.1791   1.8174   1.1666 H              1 S1                 0.0000
     28 ****         1.7349   1.0203   1.2311 H              1 S1                 0.0000
     29 ****         1.1343   3.5258  -0.2232 H              1 S1                 0.0000
     30 ****         2.6864   2.7240  -0.2016 H              1 S1                 0.0000
     31 ****         1.0504   3.4331  -2.6847 H              1 S1                 0.0000
     32 ****         2.5280   4.2139  -2.1683 H              1 S1                 0.0000
     33 ****         2.9289   2.5098  -3.9919 H              1 S1                 0.0000
     34 ****         3.8207   2.1486  -2.5300 H              1 S1                 0.0000
     35 ****         1.1942   0.8623  -3.4138 H              1 S1                 0.0000
     36 ****         2.7571   0.0824  -3.3317 H              1 S1                 0.0000
     37 ****         2.8181   0.3690  -0.8818 H              1 S1                 0.0000
     38 ****         0.2228  -0.9178  -1.8563 H              1 S1                 0.0000
     39 ****         1.7940  -1.6893  -1.7429 H              1 S1                 0.0000
     40 ****        -1.5378  -6.3917   2.0100 LP             1 S1                 0.0000
     41 ****        -4.9620  -3.9341   1.6789 LP             1 S1                 0.0000
     42 ****        -2.4103   0.1279   2.1647 LP             1 S1                 0.0000
     43 ****         0.1919   1.5905  -1.1745 LP             1 S1                 0.0000
     44 ****         0.4606  -2.1423   0.0911 LP             1 S1                 0.0000
     45 ****         1.7928  -1.3099   0.5374 LP             1 S1                 0.0000
@<TRIPOS>BOND
    1    1    2 3     
    2    2    3 1     
    3    3    8 ar    
    4    3    4 ar    
    5    4    5 ar    
    6    5    6 ar    
    7    5   21 1     
    8    6    7 ar    
    9    6   22 1     
   10    7    8 ar    
   11    8    9 1     
   12    9   10 1     
   13    9   23 1     
   14   10   11 1     
   15   10   24 1     
   16   10   25 1     
   17   11   20 1     
   18   11   12 1     
   19   11   26 1     
   20   12   13 1     
   21   12   27 1     
   22   12   28 1     
   23   13   18 1     
   24   13   14 1     
   25   14   15 1     
   26   14   29 1     
   27   14   30 1     
   28   15   16 1     
   29   15   31 1     
   30   15   32 1     
   31   16   17 1     
   32   16   33 1     
   33   16   34 1     
   34   17   18 1     
   35   17   35 1     
   36   17   36 1     
   37   18   19 1     
   38   18   37 1     
   39   19   20 1     
   40   19   38 1     
   41   19   39 1     
   42    1   40 1     
   43    4   41 1     
   44    7   42 1     
   45   13   43 1     
   46   20   44 1     
   47   20   45 1     
@<TRIPOS>SUBSTRUCTURE
      1 S1             1
@<TRIPOS>SET
LONE_PAIRS      STATIC     ATOMS    <user>   **** ""
6 40 41 42 43 44 45
DONOR_HYDROGENS      STATIC     ATOMS    <user>   **** ""
1 23
ATOM$BLUE        STATIC     ATOMS    COLORGROUP SYSTEM
6 40 41 42 43 44 45
ATOM$RED        STATIC     ATOMS    COLORGROUP SYSTEM
1 23
