AV-unprocessed.smi:2061|AV-procd|sdf|8369|dock3
  -GOLD-   2272011 43D 1   1.00000     0.00000
 Structure written by MMmdl.
 46 47  0  0  0  0  0  0  0  0  2 V2000
  152.5726  139.5690  158.1264 C   0  0  0  0  0  0  0  0  0  0  0  0
  152.0323  139.3173  156.7607 C   0  0  0  0  0  0  0  0  0  0  0  0
  150.8145  138.8975  156.3044 C   0  0  0  0  0  0  0  0  0  0  0  0
  150.9931  138.8703  154.8958 C   0  0  0  0  0  0  0  0  0  0  0  0
  149.9387  138.4716  154.0350 N   0  0  0  0  0  0  0  0  0  0  0  0
  148.6662  138.9040  154.0469 C   0  0  0  0  0  0  0  0  0  0  0  0
  148.2000  139.7210  154.8415 O   0  0  0  0  0  0  0  0  0  0  0  0
  147.9460  138.3357  153.0690 N   0  0  0  0  0  0  0  0  0  0  0  0
  146.5349  138.6083  152.8114 C   0  0  0  0  0  0  0  0  0  0  0  0
  145.9223  137.6777  151.7313 C   0  0  1  0  0  0  0  0  0  0  0  0
  146.4483  138.0691  150.3290 C   0  0  0  0  0  0  0  0  0  0  0  0
  146.1697  136.2434  152.0916 N   0  3  1  0  0  0  0  0  0  0  0  0
  145.6878  135.9159  153.4606 C   0  0  0  0  0  0  0  0  0  0  0  0
  146.0586  134.4774  153.8675 C   0  0  2  0  0  0  0  0  0  0  0  0
  147.5545  134.2897  154.1769 C   0  0  0  0  0  0  0  0  0  0  0  0
  145.5838  133.5564  152.8886 O   0  0  0  0  0  0  0  0  0  0  0  0
  146.0486  133.8063  151.5668 C   0  0  1  0  0  0  0  0  0  0  0  0
  145.4458  132.7377  150.6477 C   0  0  0  0  0  0  0  0  0  0  0  0
  145.6525  135.2299  151.1327 C   0  0  0  0  0  0  0  0  0  0  0  0
  152.2089  139.2420  154.5254 N   0  0  0  0  0  0  0  0  0  0  0  0
  152.8810  139.5307  155.7189 O   0  0  0  0  0  0  0  0  0  0  0  0
  151.8111  139.3904  158.8859 H   0  0  0  0  0  0  0  0  0  0  0  0
  152.9127  140.6000  158.2240 H   0  0  0  0  0  0  0  0  0  0  0  0
  153.4174  138.9121  158.3344 H   0  0  0  0  0  0  0  0  0  0  0  0
  149.9407  138.6487  156.8878 H   0  0  0  0  0  0  0  0  0  0  0  0
  150.1837  137.7940  153.3283 H   0  0  0  0  0  0  0  0  0  0  0  0
  148.4040  137.6732  152.4601 H   0  0  0  0  0  0  0  0  0  0  0  0
  145.9949  138.4846  153.7507 H   0  0  0  0  0  0  0  0  0  0  0  0
  146.4358  139.6606  152.5470 H   0  0  0  0  0  0  0  0  0  0  0  0
  144.8414  137.8262  151.7083 H   0  0  0  0  0  0  0  0  0  0  0  0
  146.2701  139.1219  150.1112 H   0  0  0  0  0  0  0  0  0  0  0  0
  145.9458  137.5160  149.5352 H   0  0  0  0  0  0  0  0  0  0  0  0
  147.5214  137.8961  150.2421 H   0  0  0  0  0  0  0  0  0  0  0  0
  146.0853  136.6086  154.2004 H   0  0  0  0  0  0  0  0  0  0  0  0
  144.6027  136.0283  153.4878 H   0  0  0  0  0  0  0  0  0  0  0  0
  145.5172  134.2436  154.7848 H   0  0  0  0  0  0  0  0  0  0  0  0
  147.8539  134.9081  155.0234 H   0  0  0  0  0  0  0  0  0  0  0  0
  148.1908  134.5650  153.3363 H   0  0  0  0  0  0  0  0  0  0  0  0
  147.7705  133.2527  154.4354 H   0  0  0  0  0  0  0  0  0  0  0  0
  147.1335  133.7034  151.5331 H   0  0  0  0  0  0  0  0  0  0  0  0
  145.7760  132.8726  149.6175 H   0  0  0  0  0  0  0  0  0  0  0  0
  144.3561  132.7764  150.6575 H   0  0  0  0  0  0  0  0  0  0  0  0
  145.7455  131.7380  150.9630 H   0  0  0  0  0  0  0  0  0  0  0  0
  144.5674  135.3190  151.0572 H   0  0  0  0  0  0  0  0  0  0  0  0
  146.0656  135.3907  150.1375 H   0  0  0  0  0  0  0  0  0  0  0  0
  147.1728  136.1266  152.0965 H   0  0  0  0  0  0  0  0  0  0  0  0
  1  2  1  0  0  0  0
  1 22  1  0  0  0  0
  1 23  1  0  0  0  0
  1 24  1  0  0  0  0
  2 21  1  0  0  0  0
  2  3  2  0  0  0  0
  3  4  1  0  0  0  0
  3 25  1  0  0  0  0
  4  5  1  0  0  0  0
  4 20  2  0  0  0  0
  5  6  1  0  0  0  0
  5 26  1  0  0  0  0
  6  7  2  0  0  0  0
  6  8  1  0  0  0  0
  8  9  1  0  0  0  0
  8 27  1  0  0  0  0
  9 10  1  0  0  0  0
  9 28  1  0  0  0  0
  9 29  1  0  0  0  0
 10 11  1  0  0  0  0
 10 12  1  0  0  0  0
 10 30  1  0  0  0  0
 11 31  1  0  0  0  0
 11 32  1  0  0  0  0
 11 33  1  0  0  0  0
 12 19  1  0  0  0  0
 12 13  1  0  0  0  0
 12 46  1  0  0  0  0
 13 14  1  0  0  0  0
 13 34  1  0  0  0  0
 13 35  1  0  0  0  0
 14 15  1  0  0  0  0
 14 16  1  0  0  0  0
 14 36  1  0  0  0  0
 15 37  1  0  0  0  0
 15 38  1  0  0  0  0
 15 39  1  0  0  0  0
 16 17  1  0  0  0  0
 17 18  1  0  0  0  0
 17 19  1  0  0  0  0
 17 40  1  0  0  0  0
 18 41  1  0  0  0  0
 18 42  1  0  0  0  0
 18 43  1  0  0  0  0
 19 44  1  0  0  0  0
 19 45  1  0  0  0  0
 20 21  1  0  0  0  0
M  CHG  1  12   1
M  END
> <s_m_source_file>
AV-unprocessed.smi

> <i_m_source_file_index>
2061

> <i_lp_mmshare_version>
43012

> <i_f3d_flags>
0

> <s_epik_input>
W0NIM11jMVtjSF1jKG5vMSlbTkhdQyg9TylbTkhdW0NIMl1bQ0BIXShbQ0gzXSlOMltDSDJdW0NAQEhdKFtDSDNdKU9bQ0BASF0oW0NIM10pW0NIMl0y

> <s_epik_cmdline>
J2VwaWtfcHl0aG9uJywgJy1waCcsICc3LjAnLCAnLXRuJywgJzgnLCAnLW1hJywgJzIwMCcsICctbWV0YWxfYmluZGluZycsICctaW1hZScsICc8aW5maWxlLm1hZT4nLCAnLW9tYWUnLCAnPG91dGZpbGUubWFlPic=

> <r_epik_Ionization_Penalty>
0.707076

> <r_epik_Ionization_Penalty_Charging>
0.707039

> <r_epik_Ionization_Penalty_Neutral>
3.6548e-05

> <r_epik_State_Penalty>
0.730276

> <r_epik_Charging_Adjusted_Penalty>
1.43732

> <i_epik_Tot_Q>
1

> <i_epik_Tot_abs_Q>
1

> <r_epik_Metal_State_Penalty>
0.743132

> <b_epik_Metal_Only>
0

> <s_lp_Force_Field>
OPLS_2005

> <r_lp_Energy>
19.7872

> <b_lp_Chiralities_Consistent>
1

> <s_lp_Variant>
AV-unprocessed.smi:2061-10

> <Gold.Version>
5.8.1

> <Gold.Id.Protein>
6NUR|6NUR_protein|mol2

> <Gold.PLP.Fitness>
39.5930

> <Gold.PLP.PLP>
-26.0354

> <Gold.PLP.part.hbond>
-4.8423

> <Gold.PLP.part.metal>
0.0000

> <Gold.PLP.part.buried>
3.4191

> <Gold.PLP.part.nonpolar>
-25.5033

> <Gold.PLP.part.repulsive>
0.3418

> <Gold.PLP.ligand.clash>
0.0000

> <Gold.PLP.ligand.torsion>
0.5179

> <Gold.PLP.Chemscore.Hbond>
4.8480

> <Gold.PLP.Chemscore.CHOScore>
0.0000

> <Gold.PLP.Chemscore.Metal>
0.0000

> <Gold.Chemscore.Hbonds>
donor molecule, donor type, donor heavy atom, donor atom, acceptor molecule, acceptor atom, score
      L1  H     5    26       P1  7948  0.01
      L1  H     8    27       P1  7948  1.00
      L1  H    12    46       P1  7948  2.00
      P1  H  7989  7998       L1    20  0.67
      P1  H  7997  8008       L1    21  1.00

> <Gold.PLP.Chemscore.Internal.Correction>
0.0494

> <Gold.Rescore>
     Score         DG    S(hbond)    S(metal)    S(lipo)     H(rot)  DE(clash)    DE(int)     intcor
     18.29     -21.76       3.76        0.00      66.40       1.58       2.88       0.59       ----

> <Gold.Chemscore.Fitness>
18.2905

> <Gold.Chemscore.DG>
-21.7618

> <Gold.Chemscore.ZeroCoef>
-5.4800

> <Gold.Chemscore.Hbond>
3.7624

> <Gold.Chemscore.Metal>
0.0000

> <Gold.Chemscore.Lipo>
66.3992

> <Gold.Chemscore.Internal_Hbond>
0.0000

> <Gold.Chemscore.DEClash>
2.8778

> <Gold.Chemscore.DEInternal>
0.5936

> <Gold.Chemscore.Rot>
1.5834

> <Gold.Chemscore.Internal.Correction>
   9.000000E+99

> <Gold.Chemscore.Hbonds>
donor molecule, donor type, donor heavy atom, donor atom, acceptor molecule, acceptor atom, score
      L1  H     5    26       P1  7948  0.01
      L1  H     8    27       P1  7948  0.99
      L1  H    12    46       P1  7948  1.00
      P1  H  7989  7998       L1    20  0.10
      P1  H  7997  8008       L1    21  0.54

> <Gold.Chemscore.Hbond.Weighted>
-12.5666

> <Gold.Chemscore.Metal.Weighted>
-0.0000

> <Gold.Chemscore.Lipo.Weighted>
-7.7687

> <Gold.Chemscore.Internal_Hbond.Weighted>
0.0000

> <Gold.Chemscore.DEClash.Weighted>
2.8778

> <Gold.Chemscore.DEInternal.Weighted>
0.5936

> <Gold.Chemscore.Rot.Weighted>
4.0535

> <Gold.Chemscore.Internal.Correction.Weighted>
   9.000000E+99

> <Gold.Protein.RotatedTorsions>
[ 6907 6896 6895 6894 ] final  -54.03 input  -60.11 | X-H torsion
[ 7974 7965 7964 7962 ] final  143.13 input  175.53 | X-H torsion
[ 8008 7997 7996 7995 ] final  -47.96 input   59.86 | X-H torsion
[ 10167 10162 10161 10158 ] final  154.84 input  -65.29 | X-H torsion
[ 10718 10713 10712 10709 ] final   19.82 input   66.30 | X-H torsion
[ 10763 10752 10751 10750 ] final   17.58 input  -60.55 | X-H torsion
[ 11005 11000 10999 10996 ] final -123.26 input  -57.11 | X-H torsion

> <Gold.Protein.ActiveResidues>
 VAL166  LYS551  ARG553  GLY616  TRP617  ASP618  TYR619  PRO620  LYS621  CYS622 
 ASP623  PHE694  ASN695  SER759  ASP760  ASP761  ALA762  ILE779  LEU786  VAL792 
 PHE793  MET794  SER795  GLU796  ALA797  LYS798  CYS799  TRP800  GLU811  SER814 

> <Gold.Protein.RotatedAtoms>
  150.8374  134.7653  159.6904 H   0  0  0  0  0  0  0  0  0  0  0  0  # atno 6907 bound_to 6896
  152.4468  134.5474  159.9866 H   0  0  0  0  0  0  0  0  0  0  0  0  # atno 6908 bound_to 6896
  151.5621  133.3364  159.3009 H   0  0  0  0  0  0  0  0  0  0  0  0  # atno 6909 bound_to 6896
  144.8948  139.5507  143.5781 H   0  0  0  0  0  0  0  0  0  0  0  0  # atno 7974 bound_to 7965
  154.4023  140.1333  156.4261 H   0  0  0  0  0  0  0  0  0  0  0  0  # atno 8008 bound_to 7997
  155.7596  140.3486  155.5171 H   0  0  0  0  0  0  0  0  0  0  0  0  # atno 8009 bound_to 7997
  155.8872  140.0997  157.1434 H   0  0  0  0  0  0  0  0  0  0  0  0  # atno 8010 bound_to 7997
  139.4822  144.5151  151.7964 H   0  0  0  0  0  0  0  0  0  0  0  0  # atno 10167 bound_to 10162
  157.1158  130.6528  149.5910 H   0  0  0  0  0  0  0  0  0  0  0  0  # atno 10718 bound_to 10713
  153.1326  135.6743  153.9154 H   0  0  0  0  0  0  0  0  0  0  0  0  # atno 10763 bound_to 10752
  153.8635  135.3078  155.3440 H   0  0  0  0  0  0  0  0  0  0  0  0  # atno 10764 bound_to 10752
  154.7720  135.4934  153.9750 H   0  0  0  0  0  0  0  0  0  0  0  0  # atno 10765 bound_to 10752
  140.9932  134.0509  157.3629 H   0  0  0  0  0  0  0  0  0  0  0  0  # atno 11005 bound_to 11000
  146.3075  139.7629  142.9045 LP  0  0  0  0  0  0  0  0  0  0  0  0  # atno 17320 bound_to 7965
  145.3720  141.0344  143.3226 LP  0  0  0  0  0  0  0  0  0  0  0  0  # atno 17321 bound_to 7965
  140.4658  144.1657  150.5911 LP  0  0  0  0  0  0  0  0  0  0  0  0  # atno 17342 bound_to 10162
  140.4435  143.2516  151.9441 LP  0  0  0  0  0  0  0  0  0  0  0  0  # atno 17343 bound_to 10162
  155.9840  130.4862  150.6960 LP  0  0  0  0  0  0  0  0  0  0  0  0  # atno 17370 bound_to 10713
  157.4519  131.0873  151.0836 LP  0  0  0  0  0  0  0  0  0  0  0  0  # atno 17371 bound_to 10713
  139.9002  135.0161  156.7232 LP  0  0  0  0  0  0  0  0  0  0  0  0  # atno 17394 bound_to 11000
  140.7007  133.9309  155.8022 LP  0  0  0  0  0  0  0  0  0  0  0  0  # atno 17395 bound_to 11000

$$$$
