AV-unprocessed.smi:1093|AV-procd|sdf|4744|dock7
  -GOLD-   22720 3283D 1   1.00000     0.00000
 Structure written by MMmdl.
 47 48  0  0  0  0  0  0  0  0  2 V2000
  146.1246  131.7342  151.8226 C   0  0  0  0  0  0  0  0  0  0  0  0
  147.2476  132.7759  151.9280 C   0  0  0  0  0  0  0  0  0  0  0  0
  146.7258  134.1644  151.9682 N   0  3  1  0  0  0  0  0  0  0  0  0
  145.9499  134.5162  150.7506 C   0  0  0  0  0  0  0  0  0  0  0  0
  145.5559  136.0038  150.7513 C   0  0  0  0  0  0  0  0  0  0  0  0
  144.8027  136.3856  152.0368 C   0  0  0  0  0  0  0  0  0  0  0  0
  145.5971  135.9669  153.2868 C   0  0  2  0  0  0  0  0  0  0  0  0
  146.7932  136.7997  153.4199 N   0  0  0  0  0  0  0  0  0  0  0  0
  147.0955  137.5592  154.4826 C   0  0  0  0  0  0  0  0  0  0  0  0
  146.3886  137.6287  155.4875 O   0  0  0  0  0  0  0  0  0  0  0  0
  148.2653  138.1966  154.3075 N   0  0  0  0  0  0  0  0  0  0  0  0
  148.9321  139.0774  155.2007 C   0  0  0  0  0  0  0  0  0  0  0  0
  148.9615  138.9175  156.6050 C   0  0  0  0  0  0  0  0  0  0  0  0
  149.6426  139.8700  157.3871 C   0  0  0  0  0  0  0  0  0  0  0  0
  150.2747  140.9679  156.7519 C   0  0  0  0  0  0  0  0  0  0  0  0
  150.9727  141.9486  157.4933 N   0  0  0  0  0  0  0  0  0  0  0  0
  151.5397  141.6080  158.7941 C   0  0  0  0  0  0  0  0  0  0  0  0
  151.1953  143.2740  156.9288 C   0  0  0  0  0  0  0  0  0  0  0  0
  150.2304  141.1212  155.4058 N   0  0  0  0  0  0  0  0  0  0  0  0
  149.5752  140.2078  154.6606 C   0  0  0  0  0  0  0  0  0  0  0  0
  145.9504  134.4655  153.2010 C   0  0  0  0  0  0  0  0  0  0  0  0
  146.5326  130.7250  151.8789 H   0  0  0  0  0  0  0  0  0  0  0  0
  145.5792  131.8089  150.8821 H   0  0  0  0  0  0  0  0  0  0  0  0
  145.4073  131.8449  152.6363 H   0  0  0  0  0  0  0  0  0  0  0  0
  147.8007  132.5724  152.8460 H   0  0  0  0  0  0  0  0  0  0  0  0
  147.9582  132.6648  151.1077 H   0  0  0  0  0  0  0  0  0  0  0  0
  146.5426  134.3059  149.8595 H   0  0  0  0  0  0  0  0  0  0  0  0
  145.0581  133.8900  150.6935 H   0  0  0  0  0  0  0  0  0  0  0  0
  146.4519  136.6175  150.6521 H   0  0  0  0  0  0  0  0  0  0  0  0
  144.9379  136.2245  149.8803 H   0  0  0  0  0  0  0  0  0  0  0  0
  144.5978  137.4568  152.0523 H   0  0  0  0  0  0  0  0  0  0  0  0
  143.8316  135.8890  152.0447 H   0  0  0  0  0  0  0  0  0  0  0  0
  144.9691  136.1346  154.1636 H   0  0  0  0  0  0  0  0  0  0  0  0
  147.4300  136.8085  152.6362 H   0  0  0  0  0  0  0  0  0  0  0  0
  148.7703  137.9787  153.4610 H   0  0  0  0  0  0  0  0  0  0  0  0
  148.4664  138.0958  157.0988 H   0  0  0  0  0  0  0  0  0  0  0  0
  149.6628  139.7402  158.4584 H   0  0  0  0  0  0  0  0  0  0  0  0
  152.2782  140.8121  158.6924 H   0  0  0  0  0  0  0  0  0  0  0  0
  150.7586  141.2717  159.4765 H   0  0  0  0  0  0  0  0  0  0  0  0
  152.0333  142.4657  159.2509 H   0  0  0  0  0  0  0  0  0  0  0  0
  150.2454  143.7709  156.7303 H   0  0  0  0  0  0  0  0  0  0  0  0
  151.7557  143.2044  155.9961 H   0  0  0  0  0  0  0  0  0  0  0  0
  151.7637  143.9054  157.6115 H   0  0  0  0  0  0  0  0  0  0  0  0
  149.5714  140.3842  153.5949 H   0  0  0  0  0  0  0  0  0  0  0  0
  145.0372  133.8682  153.2068 H   0  0  0  0  0  0  0  0  0  0  0  0
  146.5100  134.1686  154.0870 H   0  0  0  0  0  0  0  0  0  0  0  0
  147.5338  134.7705  151.9739 H   0  0  0  0  0  0  0  0  0  0  0  0
  1  2  1  0  0  0  0
  1 22  1  0  0  0  0
  1 23  1  0  0  0  0
  1 24  1  0  0  0  0
  2  3  1  0  0  0  0
  2 25  1  0  0  0  0
  2 26  1  0  0  0  0
  3 21  1  0  0  0  0
  3  4  1  0  0  0  0
  3 47  1  0  0  0  0
  4  5  1  0  0  0  0
  4 27  1  0  0  0  0
  4 28  1  0  0  0  0
  5  6  1  0  0  0  0
  5 29  1  0  0  0  0
  5 30  1  0  0  0  0
  6  7  1  0  0  0  0
  6 31  1  0  0  0  0
  6 32  1  0  0  0  0
  7  8  1  0  0  0  0
  7 21  1  0  0  0  0
  7 33  1  0  0  0  0
  8  9  1  0  0  0  0
  8 34  1  0  0  0  0
  9 10  2  0  0  0  0
  9 11  1  0  0  0  0
 11 12  1  0  0  0  0
 11 35  1  0  0  0  0
 12 20  1  0  0  0  0
 12 13  2  0  0  0  0
 13 14  1  0  0  0  0
 13 36  1  0  0  0  0
 14 15  2  0  0  0  0
 14 37  1  0  0  0  0
 15 16  1  0  0  0  0
 15 19  1  0  0  0  0
 16 17  1  0  0  0  0
 16 18  1  0  0  0  0
 17 38  1  0  0  0  0
 17 39  1  0  0  0  0
 17 40  1  0  0  0  0
 18 41  1  0  0  0  0
 18 42  1  0  0  0  0
 18 43  1  0  0  0  0
 19 20  2  0  0  0  0
 20 44  1  0  0  0  0
 21 45  1  0  0  0  0
 21 46  1  0  0  0  0
M  CHG  1   3   1
M  END
> <s_m_source_file>
AV-unprocessed.smi

> <i_m_source_file_index>
1093

> <i_lp_mmshare_version>
43012

> <i_f3d_flags>
0

> <s_epik_input>
W0NIM11bQ0gyXU4xW0NIMl1bQ0gyXVtDSDJdW0NASF0oW0NIMl0xKVtOSF1DKD1PKVtOSF1jMltjSF1bY0hdYyhOKFtDSDNdKVtDSDNdKW5bY0hdMg==

> <s_epik_cmdline>
J2VwaWtfcHl0aG9uJywgJy1waCcsICc3LjAnLCAnLXRuJywgJzgnLCAnLW1hJywgJzIwMCcsICctbWV0YWxfYmluZGluZycsICctaW1hZScsICc8aW5maWxlLm1hZT4nLCAnLW9tYWUnLCAnPG91dGZpbGUubWFlPic=

> <r_lp_tautomer_probability>
1

> <r_epik_Ionization_Penalty>
0.489418

> <r_epik_Ionization_Penalty_Charging>
0.00268196

> <r_epik_Ionization_Penalty_Neutral>
0.486736

> <r_epik_State_Penalty>
0.491157

> <r_epik_Charging_Adjusted_Penalty>
0.493839

> <i_epik_Tot_Q>
1

> <i_epik_Tot_abs_Q>
1

> <r_epik_Metal_State_Penalty>
0.266953

> <b_epik_Metal_Only>
0

> <s_lp_Force_Field>
OPLS_2005

> <r_lp_Energy>
27.6013

> <b_lp_Chiralities_Consistent>
1

> <s_lp_Variant>
AV-unprocessed.smi:1093-7

> <Gold.Version>
5.8.1

> <Gold.Id.Protein>
6NUR|6NUR_protein|mol2

> <Gold.PLP.Fitness>
39.1426

> <Gold.PLP.PLP>
-27.3083

> <Gold.PLP.part.hbond>
-3.6697

> <Gold.PLP.part.metal>
0.0000

> <Gold.PLP.part.buried>
-1.2941

> <Gold.PLP.part.nonpolar>
-21.7311

> <Gold.PLP.part.repulsive>
0.1355

> <Gold.PLP.ligand.clash>
0.0000

> <Gold.PLP.ligand.torsion>
0.5531

> <Gold.PLP.Chemscore.Hbond>
3.3050

> <Gold.PLP.Chemscore.CHOScore>
1.0000

> <Gold.PLP.Chemscore.Metal>
0.0000

> <Gold.Chemscore.Hbonds>
donor molecule, donor type, donor heavy atom, donor atom, acceptor molecule, acceptor atom, score
      L1  H     3    47       P1  7948  2.00
      L1  H     8    34       P1  7948  1.00
      L1  H    11    35       P1  7948  0.15
      L1  C    20    44       P1  7957  1.00

> <Gold.PLP.Chemscore.Internal.Correction>
0.0254

> <Gold.Rescore>
     Score         DG    S(hbond)    S(metal)    S(lipo)     H(rot)  DE(clash)    DE(int)     intcor
     14.80     -17.20       1.97        0.00      69.93       1.18       1.51       0.89       ----

> <Gold.Chemscore.Fitness>
14.8032

> <Gold.Chemscore.DG>
-17.1976

> <Gold.Chemscore.ZeroCoef>
-5.4800

> <Gold.Chemscore.Hbond>
1.9662

> <Gold.Chemscore.Metal>
0.0000

> <Gold.Chemscore.Lipo>
69.9337

> <Gold.Chemscore.Internal_Hbond>
0.0000

> <Gold.Chemscore.DEClash>
1.5082

> <Gold.Chemscore.DEInternal>
0.8862

> <Gold.Chemscore.Rot>
1.1842

> <Gold.Chemscore.Internal.Correction>
   9.000000E+99

> <Gold.Chemscore.Hbonds>
donor molecule, donor type, donor heavy atom, donor atom, acceptor molecule, acceptor atom, score
      L1  H     3    47       P1  7948  0.72
      L1  H     8    34       P1  7948  0.94
      L1  H    11    35       P1  7948  0.16

> <Gold.Chemscore.Hbond.Weighted>
-6.5670

> <Gold.Chemscore.Metal.Weighted>
-0.0000

> <Gold.Chemscore.Lipo.Weighted>
-8.1822

> <Gold.Chemscore.Internal_Hbond.Weighted>
0.0000

> <Gold.Chemscore.DEClash.Weighted>
1.5082

> <Gold.Chemscore.DEInternal.Weighted>
0.8862

> <Gold.Chemscore.Rot.Weighted>
3.0317

> <Gold.Chemscore.Internal.Correction.Weighted>
   9.000000E+99

> <Gold.Protein.RotatedTorsions>
[ 6907 6896 6895 6894 ] final  -10.74 input  -60.11 | X-H torsion
[ 7974 7965 7964 7962 ] final  171.59 input  175.53 | X-H torsion
[ 8008 7997 7996 7995 ] final  145.89 input   59.86 | X-H torsion
[ 10167 10162 10161 10158 ] final   97.28 input  -65.29 | X-H torsion
[ 10718 10713 10712 10709 ] final   12.42 input   66.30 | X-H torsion
[ 10763 10752 10751 10750 ] final -134.39 input  -60.55 | X-H torsion
[ 11005 11000 10999 10996 ] final  130.57 input  -57.11 | X-H torsion

> <Gold.Protein.ActiveResidues>
 VAL166  LYS551  ARG553  GLY616  TRP617  ASP618  TYR619  PRO620  LYS621  CYS622 
 ASP623  PHE694  ASN695  SER759  ASP760  ASP761  ALA762  ILE779  LEU786  VAL792 
 PHE793  MET794  SER795  GLU796  ALA797  LYS798  CYS799  TRP800  GLU811  SER814 

> <Gold.Protein.RotatedAtoms>
  151.3972  135.0965  159.9544 H   0  0  0  0  0  0  0  0  0  0  0  0  # atno 6907 bound_to 6896
  152.5061  133.8923  159.7410 H   0  0  0  0  0  0  0  0  0  0  0  0  # atno 6908 bound_to 6896
  150.9389  133.6623  159.2823 H   0  0  0  0  0  0  0  0  0  0  0  0  # atno 6909 bound_to 6896
  144.7290  139.9373  143.6427 H   0  0  0  0  0  0  0  0  0  0  0  0  # atno 7974 bound_to 7965
  156.2871  140.2197  156.5288 H   0  0  0  0  0  0  0  0  0  0  0  0  # atno 8008 bound_to 7997
  154.7466  140.0483  157.0879 H   0  0  0  0  0  0  0  0  0  0  0  0  # atno 8009 bound_to 7997
  155.0163  140.3119  155.4813 H   0  0  0  0  0  0  0  0  0  0  0  0  # atno 8010 bound_to 7997
  139.7816  144.6886  151.0015 H   0  0  0  0  0  0  0  0  0  0  0  0  # atno 10167 bound_to 10162
  157.0099  130.6113  149.5707 H   0  0  0  0  0  0  0  0  0  0  0  0  # atno 10718 bound_to 10713
  154.8720  135.3736  154.4727 H   0  0  0  0  0  0  0  0  0  0  0  0  # atno 10763 bound_to 10752
  153.5386  135.7027  153.5652 H   0  0  0  0  0  0  0  0  0  0  0  0  # atno 10764 bound_to 10752
  153.3824  135.3993  155.1831 H   0  0  0  0  0  0  0  0  0  0  0  0  # atno 10765 bound_to 10752
  139.9680  134.9585  156.9313 H   0  0  0  0  0  0  0  0  0  0  0  0  # atno 11005 bound_to 11000
  146.0811  139.3799  143.0463 LP  0  0  0  0  0  0  0  0  0  0  0  0  # atno 17320 bound_to 7965
  145.7839  140.9844  143.1085 LP  0  0  0  0  0  0  0  0  0  0  0  0  # atno 17321 bound_to 7965
  140.7818  143.4477  151.0458 LP  0  0  0  0  0  0  0  0  0  0  0  0  # atno 17342 bound_to 10162
  139.8157  143.7889  152.3174 LP  0  0  0  0  0  0  0  0  0  0  0  0  # atno 17343 bound_to 10162
  156.0140  130.5233  150.8077 LP  0  0  0  0  0  0  0  0  0  0  0  0  # atno 17370 bound_to 10713
  157.5328  131.0937  150.9932 LP  0  0  0  0  0  0  0  0  0  0  0  0  # atno 17371 bound_to 10713
  140.5355  134.0771  155.7327 LP  0  0  0  0  0  0  0  0  0  0  0  0  # atno 17394 bound_to 11000
  141.1359  133.9222  157.2434 LP  0  0  0  0  0  0  0  0  0  0  0  0  # atno 17395 bound_to 11000

$$$$
