AV-unprocessed.smi:1492|AV-procd|sdf|6039|dock1
  -GOLD-   22720 6143D 1   1.00000     0.00000
 Structure written by MMmdl.
 53 54  0  0  0  0  0  0  0  0  2 V2000
  146.5442  132.9915  156.3736 C   0  0  0  0  0  0  0  0  0  0  0  0
  146.1508  133.0779  154.8879 C   0  0  0  0  0  0  0  0  0  0  0  0
  147.0041  134.0541  154.0203 C   0  0  2  0  0  0  0  0  0  0  0  0
  148.4708  133.5506  154.0670 C   0  0  0  0  0  0  0  0  0  0  0  0
  146.9274  135.4866  154.6346 C   0  0  0  0  0  0  0  0  0  0  0  0
  147.9279  136.4057  154.0955 N   0  0  0  0  0  0  0  0  0  0  0  0
  148.1825  137.6453  154.5419 C   0  0  0  0  0  0  0  0  0  0  0  0
  147.5797  138.1683  155.4784 O   0  0  0  0  0  0  0  0  0  0  0  0
  149.2767  138.4175  153.8041 C   0  0  0  0  0  0  0  0  0  0  0  0
  149.8757  139.5969  154.5681 C   0  0  0  0  0  0  0  0  0  0  0  0
  151.0558  139.5180  155.2499 C   0  0  0  0  0  0  0  0  0  0  0  0
  151.8848  138.2472  155.3160 C   0  0  0  0  0  0  0  0  0  0  0  0
  151.5798  140.6191  155.9416 N   0  0  0  0  0  0  0  0  0  0  0  0
  150.9221  141.7314  155.9292 C   0  0  0  0  0  0  0  0  0  0  0  0
  151.3805  142.9914  156.6328 C   0  0  0  0  0  0  0  0  0  0  0  0
  149.7121  141.8787  155.2529 N   0  0  0  0  0  0  0  0  0  0  0  0
  149.1374  140.8748  154.5538 C   0  0  0  0  0  0  0  0  0  0  0  0
  148.0801  141.0606  153.9527 O   0  0  0  0  0  0  0  0  0  0  0  0
  146.5060  134.0577  152.5962 N   0  3  0  0  0  0  0  0  0  0  0  0
  146.3857  132.7224  151.9446 C   0  0  0  0  0  0  0  0  0  0  0  0
  146.0827  132.8813  150.4463 C   0  0  0  0  0  0  0  0  0  0  0  0
  144.8814  133.6211  150.2819 O   0  0  0  0  0  0  0  0  0  0  0  0
  144.9926  134.9301  150.8228 C   0  0  0  0  0  0  0  0  0  0  0  0
  145.2712  134.8507  152.3338 C   0  0  0  0  0  0  0  0  0  0  0  0
  149.2448  142.7734  155.2754 H   0  0  0  0  0  0  0  0  0  0  0  0
  145.8957  132.2890  156.8974 H   0  0  0  0  0  0  0  0  0  0  0  0
  146.4475  133.9539  156.8754 H   0  0  0  0  0  0  0  0  0  0  0  0
  147.5690  132.6444  156.5049 H   0  0  0  0  0  0  0  0  0  0  0  0
  146.1640  132.0759  154.4599 H   0  0  0  0  0  0  0  0  0  0  0  0
  145.1017  133.3733  154.8459 H   0  0  0  0  0  0  0  0  0  0  0  0
  148.7824  133.3073  155.0834 H   0  0  0  0  0  0  0  0  0  0  0  0
  149.1734  134.3012  153.7044 H   0  0  0  0  0  0  0  0  0  0  0  0
  148.6111  132.6518  153.4662 H   0  0  0  0  0  0  0  0  0  0  0  0
  145.9309  135.9123  154.5130 H   0  0  0  0  0  0  0  0  0  0  0  0
  147.1054  135.4518  155.7087 H   0  0  0  0  0  0  0  0  0  0  0  0
  148.4749  136.0708  153.3148 H   0  0  0  0  0  0  0  0  0  0  0  0
  150.0601  137.7166  153.5120 H   0  0  0  0  0  0  0  0  0  0  0  0
  148.8682  138.7771  152.8594 H   0  0  0  0  0  0  0  0  0  0  0  0
  151.3402  137.4624  155.8411 H   0  0  0  0  0  0  0  0  0  0  0  0
  152.8233  138.4137  155.8460 H   0  0  0  0  0  0  0  0  0  0  0  0
  152.1273  137.8918  154.3145 H   0  0  0  0  0  0  0  0  0  0  0  0
  152.3490  143.3065  156.2441 H   0  0  0  0  0  0  0  0  0  0  0  0
  151.4839  142.8082  157.7026 H   0  0  0  0  0  0  0  0  0  0  0  0
  150.6741  143.8110  156.4936 H   0  0  0  0  0  0  0  0  0  0  0  0
  147.3021  132.1441  152.0413 H   0  0  0  0  0  0  0  0  0  0  0  0
  145.5877  132.1431  152.4095 H   0  0  0  0  0  0  0  0  0  0  0  0
  146.9076  133.3766  149.9313 H   0  0  0  0  0  0  0  0  0  0  0  0
  145.9601  131.9023  149.9826 H   0  0  0  0  0  0  0  0  0  0  0  0
  145.7819  135.4827  150.3103 H   0  0  0  0  0  0  0  0  0  0  0  0
  144.0609  135.4658  150.6409 H   0  0  0  0  0  0  0  0  0  0  0  0
  144.4167  134.3984  152.8378 H   0  0  0  0  0  0  0  0  0  0  0  0
  145.3601  135.8703  152.7040 H   0  0  0  0  0  0  0  0  0  0  0  0
  147.2326  134.5356  152.0829 H   0  0  0  0  0  0  0  0  0  0  0  0
  1  2  1  0  0  0  0
  1 26  1  0  0  0  0
  1 27  1  0  0  0  0
  1 28  1  0  0  0  0
  2  3  1  0  0  0  0
  2 29  1  0  0  0  0
  2 30  1  0  0  0  0
  3  4  1  0  0  0  0
  3  5  1  0  0  0  0
  3 19  1  0  0  0  0
  4 31  1  0  0  0  0
  4 32  1  0  0  0  0
  4 33  1  0  0  0  0
  5  6  1  0  0  0  0
  5 34  1  0  0  0  0
  5 35  1  0  0  0  0
  6  7  1  0  0  0  0
  6 36  1  0  0  0  0
  7  8  2  0  0  0  0
  7  9  1  0  0  0  0
  9 10  1  0  0  0  0
  9 37  1  0  0  0  0
  9 38  1  0  0  0  0
 10 17  1  0  0  0  0
 10 11  2  0  0  0  0
 11 12  1  0  0  0  0
 11 13  1  0  0  0  0
 12 39  1  0  0  0  0
 12 40  1  0  0  0  0
 12 41  1  0  0  0  0
 13 14  2  0  0  0  0
 14 15  1  0  0  0  0
 14 16  1  0  0  0  0
 15 42  1  0  0  0  0
 15 43  1  0  0  0  0
 15 44  1  0  0  0  0
 16 25  1  0  0  0  0
 16 17  1  0  0  0  0
 17 18  2  0  0  0  0
 19 24  1  0  0  0  0
 19 20  1  0  0  0  0
 19 53  1  0  0  0  0
 20 21  1  0  0  0  0
 20 45  1  0  0  0  0
 20 46  1  0  0  0  0
 21 22  1  0  0  0  0
 21 47  1  0  0  0  0
 21 48  1  0  0  0  0
 22 23  1  0  0  0  0
 23 24  1  0  0  0  0
 23 49  1  0  0  0  0
 23 50  1  0  0  0  0
 24 51  1  0  0  0  0
 24 52  1  0  0  0  0
M  CHG  1  19   1
M  END
> <s_m_source_file>
AV-unprocessed.smi

> <i_m_source_file_index>
1492

> <i_lp_mmshare_version>
43012

> <i_f3d_flags>
0

> <s_epik_input>
W0NIMl0xW0NIMl1PW0NIMl1bQ0gyXU4xW0NAQF0oW0NIM10pKFtDSDJdW0NIM10pW0NIMl1bTkhdQyg9TylbQ0gyXWMyYyhbQ0gzXSluYyhbQ0gzXSlbbkhdYzI9Tw==

> <s_epik_cmdline>
J2VwaWtfcHl0aG9uJywgJy1waCcsICc3LjAnLCAnLXRuJywgJzgnLCAnLW1hJywgJzIwMCcsICctbWV0YWxfYmluZGluZycsICctaW1hZScsICc8aW5maWxlLm1hZT4nLCAnLW9tYWUnLCAnPG91dGZpbGUubWFlPic=

> <r_lp_tautomer_probability>
0.839158

> <r_epik_Ionization_Penalty>
0.506959

> <r_epik_Ionization_Penalty_Charging>
0.506936

> <r_epik_Ionization_Penalty_Neutral>
2.27768e-05

> <r_epik_State_Penalty>
0.6046

> <r_epik_Charging_Adjusted_Penalty>
1.11154

> <i_epik_Tot_Q>
1

> <i_epik_Tot_abs_Q>
1

> <r_epik_Metal_State_Penalty>
0.783136

> <b_epik_Metal_Only>
0

> <s_lp_Force_Field>
OPLS_2005

> <r_lp_Energy>
29.7621

> <b_lp_Chiralities_Consistent>
1

> <s_lp_Variant>
AV-unprocessed.smi:1492-4

> <Gold.Version>
5.8.1

> <Gold.Id.Protein>
6NUR|6NUR_protein|mol2

> <Gold.PLP.Fitness>
45.4881

> <Gold.PLP.PLP>
-35.1823

> <Gold.PLP.part.hbond>
-3.0000

> <Gold.PLP.part.metal>
0.0000

> <Gold.PLP.part.buried>
-3.8089

> <Gold.PLP.part.nonpolar>
-28.8018

> <Gold.PLP.part.repulsive>
0.9421

> <Gold.PLP.ligand.clash>
0.0000

> <Gold.PLP.ligand.torsion>
0.9628

> <Gold.PLP.Chemscore.Hbond>
4.0000

> <Gold.PLP.Chemscore.CHOScore>
0.0000

> <Gold.PLP.Chemscore.Metal>
0.0000

> <Gold.Chemscore.Hbonds>
donor molecule, donor type, donor heavy atom, donor atom, acceptor molecule, acceptor atom, score
      L1  H     6    36       P1  7948  1.00
      L1  H    16    25       P1  8028  1.00
      L1  H    19    53       P1  7948  0.26

> <Gold.PLP.Chemscore.Internal.Correction>
0.2313

> <Gold.Rescore>
     Score         DG    S(hbond)    S(metal)    S(lipo)     H(rot)  DE(clash)    DE(int)     intcor
     17.21     -18.20       2.92        0.00      73.44       2.19       0.04       0.94       ----

> <Gold.Chemscore.Fitness>
17.2123

> <Gold.Chemscore.DG>
-18.1967

> <Gold.Chemscore.ZeroCoef>
-5.4800

> <Gold.Chemscore.Hbond>
2.9153

> <Gold.Chemscore.Metal>
0.0000

> <Gold.Chemscore.Lipo>
73.4412

> <Gold.Chemscore.Internal_Hbond>
0.0000

> <Gold.Chemscore.DEClash>
0.0431

> <Gold.Chemscore.DEInternal>
0.9413

> <Gold.Chemscore.Rot>
2.1926

> <Gold.Chemscore.Internal.Correction>
   9.000000E+99

> <Gold.Chemscore.Hbonds>
donor molecule, donor type, donor heavy atom, donor atom, acceptor molecule, acceptor atom, score
      L1  H     6    36       P1  7948  0.89
      L1  H    16    25       P1  8028  0.95
      L1  H    19    53       P1  7948  0.11

> <Gold.Chemscore.Hbond.Weighted>
-9.7370

> <Gold.Chemscore.Metal.Weighted>
-0.0000

> <Gold.Chemscore.Lipo.Weighted>
-8.5926

> <Gold.Chemscore.Internal_Hbond.Weighted>
0.0000

> <Gold.Chemscore.DEClash.Weighted>
0.0431

> <Gold.Chemscore.DEInternal.Weighted>
0.9413

> <Gold.Chemscore.Rot.Weighted>
5.6129

> <Gold.Chemscore.Internal.Correction.Weighted>
   9.000000E+99

> <Gold.Protein.RotatedTorsions>
[ 6907 6896 6895 6894 ] final  109.86 input  -60.11 | X-H torsion
[ 7974 7965 7964 7962 ] final   30.08 input  175.53 | X-H torsion
[ 8008 7997 7996 7995 ] final    9.28 input   59.86 | X-H torsion
[ 10167 10162 10161 10158 ] final  142.44 input  -65.29 | X-H torsion
[ 10718 10713 10712 10709 ] final  -52.65 input   66.30 | X-H torsion
[ 10763 10752 10751 10750 ] final -136.55 input  -60.55 | X-H torsion
[ 11005 11000 10999 10996 ] final  122.77 input  -57.11 | X-H torsion

> <Gold.Protein.ActiveResidues>
 VAL166  LYS551  ARG553  GLY616  TRP617  ASP618  TYR619  PRO620  LYS621  CYS622 
 ASP623  PHE694  ASN695  SER759  ASP760  ASP761  ALA762  ILE779  LEU786  VAL792 
 PHE793  MET794  SER795  GLU796  ALA797  LYS798  CYS799  TRP800  GLU811  SER814 

> <Gold.Protein.RotatedAtoms>
  152.5047  133.8883  159.7380 H   0  0  0  0  0  0  0  0  0  0  0  0  # atno 6907 bound_to 6896
  150.9328  133.6738  159.2814 H   0  0  0  0  0  0  0  0  0  0  0  0  # atno 6908 bound_to 6896
  151.4076  135.0985  159.9628 H   0  0  0  0  0  0  0  0  0  0  0  0  # atno 6909 bound_to 6896
  146.1633  139.6835  142.9018 H   0  0  0  0  0  0  0  0  0  0  0  0  # atno 7974 bound_to 7965
  154.7780  140.2814  155.6086 H   0  0  0  0  0  0  0  0  0  0  0  0  # atno 8008 bound_to 7997
  156.2945  140.2628  156.2526 H   0  0  0  0  0  0  0  0  0  0  0  0  # atno 8009 bound_to 7997
  154.9819  140.0374  157.2271 H   0  0  0  0  0  0  0  0  0  0  0  0  # atno 8010 bound_to 7997
  139.4994  144.6106  151.6279 H   0  0  0  0  0  0  0  0  0  0  0  0  # atno 10167 bound_to 10162
  156.1603  130.4150  149.9804 H   0  0  0  0  0  0  0  0  0  0  0  0  # atno 10718 bound_to 10713
  154.8681  135.3669  154.5079 H   0  0  0  0  0  0  0  0  0  0  0  0  # atno 10763 bound_to 10752
  153.5716  135.7020  153.5507 H   0  0  0  0  0  0  0  0  0  0  0  0  # atno 10764 bound_to 10752
  153.3537  135.4065  155.1629 H   0  0  0  0  0  0  0  0  0  0  0  0  # atno 10765 bound_to 10752
  139.9283  134.9641  156.8158 H   0  0  0  0  0  0  0  0  0  0  0  0  # atno 11005 bound_to 11000
  145.4533  141.0429  143.2792 LP  0  0  0  0  0  0  0  0  0  0  0  0  # atno 17320 bound_to 7965
  144.8057  139.6056  143.7052 LP  0  0  0  0  0  0  0  0  0  0  0  0  # atno 17321 bound_to 7965
  140.5780  143.9995  150.6252 LP  0  0  0  0  0  0  0  0  0  0  0  0  # atno 17342 bound_to 10162
  140.3134  143.3183  152.0856 LP  0  0  0  0  0  0  0  0  0  0  0  0  # atno 17343 bound_to 10162
  156.7635  130.9160  151.3642 LP  0  0  0  0  0  0  0  0  0  0  0  0  # atno 17370 bound_to 10713
  157.6727  130.9066  150.0078 LP  0  0  0  0  0  0  0  0  0  0  0  0  # atno 17371 bound_to 10713
  140.6274  133.9937  155.7646 LP  0  0  0  0  0  0  0  0  0  0  0  0  # atno 17394 bound_to 11000
  141.0855  133.9997  157.3320 LP  0  0  0  0  0  0  0  0  0  0  0  0  # atno 17395 bound_to 11000

$$$$
