AV-unprocessed.smi:145|AV-procd|sdf|1197|dock2
  -GOLD-   2262018353D 1   1.00000     0.00000
 Structure written by MMmdl.
 40 42  0  0  0  0  0  0  0  0  1 V2000
  151.6189  136.9484  157.4585 O   0  0  0  0  0  0  0  0  0  0  0  0
  151.7112  137.1461  156.2463 C   0  0  0  0  0  0  0  0  0  0  0  0
  152.3580  138.4338  155.7114 C   0  0  0  0  0  0  0  0  0  0  0  0
  151.5534  139.6513  155.9579 N   0  0  0  0  0  0  0  0  0  0  0  0
  150.5305  139.9880  155.0367 C   0  0  0  0  0  0  0  0  0  0  0  0
  150.3190  139.3000  154.0371 O   0  0  0  0  0  0  0  0  0  0  0  0
  149.7561  141.1798  155.3638 C   0  0  0  0  0  0  0  0  0  0  0  0
  148.7549  141.5666  154.5552 F   0  0  0  0  0  0  0  0  0  0  0  0
  150.0261  141.9005  156.4714 C   0  0  0  0  0  0  0  0  0  0  0  0
  151.0403  141.5743  157.3501 N   0  0  0  0  0  0  0  0  0  0  0  0
  151.2378  142.4115  158.5926 C   0  0  2  0  0  0  0  0  0  0  0  0
  150.3040  143.6345  158.6682 C   0  0  0  0  0  0  0  0  0  0  0  0
  151.2761  144.7989  158.7647 C   0  0  0  0  0  0  0  0  0  0  0  0
  152.5528  144.1351  159.2694 C   0  0  0  0  0  0  0  0  0  0  0  0
  152.5513  142.8789  158.6097 O   0  0  0  0  0  0  0  0  0  0  0  0
  151.8120  140.4110  157.1242 C   0  0  0  0  0  0  0  0  0  0  0  0
  152.6820  140.0607  157.9232 O   0  0  0  0  0  0  0  0  0  0  0  0
  151.2508  136.3066  155.3010 N   0  0  0  0  0  0  0  0  0  0  0  0
  150.6136  135.0469  155.4662 C   0  0  0  0  0  0  0  0  0  0  0  0
  150.8400  134.1954  156.5751 C   0  0  0  0  0  0  0  0  0  0  0  0
  150.1849  132.9512  156.6588 C   0  0  0  0  0  0  0  0  0  0  0  0
  149.3086  132.5429  155.6359 C   0  0  0  0  0  0  0  0  0  0  0  0
  149.0923  133.3772  154.5233 C   0  0  0  0  0  0  0  0  0  0  0  0
  147.8007  132.7696  152.9953 I   0  0  0  0  0  0  0  0  0  0  0  0
  149.7471  134.6213  154.4376 C   0  0  0  0  0  0  0  0  0  0  0  0
  153.3519  138.5317  156.1511 H   0  0  0  0  0  0  0  0  0  0  0  0
  152.5541  138.3036  154.6460 H   0  0  0  0  0  0  0  0  0  0  0  0
  149.4186  142.7713  156.6709 H   0  0  0  0  0  0  0  0  0  0  0  0
  151.0867  141.7377  159.4371 H   0  0  0  0  0  0  0  0  0  0  0  0
  149.6361  143.7068  157.8094 H   0  0  0  0  0  0  0  0  0  0  0  0
  149.6977  143.5528  159.5708 H   0  0  0  0  0  0  0  0  0  0  0  0
  151.4464  145.2291  157.7776 H   0  0  0  0  0  0  0  0  0  0  0  0
  150.9234  145.5941  159.4219 H   0  0  0  0  0  0  0  0  0  0  0  0
  153.4487  144.7107  159.0362 H   0  0  0  0  0  0  0  0  0  0  0  0
  152.5114  143.9810  160.3490 H   0  0  0  0  0  0  0  0  0  0  0  0
  151.3074  136.6414  154.3503 H   0  0  0  0  0  0  0  0  0  0  0  0
  151.5218  134.4683  157.3657 H   0  0  0  0  0  0  0  0  0  0  0  0
  150.3601  132.3069  157.5076 H   0  0  0  0  0  0  0  0  0  0  0  0
  148.8085  131.5879  155.7029 H   0  0  0  0  0  0  0  0  0  0  0  0
  149.5758  135.2529  153.5780 H   0  0  0  0  0  0  0  0  0  0  0  0
  1  2  2  0  0  0  0
  2  3  1  0  0  0  0
  2 18  1  0  0  0  0
  3  4  1  0  0  0  0
  3 26  1  0  0  0  0
  3 27  1  0  0  0  0
  4 16  1  0  0  0  0
  4  5  1  0  0  0  0
  5  6  2  0  0  0  0
  5  7  1  0  0  0  0
  7  8  1  0  0  0  0
  7  9  2  0  0  0  0
  9 10  1  0  0  0  0
  9 28  1  0  0  0  0
 10 11  1  0  0  0  0
 10 16  1  0  0  0  0
 11 15  1  0  0  0  0
 11 12  1  0  0  0  0
 11 29  1  0  0  0  0
 12 13  1  0  0  0  0
 12 30  1  0  0  0  0
 12 31  1  0  0  0  0
 13 14  1  0  0  0  0
 13 32  1  0  0  0  0
 13 33  1  0  0  0  0
 14 15  1  0  0  0  0
 14 34  1  0  0  0  0
 14 35  1  0  0  0  0
 16 17  2  0  0  0  0
 18 19  1  0  0  0  0
 18 36  1  0  0  0  0
 19 25  1  0  0  0  0
 19 20  2  0  0  0  0
 20 21  1  0  0  0  0
 20 37  1  0  0  0  0
 21 22  2  0  0  0  0
 21 38  1  0  0  0  0
 22 23  1  0  0  0  0
 22 39  1  0  0  0  0
 23 24  1  0  0  0  0
 23 25  2  0  0  0  0
 25 40  1  0  0  0  0
M  END
> <s_m_source_file>
AV-unprocessed.smi

> <i_m_source_file_index>
145

> <i_lp_mmshare_version>
43012

> <i_f3d_flags>
0

> <s_epik_input>
SWMoW2NIXTEpW2NIXVtjSF1bY0hdYzFbTkhdQyg9TylbQ0gyXW4yYyg9TyljKEYpW2NIXW4oYzI9TylbQ0BASF0zW0NIMl1bQ0gyXVtDSDJdTzM=

> <s_epik_cmdline>
J2VwaWtfcHl0aG9uJywgJy1waCcsICc3LjAnLCAnLXRuJywgJzgnLCAnLW1hJywgJzIwMCcsICctbWV0YWxfYmluZGluZycsICctaW1hZScsICc8aW5maWxlLm1hZT4nLCAnLW9tYWUnLCAnPG91dGZpbGUubWFlPic=

> <r_lp_tautomer_probability>
1

> <r_epik_Ionization_Penalty>
9.72367e-07

> <r_epik_Ionization_Penalty_Charging>
3.88729e-08

> <r_epik_Ionization_Penalty_Neutral>
9.33494e-07

> <r_epik_State_Penalty>
-0

> <r_epik_Charging_Adjusted_Penalty>
3.88729e-08

> <i_epik_Tot_Q>
0

> <i_epik_Tot_abs_Q>
0

> <r_epik_Metal_State_Penalty>
-0

> <b_epik_Metal_Only>
0

> <s_epik_Chemistry_Notes>
This compound contains an acetal/aminal-like group ( X-CH(R)-Y where X, Y are N, S, or O) that may be acid/base labile, releasing an aldehyde.

> <s_lp_Force_Field>
OPLS_2005

> <r_lp_Energy>
28.2642

> <b_lp_Chiralities_Consistent>
1

> <s_lp_Variant>
AV-unprocessed.smi:145-1

> <Gold.Version>
5.8.1

> <Gold.Id.Protein>
6NUR|6NUR_protein|mol2

> <Gold.PLP.Fitness>
49.5492

> <Gold.PLP.PLP>
-44.7682

> <Gold.PLP.part.hbond>
-1.9662

> <Gold.PLP.part.metal>
0.0000

> <Gold.PLP.part.buried>
-2.8716

> <Gold.PLP.part.nonpolar>
-42.9108

> <Gold.PLP.part.repulsive>
2.2779

> <Gold.PLP.ligand.clash>
0.0000

> <Gold.PLP.ligand.torsion>
0.6243

> <Gold.PLP.Chemscore.Hbond>
1.0000

> <Gold.PLP.Chemscore.CHOScore>
1.0000

> <Gold.PLP.Chemscore.Metal>
0.0000

> <Gold.Chemscore.Hbonds>
donor molecule, donor type, donor heavy atom, donor atom, acceptor molecule, acceptor atom, score
      P1  H  7997  8008       L1    17  0.88
      L1  C     9    28       P1  8028  1.00

> <Gold.PLP.Chemscore.Internal.Correction>
0.0296

> <Gold.Rescore>
     Score         DG    S(hbond)    S(metal)    S(lipo)     H(rot)  DE(clash)    DE(int)     intcor
     11.40     -14.55       0.98        0.00      86.05       1.66       0.31       2.85       ----

> <Gold.Chemscore.Fitness>
11.3954

> <Gold.Chemscore.DG>
-14.5513

> <Gold.Chemscore.ZeroCoef>
-5.4800

> <Gold.Chemscore.Hbond>
0.9757

> <Gold.Chemscore.Metal>
0.0000

> <Gold.Chemscore.Lipo>
86.0467

> <Gold.Chemscore.Internal_Hbond>
0.0000

> <Gold.Chemscore.DEClash>
0.3091

> <Gold.Chemscore.DEInternal>
2.8468

> <Gold.Chemscore.Rot>
1.6621

> <Gold.Chemscore.Internal.Correction>
   9.000000E+99

> <Gold.Chemscore.Hbonds>
donor molecule, donor type, donor heavy atom, donor atom, acceptor molecule, acceptor atom, score
      P1  H  7997  8008       L1    17  0.46

> <Gold.Chemscore.Hbond.Weighted>
-3.2588

> <Gold.Chemscore.Metal.Weighted>
-0.0000

> <Gold.Chemscore.Lipo.Weighted>
-10.0675

> <Gold.Chemscore.Internal_Hbond.Weighted>
0.0000

> <Gold.Chemscore.DEClash.Weighted>
0.3091

> <Gold.Chemscore.DEInternal.Weighted>
2.8468

> <Gold.Chemscore.Rot.Weighted>
4.2550

> <Gold.Chemscore.Internal.Correction.Weighted>
   9.000000E+99

> <Gold.Protein.RotatedTorsions>
[ 6907 6896 6895 6894 ] final   64.67 input  -60.11 | X-H torsion
[ 7974 7965 7964 7962 ] final   46.26 input  175.53 | X-H torsion
[ 8008 7997 7996 7995 ] final  -74.40 input   59.86 | X-H torsion
[ 10167 10162 10161 10158 ] final  -96.25 input  -65.29 | X-H torsion
[ 10718 10713 10712 10709 ] final   97.85 input   66.30 | X-H torsion
[ 10763 10752 10751 10750 ] final -146.69 input  -60.55 | X-H torsion
[ 11005 11000 10999 10996 ] final  -79.02 input  -57.11 | X-H torsion

> <Gold.Protein.ActiveResidues>
 VAL166  LYS551  ARG553  GLY616  TRP617  ASP618  TYR619  PRO620  LYS621  CYS622 
 ASP623  PHE694  ASN695  SER759  ASP760  ASP761  ALA762  ILE779  LEU786  VAL792 
 PHE793  MET794  SER795  GLU796  ALA797  LYS798  CYS799  TRP800  GLU811  SER814 

> <Gold.Protein.RotatedAtoms>
  152.4349  134.5705  159.9919 H   0  0  0  0  0  0  0  0  0  0  0  0  # atno 6907 bound_to 6896
  151.5818  133.3371  159.3018 H   0  0  0  0  0  0  0  0  0  0  0  0  # atno 6908 bound_to 6896
  150.8246  134.7506  159.6866 H   0  0  0  0  0  0  0  0  0  0  0  0  # atno 6909 bound_to 6896
  146.0405  139.4875  142.9781 H   0  0  0  0  0  0  0  0  0  0  0  0  # atno 7974 bound_to 7965
  154.5328  140.0762  156.8375 H   0  0  0  0  0  0  0  0  0  0  0  0  # atno 8008 bound_to 7997
  155.3340  140.3403  155.4221 H   0  0  0  0  0  0  0  0  0  0  0  0  # atno 8009 bound_to 7997
  156.1798  140.1648  156.8282 H   0  0  0  0  0  0  0  0  0  0  0  0  # atno 8010 bound_to 7997
  140.2958  143.3193  152.0299 H   0  0  0  0  0  0  0  0  0  0  0  0  # atno 10167 bound_to 10162
  157.6906  131.0622  150.4706 H   0  0  0  0  0  0  0  0  0  0  0  0  # atno 10718 bound_to 10713
  154.8323  135.3380  154.6701 H   0  0  0  0  0  0  0  0  0  0  0  0  # atno 10763 bound_to 10752
  153.7320  135.6951  153.4991 H   0  0  0  0  0  0  0  0  0  0  0  0  # atno 10764 bound_to 10752
  153.2306  135.4418  155.0542 H   0  0  0  0  0  0  0  0  0  0  0  0  # atno 10765 bound_to 10752
  141.1666  133.7088  156.8059 H   0  0  0  0  0  0  0  0  0  0  0  0  # atno 11005 bound_to 11000
  145.6892  141.0169  143.1565 LP  0  0  0  0  0  0  0  0  0  0  0  0  # atno 17320 bound_to 7965
  144.7072  139.8512  143.7426 LP  0  0  0  0  0  0  0  0  0  0  0  0  # atno 17321 bound_to 7965
  139.4927  144.6492  151.6712 LP  0  0  0  0  0  0  0  0  0  0  0  0  # atno 17342 bound_to 10162
  140.5694  144.0135  150.6209 LP  0  0  0  0  0  0  0  0  0  0  0  0  # atno 17343 bound_to 10162
  156.5045  130.4125  149.6335 LP  0  0  0  0  0  0  0  0  0  0  0  0  # atno 17370 bound_to 10713
  156.3298  130.7325  151.2252 LP  0  0  0  0  0  0  0  0  0  0  0  0  # atno 17371 bound_to 10713
  140.2223  134.8748  157.3390 LP  0  0  0  0  0  0  0  0  0  0  0  0  # atno 17394 bound_to 11000
  140.1976  134.4295  155.7681 LP  0  0  0  0  0  0  0  0  0  0  0  0  # atno 17395 bound_to 11000

$$$$
