AV-unprocessed.smi:675|AV-procd|sdf|3305|dock7
  -GOLD-   22720 0263D 1   1.00000     0.00000
 Structure written by MMmdl.
 28 29  0  0  0  0  0  0  0  0  2 V2000
  151.3227  135.9137  155.2919 O   0  0  0  0  0  0  0  0  0  0  0  0
  151.3604  136.7897  156.1546 C   0  0  0  0  0  0  0  0  0  0  0  0
  151.6239  136.5206  157.4667 N   0  5  0  0  0  0  0  0  0  0  0  0
  151.6661  137.4800  158.4417 C   0  0  0  0  0  0  0  0  0  0  0  0
  151.9003  137.2073  159.6189 O   0  0  0  0  0  0  0  0  0  0  0  0
  151.4337  138.7817  158.0944 N   0  0  0  0  0  0  0  0  0  0  0  0
  151.4299  139.8855  159.0679 C   0  0  0  0  0  0  0  0  0  0  0  0
  152.4948  140.9600  158.7509 C   0  0  2  0  0  0  0  0  0  0  0  0
  153.7646  140.3394  158.7875 O   0  0  0  0  0  0  0  0  0  0  0  0
  152.4165  142.1735  159.6779 C   0  0  0  0  0  0  0  0  0  0  0  0
  152.7941  142.0264  161.0323 C   0  0  0  0  0  0  0  0  0  0  0  0
  152.7125  143.1119  161.9243 C   0  0  0  0  0  0  0  0  0  0  0  0
  152.2505  144.3600  161.4707 C   0  0  0  0  0  0  0  0  0  0  0  0
  151.8694  144.5183  160.1259 C   0  0  0  0  0  0  0  0  0  0  0  0
  151.9475  143.4351  159.2276 C   0  0  0  0  0  0  0  0  0  0  0  0
  151.4486  143.6966  157.5923 Cl  0  0  0  0  0  0  0  0  0  0  0  0
  151.1656  139.1126  156.7556 C   0  0  0  0  0  0  0  0  0  0  0  0
  151.1173  138.1819  155.7832 C   0  0  0  0  0  0  0  0  0  0  0  0
  150.7712  138.6189  154.1480 Cl  0  0  0  0  0  0  0  0  0  0  0  0
  150.4444  140.3486  159.1374 H   0  0  0  0  0  0  0  0  0  0  0  0
  151.6134  139.4735  160.0617 H   0  0  0  0  0  0  0  0  0  0  0  0
  152.3678  141.2772  157.7172 H   0  0  0  0  0  0  0  0  0  0  0  0
  154.1362  140.4706  159.6461 H   0  0  0  0  0  0  0  0  0  0  0  0
  153.1377  141.0698  161.3978 H   0  0  0  0  0  0  0  0  0  0  0  0
  152.9990  142.9846  162.9577 H   0  0  0  0  0  0  0  0  0  0  0  0
  152.1839  145.1939  162.1538 H   0  0  0  0  0  0  0  0  0  0  0  0
  151.5095  145.4769  159.7823 H   0  0  0  0  0  0  0  0  0  0  0  0
  150.9919  140.1633  156.5734 H   0  0  0  0  0  0  0  0  0  0  0  0
  1  2  2  0  0  0  0
  2 18  1  0  0  0  0
  2  3  1  0  0  0  0
  3  4  1  0  0  0  0
  4  5  2  0  0  0  0
  4  6  1  0  0  0  0
  6  7  1  0  0  0  0
  6 17  1  0  0  0  0
  7  8  1  0  0  0  0
  7 20  1  0  0  0  0
  7 21  1  0  0  0  0
  8  9  1  0  0  0  0
  8 10  1  0  0  0  0
  8 22  1  0  0  0  0
  9 23  1  0  0  0  0
 10 15  1  0  0  0  0
 10 11  2  0  0  0  0
 11 12  1  0  0  0  0
 11 24  1  0  0  0  0
 12 13  2  0  0  0  0
 12 25  1  0  0  0  0
 13 14  1  0  0  0  0
 13 26  1  0  0  0  0
 14 15  2  0  0  0  0
 14 27  1  0  0  0  0
 15 16  1  0  0  0  0
 17 18  2  0  0  0  0
 17 28  1  0  0  0  0
 18 19  1  0  0  0  0
M  CHG  1   3  -1
M  END
> <s_m_source_file>
AV-unprocessed.smi

> <i_m_source_file_index>
675

> <i_lp_mmshare_version>
43012

> <i_f3d_flags>
0

> <s_epik_input>
Tz1jMVtuSF1jKD1PKW4oW2NIXWMxQ2wpW0NIMl1bQ0BIXShbT0hdKWMyW2NIXVtjSF1bY0hdW2NIXWMyQ2w=

> <s_epik_cmdline>
J2VwaWtfcHl0aG9uJywgJy1waCcsICc3LjAnLCAnLXRuJywgJzgnLCAnLW1hJywgJzIwMCcsICctbWV0YWxfYmluZGluZycsICctaW1hZScsICc8aW5maWxlLm1hZT4nLCAnLW9tYWUnLCAnPG91dGZpbGUubWFlPic=

> <r_epik_Ionization_Penalty>
1.79791

> <r_epik_Ionization_Penalty_Charging>
3.23819e-08

> <r_epik_Ionization_Penalty_Neutral>
1.79791

> <r_epik_State_Penalty>
1.91135

> <r_epik_Charging_Adjusted_Penalty>
1.91135

> <i_epik_Tot_Q>
-1

> <i_epik_Tot_abs_Q>
1

> <r_epik_Metal_State_Penalty>
0.014155

> <b_epik_Metal_Only>
0

> <s_lp_Force_Field>
OPLS_2005

> <r_lp_Energy>
20.012

> <b_lp_Chiralities_Consistent>
1

> <s_lp_Variant>
AV-unprocessed.smi:675-3

> <Gold.Version>
5.8.1

> <Gold.Id.Protein>
6NUR|6NUR_protein|mol2

> <Gold.PLP.Fitness>
47.5679

> <Gold.PLP.PLP>
-39.1260

> <Gold.PLP.part.hbond>
-3.0000

> <Gold.PLP.part.metal>
0.0000

> <Gold.PLP.part.buried>
-5.2497

> <Gold.PLP.part.nonpolar>
-31.1815

> <Gold.PLP.part.repulsive>
0.1060

> <Gold.PLP.ligand.clash>
0.0000

> <Gold.PLP.ligand.torsion>
0.1794

> <Gold.PLP.Chemscore.Hbond>
2.9280

> <Gold.PLP.Chemscore.CHOScore>
0.0000

> <Gold.PLP.Chemscore.Metal>
0.0000

> <Gold.Chemscore.Hbonds>
donor molecule, donor type, donor heavy atom, donor atom, acceptor molecule, acceptor atom, score
      P1  H  6896  6909       L1     5  0.84
      P1  H  7997  8009       L1     9  0.85
      P1  H 10752 10765       L1     1  1.00

> <Gold.PLP.Chemscore.Internal.Correction>
0.0168

> <Gold.Rescore>
     Score         DG    S(hbond)    S(metal)    S(lipo)     H(rot)  DE(clash)    DE(int)     intcor
     21.70     -21.80       2.65        0.00     110.46       2.13       0.01       0.08       ----

> <Gold.Chemscore.Fitness>
21.7028

> <Gold.Chemscore.DG>
-21.7997

> <Gold.Chemscore.ZeroCoef>
-5.4800

> <Gold.Chemscore.Hbond>
2.6477

> <Gold.Chemscore.Metal>
0.0000

> <Gold.Chemscore.Lipo>
110.4572

> <Gold.Chemscore.Internal_Hbond>
0.0000

> <Gold.Chemscore.DEClash>
0.0135

> <Gold.Chemscore.DEInternal>
0.0834

> <Gold.Chemscore.Rot>
2.1278

> <Gold.Chemscore.Internal.Correction>
   9.000000E+99

> <Gold.Chemscore.Hbonds>
donor molecule, donor type, donor heavy atom, donor atom, acceptor molecule, acceptor atom, score
      P1  H  6896  6909       L1     5  0.64
      P1  H  7997  8009       L1     9  0.83
      P1  H 10752 10765       L1     1  0.70

> <Gold.Chemscore.Hbond.Weighted>
-8.8433

> <Gold.Chemscore.Metal.Weighted>
-0.0000

> <Gold.Chemscore.Lipo.Weighted>
-12.9235

> <Gold.Chemscore.Internal_Hbond.Weighted>
0.0000

> <Gold.Chemscore.DEClash.Weighted>
0.0135

> <Gold.Chemscore.DEInternal.Weighted>
0.0834

> <Gold.Chemscore.Rot.Weighted>
5.4470

> <Gold.Chemscore.Internal.Correction.Weighted>
   9.000000E+99

> <Gold.Protein.RotatedTorsions>
[ 6907 6896 6895 6894 ] final  118.50 input  -60.11 | X-H torsion
[ 7974 7965 7964 7962 ] final   54.09 input  175.53 | X-H torsion
[ 8008 7997 7996 7995 ] final  138.02 input   59.86 | X-H torsion
[ 10167 10162 10161 10158 ] final   12.50 input  -65.29 | X-H torsion
[ 10718 10713 10712 10709 ] final  -78.73 input   66.30 | X-H torsion
[ 10763 10752 10751 10750 ] final -167.75 input  -60.55 | X-H torsion
[ 11005 11000 10999 10996 ] final  164.39 input  -57.11 | X-H torsion

> <Gold.Protein.ActiveResidues>
 VAL166  LYS551  ARG553  GLY616  TRP617  ASP618  TYR619  PRO620  LYS621  CYS622 
 ASP623  PHE694  ASN695  SER759  ASP760  ASP761  ALA762  ILE779  LEU786  VAL792 
 PHE793  MET794  SER795  GLU796  ALA797  LYS798  CYS799  TRP800  GLU811  SER814 

> <Gold.Protein.RotatedAtoms>
  152.4539  133.7683  159.6784 H   0  0  0  0  0  0  0  0  0  0  0  0  # atno 6907 bound_to 6896
  150.8458  133.7853  159.3049 H   0  0  0  0  0  0  0  0  0  0  0  0  # atno 6908 bound_to 6896
  151.5464  135.1071  159.9991 H   0  0  0  0  0  0  0  0  0  0  0  0  # atno 6909 bound_to 6896
  145.9645  139.4090  143.0228 H   0  0  0  0  0  0  0  0  0  0  0  0  # atno 7974 bound_to 7965
  156.2999  140.2404  156.4006 H   0  0  0  0  0  0  0  0  0  0  0  0  # atno 8008 bound_to 7997
  154.8531  140.0423  157.1637 H   0  0  0  0  0  0  0  0  0  0  0  0  # atno 8009 bound_to 7997
  154.8977  140.2972  155.5339 H   0  0  0  0  0  0  0  0  0  0  0  0  # atno 8010 bound_to 7997
  140.6064  143.8500  150.7018 H   0  0  0  0  0  0  0  0  0  0  0  0  # atno 10167 bound_to 10162
  156.0110  130.4526  150.3541 H   0  0  0  0  0  0  0  0  0  0  0  0  # atno 10718 bound_to 10713
  154.6700  135.2938  154.9754 H   0  0  0  0  0  0  0  0  0  0  0  0  # atno 10763 bound_to 10752
  154.0785  135.6608  153.4838 H   0  0  0  0  0  0  0  0  0  0  0  0  # atno 10764 bound_to 10752
  153.0481  135.5191  154.7691 H   0  0  0  0  0  0  0  0  0  0  0  0  # atno 10765 bound_to 10752
  140.2455  134.8018  157.3452 H   0  0  0  0  0  0  0  0  0  0  0  0  # atno 11005 bound_to 11000
  145.7994  140.9778  143.1007 LP  0  0  0  0  0  0  0  0  0  0  0  0  # atno 17320 bound_to 7965
  144.6822  139.9782  143.7483 LP  0  0  0  0  0  0  0  0  0  0  0  0  # atno 17321 bound_to 7965
  140.2058  143.3923  152.1757 LP  0  0  0  0  0  0  0  0  0  0  0  0  # atno 17342 bound_to 10162
  139.5328  144.7177  151.4997 LP  0  0  0  0  0  0  0  0  0  0  0  0  # atno 17343 bound_to 10162
  157.1632  131.0350  151.2831 LP  0  0  0  0  0  0  0  0  0  0  0  0  # atno 17370 bound_to 10713
  157.4293  130.7481  149.6977 LP  0  0  0  0  0  0  0  0  0  0  0  0  # atno 17371 bound_to 10713
  140.1610  134.4728  155.7894 LP  0  0  0  0  0  0  0  0  0  0  0  0  # atno 17394 bound_to 11000
  141.2206  133.6901  156.7545 LP  0  0  0  0  0  0  0  0  0  0  0  0  # atno 17395 bound_to 11000

$$$$
