#       Name:                AV-unprocessed.smi:1701
#       Creating user name   scv26
#       Creation time:       Fri Mar 27 08:01:27 2020


#       File generated by GOLD software.
#

@<TRIPOS>MOLECULE
AV-unprocessed.smi:1701
    57    59     1
SMALL
NO_CHARGES


@<TRIPOS>ATOM
      1 ****        -6.4386   0.3511   2.8475 C.3            1 S1                 0.0000
      2 ****        -6.1260  -0.5554   1.6482 C.3            1 S1                 0.0000
      3 ****        -5.3013   0.0999   0.6327 N.pl3          1 S1                 0.0000
      4 ****        -5.9499   0.9413  -0.3764 C.3            1 S1                 0.0000
      5 ****        -5.8775   2.4406  -0.0482 C.3            1 S1                 0.0000
      6 ****        -3.8869   0.0569   0.7138 C.ar           1 S1                 0.0000
      7 ****        -3.2174  -0.4570   1.8532 C.ar           1 S1                 0.0000
      8 ****        -1.8099  -0.4782   1.8809 C.ar           1 S1                 0.0000
      9 ****        -1.0939   0.0223   0.7699 C.ar           1 S1                 0.0000
     10 ****         0.3230   0.0396   0.6654 N.am           1 S1                 0.0000
     11 ****         1.2442  -0.0399   1.6457 C.2            1 S1                 0.0000
     12 ****         0.9889  -0.1027   2.8459 O.2            1 S1                 0.0000
     13 ****         2.5159  -0.0142   1.2089 N.am           1 S1                 0.0000
     14 ****         3.7430  -0.0815   2.0038 C.3            1 S1                 0.0000
     15 ****         4.0976  -1.4964   2.4913 C.3            1 S1                 0.0000
     16 ****         5.6281  -1.6097   2.3481 C.3            1 S1                 0.0000
     17 ****         6.1138  -0.2805   1.9125 N.4            1 S1                 1.0000
     18 ****         6.6120   0.5355   3.0539 C.3            1 S1                 0.0000
     19 ****         6.8931   1.9874   2.6467 C.3            1 S1                 0.0000
     20 ****         5.6277   2.6295   2.0726 C.3            1 S1                 0.0000
     21 ****         5.1431   1.8167   0.8669 C.3            1 S1                 0.0000
     22 ****         4.9711   0.3124   1.1766 C.3            1 S1                 0.0000
     23 ****        -1.8419   0.5010  -0.3223 C.ar           1 S1                 0.0000
     24 ****        -3.1901   0.5229  -0.3518 N.ar           1 S1                 0.0000
     25 ****        -7.0059  -0.1950   3.6012 H              1 S1                 0.0000
     26 ****        -7.0371   1.2116   2.5510 H              1 S1                 0.0000
     27 ****        -5.5291   0.7204   3.3215 H              1 S1                 0.0000
     28 ****        -5.6575  -1.4821   1.9791 H              1 S1                 0.0000
     29 ****        -7.0640  -0.8650   1.1865 H              1 S1                 0.0000
     30 ****        -5.5175   0.7495  -1.3588 H              1 S1                 0.0000
     31 ****        -6.9972   0.6499  -0.4591 H              1 S1                 0.0000
     32 ****        -6.3793   3.0245  -0.8198 H              1 S1                 0.0000
     33 ****        -4.8465   2.7898   0.0084 H              1 S1                 0.0000
     34 ****        -6.3593   2.6699   0.9012 H              1 S1                 0.0000
     35 ****        -3.7503  -0.8323   2.7129 H              1 S1                 0.0000
     36 ****        -1.3149  -0.8883   2.7470 H              1 S1                 0.0000
     37 ****         0.6829   0.1727  -0.2682 H              1 S1                 0.0000
     38 ****         2.6422   0.0886   0.2121 H              1 S1                 0.0000
     39 ****         3.6635   0.5875   2.8624 H              1 S1                 0.0000
     40 ****         3.7785  -1.6432   3.5239 H              1 S1                 0.0000
     41 ****         3.6107  -2.2633   1.8868 H              1 S1                 0.0000
     42 ****         6.1089  -1.9526   3.2655 H              1 S1                 0.0000
     43 ****         5.8686  -2.3335   1.5685 H              1 S1                 0.0000
     44 ****         5.8836   0.5231   3.8664 H              1 S1                 0.0000
     45 ****         7.5216   0.0788   3.4457 H              1 S1                 0.0000
     46 ****         7.2389   2.5550   3.5112 H              1 S1                 0.0000
     47 ****         7.6971   2.0203   1.9101 H              1 S1                 0.0000
     48 ****         4.8503   2.6749   2.8361 H              1 S1                 0.0000
     49 ****         5.8298   3.6584   1.7733 H              1 S1                 0.0000
     50 ****         4.2106   2.2322   0.4835 H              1 S1                 0.0000
     51 ****         5.8719   1.9257   0.0627 H              1 S1                 0.0000
     52 ****         4.9124  -0.2135   0.2212 H              1 S1                 0.0000
     53 ****        -1.3451   0.8827  -1.2023 H              1 S1                 0.0000
     54 ****         6.8855  -0.3997   1.2714 H              1 S1                 0.0000
     55 ****         0.0381  -0.0969   3.1558 LP             1 S1                 0.0000
     56 ****         1.7318  -0.1597   3.5128 LP             1 S1                 0.0000
     57 ****        -3.6715   0.8796  -1.1525 LP             1 S1                 0.0000
@<TRIPOS>BOND
    1    1    2 1     
    2    1   25 1     
    3    1   26 1     
    4    1   27 1     
    5    2    3 1     
    6    2   28 1     
    7    2   29 1     
    8    3    4 1     
    9    3    6 1     
   10    4    5 1     
   11    4   30 1     
   12    4   31 1     
   13    5   32 1     
   14    5   33 1     
   15    5   34 1     
   16    6   24 ar    
   17    6    7 ar    
   18    7    8 ar    
   19    7   35 1     
   20    8    9 ar    
   21    8   36 1     
   22    9   10 1     
   23    9   23 ar    
   24   10   11 am    
   25   10   37 1     
   26   11   12 2     
   27   11   13 am    
   28   13   14 1     
   29   13   38 1     
   30   14   22 1     
   31   14   15 1     
   32   14   39 1     
   33   15   16 1     
   34   15   40 1     
   35   15   41 1     
   36   16   17 1     
   37   16   42 1     
   38   16   43 1     
   39   17   22 1     
   40   17   18 1     
   41   17   54 1     
   42   18   19 1     
   43   18   44 1     
   44   18   45 1     
   45   19   20 1     
   46   19   46 1     
   47   19   47 1     
   48   20   21 1     
   49   20   48 1     
   50   20   49 1     
   51   21   22 1     
   52   21   50 1     
   53   21   51 1     
   54   22   52 1     
   55   23   24 ar    
   56   23   53 1     
   57   12   55 1     
   58   12   56 1     
   59   24   57 1     
@<TRIPOS>SUBSTRUCTURE
      1 S1             1
@<TRIPOS>SET
LONE_PAIRS      STATIC     ATOMS    <user>   **** ""
3 55 56 57
DONOR_HYDROGENS      STATIC     ATOMS    <user>   **** ""
3 37 38 54
ATOM$BLUE        STATIC     ATOMS    COLORGROUP SYSTEM
3 55 56 57
ATOM$RED        STATIC     ATOMS    COLORGROUP SYSTEM
3 37 38 54
