AV-unprocessed.smi:693|AV-procd|sdf|3373|dock4
  -GOLD-   22720 0353D 1   1.00000     0.00000
 Structure written by MMmdl.
 46 47  0  0  0  0  0  0  0  0  1 V2000
  154.6980  140.7521  162.2690 C   0  0  0  0  0  0  0  0  0  0  0  0
  153.9711  141.5892  161.2373 C   0  0  0  0  0  0  0  0  0  0  0  0
  153.2720  142.7511  161.6250 C   0  0  0  0  0  0  0  0  0  0  0  0
  152.6094  143.4984  160.6320 C   0  0  0  0  0  0  0  0  0  0  0  0
  152.6707  143.0559  159.2947 C   0  0  0  0  0  0  0  0  0  0  0  0
  151.9809  143.8242  158.1851 C   0  0  0  0  0  0  0  0  0  0  0  0
  150.4523  143.8209  158.3454 C   0  0  0  0  0  0  0  0  0  0  0  0
  149.8151  142.9188  157.3932 N   0  0  0  0  0  0  0  0  0  0  0  0
  149.4344  141.6574  157.6587 C   0  0  0  0  0  0  0  0  0  0  0  0
  149.5832  141.1511  158.7722 O   0  0  0  0  0  0  0  0  0  0  0  0
  148.8494  141.0081  156.6201 N   0  0  0  0  0  0  0  0  0  0  0  0
  148.8156  141.4592  155.2195 C   0  0  0  0  0  0  0  0  0  0  0  0
  149.8258  140.6244  154.4151 C   0  0  0  0  0  0  0  0  0  0  0  0
  149.5305  139.1179  154.5477 C   0  0  0  0  0  0  0  0  0  0  0  0
  149.3650  138.6773  156.0245 C   0  0  2  0  0  0  0  0  0  0  0  0
  148.9203  137.2053  156.1827 C   0  0  0  0  0  0  0  0  0  0  0  0
  149.9845  136.1872  155.7597 C   0  0  0  0  0  0  0  0  0  0  0  0
  149.7616  135.5074  154.6322 N   0  0  0  0  0  0  0  0  0  0  0  0
  151.0050  136.0312  156.4268 O   0  0  0  0  0  0  0  0  0  0  0  0
  148.3749  139.6235  156.7405 C   0  0  0  0  0  0  0  0  0  0  0  0
  153.3974  141.8800  159.0126 C   0  0  0  0  0  0  0  0  0  0  0  0
  154.0355  141.1575  159.9582 N   0  0  0  0  0  0  0  0  0  0  0  0
  155.3666  141.3776  162.8609 H   0  0  0  0  0  0  0  0  0  0  0  0
  155.2938  139.9675  161.8006 H   0  0  0  0  0  0  0  0  0  0  0  0
  153.9822  140.2806  162.9423 H   0  0  0  0  0  0  0  0  0  0  0  0
  153.2444  143.0632  162.6587 H   0  0  0  0  0  0  0  0  0  0  0  0
  152.0668  144.3952  160.8934 H   0  0  0  0  0  0  0  0  0  0  0  0
  152.3603  144.8468  158.1807 H   0  0  0  0  0  0  0  0  0  0  0  0
  152.2577  143.3896  157.2238 H   0  0  0  0  0  0  0  0  0  0  0  0
  150.1847  143.4978  159.3516 H   0  0  0  0  0  0  0  0  0  0  0  0
  150.0526  144.8296  158.2270 H   0  0  0  0  0  0  0  0  0  0  0  0
  149.6536  143.2756  156.4625 H   0  0  0  0  0  0  0  0  0  0  0  0
  147.8111  141.3137  154.8193 H   0  0  0  0  0  0  0  0  0  0  0  0
  149.0256  142.5207  155.0892 H   0  0  0  0  0  0  0  0  0  0  0  0
  149.8030  140.9166  153.3651 H   0  0  0  0  0  0  0  0  0  0  0  0
  150.8355  140.8313  154.7726 H   0  0  0  0  0  0  0  0  0  0  0  0
  148.6161  138.8873  153.9995 H   0  0  0  0  0  0  0  0  0  0  0  0
  150.3295  138.5577  154.0624 H   0  0  0  0  0  0  0  0  0  0  0  0
  150.3335  138.7871  156.5163 H   0  0  0  0  0  0  0  0  0  0  0  0
  148.6501  137.0139  157.2224 H   0  0  0  0  0  0  0  0  0  0  0  0
  148.0157  137.0251  155.6005 H   0  0  0  0  0  0  0  0  0  0  0  0
  150.4350  134.8275  154.3104 H   0  0  0  0  0  0  0  0  0  0  0  0
  148.9190  135.6786  154.1028 H   0  0  0  0  0  0  0  0  0  0  0  0
  148.2477  139.3220  157.7812 H   0  0  0  0  0  0  0  0  0  0  0  0
  147.3836  139.5408  156.2920 H   0  0  0  0  0  0  0  0  0  0  0  0
  153.4724  141.5102  158.0004 H   0  0  0  0  0  0  0  0  0  0  0  0
  1  2  1  0  0  0  0
  1 23  1  0  0  0  0
  1 24  1  0  0  0  0
  1 25  1  0  0  0  0
  2 22  1  0  0  0  0
  2  3  2  0  0  0  0
  3  4  1  0  0  0  0
  3 26  1  0  0  0  0
  4  5  2  0  0  0  0
  4 27  1  0  0  0  0
  5  6  1  0  0  0  0
  5 21  1  0  0  0  0
  6  7  1  0  0  0  0
  6 28  1  0  0  0  0
  6 29  1  0  0  0  0
  7  8  1  0  0  0  0
  7 30  1  0  0  0  0
  7 31  1  0  0  0  0
  8  9  1  0  0  0  0
  8 32  1  0  0  0  0
  9 10  2  0  0  0  0
  9 11  1  0  0  0  0
 11 20  1  0  0  0  0
 11 12  1  0  0  0  0
 12 13  1  0  0  0  0
 12 33  1  0  0  0  0
 12 34  1  0  0  0  0
 13 14  1  0  0  0  0
 13 35  1  0  0  0  0
 13 36  1  0  0  0  0
 14 15  1  0  0  0  0
 14 37  1  0  0  0  0
 14 38  1  0  0  0  0
 15 16  1  0  0  0  0
 15 20  1  0  0  0  0
 15 39  1  0  0  0  0
 16 17  1  0  0  0  0
 16 40  1  0  0  0  0
 16 41  1  0  0  0  0
 17 18  1  0  0  0  0
 17 19  2  0  0  0  0
 18 42  1  0  0  0  0
 18 43  1  0  0  0  0
 20 44  1  0  0  0  0
 20 45  1  0  0  0  0
 21 22  2  0  0  0  0
 21 46  1  0  0  0  0
M  END
> <s_m_source_file>
AV-unprocessed.smi

> <i_m_source_file_index>
693

> <i_lp_mmshare_version>
43012

> <i_f3d_flags>
0

> <s_epik_input>
W0NIM11jMVtjSF1bY0hdYyhbY0hdbjEpW0NIMl1bQ0gyXVtOSF1DKD1PKU4yW0NIMl1bQ0gyXVtDSDJdW0NASF0oW0NIMl0yKVtDSDJdQyg9TylbTkgyXQ==

> <s_epik_cmdline>
J2VwaWtfcHl0aG9uJywgJy1waCcsICc3LjAnLCAnLXRuJywgJzgnLCAnLW1hJywgJzIwMCcsICctbWV0YWxfYmluZGluZycsICctaW1hZScsICc8aW5maWxlLm1hZT4nLCAnLW9tYWUnLCAnPG91dGZpbGUubWFlPic=

> <r_epik_Ionization_Penalty>
0.056948

> <r_epik_Ionization_Penalty_Charging>
0

> <r_epik_Ionization_Penalty_Neutral>
0.056948

> <r_epik_State_Penalty>
0.0490937

> <r_epik_Charging_Adjusted_Penalty>
0.0490937

> <i_epik_Tot_Q>
0

> <i_epik_Tot_abs_Q>
0

> <r_epik_Metal_State_Penalty>
0.0447689

> <b_epik_Metal_Only>
0

> <s_lp_Force_Field>
OPLS_2005

> <r_lp_Energy>
26.3335

> <b_lp_Chiralities_Consistent>
1

> <s_lp_Variant>
AV-unprocessed.smi:693-2

> <Gold.Version>
5.8.1

> <Gold.Id.Protein>
6NUR|6NUR_protein|mol2

> <Gold.PLP.Fitness>
45.3895

> <Gold.PLP.PLP>
-38.3129

> <Gold.PLP.part.hbond>
-5.6967

> <Gold.PLP.part.metal>
0.0000

> <Gold.PLP.part.buried>
1.4318

> <Gold.PLP.part.nonpolar>
-34.3306

> <Gold.PLP.part.repulsive>
0.1321

> <Gold.PLP.ligand.clash>
0.0000

> <Gold.PLP.ligand.torsion>
0.6887

> <Gold.PLP.Chemscore.Hbond>
2.7920

> <Gold.PLP.Chemscore.CHOScore>
0.0000

> <Gold.PLP.Chemscore.Metal>
0.0000

> <Gold.Chemscore.Hbonds>
donor molecule, donor type, donor heavy atom, donor atom, acceptor molecule, acceptor atom, score
      L1  H     8    32       P1  8028  0.77
      L1  H    18    43       P1  7948  0.15

> <Gold.PLP.Chemscore.Internal.Correction>
0.0780

> <Gold.Rescore>
     Score         DG    S(hbond)    S(metal)    S(lipo)     H(rot)  DE(clash)    DE(int)     intcor
     16.53     -19.61       2.08        0.00     110.50       2.25       2.34       0.73       ----

> <Gold.Chemscore.Fitness>
16.5273

> <Gold.Chemscore.DG>
-19.6059

> <Gold.Chemscore.ZeroCoef>
-5.4800

> <Gold.Chemscore.Hbond>
2.0838

> <Gold.Chemscore.Metal>
0.0000

> <Gold.Chemscore.Lipo>
110.5050

> <Gold.Chemscore.Internal_Hbond>
0.0000

> <Gold.Chemscore.DEClash>
2.3449

> <Gold.Chemscore.DEInternal>
0.7337

> <Gold.Chemscore.Rot>
2.2512

> <Gold.Chemscore.Internal.Correction>
   9.000000E+99

> <Gold.Chemscore.Hbonds>
donor molecule, donor type, donor heavy atom, donor atom, acceptor molecule, acceptor atom, score
      L1  H     8    32       P1  8028  0.76
      L1  H    18    43       P1  7948  0.14

> <Gold.Chemscore.Hbond.Weighted>
-6.9599

> <Gold.Chemscore.Metal.Weighted>
-0.0000

> <Gold.Chemscore.Lipo.Weighted>
-12.9291

> <Gold.Chemscore.Internal_Hbond.Weighted>
0.0000

> <Gold.Chemscore.DEClash.Weighted>
2.3449

> <Gold.Chemscore.DEInternal.Weighted>
0.7337

> <Gold.Chemscore.Rot.Weighted>
5.7631

> <Gold.Chemscore.Internal.Correction.Weighted>
   9.000000E+99

> <Gold.Protein.RotatedTorsions>
[ 6907 6896 6895 6894 ] final -118.71 input  -60.11 | X-H torsion
[ 7974 7965 7964 7962 ] final   85.56 input  175.53 | X-H torsion
[ 8008 7997 7996 7995 ] final -170.16 input   59.86 | X-H torsion
[ 10167 10162 10161 10158 ] final   12.75 input  -65.29 | X-H torsion
[ 10718 10713 10712 10709 ] final  -99.60 input   66.30 | X-H torsion
[ 10763 10752 10751 10750 ] final  -35.52 input  -60.55 | X-H torsion
[ 11005 11000 10999 10996 ] final -106.18 input  -57.11 | X-H torsion

> <Gold.Protein.ActiveResidues>
 VAL166  LYS551  ARG553  GLY616  TRP617  ASP618  TYR619  PRO620  LYS621  CYS622 
 ASP623  PHE694  ASN695  SER759  ASP760  ASP761  ALA762  ILE779  LEU786  VAL792 
 PHE793  MET794  SER795  GLU796  ALA797  LYS798  CYS799  TRP800  GLU811  SER814 

> <Gold.Protein.RotatedAtoms>
  150.8243  133.8199  159.3125 H   0  0  0  0  0  0  0  0  0  0  0  0  # atno 6907 bound_to 6896
  151.5948  135.1049  160.0056 H   0  0  0  0  0  0  0  0  0  0  0  0  # atno 6908 bound_to 6896
  152.4329  133.7268  159.6621 H   0  0  0  0  0  0  0  0  0  0  0  0  # atno 6909 bound_to 6896
  145.5839  139.2329  143.2337 H   0  0  0  0  0  0  0  0  0  0  0  0  # atno 7974 bound_to 7965
  155.9146  140.1063  157.1253 H   0  0  0  0  0  0  0  0  0  0  0  0  # atno 8008 bound_to 7997
  154.4044  140.1267  156.4666 H   0  0  0  0  0  0  0  0  0  0  0  0  # atno 8009 bound_to 7997
  155.7269  140.3469  155.5043 H   0  0  0  0  0  0  0  0  0  0  0  0  # atno 8010 bound_to 7997
  140.6047  143.8532  150.7001 H   0  0  0  0  0  0  0  0  0  0  0  0  # atno 10167 bound_to 10162
  156.0138  130.5289  150.6693 H   0  0  0  0  0  0  0  0  0  0  0  0  # atno 10718 bound_to 10713
  153.8645  135.6837  153.4780 H   0  0  0  0  0  0  0  0  0  0  0  0  # atno 10763 bound_to 10752
  153.1322  135.4693  154.9365 H   0  0  0  0  0  0  0  0  0  0  0  0  # atno 10764 bound_to 10752
  154.7743  135.3248  154.8075 H   0  0  0  0  0  0  0  0  0  0  0  0  # atno 10765 bound_to 10752
  141.1017  133.8871  157.1824 H   0  0  0  0  0  0  0  0  0  0  0  0  # atno 11005 bound_to 11000
  146.1696  140.6666  142.9239 LP  0  0  0  0  0  0  0  0  0  0  0  0  # atno 17320 bound_to 7965
  144.7381  140.4866  143.6889 LP  0  0  0  0  0  0  0  0  0  0  0  0  # atno 17321 bound_to 7965
  140.2086  143.3901  152.1736 LP  0  0  0  0  0  0  0  0  0  0  0  0  # atno 17342 bound_to 10162
  139.5316  144.7165  151.5035 LP  0  0  0  0  0  0  0  0  0  0  0  0  # atno 17343 bound_to 10162
  157.4419  131.0862  151.0934 LP  0  0  0  0  0  0  0  0  0  0  0  0  # atno 17370 bound_to 10713
  157.1476  130.6170  149.5573 LP  0  0  0  0  0  0  0  0  0  0  0  0  # atno 17371 bound_to 10713
  139.9872  135.0078  156.9889 LP  0  0  0  0  0  0  0  0  0  0  0  0  # atno 17394 bound_to 11000
  140.5004  134.1103  155.7249 LP  0  0  0  0  0  0  0  0  0  0  0  0  # atno 17395 bound_to 11000

$$$$
