AV-unprocessed.smi:2862|AV-procd|sdf|11008|dock4
  -GOLD-   2272015463D 1   1.00000     0.00000
 Structure written by MMmdl.
 52 54  0  0  0  0  0  0  0  0  1 V2000
  152.4751  141.9900  159.3231 C   0  0  0  0  0  0  0  0  0  0  0  0
  151.3469  142.5661  158.4505 C   0  0  2  0  0  0  0  0  0  0  0  0
  151.0085  141.6125  157.3974 N   0  0  0  0  0  0  0  0  0  0  0  0
  149.7916  141.0768  157.1905 C   0  0  0  0  0  0  0  0  0  0  0  0
  148.8061  141.3881  157.8584 O   0  0  0  0  0  0  0  0  0  0  0  0
  149.6326  140.0176  156.0862 C   0  0  0  0  0  0  0  0  0  0  0  0
  148.6322  140.3401  155.0529 N   0  0  0  0  0  0  0  0  0  0  0  0
  148.3502  141.7069  154.8503 C   0  0  0  0  0  0  0  0  0  0  0  0
  147.4605  142.1266  153.9370 C   0  0  0  0  0  0  0  0  0  0  0  0
  146.7752  141.1358  153.1439 C   0  0  0  0  0  0  0  0  0  0  0  0
  147.0200  139.8252  153.3493 C   0  0  0  0  0  0  0  0  0  0  0  0
  146.3663  138.8048  152.5319 C   0  0  0  0  0  0  0  0  0  0  0  0
  146.5942  138.7103  151.3243 O   0  0  0  0  0  0  0  0  0  0  0  0
  145.4731  137.9838  153.1570 N   0  0  0  0  0  0  0  0  0  0  0  0
  145.1893  138.2337  154.5778 C   0  0  0  0  0  0  0  0  0  0  0  0
  144.8546  136.7576  152.5998 C   0  0  2  0  0  0  0  0  0  0  0  0
  143.3175  136.8589  152.5986 C   0  0  0  0  0  0  0  0  0  0  0  0
  145.3495  135.4696  153.2401 C   0  0  0  0  0  0  0  0  0  0  0  0
  145.6733  134.2591  152.3981 C   0  0  0  0  0  0  0  0  0  0  0  0
  144.4687  134.2446  153.3121 C   0  0  0  0  0  0  0  0  0  0  0  0
  148.0177  139.3497  154.3341 C   0  0  0  0  0  0  0  0  0  0  0  0
  148.2964  138.1613  154.5132 O   0  0  0  0  0  0  0  0  0  0  0  0
  151.7358  143.9296  157.9097 C   0  0  0  0  0  0  0  0  0  0  0  0
  153.1870  144.3477  157.8567 C   0  0  0  0  0  0  0  0  0  0  0  0
  152.2411  145.0246  158.8194 C   0  0  0  0  0  0  0  0  0  0  0  0
  152.7232  142.6668  160.1410 H   0  0  0  0  0  0  0  0  0  0  0  0
  153.3828  141.8271  158.7407 H   0  0  0  0  0  0  0  0  0  0  0  0
  152.1897  141.0364  159.7679 H   0  0  0  0  0  0  0  0  0  0  0  0
  150.4692  142.7081  159.0839 H   0  0  0  0  0  0  0  0  0  0  0  0
  151.7659  141.3058  156.8039 H   0  0  0  0  0  0  0  0  0  0  0  0
  150.6077  139.8805  155.6161 H   0  0  0  0  0  0  0  0  0  0  0  0
  149.4182  139.0560  156.5560 H   0  0  0  0  0  0  0  0  0  0  0  0
  148.8994  142.3861  155.4865 H   0  0  0  0  0  0  0  0  0  0  0  0
  147.2596  143.1793  153.8020 H   0  0  0  0  0  0  0  0  0  0  0  0
  146.0646  141.4518  152.3932 H   0  0  0  0  0  0  0  0  0  0  0  0
  146.1062  138.1967  155.1682 H   0  0  0  0  0  0  0  0  0  0  0  0
  144.5055  137.5083  155.0164 H   0  0  0  0  0  0  0  0  0  0  0  0
  144.7398  139.2190  154.7079 H   0  0  0  0  0  0  0  0  0  0  0  0
  145.1125  136.6478  151.5489 H   0  0  0  0  0  0  0  0  0  0  0  0
  142.8741  136.0167  152.0703 H   0  0  0  0  0  0  0  0  0  0  0  0
  142.9779  137.7667  152.1012 H   0  0  0  0  0  0  0  0  0  0  0  0
  142.8999  136.8575  153.6046 H   0  0  0  0  0  0  0  0  0  0  0  0
  145.9931  135.6258  154.1034 H   0  0  0  0  0  0  0  0  0  0  0  0
  145.4900  134.3230  151.3274 H   0  0  0  0  0  0  0  0  0  0  0  0
  146.5350  133.6618  152.6891 H   0  0  0  0  0  0  0  0  0  0  0  0
  144.5265  133.6365  154.2125 H   0  0  0  0  0  0  0  0  0  0  0  0
  143.4891  134.2887  152.8417 H   0  0  0  0  0  0  0  0  0  0  0  0
  151.1286  144.2518  157.0657 H   0  0  0  0  0  0  0  0  0  0  0  0
  153.9282  143.6706  158.2767 H   0  0  0  0  0  0  0  0  0  0  0  0
  153.5135  144.9165  156.9885 H   0  0  0  0  0  0  0  0  0  0  0  0
  151.9563  146.0487  158.5897 H   0  0  0  0  0  0  0  0  0  0  0  0
  152.3503  144.7965  159.8778 H   0  0  0  0  0  0  0  0  0  0  0  0
  1  2  1  0  0  0  0
  1 26  1  0  0  0  0
  1 27  1  0  0  0  0
  1 28  1  0  0  0  0
  2  3  1  0  0  0  0
  2 23  1  0  0  0  0
  2 29  1  0  0  0  0
  3  4  1  0  0  0  0
  3 30  1  0  0  0  0
  4  5  2  0  0  0  0
  4  6  1  0  0  0  0
  6  7  1  0  0  0  0
  6 31  1  0  0  0  0
  6 32  1  0  0  0  0
  7 21  1  0  0  0  0
  7  8  1  0  0  0  0
  8  9  2  0  0  0  0
  8 33  1  0  0  0  0
  9 10  1  0  0  0  0
  9 34  1  0  0  0  0
 10 11  2  0  0  0  0
 10 35  1  0  0  0  0
 11 12  1  0  0  0  0
 11 21  1  0  0  0  0
 12 13  2  0  0  0  0
 12 14  1  0  0  0  0
 14 15  1  0  0  0  0
 14 16  1  0  0  0  0
 15 36  1  0  0  0  0
 15 37  1  0  0  0  0
 15 38  1  0  0  0  0
 16 17  1  0  0  0  0
 16 18  1  0  0  0  0
 16 39  1  0  0  0  0
 17 40  1  0  0  0  0
 17 41  1  0  0  0  0
 17 42  1  0  0  0  0
 18 20  1  0  0  0  0
 18 19  1  0  0  0  0
 18 43  1  0  0  0  0
 19 20  1  0  0  0  0
 19 44  1  0  0  0  0
 19 45  1  0  0  0  0
 20 46  1  0  0  0  0
 20 47  1  0  0  0  0
 21 22  2  0  0  0  0
 23 25  1  0  0  0  0
 23 24  1  0  0  0  0
 23 48  1  0  0  0  0
 24 25  1  0  0  0  0
 24 49  1  0  0  0  0
 24 50  1  0  0  0  0
 25 51  1  0  0  0  0
 25 52  1  0  0  0  0
M  END
> <s_m_source_file>
AV-unprocessed.smi

> <i_m_source_file_index>
2862

> <i_lp_mmshare_version>
43012

> <i_f3d_flags>
0

> <s_epik_input>
W0NIMl0xW0NIMl1bQ0hdMVtDQEhdKFtDSDNdKVtOSF1DKD1PKVtDSDJdbjJbY0hdW2NIXVtjSF1jKGMyPU8pQyg9TylOKFtDSDNdKVtDQEhdKFtDSDNdKVtDSF0zW0NIMl1bQ0gyXTM=

> <s_epik_cmdline>
J2VwaWtfcHl0aG9uJywgJy1waCcsICc3LjAnLCAnLXRuJywgJzgnLCAnLW1hJywgJzIwMCcsICctbWV0YWxfYmluZGluZycsICctaW1hZScsICc8aW5maWxlLm1hZT4nLCAnLW9tYWUnLCAnPG91dGZpbGUubWFlPic=

> <r_lp_tautomer_probability>
1

> <r_epik_Ionization_Penalty>
4.00841e-08

> <r_epik_Ionization_Penalty_Charging>
2.07773e-08

> <r_epik_Ionization_Penalty_Neutral>
1.93069e-08

> <r_epik_State_Penalty>
-0

> <r_epik_Charging_Adjusted_Penalty>
2.07773e-08

> <i_epik_Tot_Q>
0

> <i_epik_Tot_abs_Q>
0

> <r_epik_Metal_State_Penalty>
-0

> <b_epik_Metal_Only>
0

> <s_lp_Force_Field>
OPLS_2005

> <r_lp_Energy>
63.2381

> <b_lp_Chiralities_Consistent>
1

> <s_lp_Variant>
AV-unprocessed.smi:2862-1

> <Gold.Version>
5.8.1

> <Gold.Id.Protein>
6NUR|6NUR_protein|mol2

> <Gold.PLP.Fitness>
49.0524

> <Gold.PLP.PLP>
-46.1182

> <Gold.PLP.part.hbond>
-1.0000

> <Gold.PLP.part.metal>
0.0000

> <Gold.PLP.part.buried>
-5.8740

> <Gold.PLP.part.nonpolar>
-41.0444

> <Gold.PLP.part.repulsive>
1.4682

> <Gold.PLP.ligand.clash>
1.1158

> <Gold.PLP.ligand.torsion>
3.3470

> <Gold.PLP.Chemscore.Hbond>
0.9760

> <Gold.PLP.Chemscore.CHOScore>
1.0000

> <Gold.PLP.Chemscore.Metal>
0.0000

> <Gold.Chemscore.Hbonds>
donor molecule, donor type, donor heavy atom, donor atom, acceptor molecule, acceptor atom, score
      P1  H  7954  7966       L1    13  0.37
      L1  C     8    33       P1  8028  1.00

> <Gold.PLP.Chemscore.Internal.Correction>
4.8160

> <Gold.Rescore>
     Score         DG    S(hbond)    S(metal)    S(lipo)     H(rot)  DE(clash)    DE(int)     intcor
     11.42     -17.39       0.97        0.00     112.10       1.73       1.68       4.29       ----

> <Gold.Chemscore.Fitness>
11.4172

> <Gold.Chemscore.DG>
-17.3873

> <Gold.Chemscore.ZeroCoef>
-5.4800

> <Gold.Chemscore.Hbond>
0.9680

> <Gold.Chemscore.Metal>
0.0000

> <Gold.Chemscore.Lipo>
112.0955

> <Gold.Chemscore.Internal_Hbond>
0.0000

> <Gold.Chemscore.DEClash>
1.6813

> <Gold.Chemscore.DEInternal>
4.2887

> <Gold.Chemscore.Rot>
1.7348

> <Gold.Chemscore.Internal.Correction>
   9.000000E+99

> <Gold.Chemscore.Hbonds>
donor molecule, donor type, donor heavy atom, donor atom, acceptor molecule, acceptor atom, score
      P1  H  7954  7966       L1    13  0.36

> <Gold.Chemscore.Hbond.Weighted>
-3.2332

> <Gold.Chemscore.Metal.Weighted>
-0.0000

> <Gold.Chemscore.Lipo.Weighted>
-13.1152

> <Gold.Chemscore.Internal_Hbond.Weighted>
0.0000

> <Gold.Chemscore.DEClash.Weighted>
1.6813

> <Gold.Chemscore.DEInternal.Weighted>
4.2887

> <Gold.Chemscore.Rot.Weighted>
4.4412

> <Gold.Chemscore.Internal.Correction.Weighted>
   9.000000E+99

> <Gold.Protein.RotatedTorsions>
[ 6907 6896 6895 6894 ] final -109.00 input  -60.11 | X-H torsion
[ 7974 7965 7964 7962 ] final  162.19 input  175.53 | X-H torsion
[ 8008 7997 7996 7995 ] final -120.98 input   59.86 | X-H torsion
[ 10167 10162 10161 10158 ] final  -76.63 input  -65.29 | X-H torsion
[ 10718 10713 10712 10709 ] final  -82.96 input   66.30 | X-H torsion
[ 10763 10752 10751 10750 ] final   57.38 input  -60.55 | X-H torsion
[ 11005 11000 10999 10996 ] final   -1.49 input  -57.11 | X-H torsion

> <Gold.Protein.ActiveResidues>
 VAL166  LYS551  ARG553  GLY616  TRP617  ASP618  TYR619  PRO620  LYS621  CYS622 
 ASP623  PHE694  ASN695  SER759  ASP760  ASP761  ALA762  ILE779  LEU786  VAL792 
 PHE793  MET794  SER795  GLU796  ALA797  LYS798  CYS799  TRP800  GLU811  SER814 

> <Gold.Protein.RotatedAtoms>
  150.7535  133.9594  159.3510 H   0  0  0  0  0  0  0  0  0  0  0  0  # atno 6907 bound_to 6896
  151.7518  135.0829  160.0341 H   0  0  0  0  0  0  0  0  0  0  0  0  # atno 6908 bound_to 6896
  152.3461  133.6087  159.5947 H   0  0  0  0  0  0  0  0  0  0  0  0  # atno 6909 bound_to 6896
  144.7649  139.8004  143.6319 H   0  0  0  0  0  0  0  0  0  0  0  0  # atno 7974 bound_to 7965
  155.1406  140.0402  157.2797 H   0  0  0  0  0  0  0  0  0  0  0  0  # atno 8008 bound_to 7997
  154.6476  140.2561  155.7224 H   0  0  0  0  0  0  0  0  0  0  0  0  # atno 8009 bound_to 7997
  156.2562  140.2843  156.0896 H   0  0  0  0  0  0  0  0  0  0  0  0  # atno 8010 bound_to 7997
  140.4840  143.2395  151.8013 H   0  0  0  0  0  0  0  0  0  0  0  0  # atno 10167 bound_to 10162
  156.0025  130.4650  150.4185 H   0  0  0  0  0  0  0  0  0  0  0  0  # atno 10718 bound_to 10713
  152.9849  135.5643  154.5382 H   0  0  0  0  0  0  0  0  0  0  0  0  # atno 10763 bound_to 10752
  154.4841  135.2790  155.1550 H   0  0  0  0  0  0  0  0  0  0  0  0  # atno 10764 bound_to 10752
  154.3046  135.6300  153.5492 H   0  0  0  0  0  0  0  0  0  0  0  0  # atno 10765 bound_to 10752
  140.6479  133.9431  155.8363 H   0  0  0  0  0  0  0  0  0  0  0  0  # atno 11005 bound_to 11000
  146.1746  139.4912  142.9905 LP  0  0  0  0  0  0  0  0  0  0  0  0  # atno 17320 bound_to 7965
  145.6503  141.0264  143.1764 LP  0  0  0  0  0  0  0  0  0  0  0  0  # atno 17321 bound_to 7965
  139.4838  144.4736  151.9395 LP  0  0  0  0  0  0  0  0  0  0  0  0  # atno 17342 bound_to 10162
  140.3822  144.2722  150.5907 LP  0  0  0  0  0  0  0  0  0  0  0  0  # atno 17343 bound_to 10162
  157.2243  131.0489  151.2529 LP  0  0  0  0  0  0  0  0  0  0  0  0  # atno 17370 bound_to 10713
  157.3771  130.7212  149.6604 LP  0  0  0  0  0  0  0  0  0  0  0  0  # atno 17371 bound_to 10713
  141.0559  134.0417  157.3723 LP  0  0  0  0  0  0  0  0  0  0  0  0  # atno 17394 bound_to 11000
  139.9056  135.0178  156.7471 LP  0  0  0  0  0  0  0  0  0  0  0  0  # atno 17395 bound_to 11000

$$$$
