AV-unprocessed.smi:1072|AV-procd|sdf|4684|dock5
  -GOLD-   22720 3203D 1   1.00000     0.00000
 Structure written by MMmdl.
 46 47  0  0  0  0  0  0  0  0  1 V2000
  146.5233  137.7813  151.7029 C   0  0  0  0  0  0  0  0  0  0  0  0
  147.1759  138.9293  152.4436 C   0  0  0  0  0  0  0  0  0  0  0  0
  146.6006  140.0657  152.6633 N   0  0  0  0  0  0  0  0  0  0  0  0
  147.3073  141.0548  153.3615 C   0  0  0  0  0  0  0  0  0  0  0  0
  146.5615  142.3594  153.5853 C   0  0  0  0  0  0  0  0  0  0  0  0
  148.5807  140.8446  153.8077 C   0  0  0  0  0  0  0  0  0  0  0  0
  149.3734  141.9024  154.5746 C   0  0  0  0  0  0  0  0  0  0  0  0
  149.6232  141.6009  156.0543 C   0  0  0  0  0  0  0  0  0  0  0  0
  148.9587  140.7379  156.6274 O   0  0  0  0  0  0  0  0  0  0  0  0
  150.5771  142.3399  156.6489 N   0  0  0  0  0  0  0  0  0  0  0  0
  151.0150  142.3457  158.0518 C   0  0  1  0  0  0  0  0  0  0  0  0
  149.8044  142.8728  158.8518 C   0  0  0  0  0  0  0  0  0  0  0  0
  151.3745  140.9047  158.5074 C   0  0  0  0  0  0  0  0  0  0  0  0
  151.9847  140.8509  159.9194 C   0  0  0  0  0  0  0  0  0  0  0  0
  153.2098  141.7744  160.0460 C   0  0  2  0  0  0  0  0  0  0  0  0
  153.8156  141.7107  161.4554 C   0  0  0  0  0  0  0  0  0  0  0  0
  152.8389  143.2171  159.6566 C   0  0  0  0  0  0  0  0  0  0  0  0
  152.2348  143.2890  158.2421 C   0  0  0  0  0  0  0  0  0  0  0  0
  149.2280  139.5435  153.5501 C   0  0  0  0  0  0  0  0  0  0  0  0
  150.3666  139.2466  153.9089 O   0  0  0  0  0  0  0  0  0  0  0  0
  148.4722  138.6505  152.8727 N   0  0  0  0  0  0  0  0  0  0  0  0
  148.8696  137.7440  152.6738 H   0  0  0  0  0  0  0  0  0  0  0  0
  145.6263  137.4557  152.2303 H   0  0  0  0  0  0  0  0  0  0  0  0
  147.1951  136.9266  151.6120 H   0  0  0  0  0  0  0  0  0  0  0  0
  146.2358  138.0974  150.6999 H   0  0  0  0  0  0  0  0  0  0  0  0
  147.0789  143.1854  153.0970 H   0  0  0  0  0  0  0  0  0  0  0  0
  146.4797  142.5801  154.6498 H   0  0  0  0  0  0  0  0  0  0  0  0
  145.5507  142.3119  153.1786 H   0  0  0  0  0  0  0  0  0  0  0  0
  150.3379  142.0836  154.0995 H   0  0  0  0  0  0  0  0  0  0  0  0
  148.8421  142.8512  154.4925 H   0  0  0  0  0  0  0  0  0  0  0  0
  151.0477  143.0081  156.0560 H   0  0  0  0  0  0  0  0  0  0  0  0
  149.9977  142.9211  159.9223 H   0  0  0  0  0  0  0  0  0  0  0  0
  148.9311  142.2340  158.7133 H   0  0  0  0  0  0  0  0  0  0  0  0
  149.5270  143.8776  158.5311 H   0  0  0  0  0  0  0  0  0  0  0  0
  150.4924  140.2648  158.4632 H   0  0  0  0  0  0  0  0  0  0  0  0
  152.0975  140.4582  157.8252 H   0  0  0  0  0  0  0  0  0  0  0  0
  151.2345  141.1213  160.6628 H   0  0  0  0  0  0  0  0  0  0  0  0
  152.2733  139.8238  160.1457 H   0  0  0  0  0  0  0  0  0  0  0  0
  153.9692  141.4227  159.3459 H   0  0  0  0  0  0  0  0  0  0  0  0
  153.1034  142.0485  162.2090 H   0  0  0  0  0  0  0  0  0  0  0  0
  154.7030  142.3397  161.5305 H   0  0  0  0  0  0  0  0  0  0  0  0
  154.1117  140.6926  161.7096 H   0  0  0  0  0  0  0  0  0  0  0  0
  152.1409  143.6319  160.3840 H   0  0  0  0  0  0  0  0  0  0  0  0
  153.7266  143.8493  159.6994 H   0  0  0  0  0  0  0  0  0  0  0  0
  153.0277  143.0353  157.5394 H   0  0  0  0  0  0  0  0  0  0  0  0
  151.9547  144.3181  158.0134 H   0  0  0  0  0  0  0  0  0  0  0  0
  1  2  1  0  0  0  0
  1 23  1  0  0  0  0
  1 24  1  0  0  0  0
  1 25  1  0  0  0  0
  2 21  1  0  0  0  0
  2  3  2  0  0  0  0
  3  4  1  0  0  0  0
  4  5  1  0  0  0  0
  4  6  2  0  0  0  0
  5 26  1  0  0  0  0
  5 27  1  0  0  0  0
  5 28  1  0  0  0  0
  6  7  1  0  0  0  0
  6 19  1  0  0  0  0
  7  8  1  0  0  0  0
  7 29  1  0  0  0  0
  7 30  1  0  0  0  0
  8  9  2  0  0  0  0
  8 10  1  0  0  0  0
 10 11  1  0  0  0  0
 10 31  1  0  0  0  0
 11 18  1  0  0  0  0
 11 12  1  0  0  0  0
 11 13  1  0  0  0  0
 12 32  1  0  0  0  0
 12 33  1  0  0  0  0
 12 34  1  0  0  0  0
 13 14  1  0  0  0  0
 13 35  1  0  0  0  0
 13 36  1  0  0  0  0
 14 15  1  0  0  0  0
 14 37  1  0  0  0  0
 14 38  1  0  0  0  0
 15 16  1  0  0  0  0
 15 17  1  0  0  0  0
 15 39  1  0  0  0  0
 16 40  1  0  0  0  0
 16 41  1  0  0  0  0
 16 42  1  0  0  0  0
 17 18  1  0  0  0  0
 17 43  1  0  0  0  0
 17 44  1  0  0  0  0
 18 45  1  0  0  0  0
 18 46  1  0  0  0  0
 19 20  2  0  0  0  0
 19 21  1  0  0  0  0
 21 22  1  0  0  0  0
M  END
> <s_m_source_file>
AV-unprocessed.smi

> <i_m_source_file_index>
1072

> <i_lp_mmshare_version>
43012

> <i_f3d_flags>
0

> <s_epik_input>
W0NIM11jMW5jKFtDSDNdKWMoYyg9TylbbkhdMSlbQ0gyXUMoPU8pW05IXVtDQEBdMihbQ0gzXSlbQ0gyXVtDSDJdW0NAQEhdKFtDSDNdKVtDSDJdW0NIMl0y

> <s_epik_cmdline>
J2VwaWtfcHl0aG9uJywgJy1waCcsICc3LjAnLCAnLXRuJywgJzgnLCAnLW1hJywgJzIwMCcsICctbWV0YWxfYmluZGluZycsICctaW1hZScsICc8aW5maWxlLm1hZT4nLCAnLW9tYWUnLCAnPG91dGZpbGUubWFlPic=

> <r_lp_tautomer_probability>
0.839158

> <r_epik_Ionization_Penalty>
0.000352328

> <r_epik_Ionization_Penalty_Charging>
0.000314696

> <r_epik_Ionization_Penalty_Neutral>
3.76315e-05

> <r_epik_State_Penalty>
0.09125

> <r_epik_Charging_Adjusted_Penalty>
0.0915647

> <i_epik_Tot_Q>
0

> <i_epik_Tot_abs_Q>
0

> <r_epik_Metal_State_Penalty>
0.245598

> <b_epik_Metal_Only>
0

> <s_lp_Force_Field>
OPLS_2005

> <r_lp_Energy>
14.8959

> <b_lp_Chiralities_Consistent>
1

> <s_lp_Variant>
AV-unprocessed.smi:1072-2

> <Gold.Version>
5.8.1

> <Gold.Id.Protein>
6NUR|6NUR_protein|mol2

> <Gold.PLP.Fitness>
41.6066

> <Gold.PLP.PLP>
-36.2908

> <Gold.PLP.part.hbond>
-3.6082

> <Gold.PLP.part.metal>
0.0000

> <Gold.PLP.part.buried>
7.0058

> <Gold.PLP.part.nonpolar>
-40.7664

> <Gold.PLP.part.repulsive>
2.1480

> <Gold.PLP.ligand.clash>
0.0000

> <Gold.PLP.ligand.torsion>
0.3438

> <Gold.PLP.Chemscore.Hbond>
2.0000

> <Gold.PLP.Chemscore.CHOScore>
0.0000

> <Gold.PLP.Chemscore.Metal>
0.0000

> <Gold.Chemscore.Hbonds>
donor molecule, donor type, donor heavy atom, donor atom, acceptor molecule, acceptor atom, score
      L1  H    21    22       P1  7948  1.00
      P1  H  7989  7998       L1    20  0.86

> <Gold.PLP.Chemscore.Internal.Correction>
0.0034

> <Gold.Rescore>
     Score         DG    S(hbond)    S(metal)    S(lipo)     H(rot)  DE(clash)    DE(int)     intcor
     15.69     -20.16       1.54        0.00     113.56       1.47       4.16       0.31       ----

> <Gold.Chemscore.Fitness>
15.6875

> <Gold.Chemscore.DG>
-20.1558

> <Gold.Chemscore.ZeroCoef>
-5.4800

> <Gold.Chemscore.Hbond>
1.5420

> <Gold.Chemscore.Metal>
0.0000

> <Gold.Chemscore.Lipo>
113.5577

> <Gold.Chemscore.Internal_Hbond>
0.0000

> <Gold.Chemscore.DEClash>
4.1600

> <Gold.Chemscore.DEInternal>
0.3083

> <Gold.Chemscore.Rot>
1.4690

> <Gold.Chemscore.Internal.Correction>
   9.000000E+99

> <Gold.Chemscore.Hbonds>
donor molecule, donor type, donor heavy atom, donor atom, acceptor molecule, acceptor atom, score
      L1  H    21    22       P1  7948  0.98
      P1  H  7989  7998       L1    20  0.53

> <Gold.Chemscore.Hbond.Weighted>
-5.1503

> <Gold.Chemscore.Metal.Weighted>
-0.0000

> <Gold.Chemscore.Lipo.Weighted>
-13.2863

> <Gold.Chemscore.Internal_Hbond.Weighted>
0.0000

> <Gold.Chemscore.DEClash.Weighted>
4.1600

> <Gold.Chemscore.DEInternal.Weighted>
0.3083

> <Gold.Chemscore.Rot.Weighted>
3.7607

> <Gold.Chemscore.Internal.Correction.Weighted>
   9.000000E+99

> <Gold.Protein.RotatedTorsions>
[ 6907 6896 6895 6894 ] final -161.17 input  -60.11 | X-H torsion
[ 7974 7965 7964 7962 ] final -107.28 input  175.53 | X-H torsion
[ 8008 7997 7996 7995 ] final -121.37 input   59.86 | X-H torsion
[ 10167 10162 10161 10158 ] final  -66.13 input  -65.29 | X-H torsion
[ 10718 10713 10712 10709 ] final -144.89 input   66.30 | X-H torsion
[ 10763 10752 10751 10750 ] final  -46.91 input  -60.55 | X-H torsion
[ 11005 11000 10999 10996 ] final  134.57 input  -57.11 | X-H torsion

> <Gold.Protein.ActiveResidues>
 VAL166  LYS551  ARG553  GLY616  TRP617  ASP618  TYR619  PRO620  LYS621  CYS622 
 ASP623  PHE694  ASN695  SER759  ASP760  ASP761  ALA762  ILE779  LEU786  VAL792 
 PHE793  MET794  SER795  GLU796  ALA797  LYS798  CYS799  TRP800  GLU811  SER814 

> <Gold.Protein.RotatedAtoms>
  151.3605  133.3891  159.2689 H   0  0  0  0  0  0  0  0  0  0  0  0  # atno 6907 bound_to 6896
  150.9729  134.9099  159.7809 H   0  0  0  0  0  0  0  0  0  0  0  0  # atno 6908 bound_to 6896
  152.5191  134.3568  159.9323 H   0  0  0  0  0  0  0  0  0  0  0  0  # atno 6909 bound_to 6896
  145.2073  140.9081  143.3335 H   0  0  0  0  0  0  0  0  0  0  0  0  # atno 7974 bound_to 7965
  155.1469  140.0403  157.2812 H   0  0  0  0  0  0  0  0  0  0  0  0  # atno 8008 bound_to 7997
  154.6432  140.2552  155.7271 H   0  0  0  0  0  0  0  0  0  0  0  0  # atno 8009 bound_to 7997
  156.2542  140.2851  156.0835 H   0  0  0  0  0  0  0  0  0  0  0  0  # atno 8010 bound_to 7997
  140.5679  143.2316  151.6597 H   0  0  0  0  0  0  0  0  0  0  0  0  # atno 10167 bound_to 10162
  156.3757  130.7811  151.1997 H   0  0  0  0  0  0  0  0  0  0  0  0  # atno 10718 bound_to 10713
  154.0527  135.6629  153.4802 H   0  0  0  0  0  0  0  0  0  0  0  0  # atno 10763 bound_to 10752
  153.0457  135.5116  154.7736 H   0  0  0  0  0  0  0  0  0  0  0  0  # atno 10764 bound_to 10752
  154.6747  135.3035  154.9661 H   0  0  0  0  0  0  0  0  0  0  0  0  # atno 10765 bound_to 10752
  139.9923  134.9510  156.9885 H   0  0  0  0  0  0  0  0  0  0  0  0  # atno 11005 bound_to 11000
  144.9890  139.3708  143.6224 LP  0  0  0  0  0  0  0  0  0  0  0  0  # atno 17320 bound_to 7965
  146.3405  139.9064  142.8787 LP  0  0  0  0  0  0  0  0  0  0  0  0  # atno 17321 bound_to 7965
  139.5102  144.3550  152.0617 LP  0  0  0  0  0  0  0  0  0  0  0  0  # atno 17342 bound_to 10162
  140.2684  144.3991  150.6160 LP  0  0  0  0  0  0  0  0  0  0  0  0  # atno 17343 bound_to 10162
  157.7488  131.0359  150.4384 LP  0  0  0  0  0  0  0  0  0  0  0  0  # atno 17370 bound_to 10713
  156.4619  130.4034  149.6571 LP  0  0  0  0  0  0  0  0  0  0  0  0  # atno 17371 bound_to 10713
  140.4884  134.1218  155.7228 LP  0  0  0  0  0  0  0  0  0  0  0  0  # atno 17394 bound_to 11000
  141.1576  133.8853  157.1935 LP  0  0  0  0  0  0  0  0  0  0  0  0  # atno 17395 bound_to 11000

$$$$
