AV-unprocessed.smi:2734|AV-procd|sdf|10540|dock5
  -GOLD-   2272014583D 1   1.00000     0.00000
 Structure written by MMmdl.
 41 43  0  0  0  0  0  0  0  0  2 V2000
  152.4337  143.4400  161.4331 C   0  0  0  0  0  0  0  0  0  0  0  0
  152.2151  142.7480  160.0984 C   0  0  0  0  0  0  0  0  0  0  0  0
  151.2539  143.2826  159.2112 C   0  0  0  0  0  0  0  0  0  0  0  0
  151.0734  142.6252  158.0000 C   0  0  0  0  0  0  0  0  0  0  0  0
  150.2140  142.8951  156.9331 N   0  3  0  0  0  0  0  0  0  0  0  0
  150.3915  141.9608  155.9586 C   0  0  0  0  0  0  0  0  0  0  0  0
  151.3517  141.0975  156.3871 N   0  0  0  0  0  0  0  0  0  0  0  0
  151.9065  139.9108  155.7204 C   0  0  0  0  0  0  0  0  0  0  0  0
  150.8337  139.0596  155.0108 C   0  0  1  0  0  0  0  0  0  0  0  0
  150.3872  139.7843  153.8835 O   0  0  0  0  0  0  0  0  0  0  0  0
  151.3325  137.6738  154.5617 C   0  0  0  0  0  0  0  0  0  0  0  0
  150.6180  136.3229  155.5463 S   0  0  0  0  0  0  0  0  0  0  0  0
  151.6990  136.3773  156.9429 C   0  0  0  0  0  0  0  0  0  0  0  0
  152.9775  136.0163  156.9692 N   0  0  0  0  0  0  0  0  0  0  0  0
  153.3648  136.2511  158.2744 N   0  0  0  0  0  0  0  0  0  0  0  0
  152.3788  136.7217  158.9813 N   0  0  0  0  0  0  0  0  0  0  0  0
  151.3120  136.8082  158.1499 N   0  0  0  0  0  0  0  0  0  0  0  0
  150.0331  137.3020  158.6205 C   0  0  0  0  0  0  0  0  0  0  0  0
  151.8111  141.4760  157.6551 C   0  0  0  0  0  0  0  0  0  0  0  0
  152.7651  140.9390  158.5170 C   0  0  0  0  0  0  0  0  0  0  0  0
  152.9626  141.5920  159.7543 C   0  0  0  0  0  0  0  0  0  0  0  0
  153.9949  141.0254  160.7142 C   0  0  0  0  0  0  0  0  0  0  0  0
  151.7113  144.2415  161.5895 H   0  0  0  0  0  0  0  0  0  0  0  0
  153.4324  143.8755  161.4768 H   0  0  0  0  0  0  0  0  0  0  0  0
  152.3271  142.7334  162.2565 H   0  0  0  0  0  0  0  0  0  0  0  0
  150.6817  144.1630  159.4656 H   0  0  0  0  0  0  0  0  0  0  0  0
  149.8629  141.9111  155.0174 H   0  0  0  0  0  0  0  0  0  0  0  0
  152.6386  140.2658  154.9937 H   0  0  0  0  0  0  0  0  0  0  0  0
  152.4637  139.3184  156.4464 H   0  0  0  0  0  0  0  0  0  0  0  0
  149.9845  138.9301  155.6826 H   0  0  0  0  0  0  0  0  0  0  0  0
  149.7607  139.2537  153.4146 H   0  0  0  0  0  0  0  0  0  0  0  0
  151.1015  137.5122  153.5082 H   0  0  0  0  0  0  0  0  0  0  0  0
  152.4152  137.6160  154.6698 H   0  0  0  0  0  0  0  0  0  0  0  0
  149.7606  138.1997  158.0652 H   0  0  0  0  0  0  0  0  0  0  0  0
  150.0826  137.5444  159.6828 H   0  0  0  0  0  0  0  0  0  0  0  0
  149.2676  136.5409  158.4669 H   0  0  0  0  0  0  0  0  0  0  0  0
  153.3316  140.0560  158.2616 H   0  0  0  0  0  0  0  0  0  0  0  0
  154.5415  140.1942  160.2677 H   0  0  0  0  0  0  0  0  0  0  0  0
  153.5119  140.6591  161.6203 H   0  0  0  0  0  0  0  0  0  0  0  0
  154.7221  141.7882  160.9924 H   0  0  0  0  0  0  0  0  0  0  0  0
  149.5523  143.6584  156.8728 H   0  0  0  0  0  0  0  0  0  0  0  0
  1  2  1  0  0  0  0
  1 23  1  0  0  0  0
  1 24  1  0  0  0  0
  1 25  1  0  0  0  0
  2 21  1  0  0  0  0
  2  3  2  0  0  0  0
  3  4  1  0  0  0  0
  3 26  1  0  0  0  0
  4 19  2  0  0  0  0
  4  5  1  0  0  0  0
  5  6  2  0  0  0  0
  5 41  1  0  0  0  0
  6  7  1  0  0  0  0
  6 27  1  0  0  0  0
  7  8  1  0  0  0  0
  7 19  1  0  0  0  0
  8  9  1  0  0  0  0
  8 28  1  0  0  0  0
  8 29  1  0  0  0  0
  9 10  1  0  0  0  0
  9 11  1  0  0  0  0
  9 30  1  0  0  0  0
 10 31  1  0  0  0  0
 11 12  1  0  0  0  0
 11 32  1  0  0  0  0
 11 33  1  0  0  0  0
 12 13  1  0  0  0  0
 13 17  1  0  0  0  0
 13 14  2  0  0  0  0
 14 15  1  0  0  0  0
 15 16  2  0  0  0  0
 16 17  1  0  0  0  0
 17 18  1  0  0  0  0
 18 34  1  0  0  0  0
 18 35  1  0  0  0  0
 18 36  1  0  0  0  0
 19 20  1  0  0  0  0
 20 21  2  0  0  0  0
 20 37  1  0  0  0  0
 21 22  1  0  0  0  0
 22 38  1  0  0  0  0
 22 39  1  0  0  0  0
 22 40  1  0  0  0  0
M  CHG  1   5   1
M  END
> <s_m_source_file>
AV-unprocessed.smi

> <i_m_source_file_index>
2734

> <i_lp_mmshare_version>
43012

> <i_f3d_flags>
0

> <s_epik_input>
W0NIM11jKFtjSF0xKWMoW0NIM10pW2NIXWMoYzEyKW4oW2NIXW4yKVtDSDJdW0NASF0oW09IXSlbQ0gyXVNjM25ubm4zW0NIM10=

> <s_epik_cmdline>
J2VwaWtfcHl0aG9uJywgJy1waCcsICc3LjAnLCAnLXRuJywgJzgnLCAnLW1hJywgJzIwMCcsICctbWV0YWxfYmluZGluZycsICctaW1hZScsICc8aW5maWxlLm1hZT4nLCAnLW9tYWUnLCAnPG91dGZpbGUubWFlPic=

> <r_lp_tautomer_probability>
1

> <r_epik_Ionization_Penalty>
1.07429

> <r_epik_Ionization_Penalty_Charging>
1.07429

> <r_epik_Ionization_Penalty_Neutral>
3.30514e-06

> <r_epik_State_Penalty>
1.12915

> <r_epik_Charging_Adjusted_Penalty>
2.20344

> <i_epik_Tot_Q>
1

> <i_epik_Tot_abs_Q>
1

> <r_epik_Metal_State_Penalty>
1.22002

> <b_epik_Metal_Only>
0

> <s_lp_Force_Field>
OPLS_2005

> <r_lp_Energy>
15.3116

> <b_lp_Chiralities_Consistent>
1

> <s_lp_Variant>
AV-unprocessed.smi:2734-4

> <Gold.Version>
5.8.1

> <Gold.Id.Protein>
6NUR|6NUR_protein|mol2

> <Gold.PLP.Fitness>
56.1973

> <Gold.PLP.PLP>
-45.0862

> <Gold.PLP.part.hbond>
-5.4263

> <Gold.PLP.part.metal>
0.0000

> <Gold.PLP.part.buried>
-3.5627

> <Gold.PLP.part.nonpolar>
-34.3079

> <Gold.PLP.part.repulsive>
0.0207

> <Gold.PLP.ligand.clash>
0.0000

> <Gold.PLP.ligand.torsion>
1.2369

> <Gold.PLP.Chemscore.Hbond>
4.5018

> <Gold.PLP.Chemscore.CHOScore>
0.0000

> <Gold.PLP.Chemscore.Metal>
0.0000

> <Gold.Chemscore.Hbonds>
donor molecule, donor type, donor heavy atom, donor atom, acceptor molecule, acceptor atom, score
      L1  H     5    41       P1  8028  1.57
      L1  H    10    31       P1  7957  0.02
      P1  H  6896  6907       L1    16  0.88
      P1  H  7989  7998       L1    10  1.00
      P1  H 10752 10763       L1    14  1.00

> <Gold.PLP.Chemscore.Internal.Correction>
0.0793

> <Gold.Rescore>
     Score         DG    S(hbond)    S(metal)    S(lipo)     H(rot)  DE(clash)    DE(int)     intcor
     16.59     -19.90       2.79        0.00     107.53       2.92       0.91       2.40       ----

> <Gold.Chemscore.Fitness>
16.5881

> <Gold.Chemscore.DG>
-19.8993

> <Gold.Chemscore.ZeroCoef>
-5.4800

> <Gold.Chemscore.Hbond>
2.7858

> <Gold.Chemscore.Metal>
0.0000

> <Gold.Chemscore.Lipo>
107.5278

> <Gold.Chemscore.Internal_Hbond>
0.0000

> <Gold.Chemscore.DEClash>
0.9122

> <Gold.Chemscore.DEInternal>
2.3989

> <Gold.Chemscore.Rot>
2.9164

> <Gold.Chemscore.Internal.Correction>
   9.000000E+99

> <Gold.Chemscore.Hbonds>
donor molecule, donor type, donor heavy atom, donor atom, acceptor molecule, acceptor atom, score
      L1  H     5    41       P1  8028  0.76
      L1  H    10    31       P1  7957  0.03
      P1  H  6896  6907       L1    16  0.06
      P1  H  7989  7998       L1    10  0.58
      P1  H 10752 10763       L1    14  0.39

> <Gold.Chemscore.Hbond.Weighted>
-9.3045

> <Gold.Chemscore.Metal.Weighted>
-0.0000

> <Gold.Chemscore.Lipo.Weighted>
-12.5808

> <Gold.Chemscore.Internal_Hbond.Weighted>
0.0000

> <Gold.Chemscore.DEClash.Weighted>
0.9122

> <Gold.Chemscore.DEInternal.Weighted>
2.3989

> <Gold.Chemscore.Rot.Weighted>
7.4660

> <Gold.Chemscore.Internal.Correction.Weighted>
   9.000000E+99

> <Gold.Protein.RotatedTorsions>
[ 6907 6896 6895 6894 ] final   19.24 input  -60.11 | X-H torsion
[ 7974 7965 7964 7962 ] final  179.42 input  175.53 | X-H torsion
[ 8008 7997 7996 7995 ] final  -85.72 input   59.86 | X-H torsion
[ 10167 10162 10161 10158 ] final   58.83 input  -65.29 | X-H torsion
[ 10718 10713 10712 10709 ] final   26.66 input   66.30 | X-H torsion
[ 10763 10752 10751 10750 ] final  100.31 input  -60.55 | X-H torsion
[ 11005 11000 10999 10996 ] final -143.80 input  -57.11 | X-H torsion

> <Gold.Protein.ActiveResidues>
 VAL166  LYS551  ARG553  GLY616  TRP617  ASP618  TYR619  PRO620  LYS621  CYS622 
 ASP623  PHE694  ASN695  SER759  ASP760  ASP761  ALA762  ILE779  LEU786  VAL792 
 PHE793  MET794  SER795  GLU796  ALA797  LYS798  CYS799  TRP800  GLU811  SER814 

> <Gold.Protein.RotatedAtoms>
  151.8778  135.0465  160.0485 H   0  0  0  0  0  0  0  0  0  0  0  0  # atno 6907 bound_to 6896
  152.2537  133.5232  159.5349 H   0  0  0  0  0  0  0  0  0  0  0  0  # atno 6908 bound_to 6896
  150.7092  134.0841  159.3951 H   0  0  0  0  0  0  0  0  0  0  0  0  # atno 6909 bound_to 6896
  144.7146  140.0545  143.6434 H   0  0  0  0  0  0  0  0  0  0  0  0  # atno 7974 bound_to 7965
  154.6439  140.0588  156.9878 H   0  0  0  0  0  0  0  0  0  0  0  0  # atno 8008 bound_to 7997
  155.1474  140.3271  155.4420 H   0  0  0  0  0  0  0  0  0  0  0  0  # atno 8009 bound_to 7997
  156.2544  140.1953  156.6587 H   0  0  0  0  0  0  0  0  0  0  0  0  # atno 8010 bound_to 7997
  140.1830  144.4163  150.6606 H   0  0  0  0  0  0  0  0  0  0  0  0  # atno 10167 bound_to 10162
  157.2098  130.6929  149.6223 H   0  0  0  0  0  0  0  0  0  0  0  0  # atno 10718 bound_to 10713
  153.3123  135.4083  155.1346 H   0  0  0  0  0  0  0  0  0  0  0  0  # atno 10763 bound_to 10752
  154.8579  135.3567  154.5707 H   0  0  0  0  0  0  0  0  0  0  0  0  # atno 10764 bound_to 10752
  153.6136  135.7067  153.5396 H   0  0  0  0  0  0  0  0  0  0  0  0  # atno 10765 bound_to 10752
  140.8089  134.2768  157.4949 H   0  0  0  0  0  0  0  0  0  0  0  0  # atno 11005 bound_to 11000
  145.9916  139.3019  143.0981 LP  0  0  0  0  0  0  0  0  0  0  0  0  # atno 17320 bound_to 7965
  145.8896  140.9312  143.0559 LP  0  0  0  0  0  0  0  0  0  0  0  0  # atno 17321 bound_to 7965
  140.6507  143.2224  151.6083 LP  0  0  0  0  0  0  0  0  0  0  0  0  # atno 17342 bound_to 10162
  139.5288  144.2978  152.1099 LP  0  0  0  0  0  0  0  0  0  0  0  0  # atno 17343 bound_to 10162
  155.9692  130.4555  150.5890 LP  0  0  0  0  0  0  0  0  0  0  0  0  # atno 17370 bound_to 10713
  157.3684  131.0761  151.1578 LP  0  0  0  0  0  0  0  0  0  0  0  0  # atno 17371 bound_to 10713
  139.8715  134.9472  156.3960 LP  0  0  0  0  0  0  0  0  0  0  0  0  # atno 17394 bound_to 11000
  140.9218  133.7640  155.9916 LP  0  0  0  0  0  0  0  0  0  0  0  0  # atno 17395 bound_to 11000

$$$$
