AV-unprocessed.smi:930|AV-procd|sdf|4197|dock7
  -GOLD-   22720 2103D 1   1.00000     0.00000
 Structure written by MMmdl.
 31 32  0  0  0  0  0  0  0  0  2 V2000
  155.4987  137.0969  163.5046 C   0  0  0  0  0  0  0  0  0  0  0  0
  154.9571  137.4922  162.1739 C   0  0  0  0  0  0  0  0  0  0  0  0
  154.2889  136.6466  161.3861 N   0  0  0  0  0  0  0  0  0  0  0  0
  153.8823  137.2455  160.2024 N   0  0  0  0  0  0  0  0  0  0  0  0
  154.2390  138.5348  160.1155 C   0  0  0  0  0  0  0  0  0  0  0  0
  153.9427  139.2930  159.0469 N   0  5  0  0  0  0  0  0  0  0  0  0
  152.9037  140.1575  159.0985 C   0  0  0  0  0  0  0  0  0  0  0  0
  151.7127  139.8772  158.9443 O   0  0  0  0  0  0  0  0  0  0  0  0
  153.2677  141.4246  159.3447 N   0  0  0  0  0  0  0  0  0  0  0  0
  152.3702  142.5711  159.4644 C   0  0  0  0  0  0  0  0  0  0  0  0
  151.9724  143.1001  158.0706 C   0  0  0  0  0  0  0  0  0  0  0  0
  151.0898  144.3544  158.1767 C   0  0  0  0  0  0  0  0  0  0  0  0
  151.7746  145.4512  159.0073 C   0  0  0  0  0  0  0  0  0  0  0  0
  152.1673  144.9288  160.3979 C   0  0  0  0  0  0  0  0  0  0  0  0
  153.0522  143.6760  160.2931 C   0  0  0  0  0  0  0  0  0  0  0  0
  155.1434  139.1092  161.5165 S   0  0  0  0  0  0  0  0  0  0  0  0
  154.7021  137.1074  164.2486 H   0  0  0  0  0  0  0  0  0  0  0  0
  156.2793  137.7907  163.8166 H   0  0  0  0  0  0  0  0  0  0  0  0
  155.9234  136.0938  163.4572 H   0  0  0  0  0  0  0  0  0  0  0  0
  154.2541  141.6062  159.4591 H   0  0  0  0  0  0  0  0  0  0  0  0
  151.4678  142.2619  159.9952 H   0  0  0  0  0  0  0  0  0  0  0  0
  152.8692  143.3360  157.4958 H   0  0  0  0  0  0  0  0  0  0  0  0
  151.4425  142.3285  157.5109 H   0  0  0  0  0  0  0  0  0  0  0  0
  150.8595  144.7317  157.1800 H   0  0  0  0  0  0  0  0  0  0  0  0
  150.1363  144.0901  158.6355 H   0  0  0  0  0  0  0  0  0  0  0  0
  152.6644  145.8037  158.4841 H   0  0  0  0  0  0  0  0  0  0  0  0
  151.1122  146.3115  159.1059 H   0  0  0  0  0  0  0  0  0  0  0  0
  152.6900  145.7075  160.9539 H   0  0  0  0  0  0  0  0  0  0  0  0
  151.2673  144.6931  160.9671 H   0  0  0  0  0  0  0  0  0  0  0  0
  153.2822  143.3050  161.2925 H   0  0  0  0  0  0  0  0  0  0  0  0
  154.0059  143.9453  159.8366 H   0  0  0  0  0  0  0  0  0  0  0  0
  1  2  1  0  0  0  0
  1 17  1  0  0  0  0
  1 18  1  0  0  0  0
  1 19  1  0  0  0  0
  2 16  1  0  0  0  0
  2  3  2  0  0  0  0
  3  4  1  0  0  0  0
  4  5  2  0  0  0  0
  5  6  1  0  0  0  0
  5 16  1  0  0  0  0
  6  7  1  0  0  0  0
  7  8  2  0  0  0  0
  7  9  1  0  0  0  0
  9 10  1  0  0  0  0
  9 20  1  0  0  0  0
 10 15  1  0  0  0  0
 10 11  1  0  0  0  0
 10 21  1  0  0  0  0
 11 12  1  0  0  0  0
 11 22  1  0  0  0  0
 11 23  1  0  0  0  0
 12 13  1  0  0  0  0
 12 24  1  0  0  0  0
 12 25  1  0  0  0  0
 13 14  1  0  0  0  0
 13 26  1  0  0  0  0
 13 27  1  0  0  0  0
 14 15  1  0  0  0  0
 14 28  1  0  0  0  0
 14 29  1  0  0  0  0
 15 30  1  0  0  0  0
 15 31  1  0  0  0  0
M  CHG  1   6  -1
M  END
> <s_m_source_file>
AV-unprocessed.smi

> <i_m_source_file_index>
930

> <i_lp_mmshare_version>
43012

> <i_f3d_flags>
0

> <s_epik_input>
W0NIM11jMW5uYyhzMSlbTkhdQyg9TylbTkhdW0NIXTJbQ0gyXVtDSDJdW0NIMl1bQ0gyXVtDSDJdMg==

> <s_epik_cmdline>
J2VwaWtfcHl0aG9uJywgJy1waCcsICc3LjAnLCAnLXRuJywgJzgnLCAnLW1hJywgJzIwMCcsICctbWV0YWxfYmluZGluZycsICctaW1hZScsICc8aW5maWxlLm1hZT4nLCAnLW9tYWUnLCAnPG91dGZpbGUubWFlPic=

> <r_lp_tautomer_probability>
1

> <r_epik_Ionization_Penalty>
4.57239

> <r_epik_Ionization_Penalty_Charging>
4.41779

> <r_epik_Ionization_Penalty_Neutral>
0.154599

> <r_epik_State_Penalty>
4.41745

> <r_epik_Charging_Adjusted_Penalty>
8.83524

> <i_epik_Tot_Q>
-1

> <i_epik_Tot_abs_Q>
1

> <r_epik_Metal_State_Penalty>
0.779681

> <b_epik_Metal_Only>
1

> <s_lp_Force_Field>
OPLS_2005

> <r_lp_Energy>
6.76033

> <b_lp_Chiralities_Consistent>
1

> <s_lp_Variant>
AV-unprocessed.smi:930-2

> <Gold.Version>
5.8.1

> <Gold.Id.Protein>
6NUR|6NUR_protein|mol2

> <Gold.PLP.Fitness>
39.4391

> <Gold.PLP.PLP>
-34.5732

> <Gold.PLP.part.hbond>
-1.9075

> <Gold.PLP.part.metal>
0.0000

> <Gold.PLP.part.buried>
-4.4400

> <Gold.PLP.part.nonpolar>
-27.7717

> <Gold.PLP.part.repulsive>
0.0820

> <Gold.PLP.ligand.clash>
0.0000

> <Gold.PLP.ligand.torsion>
1.7678

> <Gold.PLP.Chemscore.Hbond>
2.7985

> <Gold.PLP.Chemscore.CHOScore>
0.0000

> <Gold.PLP.Chemscore.Metal>
0.0000

> <Gold.Chemscore.Hbonds>
donor molecule, donor type, donor heavy atom, donor atom, acceptor molecule, acceptor atom, score
      P1  H  7997  8009       L1     6  0.92

> <Gold.PLP.Chemscore.Internal.Correction>
0.0061

> <Gold.Rescore>
     Score         DG    S(hbond)    S(metal)    S(lipo)     H(rot)  DE(clash)    DE(int)     intcor
     16.64     -18.21       1.76        0.00      80.31       1.00       0.00       1.57       ----

> <Gold.Chemscore.Fitness>
16.6414

> <Gold.Chemscore.DG>
-18.2091

> <Gold.Chemscore.ZeroCoef>
-5.4800

> <Gold.Chemscore.Hbond>
1.7644

> <Gold.Chemscore.Metal>
0.0000

> <Gold.Chemscore.Lipo>
80.3067

> <Gold.Chemscore.Internal_Hbond>
0.0000

> <Gold.Chemscore.DEClash>
0.0015

> <Gold.Chemscore.DEInternal>
1.5662

> <Gold.Chemscore.Rot>
1.0000

> <Gold.Chemscore.Internal.Correction>
   9.000000E+99

> <Gold.Chemscore.Hbonds>
donor molecule, donor type, donor heavy atom, donor atom, acceptor molecule, acceptor atom, score
      P1  H  7997  8009       L1     6  0.22

> <Gold.Chemscore.Hbond.Weighted>
-5.8932

> <Gold.Chemscore.Metal.Weighted>
-0.0000

> <Gold.Chemscore.Lipo.Weighted>
-9.3959

> <Gold.Chemscore.Internal_Hbond.Weighted>
0.0000

> <Gold.Chemscore.DEClash.Weighted>
0.0015

> <Gold.Chemscore.DEInternal.Weighted>
1.5662

> <Gold.Chemscore.Rot.Weighted>
2.5600

> <Gold.Chemscore.Internal.Correction.Weighted>
   9.000000E+99

> <Gold.Protein.RotatedTorsions>
[ 6907 6896 6895 6894 ] final  166.06 input  -60.11 | X-H torsion
[ 7974 7965 7964 7962 ] final   17.63 input  175.53 | X-H torsion
[ 8008 7997 7996 7995 ] final  111.85 input   59.86 | X-H torsion
[ 10167 10162 10161 10158 ] final    2.83 input  -65.29 | X-H torsion
[ 10718 10713 10712 10709 ] final  -15.94 input   66.30 | X-H torsion
[ 10763 10752 10751 10750 ] final  -53.26 input  -60.55 | X-H torsion
[ 11005 11000 10999 10996 ] final   21.86 input  -57.11 | X-H torsion

> <Gold.Protein.ActiveResidues>
 VAL166  LYS551  ARG553  GLY616  TRP617  ASP618  TYR619  PRO620  LYS621  CYS622 
 ASP623  PHE694  ASN695  SER759  ASP760  ASP761  ALA762  ILE779  LEU786  VAL792 
 PHE793  MET794  SER795  GLU796  ALA797  LYS798  CYS799  TRP800  GLU811  SER814 

> <Gold.Protein.RotatedAtoms>
  151.8847  133.3503  159.3777 H   0  0  0  0  0  0  0  0  0  0  0  0  # atno 6907 bound_to 6896
  150.7118  134.4983  159.5558 H   0  0  0  0  0  0  0  0  0  0  0  0  # atno 6908 bound_to 6896
  152.2542  134.8102  160.0492 H   0  0  0  0  0  0  0  0  0  0  0  0  # atno 6909 bound_to 6896
  146.2212  139.8575  142.8611 H   0  0  0  0  0  0  0  0  0  0  0  0  # atno 7974 bound_to 7965
  156.2152  140.3011  155.9824 H   0  0  0  0  0  0  0  0  0  0  0  0  # atno 8008 bound_to 7997
  155.2622  140.0430  157.3015 H   0  0  0  0  0  0  0  0  0  0  0  0  # atno 8009 bound_to 7997
  154.5758  140.2361  155.8133 H   0  0  0  0  0  0  0  0  0  0  0  0  # atno 8010 bound_to 7997
  140.6616  143.7290  150.7749 H   0  0  0  0  0  0  0  0  0  0  0  0  # atno 10167 bound_to 10162
  156.5947  130.4808  149.6265 H   0  0  0  0  0  0  0  0  0  0  0  0  # atno 10718 bound_to 10713
  154.1559  135.6482  153.4974 H   0  0  0  0  0  0  0  0  0  0  0  0  # atno 10763 bound_to 10752
  153.0124  135.5349  154.6760 H   0  0  0  0  0  0  0  0  0  0  0  0  # atno 10764 bound_to 10752
  154.6060  135.2949  155.0455 H   0  0  0  0  0  0  0  0  0  0  0  0  # atno 10765 bound_to 10752
  140.3869  134.1860  155.7663 H   0  0  0  0  0  0  0  0  0  0  0  0  # atno 11005 bound_to 11000
  145.2739  141.0117  143.3756 LP  0  0  0  0  0  0  0  0  0  0  0  0  # atno 17320 bound_to 7965
  144.9202  139.4421  143.6544 LP  0  0  0  0  0  0  0  0  0  0  0  0  # atno 17321 bound_to 7965
  140.0959  143.4833  152.2452 LP  0  0  0  0  0  0  0  0  0  0  0  0  # atno 17342 bound_to 10162
  139.5851  144.7527  151.3540 LP  0  0  0  0  0  0  0  0  0  0  0  0  # atno 17343 bound_to 10162
  156.2520  130.6912  151.1653 LP  0  0  0  0  0  0  0  0  0  0  0  0  # atno 17370 bound_to 10713
  157.7295  131.0624  150.5772 LP  0  0  0  0  0  0  0  0  0  0  0  0  # atno 17371 bound_to 10713
  141.1904  133.8217  157.0919 LP  0  0  0  0  0  0  0  0  0  0  0  0  # atno 17394 bound_to 11000
  140.0435  134.9842  157.1007 LP  0  0  0  0  0  0  0  0  0  0  0  0  # atno 17395 bound_to 11000

$$$$
