AV-unprocessed.smi:515|AV-procd|sdf|2780|dock2
  -GOLD-   2262023253D 1   1.00000     0.00000
 Structure written by MMmdl.
 47 49  0  0  0  0  0  0  0  0  1 V2000
  154.3232  138.1406  161.3465 C   0  0  0  0  0  0  0  0  0  0  0  0
  154.0581  136.9236  160.4601 C   0  0  0  0  0  0  0  0  0  0  0  0
  154.1036  137.3167  159.0984 O   0  0  0  0  0  0  0  0  0  0  0  0
  153.0060  138.1410  158.7427 C   0  0  0  0  0  0  0  0  0  0  0  0
  153.0559  138.4923  157.2477 C   0  0  0  0  0  0  0  0  0  0  0  0
  151.9572  139.3595  156.8304 N   0  0  0  0  0  0  0  0  0  0  0  0
  151.6357  140.5968  157.2959 C   0  0  0  0  0  0  0  0  0  0  0  0
  152.3915  141.2970  158.3877 C   0  0  0  0  0  0  0  0  0  0  0  0
  151.7759  142.5435  158.8406 N   0  0  0  0  0  0  0  0  0  0  0  0
  152.4848  143.1225  159.9814 C   0  0  0  0  0  0  0  0  0  0  0  0
  151.8935  144.4752  160.4165 C   0  0  0  0  0  0  0  0  0  0  0  0
  151.8586  145.3696  159.3097 O   0  0  0  0  0  0  0  0  0  0  0  0
  151.1129  144.8537  158.2127 C   0  0  0  0  0  0  0  0  0  0  0  0
  151.7314  143.5211  157.7595 C   0  0  0  0  0  0  0  0  0  0  0  0
  150.5616  141.1392  156.7121 N   0  0  0  0  0  0  0  0  0  0  0  0
  150.1641  140.1676  155.8070 C   0  0  0  0  0  0  0  0  0  0  0  0
  150.9784  139.0852  155.8751 C   0  0  0  0  0  0  0  0  0  0  0  0
  150.7679  137.8869  155.0522 C   0  0  0  0  0  0  0  0  0  0  0  0
  151.4796  136.8869  155.1155 O   0  0  0  0  0  0  0  0  0  0  0  0
  149.7000  137.9922  154.2246 N   0  0  0  0  0  0  0  0  0  0  0  0
  148.8437  139.0524  154.1027 C   0  0  0  0  0  0  0  0  0  0  0  0
  147.9047  138.9958  153.3087 O   0  0  0  0  0  0  0  0  0  0  0  0
  149.0735  140.1512  154.8911 N   0  0  0  0  0  0  0  0  0  0  0  0
  148.1862  141.3128  154.8100 C   0  0  0  0  0  0  0  0  0  0  0  0
  149.5098  137.1944  153.6360 H   0  0  0  0  0  0  0  0  0  0  0  0
  154.2866  137.8697  162.4017 H   0  0  0  0  0  0  0  0  0  0  0  0
  153.5783  138.9176  161.1750 H   0  0  0  0  0  0  0  0  0  0  0  0
  155.3081  138.5618  161.1443 H   0  0  0  0  0  0  0  0  0  0  0  0
  154.8073  136.1550  160.6559 H   0  0  0  0  0  0  0  0  0  0  0  0
  153.0808  136.4999  160.6962 H   0  0  0  0  0  0  0  0  0  0  0  0
  152.0741  137.6295  158.9833 H   0  0  0  0  0  0  0  0  0  0  0  0
  153.0272  139.0601  159.3298 H   0  0  0  0  0  0  0  0  0  0  0  0
  153.9977  138.9866  157.0089 H   0  0  0  0  0  0  0  0  0  0  0  0
  153.0498  137.5744  156.6637 H   0  0  0  0  0  0  0  0  0  0  0  0
  152.4951  140.6109  159.2297 H   0  0  0  0  0  0  0  0  0  0  0  0
  153.4087  141.4822  158.0449 H   0  0  0  0  0  0  0  0  0  0  0  0
  152.4567  142.4376  160.8288 H   0  0  0  0  0  0  0  0  0  0  0  0
  153.5369  143.2621  159.7282 H   0  0  0  0  0  0  0  0  0  0  0  0
  150.8892  144.3484  160.8176 H   0  0  0  0  0  0  0  0  0  0  0  0
  152.4985  144.9143  161.2096 H   0  0  0  0  0  0  0  0  0  0  0  0
  150.0691  144.7191  158.5005 H   0  0  0  0  0  0  0  0  0  0  0  0
  151.1308  145.5773  157.3977 H   0  0  0  0  0  0  0  0  0  0  0  0
  152.7394  143.7035  157.3830 H   0  0  0  0  0  0  0  0  0  0  0  0
  151.1539  143.1223  156.9249 H   0  0  0  0  0  0  0  0  0  0  0  0
  148.0236  141.6117  153.7734 H   0  0  0  0  0  0  0  0  0  0  0  0
  148.5894  142.1807  155.3318 H   0  0  0  0  0  0  0  0  0  0  0  0
  147.2175  141.0780  155.2531 H   0  0  0  0  0  0  0  0  0  0  0  0
  1  2  1  0  0  0  0
  1 26  1  0  0  0  0
  1 27  1  0  0  0  0
  1 28  1  0  0  0  0
  2  3  1  0  0  0  0
  2 29  1  0  0  0  0
  2 30  1  0  0  0  0
  3  4  1  0  0  0  0
  4  5  1  0  0  0  0
  4 31  1  0  0  0  0
  4 32  1  0  0  0  0
  5  6  1  0  0  0  0
  5 33  1  0  0  0  0
  5 34  1  0  0  0  0
  6 17  1  0  0  0  0
  6  7  1  0  0  0  0
  7  8  1  0  0  0  0
  7 15  2  0  0  0  0
  8  9  1  0  0  0  0
  8 35  1  0  0  0  0
  8 36  1  0  0  0  0
  9 14  1  0  0  0  0
  9 10  1  0  0  0  0
 10 11  1  0  0  0  0
 10 37  1  0  0  0  0
 10 38  1  0  0  0  0
 11 12  1  0  0  0  0
 11 39  1  0  0  0  0
 11 40  1  0  0  0  0
 12 13  1  0  0  0  0
 13 14  1  0  0  0  0
 13 41  1  0  0  0  0
 13 42  1  0  0  0  0
 14 43  1  0  0  0  0
 14 44  1  0  0  0  0
 15 16  1  0  0  0  0
 16 23  1  0  0  0  0
 16 17  2  0  0  0  0
 17 18  1  0  0  0  0
 18 19  2  0  0  0  0
 18 20  1  0  0  0  0
 20 25  1  0  0  0  0
 20 21  1  0  0  0  0
 21 22  2  0  0  0  0
 21 23  1  0  0  0  0
 23 24  1  0  0  0  0
 24 45  1  0  0  0  0
 24 46  1  0  0  0  0
 24 47  1  0  0  0  0
M  END
> <s_m_source_file>
AV-unprocessed.smi

> <i_m_source_file_index>
515

> <i_lp_mmshare_version>
43012

> <i_f3d_flags>
0

> <s_epik_input>
W0NIM11uMWMoPU8pW25IXWMoPU8pYyhjMTIpbihbQ0gyXVtDSDJdT1tDSDJdW0NIM10pYyhuMilbQ0gyXU4zW0NIMl1bQ0gyXU9bQ0gyXVtDSDJdMw==

> <s_epik_cmdline>
J2VwaWtfcHl0aG9uJywgJy1waCcsICc3LjAnLCAnLXRuJywgJzgnLCAnLW1hJywgJzIwMCcsICctbWV0YWxfYmluZGluZycsICctaW1hZScsICc8aW5maWxlLm1hZT4nLCAnLW9tYWUnLCAnPG91dGZpbGUubWFlPic=

> <r_epik_Ionization_Penalty>
0.0971954

> <r_epik_Ionization_Penalty_Charging>
0.000195337

> <r_epik_Ionization_Penalty_Neutral>
0.0970001

> <r_epik_State_Penalty>
0.0871068

> <r_epik_Charging_Adjusted_Penalty>
0.0873021

> <i_epik_Tot_Q>
0

> <i_epik_Tot_abs_Q>
0

> <r_epik_Metal_State_Penalty>
0.234549

> <b_epik_Metal_Only>
0

> <s_lp_Force_Field>
OPLS_2005

> <r_lp_Energy>
38.6843

> <b_lp_Chiralities_Consistent>
1

> <s_lp_Variant>
AV-unprocessed.smi:515-1

> <Gold.Version>
5.8.1

> <Gold.Id.Protein>
6NUR|6NUR_protein|mol2

> <Gold.PLP.Fitness>
43.7173

> <Gold.PLP.PLP>
-37.8540

> <Gold.PLP.part.hbond>
-2.0041

> <Gold.PLP.part.metal>
0.0000

> <Gold.PLP.part.buried>
-6.4578

> <Gold.PLP.part.nonpolar>
-31.9082

> <Gold.PLP.part.repulsive>
3.1939

> <Gold.PLP.ligand.clash>
0.0000

> <Gold.PLP.ligand.torsion>
0.0753

> <Gold.PLP.Chemscore.Hbond>
1.9913

> <Gold.PLP.Chemscore.CHOScore>
0.0000

> <Gold.PLP.Chemscore.Metal>
0.0000

> <Gold.Chemscore.Hbonds>
donor molecule, donor type, donor heavy atom, donor atom, acceptor molecule, acceptor atom, score
      L1  H    20    25       P1  7948  0.91
      P1  H 10752 10763       L1    19  1.00

> <Gold.PLP.Chemscore.Internal.Correction>
0.0402

> <Gold.Rescore>
     Score         DG    S(hbond)    S(metal)    S(lipo)     H(rot)  DE(clash)    DE(int)     intcor
     14.43     -16.32       1.79        0.00      88.43       2.15       0.41       1.48       ----

> <Gold.Chemscore.Fitness>
14.4282

> <Gold.Chemscore.DG>
-16.3242

> <Gold.Chemscore.ZeroCoef>
-5.4800

> <Gold.Chemscore.Hbond>
1.7937

> <Gold.Chemscore.Metal>
0.0000

> <Gold.Chemscore.Lipo>
88.4315

> <Gold.Chemscore.Internal_Hbond>
0.0000

> <Gold.Chemscore.DEClash>
0.4140

> <Gold.Chemscore.DEInternal>
1.4821

> <Gold.Chemscore.Rot>
2.1458

> <Gold.Chemscore.Internal.Correction>
   9.000000E+99

> <Gold.Chemscore.Hbonds>
donor molecule, donor type, donor heavy atom, donor atom, acceptor molecule, acceptor atom, score
      L1  H    20    25       P1  7948  0.77
      P1  H 10752 10763       L1    19  0.94

> <Gold.Chemscore.Hbond.Weighted>
-5.9909

> <Gold.Chemscore.Metal.Weighted>
-0.0000

> <Gold.Chemscore.Lipo.Weighted>
-10.3465

> <Gold.Chemscore.Internal_Hbond.Weighted>
0.0000

> <Gold.Chemscore.DEClash.Weighted>
0.4140

> <Gold.Chemscore.DEInternal.Weighted>
1.4821

> <Gold.Chemscore.Rot.Weighted>
5.4932

> <Gold.Chemscore.Internal.Correction.Weighted>
   9.000000E+99

> <Gold.Protein.RotatedTorsions>
[ 6907 6896 6895 6894 ] final   72.79 input  -60.11 | X-H torsion
[ 7974 7965 7964 7962 ] final   53.09 input  175.53 | X-H torsion
[ 8008 7997 7996 7995 ] final -160.65 input   59.86 | X-H torsion
[ 10167 10162 10161 10158 ] final -122.34 input  -65.29 | X-H torsion
[ 10718 10713 10712 10709 ] final   96.43 input   66.30 | X-H torsion
[ 10763 10752 10751 10750 ] final   53.91 input  -60.55 | X-H torsion
[ 11005 11000 10999 10996 ] final  160.33 input  -57.11 | X-H torsion

> <Gold.Protein.ActiveResidues>
 VAL166  LYS551  ARG553  GLY616  TRP617  ASP618  TYR619  PRO620  LYS621  CYS622 
 ASP623  PHE694  ASN695  SER759  ASP760  ASP761  ALA762  ILE779  LEU786  VAL792 
 PHE793  MET794  SER795  GLU796  ALA797  LYS798  CYS799  TRP800  GLU811  SER814 

> <Gold.Protein.RotatedAtoms>
  152.4887  134.4519  159.9576 H   0  0  0  0  0  0  0  0  0  0  0  0  # atno 6907 bound_to 6896
  151.4510  133.3611  159.2803 H   0  0  0  0  0  0  0  0  0  0  0  0  # atno 6908 bound_to 6896
  150.9021  134.8459  159.7428 H   0  0  0  0  0  0  0  0  0  0  0  0  # atno 6909 bound_to 6896
  145.9747  139.4183  143.0168 H   0  0  0  0  0  0  0  0  0  0  0  0  # atno 7974 bound_to 7965
  155.7806  140.0864  157.2061 H   0  0  0  0  0  0  0  0  0  0  0  0  # atno 8008 bound_to 7997
  154.3990  140.1508  156.3105 H   0  0  0  0  0  0  0  0  0  0  0  0  # atno 8009 bound_to 7997
  155.8657  140.3428  155.5789 H   0  0  0  0  0  0  0  0  0  0  0  0  # atno 8010 bound_to 7997
  140.0153  143.5400  152.2245 H   0  0  0  0  0  0  0  0  0  0  0  0  # atno 10167 bound_to 10162
  157.6927  131.0578  150.4490 H   0  0  0  0  0  0  0  0  0  0  0  0  # atno 10718 bound_to 10713
  152.9799  135.5763  154.4818 H   0  0  0  0  0  0  0  0  0  0  0  0  # atno 10763 bound_to 10752
  154.4366  135.2775  155.1878 H   0  0  0  0  0  0  0  0  0  0  0  0  # atno 10764 bound_to 10752
  154.3564  135.6198  153.5722 H   0  0  0  0  0  0  0  0  0  0  0  0  # atno 10765 bound_to 10752
  140.2049  134.8311  157.3058 H   0  0  0  0  0  0  0  0  0  0  0  0  # atno 11005 bound_to 11000
  145.7855  140.9837  143.1076 LP  0  0  0  0  0  0  0  0  0  0  0  0  # atno 17320 bound_to 7965
  144.6846  139.9618  143.7480 LP  0  0  0  0  0  0  0  0  0  0  0  0  # atno 17321 bound_to 7965
  139.6177  144.7623  151.2810 LP  0  0  0  0  0  0  0  0  0  0  0  0  # atno 17342 bound_to 10162
  140.7365  143.6706  150.8084 LP  0  0  0  0  0  0  0  0  0  0  0  0  # atno 17343 bound_to 10162
  156.4843  130.4081  149.6443 LP  0  0  0  0  0  0  0  0  0  0  0  0  # atno 17370 bound_to 10713
  156.3477  130.7416  151.2371 LP  0  0  0  0  0  0  0  0  0  0  0  0  # atno 17371 bound_to 10713
  140.2014  134.4250  155.7661 LP  0  0  0  0  0  0  0  0  0  0  0  0  # atno 17394 bound_to 11000
  141.2227  133.7074  156.8190 LP  0  0  0  0  0  0  0  0  0  0  0  0  # atno 17395 bound_to 11000

$$$$
