AV-unprocessed.smi:2673|AV-procd|sdf|10355|dock1
  -GOLD-   2272014383D 1   1.00000     0.00000
 Structure written by MMmdl.
 31 32  0  0  0  0  0  0  0  0  2 V2000
  150.0499  138.2181  159.3666 O   0  0  0  0  0  0  0  0  0  0  0  0
  149.6321  137.3090  158.6468 C   0  0  0  0  0  0  0  0  0  0  0  0
  149.1736  136.1091  159.0707 N   0  5  0  0  0  0  0  0  0  0  0  0
  148.2896  136.0457  160.0801 C   0  0  0  0  0  0  0  0  0  0  0  0
  147.9686  137.1167  160.8238 N   0  0  0  0  0  0  0  0  0  0  0  0
  147.0389  136.8340  161.8154 N   0  0  0  0  0  0  0  0  0  0  0  0
  146.6881  135.5484  161.7999 C   0  0  0  0  0  0  0  0  0  0  0  0
  147.4618  134.5663  160.5742 S   0  0  0  0  0  0  0  0  0  0  0  0
  149.5937  137.4484  157.3100 N   0  0  0  0  0  0  0  0  0  0  0  0
  149.9805  138.5776  156.4439 C   0  0  0  0  0  0  0  0  0  0  0  0
  149.8151  138.0428  154.9886 C   0  0  0  0  0  0  0  0  0  0  0  0
  150.0974  138.9573  154.0632 F   0  0  0  0  0  0  0  0  0  0  0  0
  150.6211  136.9987  154.7854 F   0  0  0  0  0  0  0  0  0  0  0  0
  148.5608  137.6348  154.7859 F   0  0  0  0  0  0  0  0  0  0  0  0
  149.0320  139.7893  156.7065 C   0  0  0  0  0  0  0  0  0  0  0  0
  149.4997  141.1103  156.0705 C   0  0  0  0  0  0  0  0  0  0  0  0
  150.9423  141.4450  156.4703 C   0  0  0  0  0  0  0  0  0  0  0  0
  151.8982  140.3058  156.0950 C   0  0  0  0  0  0  0  0  0  0  0  0
  151.4627  138.9732  156.7302 C   0  0  0  0  0  0  0  0  0  0  0  0
  145.9710  135.1753  162.5157 H   0  0  0  0  0  0  0  0  0  0  0  0
  149.2373  136.6460  156.8117 H   0  0  0  0  0  0  0  0  0  0  0  0
  148.0205  139.5588  156.3716 H   0  0  0  0  0  0  0  0  0  0  0  0
  148.9429  139.9792  157.7747 H   0  0  0  0  0  0  0  0  0  0  0  0
  149.4148  141.0650  154.9857 H   0  0  0  0  0  0  0  0  0  0  0  0
  148.8382  141.9177  156.3853 H   0  0  0  0  0  0  0  0  0  0  0  0
  151.2574  142.3700  155.9868 H   0  0  0  0  0  0  0  0  0  0  0  0
  150.9916  141.6245  157.5452 H   0  0  0  0  0  0  0  0  0  0  0  0
  151.9593  140.2131  155.0115 H   0  0  0  0  0  0  0  0  0  0  0  0
  152.9069  140.5524  156.4277 H   0  0  0  0  0  0  0  0  0  0  0  0
  151.6289  139.0745  157.8014 H   0  0  0  0  0  0  0  0  0  0  0  0
  152.1359  138.1776  156.4102 H   0  0  0  0  0  0  0  0  0  0  0  0
  1  2  2  0  0  0  0
  2  3  1  0  0  0  0
  2  9  1  0  0  0  0
  3  4  1  0  0  0  0
  4  8  1  0  0  0  0
  4  5  2  0  0  0  0
  5  6  1  0  0  0  0
  6  7  2  0  0  0  0
  7  8  1  0  0  0  0
  7 20  1  0  0  0  0
  9 10  1  0  0  0  0
  9 21  1  0  0  0  0
 10 19  1  0  0  0  0
 10 11  1  0  0  0  0
 10 15  1  0  0  0  0
 11 12  1  0  0  0  0
 11 13  1  0  0  0  0
 11 14  1  0  0  0  0
 15 16  1  0  0  0  0
 15 22  1  0  0  0  0
 15 23  1  0  0  0  0
 16 17  1  0  0  0  0
 16 24  1  0  0  0  0
 16 25  1  0  0  0  0
 17 18  1  0  0  0  0
 17 26  1  0  0  0  0
 17 27  1  0  0  0  0
 18 19  1  0  0  0  0
 18 28  1  0  0  0  0
 18 29  1  0  0  0  0
 19 30  1  0  0  0  0
 19 31  1  0  0  0  0
M  CHG  1   3  -1
M  END
> <s_m_source_file>
AV-unprocessed.smi

> <i_m_source_file_index>
2673

> <i_lp_mmshare_version>
43012

> <i_f3d_flags>
0

> <s_epik_input>
czFbY0hdbm5jMVtOSF1DKD1PKVtOSF1DMihDKEYpKEYpRilbQ0gyXVtDSDJdW0NIMl1bQ0gyXVtDSDJdMg==

> <s_epik_cmdline>
J2VwaWtfcHl0aG9uJywgJy1waCcsICc3LjAnLCAnLXRuJywgJzgnLCAnLW1hJywgJzIwMCcsICctbWV0YWxfYmluZGluZycsICctaW1hZScsICc8aW5maWxlLm1hZT4nLCAnLW9tYWUnLCAnPG91dGZpbGUubWFlPic=

> <r_epik_Ionization_Penalty>
0.0924979

> <r_epik_Ionization_Penalty_Charging>
0.057676

> <r_epik_Ionization_Penalty_Neutral>
0.0348219

> <r_epik_State_Penalty>
0.0765232

> <r_epik_Charging_Adjusted_Penalty>
0.134199

> <i_epik_Tot_Q>
-1

> <i_epik_Tot_abs_Q>
1

> <r_epik_Metal_State_Penalty>
0.0698334

> <b_epik_Metal_Only>
0

> <s_lp_Force_Field>
OPLS_2005

> <r_lp_Energy>
15.8773

> <b_lp_Chiralities_Consistent>
1

> <s_lp_Variant>
AV-unprocessed.smi:2673-1

> <Gold.Version>
5.8.1

> <Gold.Id.Protein>
6NUR|6NUR_protein|mol2

> <Gold.PLP.Fitness>
34.4764

> <Gold.PLP.PLP>
-27.4723

> <Gold.PLP.part.hbond>
-5.1584

> <Gold.PLP.part.metal>
0.0000

> <Gold.PLP.part.buried>
-3.7209

> <Gold.PLP.part.nonpolar>
-20.6310

> <Gold.PLP.part.repulsive>
0.0235

> <Gold.PLP.ligand.clash>
0.0000

> <Gold.PLP.ligand.torsion>
0.4765

> <Gold.PLP.Chemscore.Hbond>
2.6231

> <Gold.PLP.Chemscore.CHOScore>
0.0000

> <Gold.PLP.Chemscore.Metal>
0.0000

> <Gold.Chemscore.Hbonds>
donor molecule, donor type, donor heavy atom, donor atom, acceptor molecule, acceptor atom, score
      P1  H  6896  6908       L1     3  1.37
      P1  H  6931  6943       L1     5  0.73
      P1  H  6934  6947       L1     5  0.18

> <Gold.PLP.Chemscore.Internal.Correction>
0.0877

> <Gold.Rescore>
     Score         DG    S(hbond)    S(metal)    S(lipo)     H(rot)  DE(clash)    DE(int)     intcor
      9.02     -12.77       1.43        0.00      43.46       1.00       0.02       3.73       ----

> <Gold.Chemscore.Fitness>
9.0152

> <Gold.Chemscore.DG>
-12.7660

> <Gold.Chemscore.ZeroCoef>
-5.4800

> <Gold.Chemscore.Hbond>
1.4253

> <Gold.Chemscore.Metal>
0.0000

> <Gold.Chemscore.Lipo>
43.4645

> <Gold.Chemscore.Internal_Hbond>
0.0000

> <Gold.Chemscore.DEClash>
0.0186

> <Gold.Chemscore.DEInternal>
3.7322

> <Gold.Chemscore.Rot>
1.0000

> <Gold.Chemscore.Internal.Correction>
   9.000000E+99

> <Gold.Chemscore.Hbonds>
donor molecule, donor type, donor heavy atom, donor atom, acceptor molecule, acceptor atom, score
      P1  H  6896  6908       L1     3  0.29
      P1  H  6931  6943       L1     5  0.10

> <Gold.Chemscore.Hbond.Weighted>
-4.7606

> <Gold.Chemscore.Metal.Weighted>
-0.0000

> <Gold.Chemscore.Lipo.Weighted>
-5.0853

> <Gold.Chemscore.Internal_Hbond.Weighted>
0.0000

> <Gold.Chemscore.DEClash.Weighted>
0.0186

> <Gold.Chemscore.DEInternal.Weighted>
3.7322

> <Gold.Chemscore.Rot.Weighted>
2.5600

> <Gold.Chemscore.Internal.Correction.Weighted>
   9.000000E+99

> <Gold.Protein.RotatedTorsions>
[ 6907 6896 6895 6894 ] final -178.39 input  -60.11 | X-H torsion
[ 7974 7965 7964 7962 ] final   97.34 input  175.53 | X-H torsion
[ 8008 7997 7996 7995 ] final   34.72 input   59.86 | X-H torsion
[ 10167 10162 10161 10158 ] final  125.00 input  -65.29 | X-H torsion
[ 10718 10713 10712 10709 ] final -113.63 input   66.30 | X-H torsion
[ 10763 10752 10751 10750 ] final   65.26 input  -60.55 | X-H torsion
[ 11005 11000 10999 10996 ] final   94.81 input  -57.11 | X-H torsion

> <Gold.Protein.ActiveResidues>
 VAL166  LYS551  ARG553  GLY616  TRP617  ASP618  TYR619  PRO620  LYS621  CYS622 
 ASP623  PHE694  ASN695  SER759  ASP760  ASP761  ALA762  ILE779  LEU786  VAL792 
 PHE793  MET794  SER795  GLU796  ALA797  LYS798  CYS799  TRP800  GLU811  SER814 

> <Gold.Protein.RotatedAtoms>
  151.6364  133.3328  159.3120 H   0  0  0  0  0  0  0  0  0  0  0  0  # atno 6907 bound_to 6896
  150.8030  134.7140  159.6629 H   0  0  0  0  0  0  0  0  0  0  0  0  # atno 6908 bound_to 6896
  152.4124  134.6106  160.0076 H   0  0  0  0  0  0  0  0  0  0  0  0  # atno 6909 bound_to 6896
  145.4268  139.2315  143.3166 H   0  0  0  0  0  0  0  0  0  0  0  0  # atno 7974 bound_to 7965
  155.1595  140.3282  155.4414 H   0  0  0  0  0  0  0  0  0  0  0  0  # atno 8008 bound_to 7997
  156.2547  140.1963  156.6653 H   0  0  0  0  0  0  0  0  0  0  0  0  # atno 8009 bound_to 7997
  154.6415  140.0569  156.9838 H   0  0  0  0  0  0  0  0  0  0  0  0  # atno 8010 bound_to 7997
  139.5710  144.6938  151.3779 H   0  0  0  0  0  0  0  0  0  0  0  0  # atno 10167 bound_to 10162
  156.0779  130.5983  150.8668 H   0  0  0  0  0  0  0  0  0  0  0  0  # atno 10718 bound_to 10713
  153.0089  135.5363  154.6639 H   0  0  0  0  0  0  0  0  0  0  0  0  # atno 10763 bound_to 10752
  154.5841  135.2852  155.0705 H   0  0  0  0  0  0  0  0  0  0  0  0  # atno 10764 bound_to 10752
  154.1823  135.6514  153.5090 H   0  0  0  0  0  0  0  0  0  0  0  0  # atno 10765 bound_to 10752
  139.8795  134.8865  156.3918 H   0  0  0  0  0  0  0  0  0  0  0  0  # atno 11005 bound_to 11000
  146.2628  140.4999  142.8846 LP  0  0  0  0  0  0  0  0  0  0  0  0  # atno 17320 bound_to 7965
  144.8209  140.6548  143.6353 LP  0  0  0  0  0  0  0  0  0  0  0  0  # atno 17321 bound_to 7965
  140.6994  143.7669  150.7378 LP  0  0  0  0  0  0  0  0  0  0  0  0  # atno 17342 bound_to 10162
  140.1175  143.4642  152.2333 LP  0  0  0  0  0  0  0  0  0  0  0  0  # atno 17343 bound_to 10162
  157.5882  131.0945  150.9161 LP  0  0  0  0  0  0  0  0  0  0  0  0  # atno 17370 bound_to 10713
  156.9342  130.5361  149.5279 LP  0  0  0  0  0  0  0  0  0  0  0  0  # atno 17371 bound_to 10713
  140.9327  133.7568  156.0046 LP  0  0  0  0  0  0  0  0  0  0  0  0  # atno 17394 bound_to 11000
  140.8311  134.3177  157.5348 LP  0  0  0  0  0  0  0  0  0  0  0  0  # atno 17395 bound_to 11000

$$$$
