AV-unprocessed.smi:1911|AV-procd|sdf|7739|dock7
  -GOLD-   22720 9483D 1   1.00000     0.00000
 Structure written by MMmdl.
 52 54  0  0  0  0  0  0  0  0  2 V2000
  146.9020  129.2918  151.2230 N   0  0  0  0  0  0  0  0  0  0  0  0
  147.0417  128.8726  152.4828 C   0  0  0  0  0  0  0  0  0  0  0  0
  146.1853  128.1930  153.0460 O   0  0  0  0  0  0  0  0  0  0  0  0
  148.3390  129.2611  153.2004 C   0  0  0  0  0  0  0  0  0  0  0  0
  148.5835  130.7269  153.2110 N   0  3  2  0  0  0  0  0  0  0  0  0
  149.5011  131.1580  154.3002 C   0  0  0  0  0  0  0  0  0  0  0  0
  149.8290  132.6564  154.1897 C   0  0  0  0  0  0  0  0  0  0  0  0
  148.5480  133.5055  154.2007 C   0  0  1  0  0  0  0  0  0  0  0  0
  148.8822  134.9157  154.0223 N   0  0  0  0  0  0  0  0  0  0  0  0
  149.3876  135.7131  154.9747 C   0  0  0  0  0  0  0  0  0  0  0  0
  149.6128  135.3338  156.1236 O   0  0  0  0  0  0  0  0  0  0  0  0
  149.5872  136.9591  154.5117 N   0  0  0  0  0  0  0  0  0  0  0  0
  150.1118  138.0855  155.2016 C   0  0  0  0  0  0  0  0  0  0  0  0
  150.4534  137.9305  156.5592 C   0  0  0  0  0  0  0  0  0  0  0  0
  150.9613  139.0321  157.2734 C   0  0  0  0  0  0  0  0  0  0  0  0
  151.1101  140.2723  156.6084 C   0  0  0  0  0  0  0  0  0  0  0  0
  151.6105  141.4052  157.2808 N   0  0  0  0  0  0  0  0  0  0  0  0
  151.1134  142.7464  157.0211 C   0  0  0  0  0  0  0  0  0  0  0  0
  151.8288  143.6301  158.0427 C   0  0  0  0  0  0  0  0  0  0  0  0
  152.0186  142.6972  159.2387 C   0  0  0  0  0  0  0  0  0  0  0  0
  152.2127  141.3151  158.6052 C   0  0  0  0  0  0  0  0  0  0  0  0
  150.7632  140.4274  155.3087 N   0  0  0  0  0  0  0  0  0  0  0  0
  150.2779  139.3683  154.6274 C   0  0  0  0  0  0  0  0  0  0  0  0
  147.6003  133.0173  153.0895 C   0  0  0  0  0  0  0  0  0  0  0  0
  147.3216  131.5104  153.2191 C   0  0  0  0  0  0  0  0  0  0  0  0
  146.0658  129.0564  150.7070 H   0  0  0  0  0  0  0  0  0  0  0  0
  147.6300  129.8377  150.7846 H   0  0  0  0  0  0  0  0  0  0  0  0
  148.2476  128.8976  154.2250 H   0  0  0  0  0  0  0  0  0  0  0  0
  149.1918  128.7423  152.7590 H   0  0  0  0  0  0  0  0  0  0  0  0
  149.0440  130.9457  155.2679 H   0  0  0  0  0  0  0  0  0  0  0  0
  150.4289  130.5867  154.2593 H   0  0  0  0  0  0  0  0  0  0  0  0
  150.4810  132.9519  155.0126 H   0  0  0  0  0  0  0  0  0  0  0  0
  150.3890  132.8371  153.2706 H   0  0  0  0  0  0  0  0  0  0  0  0
  148.0601  133.3760  155.1690 H   0  0  0  0  0  0  0  0  0  0  0  0
  148.7236  135.3115  153.1069 H   0  0  0  0  0  0  0  0  0  0  0  0
  149.2788  137.1377  153.5672 H   0  0  0  0  0  0  0  0  0  0  0  0
  150.3329  136.9766  157.0517 H   0  0  0  0  0  0  0  0  0  0  0  0
  151.2253  138.9089  158.3130 H   0  0  0  0  0  0  0  0  0  0  0  0
  151.3236  143.0661  155.9999 H   0  0  0  0  0  0  0  0  0  0  0  0
  150.0344  142.7703  157.1791 H   0  0  0  0  0  0  0  0  0  0  0  0
  152.8027  143.9307  157.6536 H   0  0  0  0  0  0  0  0  0  0  0  0
  151.2694  144.5332  158.2886 H   0  0  0  0  0  0  0  0  0  0  0  0
  152.8505  142.9896  159.8801 H   0  0  0  0  0  0  0  0  0  0  0  0
  151.1121  142.6961  159.8459 H   0  0  0  0  0  0  0  0  0  0  0  0
  151.7554  140.5379  159.2188 H   0  0  0  0  0  0  0  0  0  0  0  0
  153.2727  141.0843  158.4946 H   0  0  0  0  0  0  0  0  0  0  0  0
  150.0034  139.5794  153.6059 H   0  0  0  0  0  0  0  0  0  0  0  0
  146.6584  133.5659  153.1268 H   0  0  0  0  0  0  0  0  0  0  0  0
  148.0383  133.2224  152.1114 H   0  0  0  0  0  0  0  0  0  0  0  0
  146.6854  131.1936  152.3917 H   0  0  0  0  0  0  0  0  0  0  0  0
  146.7714  131.3069  154.1392 H   0  0  0  0  0  0  0  0  0  0  0  0
  149.0435  130.9387  152.3367 H   0  0  0  0  0  0  0  0  0  0  0  0
  1  2  1  0  0  0  0
  1 26  1  0  0  0  0
  1 27  1  0  0  0  0
  2  3  2  0  0  0  0
  2  4  1  0  0  0  0
  4  5  1  0  0  0  0
  4 28  1  0  0  0  0
  4 29  1  0  0  0  0
  5 25  1  0  0  0  0
  5  6  1  0  0  0  0
  5 52  1  0  0  0  0
  6  7  1  0  0  0  0
  6 30  1  0  0  0  0
  6 31  1  0  0  0  0
  7  8  1  0  0  0  0
  7 32  1  0  0  0  0
  7 33  1  0  0  0  0
  8  9  1  0  0  0  0
  8 24  1  0  0  0  0
  8 34  1  0  0  0  0
  9 10  1  0  0  0  0
  9 35  1  0  0  0  0
 10 11  2  0  0  0  0
 10 12  1  0  0  0  0
 12 13  1  0  0  0  0
 12 36  1  0  0  0  0
 13 23  1  0  0  0  0
 13 14  2  0  0  0  0
 14 15  1  0  0  0  0
 14 37  1  0  0  0  0
 15 16  2  0  0  0  0
 15 38  1  0  0  0  0
 16 17  1  0  0  0  0
 16 22  1  0  0  0  0
 17 21  1  0  0  0  0
 17 18  1  0  0  0  0
 18 19  1  0  0  0  0
 18 39  1  0  0  0  0
 18 40  1  0  0  0  0
 19 20  1  0  0  0  0
 19 41  1  0  0  0  0
 19 42  1  0  0  0  0
 20 21  1  0  0  0  0
 20 43  1  0  0  0  0
 20 44  1  0  0  0  0
 21 45  1  0  0  0  0
 21 46  1  0  0  0  0
 22 23  2  0  0  0  0
 23 47  1  0  0  0  0
 24 25  1  0  0  0  0
 24 48  1  0  0  0  0
 24 49  1  0  0  0  0
 25 50  1  0  0  0  0
 25 51  1  0  0  0  0
M  CHG  1   5   1
M  END
> <s_m_source_file>
AV-unprocessed.smi

> <i_m_source_file_index>
1911

> <i_lp_mmshare_version>
43012

> <i_f3d_flags>
0

> <s_epik_input>
W05IMl1DKD1PKVtDSDJdTjFbQ0gyXVtDSDJdW0NIXShbQ0gyXVtDSDJdMSlbTkhdQyg9TylbTkhdYzJbY0hdW2NIXWMobltjSF0yKU4zW0NIMl1bQ0gyXVtDSDJdW0NIMl0z

> <s_epik_cmdline>
J2VwaWtfcHl0aG9uJywgJy1waCcsICc3LjAnLCAnLXRuJywgJzgnLCAnLW1hJywgJzIwMCcsICctbWV0YWxfYmluZGluZycsICctaW1hZScsICc8aW5maWxlLm1hZT4nLCAnLW9tYWUnLCAnPG91dGZpbGUubWFlPic=

> <r_lp_tautomer_probability>
1

> <r_epik_Ionization_Penalty>
0.91661

> <r_epik_Ionization_Penalty_Charging>
0.838844

> <r_epik_Ionization_Penalty_Neutral>
0.0777665

> <r_epik_State_Penalty>
0.927046

> <r_epik_Charging_Adjusted_Penalty>
1.76589

> <i_epik_Tot_Q>
1

> <i_epik_Tot_abs_Q>
1

> <r_epik_Metal_State_Penalty>
0.950553

> <b_epik_Metal_Only>
0

> <s_lp_Force_Field>
OPLS_2005

> <r_lp_Energy>
39.0232

> <b_lp_Chiralities_Consistent>
1

> <s_lp_Variant>
AV-unprocessed.smi:1911-2

> <Gold.Version>
5.8.1

> <Gold.Id.Protein>
6NUR|6NUR_protein|mol2

> <Gold.PLP.Fitness>
53.5735

> <Gold.PLP.PLP>
-40.3026

> <Gold.PLP.part.hbond>
-4.8918

> <Gold.PLP.part.metal>
0.0000

> <Gold.PLP.part.buried>
-5.6192

> <Gold.PLP.part.nonpolar>
-29.9853

> <Gold.PLP.part.repulsive>
0.3007

> <Gold.PLP.ligand.clash>
0.0000

> <Gold.PLP.ligand.torsion>
0.8324

> <Gold.PLP.Chemscore.Hbond>
3.9250

> <Gold.PLP.Chemscore.CHOScore>
0.9949

> <Gold.PLP.Chemscore.Metal>
0.0000

> <Gold.Chemscore.Hbonds>
donor molecule, donor type, donor heavy atom, donor atom, acceptor molecule, acceptor atom, score
      L1  H     1    27       P1 10747  1.00
      L1  H     5    52       P1 10747  0.96
      L1  H     9    35       P1  7948  1.00
      L1  H    12    36       P1  7948  0.83
      P1  H  7989  7998       L1    22  0.14
      L1  C    23    47       P1  7957  1.00

> <Gold.PLP.Chemscore.Internal.Correction>
0.1759

> <Gold.Rescore>
     Score         DG    S(hbond)    S(metal)    S(lipo)     H(rot)  DE(clash)    DE(int)     intcor
     20.28     -22.75       3.42        0.00      91.76       1.91       0.22       2.25       ----

> <Gold.Chemscore.Fitness>
20.2817

> <Gold.Chemscore.DG>
-22.7516

> <Gold.Chemscore.ZeroCoef>
-5.4800

> <Gold.Chemscore.Hbond>
3.4186

> <Gold.Chemscore.Metal>
0.0000

> <Gold.Chemscore.Lipo>
91.7644

> <Gold.Chemscore.Internal_Hbond>
0.0000

> <Gold.Chemscore.DEClash>
0.2190

> <Gold.Chemscore.DEInternal>
2.2509

> <Gold.Chemscore.Rot>
1.9074

> <Gold.Chemscore.Internal.Correction>
   9.000000E+99

> <Gold.Chemscore.Hbonds>
donor molecule, donor type, donor heavy atom, donor atom, acceptor molecule, acceptor atom, score
      L1  H     1    27       P1 10747  1.00
      L1  H     5    52       P1 10747  0.34
      L1  H     9    35       P1  7948  0.69
      L1  H    12    36       P1  7948  0.80

> <Gold.Chemscore.Hbond.Weighted>
-11.4180

> <Gold.Chemscore.Metal.Weighted>
-0.0000

> <Gold.Chemscore.Lipo.Weighted>
-10.7364

> <Gold.Chemscore.Internal_Hbond.Weighted>
0.0000

> <Gold.Chemscore.DEClash.Weighted>
0.2190

> <Gold.Chemscore.DEInternal.Weighted>
2.2509

> <Gold.Chemscore.Rot.Weighted>
4.8829

> <Gold.Chemscore.Internal.Correction.Weighted>
   9.000000E+99

> <Gold.Protein.RotatedTorsions>
[ 6907 6896 6895 6894 ] final   -5.04 input  -60.11 | X-H torsion
[ 7974 7965 7964 7962 ] final   68.70 input  175.53 | X-H torsion
[ 8008 7997 7996 7995 ] final -104.88 input   59.86 | X-H torsion
[ 10167 10162 10161 10158 ] final   -9.81 input  -65.29 | X-H torsion
[ 10718 10713 10712 10709 ] final -153.07 input   66.30 | X-H torsion
[ 10763 10752 10751 10750 ] final   -3.00 input  -60.55 | X-H torsion
[ 11005 11000 10999 10996 ] final  -65.46 input  -57.11 | X-H torsion

> <Gold.Protein.ActiveResidues>
 VAL166  LYS551  ARG553  GLY616  TRP617  ASP618  TYR619  PRO620  LYS621  CYS622 
 ASP623  PHE694  ASN695  SER759  ASP760  ASP761  ALA762  ILE779  LEU786  VAL792 
 PHE793  MET794  SER795  GLU796  ALA797  LYS798  CYS799  TRP800  GLU811  SER814 

> <Gold.Protein.RotatedAtoms>
  151.4880  135.1056  159.9795 H   0  0  0  0  0  0  0  0  0  0  0  0  # atno 6907 bound_to 6896
  152.4752  133.8118  159.7018 H   0  0  0  0  0  0  0  0  0  0  0  0  # atno 6908 bound_to 6896
  150.8786  133.7342  159.2965 H   0  0  0  0  0  0  0  0  0  0  0  0  # atno 6909 bound_to 6896
  145.7994  139.2974  143.1163 H   0  0  0  0  0  0  0  0  0  0  0  0  # atno 7974 bound_to 7965
  154.8917  140.0415  157.1842 H   0  0  0  0  0  0  0  0  0  0  0  0  # atno 8008 bound_to 7997
  154.8534  140.2933  155.5563 H   0  0  0  0  0  0  0  0  0  0  0  0  # atno 8009 bound_to 7997
  156.2996  140.2460  156.3496 H   0  0  0  0  0  0  0  0  0  0  0  0  # atno 8010 bound_to 7997
  140.7097  143.5817  150.8985 H   0  0  0  0  0  0  0  0  0  0  0  0  # atno 10167 bound_to 10162
  156.4809  130.8302  151.2529 H   0  0  0  0  0  0  0  0  0  0  0  0  # atno 10718 bound_to 10713
  153.3655  135.6992  153.6678 H   0  0  0  0  0  0  0  0  0  0  0  0  # atno 10763 bound_to 10752
  153.5350  135.3584  155.2693 H   0  0  0  0  0  0  0  0  0  0  0  0  # atno 10764 bound_to 10752
  154.8674  135.4190  154.2922 H   0  0  0  0  0  0  0  0  0  0  0  0  # atno 10765 bound_to 10752
  141.1455  133.6682  156.5989 H   0  0  0  0  0  0  0  0  0  0  0  0  # atno 11005 bound_to 11000
  145.9893  140.8616  143.0074 LP  0  0  0  0  0  0  0  0  0  0  0  0  # atno 17320 bound_to 7965
  144.6771  140.2193  143.7368 LP  0  0  0  0  0  0  0  0  0  0  0  0  # atno 17321 bound_to 7965
  139.9543  143.6236  152.3020 LP  0  0  0  0  0  0  0  0  0  0  0  0  # atno 17342 bound_to 10162
  139.6766  144.7658  151.1685 LP  0  0  0  0  0  0  0  0  0  0  0  0  # atno 17343 bound_to 10162
  157.7483  131.0045  150.3079 LP  0  0  0  0  0  0  0  0  0  0  0  0  # atno 17370 bound_to 10713
  156.3523  130.3833  149.7319 LP  0  0  0  0  0  0  0  0  0  0  0  0  # atno 17371 bound_to 10713
  140.3704  134.7611  157.4594 LP  0  0  0  0  0  0  0  0  0  0  0  0  # atno 17394 bound_to 11000
  140.0715  134.5856  155.8637 LP  0  0  0  0  0  0  0  0  0  0  0  0  # atno 17395 bound_to 11000

$$$$
