AV-unprocessed.smi:1025|AV-procd|sdf|4467|dock10
  -GOLD-   22720 2443D 1   1.00000     0.00000
 Structure written by MMmdl.
 51 52  0  0  0  0  0  0  0  0  1 V2000
  152.0573  138.5416  156.8602 C   0  0  0  0  0  0  0  0  0  0  0  0
  151.0613  139.6010  156.8163 N   0  0  0  0  0  0  0  0  0  0  0  0
  150.5509  140.1143  155.6871 C   0  0  0  0  0  0  0  0  0  0  0  0
  150.8867  139.7250  154.5687 O   0  0  0  0  0  0  0  0  0  0  0  0
  149.5065  141.2341  155.8575 C   0  0  2  0  0  0  0  0  0  0  0  0
  148.2640  140.7733  156.6545 C   0  0  0  0  0  0  0  0  0  0  0  0
  147.2859  139.9137  155.8321 C   0  0  0  0  0  0  0  0  0  0  0  0
  146.8716  140.6231  154.5284 C   0  0  2  0  0  0  0  0  0  0  0  0
  145.9958  139.7675  153.7336 N   0  0  0  0  0  0  0  0  0  0  0  0
  146.2119  138.4719  153.4669 C   0  0  0  0  0  0  0  0  0  0  0  0
  147.1968  137.8525  153.8666 O   0  0  0  0  0  0  0  0  0  0  0  0
  145.2152  137.9596  152.7252 N   0  0  0  0  0  0  0  0  0  0  0  0
  145.0430  136.6280  152.2593 C   0  0  0  0  0  0  0  0  0  0  0  0
  143.9165  136.1398  151.5542 C   0  0  0  0  0  0  0  0  0  0  0  0
  143.8374  134.8542  151.1493 N   0  0  0  0  0  0  0  0  0  0  0  0
  144.8469  134.0336  151.4676 C   0  0  0  0  0  0  0  0  0  0  0  0
  144.8194  132.6179  150.8650 C   0  0  0  0  0  0  0  0  0  0  0  0
  146.0123  132.3989  149.9051 C   0  0  0  0  0  0  0  0  0  0  0  0
  143.4979  132.4116  150.1020 C   0  0  0  0  0  0  0  0  0  0  0  0
  144.9529  131.5397  151.9662 C   0  0  0  0  0  0  0  0  0  0  0  0
  145.9667  134.4037  152.1023 N   0  0  0  0  0  0  0  0  0  0  0  0
  146.0591  135.6855  152.5137 C   0  0  0  0  0  0  0  0  0  0  0  0
  148.1077  141.0090  153.6973 C   0  0  0  0  0  0  0  0  0  0  0  0
  149.0891  141.8723  154.5118 C   0  0  0  0  0  0  0  0  0  0  0  0
  152.2987  138.3014  157.8956 H   0  0  0  0  0  0  0  0  0  0  0  0
  152.9754  138.8509  156.3590 H   0  0  0  0  0  0  0  0  0  0  0  0
  151.6846  137.6367  156.3782 H   0  0  0  0  0  0  0  0  0  0  0  0
  150.7381  139.9686  157.6995 H   0  0  0  0  0  0  0  0  0  0  0  0
  149.9864  142.0191  156.4445 H   0  0  0  0  0  0  0  0  0  0  0  0
  148.5697  140.2262  157.5474 H   0  0  0  0  0  0  0  0  0  0  0  0
  147.7339  141.6552  157.0162 H   0  0  0  0  0  0  0  0  0  0  0  0
  147.7355  138.9470  155.6043 H   0  0  0  0  0  0  0  0  0  0  0  0
  146.4036  139.6989  156.4360 H   0  0  0  0  0  0  0  0  0  0  0  0
  146.3382  141.5412  154.7824 H   0  0  0  0  0  0  0  0  0  0  0  0
  145.1597  140.1955  153.3636 H   0  0  0  0  0  0  0  0  0  0  0  0
  144.4608  138.5930  152.5042 H   0  0  0  0  0  0  0  0  0  0  0  0
  143.0653  136.7523  151.3043 H   0  0  0  0  0  0  0  0  0  0  0  0
  146.0227  131.3821  149.5109 H   0  0  0  0  0  0  0  0  0  0  0  0
  146.9646  132.5638  150.4108 H   0  0  0  0  0  0  0  0  0  0  0  0
  145.9739  133.0687  149.0454 H   0  0  0  0  0  0  0  0  0  0  0  0
  143.3890  133.1375  149.2955 H   0  0  0  0  0  0  0  0  0  0  0  0
  142.6376  132.5237  150.7629 H   0  0  0  0  0  0  0  0  0  0  0  0
  143.4448  131.4171  149.6583 H   0  0  0  0  0  0  0  0  0  0  0  0
  144.9786  130.5367  151.5391 H   0  0  0  0  0  0  0  0  0  0  0  0
  144.1149  131.5618  152.6638 H   0  0  0  0  0  0  0  0  0  0  0  0
  145.8684  131.6732  152.5438 H   0  0  0  0  0  0  0  0  0  0  0  0
  146.9603  135.9620  153.0410 H   0  0  0  0  0  0  0  0  0  0  0  0
  148.6098  140.1117  153.3351 H   0  0  0  0  0  0  0  0  0  0  0  0
  147.7977  141.5587  152.8076 H   0  0  0  0  0  0  0  0  0  0  0  0
  148.6223  142.8376  154.7125 H   0  0  0  0  0  0  0  0  0  0  0  0
  149.9711  142.0913  153.9083 H   0  0  0  0  0  0  0  0  0  0  0  0
  1  2  1  0  0  0  0
  1 25  1  0  0  0  0
  1 26  1  0  0  0  0
  1 27  1  0  0  0  0
  2  3  1  0  0  0  0
  2 28  1  0  0  0  0
  3  4  2  0  0  0  0
  3  5  1  0  0  0  0
  5 24  1  0  0  0  0
  5  6  1  0  0  0  0
  5 29  1  0  0  0  0
  6  7  1  0  0  0  0
  6 30  1  0  0  0  0
  6 31  1  0  0  0  0
  7  8  1  0  0  0  0
  7 32  1  0  0  0  0
  7 33  1  0  0  0  0
  8  9  1  0  0  0  0
  8 23  1  0  0  0  0
  8 34  1  0  0  0  0
  9 10  1  0  0  0  0
  9 35  1  0  0  0  0
 10 11  2  0  0  0  0
 10 12  1  0  0  0  0
 12 13  1  0  0  0  0
 12 36  1  0  0  0  0
 13 22  1  0  0  0  0
 13 14  2  0  0  0  0
 14 15  1  0  0  0  0
 14 37  1  0  0  0  0
 15 16  2  0  0  0  0
 16 17  1  0  0  0  0
 16 21  1  0  0  0  0
 17 18  1  0  0  0  0
 17 19  1  0  0  0  0
 17 20  1  0  0  0  0
 18 38  1  0  0  0  0
 18 39  1  0  0  0  0
 18 40  1  0  0  0  0
 19 41  1  0  0  0  0
 19 42  1  0  0  0  0
 19 43  1  0  0  0  0
 20 44  1  0  0  0  0
 20 45  1  0  0  0  0
 20 46  1  0  0  0  0
 21 22  2  0  0  0  0
 22 47  1  0  0  0  0
 23 24  1  0  0  0  0
 23 48  1  0  0  0  0
 23 49  1  0  0  0  0
 24 50  1  0  0  0  0
 24 51  1  0  0  0  0
M  END
> <s_m_source_file>
AV-unprocessed.smi

> <i_m_source_file_index>
1025

> <i_lp_mmshare_version>
43012

> <i_f3d_flags>
0

> <s_epik_input>
W0NIM11bTkhdQyg9TylbQ0BASF0xW0NIMl1bQ0gyXVtDQEhdKFtDSDJdW0NIMl0xKVtOSF1DKD1PKVtOSF1jMltjSF1uYyhDKFtDSDNdKShbQ0gzXSlbQ0gzXSluW2NIXTI=

> <s_epik_cmdline>
J2VwaWtfcHl0aG9uJywgJy1waCcsICc3LjAnLCAnLXRuJywgJzgnLCAnLW1hJywgJzIwMCcsICctbWV0YWxfYmluZGluZycsICctaW1hZScsICc8aW5maWxlLm1hZT4nLCAnLW9tYWUnLCAnPG91dGZpbGUubWFlPic=

> <r_lp_tautomer_probability>
1

> <r_epik_Ionization_Penalty>
2.76239e-05

> <r_epik_Ionization_Penalty_Charging>
0

> <r_epik_Ionization_Penalty_Neutral>
2.76239e-05

> <r_epik_State_Penalty>
-0

> <r_epik_Charging_Adjusted_Penalty>
0

> <i_epik_Tot_Q>
0

> <i_epik_Tot_abs_Q>
0

> <r_epik_Metal_State_Penalty>
-0

> <b_epik_Metal_Only>
0

> <s_lp_Force_Field>
OPLS_2005

> <r_lp_Energy>
4.91063

> <b_lp_Chiralities_Consistent>
1

> <s_lp_Variant>
AV-unprocessed.smi:1025-2

> <Gold.Version>
5.8.1

> <Gold.Id.Protein>
6NUR|6NUR_protein|mol2

> <Gold.PLP.Fitness>
44.1419

> <Gold.PLP.PLP>
-31.5011

> <Gold.PLP.part.hbond>
-3.2333

> <Gold.PLP.part.metal>
0.0000

> <Gold.PLP.part.buried>
1.4134

> <Gold.PLP.part.nonpolar>
-29.7761

> <Gold.PLP.part.repulsive>
0.9300

> <Gold.PLP.ligand.clash>
0.0000

> <Gold.PLP.ligand.torsion>
0.2947

> <Gold.PLP.Chemscore.Hbond>
3.0000

> <Gold.PLP.Chemscore.CHOScore>
1.3481

> <Gold.PLP.Chemscore.Metal>
0.0000

> <Gold.Chemscore.Hbonds>
donor molecule, donor type, donor heavy atom, donor atom, acceptor molecule, acceptor atom, score
      L1  H     9    35       P1 10175  1.00
      L1  H    12    36       P1 10175  1.00
      P1  H  7989  7998       L1     4  1.00
      L1  C    14    37       P1 10171  0.57
      L1  C    22    47       P1  7948  0.78

> <Gold.PLP.Chemscore.Internal.Correction>
0.1859

> <Gold.Rescore>
     Score         DG    S(hbond)    S(metal)    S(lipo)     H(rot)  DE(clash)    DE(int)     intcor
     17.39     -20.89       2.90        0.00      82.16       1.52       0.64       2.86       ----

> <Gold.Chemscore.Fitness>
17.3893

> <Gold.Chemscore.DG>
-20.8862

> <Gold.Chemscore.ZeroCoef>
-5.4800

> <Gold.Chemscore.Hbond>
2.8975

> <Gold.Chemscore.Metal>
0.0000

> <Gold.Chemscore.Lipo>
82.1574

> <Gold.Chemscore.Internal_Hbond>
0.0000

> <Gold.Chemscore.DEClash>
0.6359

> <Gold.Chemscore.DEInternal>
2.8610

> <Gold.Chemscore.Rot>
1.5171

> <Gold.Chemscore.Internal.Correction>
   9.000000E+99

> <Gold.Chemscore.Hbonds>
donor molecule, donor type, donor heavy atom, donor atom, acceptor molecule, acceptor atom, score
      L1  H     9    35       P1 10175  1.00
      L1  H    12    36       P1 10175  0.91
      P1  H  7989  7998       L1     4  0.96

> <Gold.Chemscore.Hbond.Weighted>
-9.6776

> <Gold.Chemscore.Metal.Weighted>
-0.0000

> <Gold.Chemscore.Lipo.Weighted>
-9.6124

> <Gold.Chemscore.Internal_Hbond.Weighted>
0.0000

> <Gold.Chemscore.DEClash.Weighted>
0.6359

> <Gold.Chemscore.DEInternal.Weighted>
2.8610

> <Gold.Chemscore.Rot.Weighted>
3.8839

> <Gold.Chemscore.Internal.Correction.Weighted>
   9.000000E+99

> <Gold.Protein.RotatedTorsions>
[ 6907 6896 6895 6894 ] final -179.48 input  -60.11 | X-H torsion
[ 7974 7965 7964 7962 ] final  132.60 input  175.53 | X-H torsion
[ 8008 7997 7996 7995 ] final  -48.93 input   59.86 | X-H torsion
[ 10167 10162 10161 10158 ] final  -72.13 input  -65.29 | X-H torsion
[ 10718 10713 10712 10709 ] final   80.80 input   66.30 | X-H torsion
[ 10763 10752 10751 10750 ] final  121.62 input  -60.55 | X-H torsion
[ 11005 11000 10999 10996 ] final  -88.53 input  -57.11 | X-H torsion

> <Gold.Protein.ActiveResidues>
 VAL166  LYS551  ARG553  GLY616  TRP617  ASP618  TYR619  PRO620  LYS621  CYS622 
 ASP623  PHE694  ASN695  SER759  ASP760  ASP761  ALA762  ILE779  LEU786  VAL792 
 PHE793  MET794  SER795  GLU796  ALA797  LYS798  CYS799  TRP800  GLU811  SER814 

> <Gold.Protein.RotatedAtoms>
  151.6540  133.3319  159.3158 H   0  0  0  0  0  0  0  0  0  0  0  0  # atno 6907 bound_to 6896
  150.7946  134.7000  159.6554 H   0  0  0  0  0  0  0  0  0  0  0  0  # atno 6908 bound_to 6896
  152.4031  134.6257  160.0114 H   0  0  0  0  0  0  0  0  0  0  0  0  # atno 6909 bound_to 6896
  144.9951  139.4367  143.5320 H   0  0  0  0  0  0  0  0  0  0  0  0  # atno 7974 bound_to 7965
  154.4036  140.1309  156.4420 H   0  0  0  0  0  0  0  0  0  0  0  0  # atno 8008 bound_to 7997
  155.7450  140.3489  155.5102 H   0  0  0  0  0  0  0  0  0  0  0  0  # atno 8009 bound_to 7997
  155.9003  140.1018  157.1344 H   0  0  0  0  0  0  0  0  0  0  0  0  # atno 8010 bound_to 7997
  140.5217  143.2331  151.7418 H   0  0  0  0  0  0  0  0  0  0  0  0  # atno 10167 bound_to 10162
  157.6816  130.9976  150.2133 H   0  0  0  0  0  0  0  0  0  0  0  0  # atno 10718 bound_to 10713
  153.6169  135.3420  155.2997 H   0  0  0  0  0  0  0  0  0  0  0  0  # atno 10763 bound_to 10752
  154.8608  135.4263  154.2250 H   0  0  0  0  0  0  0  0  0  0  0  0  # atno 10764 bound_to 10752
  153.3113  135.7032  153.7185 H   0  0  0  0  0  0  0  0  0  0  0  0  # atno 10765 bound_to 10752
  141.1600  133.7576  156.9465 H   0  0  0  0  0  0  0  0  0  0  0  0  # atno 11005 bound_to 11000
  146.3440  139.9307  142.8754 LP  0  0  0  0  0  0  0  0  0  0  0  0  # atno 17320 bound_to 7965
  145.2230  140.9943  143.4034 LP  0  0  0  0  0  0  0  0  0  0  0  0  # atno 17321 bound_to 7965
  139.4925  144.4245  151.9941 LP  0  0  0  0  0  0  0  0  0  0  0  0  # atno 17342 bound_to 10162
  140.3342  144.3281  150.5981 LP  0  0  0  0  0  0  0  0  0  0  0  0  # atno 17343 bound_to 10162
  156.2799  130.3732  149.7946 LP  0  0  0  0  0  0  0  0  0  0  0  0  # atno 17370 bound_to 10713
  156.5637  130.8394  151.3336 LP  0  0  0  0  0  0  0  0  0  0  0  0  # atno 17371 bound_to 10713
  140.1286  134.9371  157.2305 LP  0  0  0  0  0  0  0  0  0  0  0  0  # atno 17394 bound_to 11000
  140.2981  134.3163  155.7297 LP  0  0  0  0  0  0  0  0  0  0  0  0  # atno 17395 bound_to 11000

$$$$
