AV-unprocessed.smi:72|AV-procd|sdf|663|dock3
  -GOLD-   2262016563D 1   1.00000     0.00000
 Structure written by MMmdl.
 29 30  0  0  0  0  0  0  0  0  1 V2000
  150.7200  134.5524  156.7007 N   0  0  0  0  0  0  0  0  0  0  0  0
  150.8019  135.7257  156.1827 C   0  0  0  0  0  0  0  0  0  0  0  0
  151.2864  136.0127  154.8974 N   0  0  0  0  0  0  0  0  0  0  0  0
  151.2991  137.2472  154.4983 C   0  0  0  0  0  0  0  0  0  0  0  0
  150.8200  138.3367  155.3347 N   0  0  0  0  0  0  0  0  0  0  0  0
  150.8542  139.7692  154.8527 C   0  0  2  0  0  0  0  0  0  0  0  0
  151.4207  140.5742  155.8470 O   0  0  0  0  0  0  0  0  0  0  0  0
  150.5866  141.7038  156.0716 C   0  0  2  0  0  0  0  0  0  0  0  0
  150.8173  142.2896  157.4765 C   0  0  0  0  0  0  0  0  0  0  0  0
  150.2266  143.5642  157.6278 O   0  0  0  0  0  0  0  0  0  0  0  0
  149.1749  141.2137  155.7419 C   0  0  1  0  0  0  0  0  0  0  0  0
  148.2786  142.2669  155.4406 O   0  0  0  0  0  0  0  0  0  0  0  0
  149.4283  140.2759  154.5645 C   0  0  1  0  0  0  0  0  0  0  0  0
  149.3740  140.9370  153.3137 O   0  0  0  0  0  0  0  0  0  0  0  0
  150.3597  138.0689  156.6466 C   0  0  0  0  0  0  0  0  0  0  0  0
  149.9882  138.9574  157.4132 O   0  0  0  0  0  0  0  0  0  0  0  0
  150.3621  136.7680  157.0103 N   0  0  0  0  0  0  0  0  0  0  0  0
  151.5113  139.7861  153.9816 H   0  0  0  0  0  0  0  0  0  0  0  0
  150.8840  142.4505  155.3327 H   0  0  0  0  0  0  0  0  0  0  0  0
  148.7687  140.6295  156.5681 H   0  0  0  0  0  0  0  0  0  0  0  0
  148.7134  139.4517  154.5455 H   0  0  0  0  0  0  0  0  0  0  0  0
  150.3426  134.6026  157.6357 H   0  0  0  0  0  0  0  0  0  0  0  0
  151.6712  137.5453  153.5176 H   0  0  0  0  0  0  0  0  0  0  0  0
  150.4318  141.6148  158.2414 H   0  0  0  0  0  0  0  0  0  0  0  0
  151.8874  142.3963  157.6561 H   0  0  0  0  0  0  0  0  0  0  0  0
  149.7658  143.7780  156.8308 H   0  0  0  0  0  0  0  0  0  0  0  0
  148.7709  143.0714  155.3821 H   0  0  0  0  0  0  0  0  0  0  0  0
  149.6175  140.3222  152.6384 H   0  0  0  0  0  0  0  0  0  0  0  0
  150.0330  136.5440  157.9379 H   0  0  0  0  0  0  0  0  0  0  0  0
  1  2  2  0  0  0  0
  1 22  1  0  0  0  0
  2 17  1  0  0  0  0
  2  3  1  0  0  0  0
  3  4  2  0  0  0  0
  4  5  1  0  0  0  0
  4 23  1  0  0  0  0
  5  6  1  0  0  0  0
  5 15  1  0  0  0  0
  6 18  1  0  0  0  0
  6 13  1  0  0  0  0
  6  7  1  0  0  0  0
  7  8  1  0  0  0  0
  8 19  1  0  0  0  0
  8  9  1  0  0  0  0
  8 11  1  0  0  0  0
  9 10  1  0  0  0  0
  9 24  1  0  0  0  0
  9 25  1  0  0  0  0
 10 26  1  0  0  0  0
 11 20  1  0  0  0  0
 11 12  1  0  0  0  0
 11 13  1  0  0  0  0
 12 27  1  0  0  0  0
 13 21  1  0  0  0  0
 13 14  1  0  0  0  0
 14 28  1  0  0  0  0
 15 16  2  0  0  0  0
 15 17  1  0  0  0  0
 17 29  1  0  0  0  0
M  END
> <s_m_source_file>
AV-unprocessed.smi

> <i_m_source_file_index>
72

> <i_lp_mmshare_version>
43012

> <i_f3d_flags>
0

> <s_epik_input>
W05IMl1jMW5bY0hdbihjKD1PKW4xKVtDQEBIXTJPW0NASF0oW0NIMl1bT0hdKVtDQEBIXShbT0hdKVtDQEhdMltPSF0=

> <s_epik_cmdline>
J2VwaWtfcHl0aG9uJywgJy1waCcsICc3LjAnLCAnLXRuJywgJzgnLCAnLW1hJywgJzIwMCcsICctbWV0YWxfYmluZGluZycsICctaW1hZScsICc8aW5maWxlLm1hZT4nLCAnLW9tYWUnLCAnPG91dGZpbGUubWFlPic=

> <r_lp_tautomer_probability>
7.17554e-07

> <r_epik_Ionization_Penalty>
0.0066451

> <r_epik_Ionization_Penalty_Charging>
0.00663793

> <r_epik_Ionization_Penalty_Neutral>
7.17052e-06

> <r_epik_State_Penalty>
0.419231

> <r_epik_Charging_Adjusted_Penalty>
0.425868

> <i_epik_Tot_Q>
0

> <i_epik_Tot_abs_Q>
0

> <r_epik_Metal_State_Penalty>
1.44144

> <b_epik_Metal_Only>
0

> <s_epik_Chemistry_Notes>
This compound contains an acetal/aminal-like group ( X-CH(R)-Y where X, Y are N, S, or O) that may be acid/base labile, releasing an aldehyde.

> <s_lp_Force_Field>
OPLS_2005

> <r_lp_Energy>
44.3383

> <b_lp_Chiralities_Consistent>
1

> <s_lp_Variant>
AV-unprocessed.smi:72-1

> <Gold.Version>
5.8.1

> <Gold.Id.Protein>
6NUR|6NUR_protein|mol2

> <Gold.PLP.Fitness>
41.8256

> <Gold.PLP.PLP>
-25.9248

> <Gold.PLP.part.hbond>
-6.8065

> <Gold.PLP.part.metal>
0.0000

> <Gold.PLP.part.buried>
-3.1331

> <Gold.PLP.part.nonpolar>
-16.7336

> <Gold.PLP.part.repulsive>
0.2223

> <Gold.PLP.ligand.clash>
0.0000

> <Gold.PLP.ligand.torsion>
0.3562

> <Gold.PLP.Chemscore.Hbond>
4.6421

> <Gold.PLP.Chemscore.CHOScore>
0.8933

> <Gold.PLP.Chemscore.Metal>
0.0000

> <Gold.Chemscore.Hbonds>
donor molecule, donor type, donor heavy atom, donor atom, acceptor molecule, acceptor atom, score
      L1  H    10    26       P1  8028  1.00
      L1  H    12    27       P1  8028  0.98
      L1  H    14    28       P1  7957  0.83
      P1  H  8011  8017       L1    14  0.70
      P1  H 10752 10765       L1     3  0.95
      L1  C     4    23       P1  7949  0.63

> <Gold.PLP.Chemscore.Internal.Correction>
0.0070

> <Gold.Rescore>
     Score         DG    S(hbond)    S(metal)    S(lipo)     H(rot)  DE(clash)    DE(int)     intcor
      6.58      -9.94       3.54        0.00      25.75       4.06       0.14       3.22       ----

> <Gold.Chemscore.Fitness>
6.5776

> <Gold.Chemscore.DG>
-9.9381

> <Gold.Chemscore.ZeroCoef>
-5.4800

> <Gold.Chemscore.Hbond>
3.5445

> <Gold.Chemscore.Metal>
0.0000

> <Gold.Chemscore.Lipo>
25.7521

> <Gold.Chemscore.Internal_Hbond>
0.0000

> <Gold.Chemscore.DEClash>
0.1417

> <Gold.Chemscore.DEInternal>
3.2188

> <Gold.Chemscore.Rot>
4.0600

> <Gold.Chemscore.Internal.Correction>
   9.000000E+99

> <Gold.Chemscore.Hbonds>
donor molecule, donor type, donor heavy atom, donor atom, acceptor molecule, acceptor atom, score
      L1  H    10    26       P1  8028  0.98
      L1  H    12    27       P1  8028  0.93
      L1  H    14    28       P1  7957  0.78
      P1  H  8011  8017       L1    14  0.07
      P1  H 10752 10765       L1     3  0.21

> <Gold.Chemscore.Hbond.Weighted>
-11.8387

> <Gold.Chemscore.Metal.Weighted>
-0.0000

> <Gold.Chemscore.Lipo.Weighted>
-3.0130

> <Gold.Chemscore.Internal_Hbond.Weighted>
0.0000

> <Gold.Chemscore.DEClash.Weighted>
0.1417

> <Gold.Chemscore.DEInternal.Weighted>
3.2188

> <Gold.Chemscore.Rot.Weighted>
10.3936

> <Gold.Chemscore.Internal.Correction.Weighted>
   9.000000E+99

> <Gold.Protein.RotatedTorsions>
[ 6907 6896 6895 6894 ] final   81.42 input  -60.11 | X-H torsion
[ 7974 7965 7964 7962 ] final  173.19 input  175.53 | X-H torsion
[ 8008 7997 7996 7995 ] final -114.22 input   59.86 | X-H torsion
[ 10167 10162 10161 10158 ] final  124.99 input  -65.29 | X-H torsion
[ 10718 10713 10712 10709 ] final  106.99 input   66.30 | X-H torsion
[ 10763 10752 10751 10750 ] final  177.23 input  -60.55 | X-H torsion
[ 11005 11000 10999 10996 ] final   69.76 input  -57.11 | X-H torsion

> <Gold.Protein.ActiveResidues>
 VAL166  LYS551  ARG553  GLY616  TRP617  ASP618  TYR619  PRO620  LYS621  CYS622 
 ASP623  PHE694  ASN695  SER759  ASP760  ASP761  ALA762  ILE779  LEU786  VAL792 
 PHE793  MET794  SER795  GLU796  ALA797  LYS798  CYS799  TRP800  GLU811  SER814 

> <Gold.Protein.RotatedAtoms>
  152.5268  134.3206  159.9146 H   0  0  0  0  0  0  0  0  0  0  0  0  # atno 6907 bound_to 6896
  151.3155  133.4056  159.2658 H   0  0  0  0  0  0  0  0  0  0  0  0  # atno 6908 bound_to 6896
  151.0003  134.9333  159.8007 H   0  0  0  0  0  0  0  0  0  0  0  0  # atno 6909 bound_to 6896
  144.7249  139.9611  143.6435 H   0  0  0  0  0  0  0  0  0  0  0  0  # atno 7974 bound_to 7965
  155.0329  140.0393  157.2481 H   0  0  0  0  0  0  0  0  0  0  0  0  # atno 8008 bound_to 7997
  154.7281  140.2725  155.6457 H   0  0  0  0  0  0  0  0  0  0  0  0  # atno 8009 bound_to 7997
  156.2834  140.2689  156.1973 H   0  0  0  0  0  0  0  0  0  0  0  0  # atno 8010 bound_to 7997
  139.5711  144.6939  151.3777 H   0  0  0  0  0  0  0  0  0  0  0  0  # atno 10167 bound_to 10162
  157.6646  131.0863  150.6089 H   0  0  0  0  0  0  0  0  0  0  0  0  # atno 10718 bound_to 10713
  154.4918  135.2779  155.1491 H   0  0  0  0  0  0  0  0  0  0  0  0  # atno 10763 bound_to 10752
  154.3159  135.6219  153.5490 H   0  0  0  0  0  0  0  0  0  0  0  0  # atno 10764 bound_to 10752
  152.9889  135.5731  154.5341 H   0  0  0  0  0  0  0  0  0  0  0  0  # atno 10765 bound_to 10752
  139.9635  134.7020  156.0594 H   0  0  0  0  0  0  0  0  0  0  0  0  # atno 11005 bound_to 11000
  146.0636  139.3628  143.0566 LP  0  0  0  0  0  0  0  0  0  0  0  0  # atno 17320 bound_to 7965
  145.8060  140.9749  143.0974 LP  0  0  0  0  0  0  0  0  0  0  0  0  # atno 17321 bound_to 7965
  140.6995  143.7667  150.7380 LP  0  0  0  0  0  0  0  0  0  0  0  0  # atno 17342 bound_to 10162
  140.1173  143.4644  152.2334 LP  0  0  0  0  0  0  0  0  0  0  0  0  # atno 17343 bound_to 10162
  156.6390  130.4453  149.5759 LP  0  0  0  0  0  0  0  0  0  0  0  0  # atno 17370 bound_to 10713
  156.2223  130.6745  151.1381 LP  0  0  0  0  0  0  0  0  0  0  0  0  # atno 17371 bound_to 10713
  141.1314  133.6585  156.3475 LP  0  0  0  0  0  0  0  0  0  0  0  0  # atno 17394 bound_to 11000
  140.5447  134.6086  157.5390 LP  0  0  0  0  0  0  0  0  0  0  0  0  # atno 17395 bound_to 11000

$$$$
