AV-unprocessed.smi:259|AV-procd|sdf|1974|dock10
  -GOLD-   2262021143D 1   1.00000     0.00000
 Structure written by MMmdl.
 54 57  0  0  0  0  0  0  0  0  1 V2000
  147.9467  141.5740  154.0959 C   0  0  0  0  0  0  0  0  0  0  0  0
  148.9104  142.3300  154.8808 N   0  0  0  0  0  0  0  0  0  0  0  0
  150.0689  141.8318  155.3366 C   0  0  0  0  0  0  0  0  0  0  0  0
  150.4270  140.6727  155.1261 O   0  0  0  0  0  0  0  0  0  0  0  0
  150.9582  142.7960  156.1397 C   0  0  0  0  0  0  0  0  0  0  0  0
  151.1259  142.4768  157.6514 C   0  0  2  0  0  0  0  0  0  0  0  0
  149.8319  142.3932  158.2252 O   0  0  0  0  0  0  0  0  0  0  0  0
  151.9729  143.5436  158.3923 C   0  0  0  0  0  0  0  0  0  0  0  0
  152.3112  143.1227  159.8308 C   0  0  0  0  0  0  0  0  0  0  0  0
  152.9685  141.7375  159.8595 C   0  0  0  0  0  0  0  0  0  0  0  0
  152.1174  140.7608  159.1840 N   0  0  0  0  0  0  0  0  0  0  0  0
  152.3297  139.4446  159.4363 C   0  0  0  0  0  0  0  0  0  0  0  0
  151.5625  138.5043  158.8220 N   0  0  0  0  0  0  0  0  0  0  0  0
  151.7533  137.2063  159.0753 C   0  0  0  0  0  0  0  0  0  0  0  0
  152.6415  136.6370  159.8923 N   0  0  0  0  0  0  0  0  0  0  0  0
  153.4211  137.5736  160.5045 C   0  0  0  0  0  0  0  0  0  0  0  0
  153.3344  138.9842  160.3341 C   0  0  0  0  0  0  0  0  0  0  0  0
  154.3002  139.6127  161.1112 N   0  0  0  0  0  0  0  0  0  0  0  0
  154.9132  138.6322  161.7154 C   0  0  0  0  0  0  0  0  0  0  0  0
  154.4548  137.3722  161.4036 N   0  0  0  0  0  0  0  0  0  0  0  0
  154.9501  136.1088  161.9287 C   0  0  0  0  0  0  0  0  0  0  0  0
  154.8688  135.9943  163.4623 C   0  0  0  0  0  0  0  0  0  0  0  0
  155.0362  134.5126  163.8557 C   0  0  0  0  0  0  0  0  0  0  0  0
  154.9248  134.3064  165.2500 O   0  0  0  0  0  0  0  0  0  0  0  0
  155.7057  137.0028  164.2627 C   0  0  0  0  0  0  0  0  0  0  0  0
  154.5537  137.4637  165.0026 O   0  0  0  0  0  0  0  0  0  0  0  0
  153.6877  136.7391  164.1013 C   0  0  0  0  0  0  0  0  0  0  0  0
  151.7643  141.0747  157.7983 C   0  0  0  0  0  0  0  0  0  0  0  0
  147.0900  142.2026  153.8532 H   0  0  0  0  0  0  0  0  0  0  0  0
  147.5873  140.7071  154.6518 H   0  0  0  0  0  0  0  0  0  0  0  0
  148.3923  141.2292  153.1619 H   0  0  0  0  0  0  0  0  0  0  0  0
  148.6849  143.2924  155.0879 H   0  0  0  0  0  0  0  0  0  0  0  0
  151.9360  142.8279  155.6570 H   0  0  0  0  0  0  0  0  0  0  0  0
  150.5468  143.8017  156.0390 H   0  0  0  0  0  0  0  0  0  0  0  0
  149.3066  143.1008  157.8825 H   0  0  0  0  0  0  0  0  0  0  0  0
  152.9042  143.7031  157.8473 H   0  0  0  0  0  0  0  0  0  0  0  0
  151.4617  144.5065  158.4112 H   0  0  0  0  0  0  0  0  0  0  0  0
  152.9721  143.8582  160.2898 H   0  0  0  0  0  0  0  0  0  0  0  0
  151.4016  143.1072  160.4325 H   0  0  0  0  0  0  0  0  0  0  0  0
  153.9421  141.7715  159.3685 H   0  0  0  0  0  0  0  0  0  0  0  0
  153.1371  141.4404  160.8956 H   0  0  0  0  0  0  0  0  0  0  0  0
  151.1001  136.5266  158.5480 H   0  0  0  0  0  0  0  0  0  0  0  0
  155.7228  138.8057  162.4089 H   0  0  0  0  0  0  0  0  0  0  0  0
  154.3771  135.3104  161.4554 H   0  0  0  0  0  0  0  0  0  0  0  0
  155.9776  135.9720  161.5897 H   0  0  0  0  0  0  0  0  0  0  0  0
  154.2867  133.8936  163.3618 H   0  0  0  0  0  0  0  0  0  0  0  0
  156.0118  134.1322  163.5524 H   0  0  0  0  0  0  0  0  0  0  0  0
  155.7587  134.5004  165.6506 H   0  0  0  0  0  0  0  0  0  0  0  0
  156.4619  136.5481  164.9037 H   0  0  0  0  0  0  0  0  0  0  0  0
  156.1384  137.8020  163.6604 H   0  0  0  0  0  0  0  0  0  0  0  0
  153.1657  137.4111  163.4184 H   0  0  0  0  0  0  0  0  0  0  0  0
  152.9784  136.0973  164.6248 H   0  0  0  0  0  0  0  0  0  0  0  0
  151.1020  140.3230  157.3702 H   0  0  0  0  0  0  0  0  0  0  0  0
  152.6846  141.0322  157.2140 H   0  0  0  0  0  0  0  0  0  0  0  0
  1  2  1  0  0  0  0
  1 29  1  0  0  0  0
  1 30  1  0  0  0  0
  1 31  1  0  0  0  0
  2  3  1  0  0  0  0
  2 32  1  0  0  0  0
  3  4  2  0  0  0  0
  3  5  1  0  0  0  0
  5  6  1  0  0  0  0
  5 33  1  0  0  0  0
  5 34  1  0  0  0  0
  6 28  1  0  0  0  0
  6  7  1  0  0  0  0
  6  8  1  0  0  0  0
  7 35  1  0  0  0  0
  8  9  1  0  0  0  0
  8 36  1  0  0  0  0
  8 37  1  0  0  0  0
  9 10  1  0  0  0  0
  9 38  1  0  0  0  0
  9 39  1  0  0  0  0
 10 11  1  0  0  0  0
 10 40  1  0  0  0  0
 10 41  1  0  0  0  0
 11 12  1  0  0  0  0
 11 28  1  0  0  0  0
 12 17  1  0  0  0  0
 12 13  2  0  0  0  0
 13 14  1  0  0  0  0
 14 15  2  0  0  0  0
 14 42  1  0  0  0  0
 15 16  1  0  0  0  0
 16 20  1  0  0  0  0
 16 17  2  0  0  0  0
 17 18  1  0  0  0  0
 18 19  2  0  0  0  0
 19 20  1  0  0  0  0
 19 43  1  0  0  0  0
 20 21  1  0  0  0  0
 21 22  1  0  0  0  0
 21 44  1  0  0  0  0
 21 45  1  0  0  0  0
 22 27  1  0  0  0  0
 22 23  1  0  0  0  0
 22 25  1  0  0  0  0
 23 24  1  0  0  0  0
 23 46  1  0  0  0  0
 23 47  1  0  0  0  0
 24 48  1  0  0  0  0
 25 26  1  0  0  0  0
 25 49  1  0  0  0  0
 25 50  1  0  0  0  0
 26 27  1  0  0  0  0
 27 51  1  0  0  0  0
 27 52  1  0  0  0  0
 28 53  1  0  0  0  0
 28 54  1  0  0  0  0
M  END
> <s_m_source_file>
AV-unprocessed.smi

> <i_m_source_file_index>
259

> <i_lp_mmshare_version>
43012

> <i_f3d_flags>
0

> <s_epik_input>
W0NIM11bTkhdQyg9TylbQ0gyXVtDQEBdMShbT0hdKVtDSDJdW0NIMl1bQ0gyXU4oW0NIMl0xKWMobltjSF1uMiljKGMyMyluW2NIXW4zW0NIMl1DNChbQ0gyXVtPSF0pW0NIMl1PW0NIMl00

> <s_epik_cmdline>
J2VwaWtfcHl0aG9uJywgJy1waCcsICc3LjAnLCAnLXRuJywgJzgnLCAnLW1hJywgJzIwMCcsICctbWV0YWxfYmluZGluZycsICctaW1hZScsICc8aW5maWxlLm1hZT4nLCAnLW9tYWUnLCAnPG91dGZpbGUubWFlPic=

> <r_lp_tautomer_probability>
1

> <r_epik_Ionization_Penalty>
0.00366363

> <r_epik_Ionization_Penalty_Charging>
0

> <r_epik_Ionization_Penalty_Neutral>
0.00366363

> <r_epik_State_Penalty>
0.00243014

> <r_epik_Charging_Adjusted_Penalty>
0.00243014

> <i_epik_Tot_Q>
0

> <i_epik_Tot_abs_Q>
0

> <r_epik_Metal_State_Penalty>
-0

> <b_epik_Metal_Only>
0

> <s_lp_Force_Field>
OPLS_2005

> <r_lp_Energy>
39.9433

> <b_lp_Chiralities_Consistent>
1

> <s_lp_Variant>
AV-unprocessed.smi:259-2

> <Gold.Version>
5.8.1

> <Gold.Id.Protein>
6NUR|6NUR_protein|mol2

> <Gold.PLP.Fitness>
51.9087

> <Gold.PLP.PLP>
-43.7332

> <Gold.PLP.part.hbond>
-4.0000

> <Gold.PLP.part.metal>
0.0000

> <Gold.PLP.part.buried>
-3.4965

> <Gold.PLP.part.nonpolar>
-36.0668

> <Gold.PLP.part.repulsive>
0.4059

> <Gold.PLP.ligand.clash>
0.0000

> <Gold.PLP.ligand.torsion>
0.7028

> <Gold.PLP.Chemscore.Hbond>
2.9280

> <Gold.PLP.Chemscore.CHOScore>
0.0000

> <Gold.PLP.Chemscore.Metal>
0.0000

> <Gold.Chemscore.Hbonds>
donor molecule, donor type, donor heavy atom, donor atom, acceptor molecule, acceptor atom, score
      L1  H     2    32       P1  8028  1.00
      P1  H  6896  6908       L1    15  1.00
      P1  H  7989  7998       L1     4  0.90

> <Gold.PLP.Chemscore.Internal.Correction>
0.7972

> <Gold.Rescore>
     Score         DG    S(hbond)    S(metal)    S(lipo)     H(rot)  DE(clash)    DE(int)     intcor
     10.30     -14.46       2.25        0.00     102.05       4.09       1.51       2.65       ----

> <Gold.Chemscore.Fitness>
10.3039

> <Gold.Chemscore.DG>
-14.4628

> <Gold.Chemscore.ZeroCoef>
-5.4800

> <Gold.Chemscore.Hbond>
2.2499

> <Gold.Chemscore.Metal>
0.0000

> <Gold.Chemscore.Lipo>
102.0514

> <Gold.Chemscore.Internal_Hbond>
0.0000

> <Gold.Chemscore.DEClash>
1.5114

> <Gold.Chemscore.DEInternal>
2.6476

> <Gold.Chemscore.Rot>
4.0906

> <Gold.Chemscore.Internal.Correction>
   9.000000E+99

> <Gold.Chemscore.Hbonds>
donor molecule, donor type, donor heavy atom, donor atom, acceptor molecule, acceptor atom, score
      L1  H     2    32       P1  8028  0.93
      P1  H  6896  6908       L1    15  0.30
      P1  H  7989  7998       L1     4  0.29

> <Gold.Chemscore.Hbond.Weighted>
-7.5147

> <Gold.Chemscore.Metal.Weighted>
-0.0000

> <Gold.Chemscore.Lipo.Weighted>
-11.9400

> <Gold.Chemscore.Internal_Hbond.Weighted>
0.0000

> <Gold.Chemscore.DEClash.Weighted>
1.5114

> <Gold.Chemscore.DEInternal.Weighted>
2.6476

> <Gold.Chemscore.Rot.Weighted>
10.4719

> <Gold.Chemscore.Internal.Correction.Weighted>
   9.000000E+99

> <Gold.Protein.RotatedTorsions>
[ 6907 6896 6895 6894 ] final  -95.77 input  -60.11 | X-H torsion
[ 7974 7965 7964 7962 ] final  133.77 input  175.53 | X-H torsion
[ 8008 7997 7996 7995 ] final   81.51 input   59.86 | X-H torsion
[ 10167 10162 10161 10158 ] final   37.75 input  -65.29 | X-H torsion
[ 10718 10713 10712 10709 ] final  -68.77 input   66.30 | X-H torsion
[ 10763 10752 10751 10750 ] final  -56.53 input  -60.55 | X-H torsion
[ 11005 11000 10999 10996 ] final   -5.39 input  -57.11 | X-H torsion

> <Gold.Protein.ActiveResidues>
 VAL166  LYS551  ARG553  GLY616  TRP617  ASP618  TYR619  PRO620  LYS621  CYS622 
 ASP623  PHE694  ASN695  SER759  ASP760  ASP761  ALA762  ILE779  LEU786  VAL792 
 PHE793  MET794  SER795  GLU796  ALA797  LYS798  CYS799  TRP800  GLU811  SER814 

> <Gold.Protein.RotatedAtoms>
  150.6972  134.1607  159.4174 H   0  0  0  0  0  0  0  0  0  0  0  0  # atno 6907 bound_to 6896
  151.9587  135.0131  160.0555 H   0  0  0  0  0  0  0  0  0  0  0  0  # atno 6908 bound_to 6896
  152.1946  133.4762  159.5063 H   0  0  0  0  0  0  0  0  0  0  0  0  # atno 6909 bound_to 6896
  144.9831  139.4483  143.5376 H   0  0  0  0  0  0  0  0  0  0  0  0  # atno 7974 bound_to 7965
  155.8981  140.3435  155.6006 H   0  0  0  0  0  0  0  0  0  0  0  0  # atno 8008 bound_to 7997
  155.7532  140.0822  157.2210 H   0  0  0  0  0  0  0  0  0  0  0  0  # atno 8009 bound_to 7997
  154.4040  140.1549  156.2735 H   0  0  0  0  0  0  0  0  0  0  0  0  # atno 8010 bound_to 7997
  140.4003  144.1733  150.6133 H   0  0  0  0  0  0  0  0  0  0  0  0  # atno 10167 bound_to 10162
  156.0488  130.4300  150.2050 H   0  0  0  0  0  0  0  0  0  0  0  0  # atno 10718 bound_to 10713
  154.2081  135.6399  153.5107 H   0  0  0  0  0  0  0  0  0  0  0  0  # atno 10763 bound_to 10752
  152.9996  135.5467  154.6244 H   0  0  0  0  0  0  0  0  0  0  0  0  # atno 10764 bound_to 10752
  154.5674  135.2914  155.0834 H   0  0  0  0  0  0  0  0  0  0  0  0  # atno 10765 bound_to 10752
  140.6906  133.9074  155.8615 H   0  0  0  0  0  0  0  0  0  0  0  0  # atno 11005 bound_to 11000
  146.3413  139.9116  142.8779 LP  0  0  0  0  0  0  0  0  0  0  0  0  # atno 17320 bound_to 7965
  145.2392  141.0003  143.3946 LP  0  0  0  0  0  0  0  0  0  0  0  0  # atno 17321 bound_to 7965
  140.4747  143.2400  151.9040 LP  0  0  0  0  0  0  0  0  0  0  0  0  # atno 17342 bound_to 10162
  139.4785  144.5333  151.8635 LP  0  0  0  0  0  0  0  0  0  0  0  0  # atno 17343 bound_to 10162
  157.0136  130.9958  151.3359 LP  0  0  0  0  0  0  0  0  0  0  0  0  # atno 17370 bound_to 10713
  157.5393  130.8109  149.8009 LP  0  0  0  0  0  0  0  0  0  0  0  0  # atno 17371 bound_to 10713
  141.0244  134.0844  157.4084 LP  0  0  0  0  0  0  0  0  0  0  0  0  # atno 17394 bound_to 11000
  139.8924  135.0125  156.6847 LP  0  0  0  0  0  0  0  0  0  0  0  0  # atno 17395 bound_to 11000

$$$$
