#       Name:                AV-unprocessed.smi:1994
#       Creating user name   scv26
#       Creation time:       Fri Mar 27 10:28:16 2020


#       File generated by GOLD software.
#

@<TRIPOS>MOLECULE
AV-unprocessed.smi:1994
    44    46     1
SMALL
NO_CHARGES


@<TRIPOS>ATOM
      1 ****        -1.2171   1.8890   2.3832 C.3            1 S1                 0.0000
      2 ****        -1.4076   2.4618   1.0146 C.2            1 S1                 0.0000
      3 ****        -1.8697   3.6969   0.8188 N.2            1 S1                 0.0000
      4 ****        -1.8943   3.7962  -0.5590 C.ar           1 S1                 0.0000
      5 ****        -2.2895   4.8644  -1.3959 C.ar           1 S1                 0.0000
      6 ****        -2.2287   4.7322  -2.7988 C.ar           1 S1                 0.0000
      7 ****        -1.7712   3.5336  -3.3837 C.ar           1 S1                 0.0000
      8 ****        -1.3706   2.4579  -2.5681 C.ar           1 S1                 0.0000
      9 ****        -1.4349   2.5940  -1.1684 C.ar           1 S1                 0.0000
     10 ****        -1.1241   1.7517  -0.1048 N.pl3          1 S1                 0.0000
     11 ****        -0.6083   0.3923  -0.1962 C.3            1 S1                 0.0000
     12 ****         0.9307   0.3312  -0.1167 C.3            1 S1                 0.0000
     13 ****         1.4983   1.0792  -1.1737 O.3            1 S1                 0.0000
     14 ****         1.4653  -1.1058  -0.2008 C.3            1 S1                 0.0000
     15 ****         1.0550  -1.8213   0.9570 O.3            1 S1                 0.0000
     16 ****         1.4137  -3.1482   1.0672 C.ar           1 S1                 0.0000
     17 ****         2.2027  -3.8405   0.1132 C.ar           1 S1                 0.0000
     18 ****         2.5258  -5.1981   0.3044 C.ar           1 S1                 0.0000
     19 ****         2.0660  -5.8801   1.4459 C.ar           1 S1                 0.0000
     20 ****         1.2824  -5.2021   2.3976 C.ar           1 S1                 0.0000
     21 ****         0.9597  -3.8442   2.2082 C.ar           1 S1                 0.0000
     22 ****         0.2048  -3.2030   3.1322 F              1 S1                 0.0000
     23 ****        -1.4709   2.6273   3.1447 H              1 S1                 0.0000
     24 ****        -0.1800   1.5891   2.5304 H              1 S1                 0.0000
     25 ****        -1.8606   1.0200   2.5217 H              1 S1                 0.0000
     26 ****        -2.6410   5.7867  -0.9575 H              1 S1                 0.0000
     27 ****        -2.5347   5.5546  -3.4290 H              1 S1                 0.0000
     28 ****        -1.7280   3.4405  -4.4591 H              1 S1                 0.0000
     29 ****        -1.0172   1.5396  -3.0129 H              1 S1                 0.0000
     30 ****        -1.0544  -0.2049   0.5993 H              1 S1                 0.0000
     31 ****        -0.9556  -0.0486  -1.1314 H              1 S1                 0.0000
     32 ****         1.2699   0.7795   0.8174 H              1 S1                 0.0000
     33 ****         1.1891   1.9700  -1.1094 H              1 S1                 0.0000
     34 ****         1.0947  -1.5902  -1.1060 H              1 S1                 0.0000
     35 ****         2.5556  -1.0882  -0.2476 H              1 S1                 0.0000
     36 ****         2.5748  -3.3524  -0.7747 H              1 S1                 0.0000
     37 ****         3.1285  -5.7168  -0.4268 H              1 S1                 0.0000
     38 ****         2.3140  -6.9212   1.5914 H              1 S1                 0.0000
     39 ****         0.9282  -5.7234   3.2748 H              1 S1                 0.0000
     40 ****        -2.1328   4.3808   1.4993 LP             1 S1                 0.0000
     41 ****         1.2206   0.6881  -2.0512 LP             1 S1                 0.0000
     42 ****         2.4955   1.0621  -1.1018 LP             1 S1                 0.0000
     43 ****         0.0564  -1.7807   0.9916 LP             1 S1                 0.0000
     44 ****         1.4356  -1.3450   1.7496 LP             1 S1                 0.0000
@<TRIPOS>BOND
    1    1    2 1     
    2    1   23 1     
    3    1   24 1     
    4    1   25 1     
    5    2   10 1     
    6    2    3 2     
    7    3    4 1     
    8    4    9 ar    
    9    4    5 ar    
   10    5    6 ar    
   11    5   26 1     
   12    6    7 ar    
   13    6   27 1     
   14    7    8 ar    
   15    7   28 1     
   16    8    9 ar    
   17    8   29 1     
   18    9   10 1     
   19   10   11 1     
   20   11   12 1     
   21   11   30 1     
   22   11   31 1     
   23   12   13 1     
   24   12   14 1     
   25   12   32 1     
   26   13   33 1     
   27   14   15 1     
   28   14   34 1     
   29   14   35 1     
   30   15   16 1     
   31   16   21 ar    
   32   16   17 ar    
   33   17   18 ar    
   34   17   36 1     
   35   18   19 ar    
   36   18   37 1     
   37   19   20 ar    
   38   19   38 1     
   39   20   21 ar    
   40   20   39 1     
   41   21   22 1     
   42    3   40 1     
   43   13   41 1     
   44   13   42 1     
   45   15   43 1     
   46   15   44 1     
@<TRIPOS>SUBSTRUCTURE
      1 S1             1
@<TRIPOS>SET
LONE_PAIRS      STATIC     ATOMS    <user>   **** ""
5 40 41 42 43 44
DONOR_HYDROGENS      STATIC     ATOMS    <user>   **** ""
1 33
ATOM$BLUE        STATIC     ATOMS    COLORGROUP SYSTEM
5 40 41 42 43 44
ATOM$RED        STATIC     ATOMS    COLORGROUP SYSTEM
1 33
