AV-unprocessed.smi:1757|AV-procd|sdf|7076|dock7
  -GOLD-   22720 8293D 1   1.00000     0.00000
 Structure written by MMmdl.
 40 41  0  0  0  0  0  0  0  0  2 V2000
  144.3928  139.0074  155.3789 C   0  0  0  0  0  0  0  0  0  0  0  0
  145.4453  139.6182  154.5387 N   0  3  2  0  0  0  0  0  0  0  0  0
  146.5265  138.6597  154.2003 C   0  0  0  0  0  0  0  0  0  0  0  0
  147.5325  139.2847  153.2166 C   0  0  0  0  0  0  0  0  0  0  0  0
  148.1101  140.6115  153.7425 C   0  0  2  0  0  0  0  0  0  0  0  0
  149.0252  140.3704  154.8591 N   0  0  0  0  0  0  0  0  0  0  0  0
  149.6080  141.3091  155.6195 C   0  0  0  0  0  0  0  0  0  0  0  0
  149.4266  142.5163  155.4653 O   0  0  0  0  0  0  0  0  0  0  0  0
  150.4165  140.7458  156.5360 N   0  0  0  0  0  0  0  0  0  0  0  0
  151.2022  141.3604  157.5256 C   0  0  0  0  0  0  0  0  0  0  0  0
  150.9157  142.5493  158.1179 C   0  0  0  0  0  0  0  0  0  0  0  0
  151.7722  143.1250  159.1426 C   0  0  0  0  0  0  0  0  0  0  0  0
  151.4731  144.4636  159.7988 C   0  0  0  0  0  0  0  0  0  0  0  0
  151.8142  144.4303  161.0868 F   0  0  0  0  0  0  0  0  0  0  0  0
  152.1769  145.4317  159.2123 F   0  0  0  0  0  0  0  0  0  0  0  0
  150.1798  144.7766  159.7159 F   0  0  0  0  0  0  0  0  0  0  0  0
  152.8612  142.4135  159.4847 C   0  0  0  0  0  0  0  0  0  0  0  0
  153.1556  141.1848  158.8898 N   0  0  0  0  0  0  0  0  0  0  0  0
  152.3982  140.6040  157.9326 C   0  0  0  0  0  0  0  0  0  0  0  0
  152.7222  139.5153  157.4589 O   0  0  0  0  0  0  0  0  0  0  0  0
  146.9702  141.5557  154.1651 C   0  0  0  0  0  0  0  0  0  0  0  0
  145.9784  140.8732  155.1246 C   0  0  0  0  0  0  0  0  0  0  0  0
  153.9897  140.7104  159.2043 H   0  0  0  0  0  0  0  0  0  0  0  0
  144.7897  138.7109  156.3508 H   0  0  0  0  0  0  0  0  0  0  0  0
  143.9772  138.1231  154.8945 H   0  0  0  0  0  0  0  0  0  0  0  0
  143.5752  139.7102  155.5426 H   0  0  0  0  0  0  0  0  0  0  0  0
  147.0339  138.3418  155.1127 H   0  0  0  0  0  0  0  0  0  0  0  0
  146.0930  137.7644  153.7529 H   0  0  0  0  0  0  0  0  0  0  0  0
  148.3367  138.5796  153.0027 H   0  0  0  0  0  0  0  0  0  0  0  0
  147.0307  139.4668  152.2654 H   0  0  0  0  0  0  0  0  0  0  0  0
  148.6509  141.0876  152.9230 H   0  0  0  0  0  0  0  0  0  0  0  0
  149.2418  139.4062  155.0647 H   0  0  0  0  0  0  0  0  0  0  0  0
  150.5164  139.7422  156.4901 H   0  0  0  0  0  0  0  0  0  0  0  0
  150.0259  143.0961  157.8529 H   0  0  0  0  0  0  0  0  0  0  0  0
  153.5796  142.7273  160.2280 H   0  0  0  0  0  0  0  0  0  0  0  0
  147.3762  142.4584  154.6232 H   0  0  0  0  0  0  0  0  0  0  0  0
  146.4321  141.8846  153.2751 H   0  0  0  0  0  0  0  0  0  0  0  0
  145.1542  141.5551  155.3374 H   0  0  0  0  0  0  0  0  0  0  0  0
  146.4617  140.6559  156.0785 H   0  0  0  0  0  0  0  0  0  0  0  0
  145.0028  139.8722  153.6667 H   0  0  0  0  0  0  0  0  0  0  0  0
  1  2  1  0  0  0  0
  1 24  1  0  0  0  0
  1 25  1  0  0  0  0
  1 26  1  0  0  0  0
  2 22  1  0  0  0  0
  2  3  1  0  0  0  0
  2 40  1  0  0  0  0
  3  4  1  0  0  0  0
  3 27  1  0  0  0  0
  3 28  1  0  0  0  0
  4  5  1  0  0  0  0
  4 29  1  0  0  0  0
  4 30  1  0  0  0  0
  5  6  1  0  0  0  0
  5 21  1  0  0  0  0
  5 31  1  0  0  0  0
  6  7  1  0  0  0  0
  6 32  1  0  0  0  0
  7  8  2  0  0  0  0
  7  9  1  0  0  0  0
  9 10  1  0  0  0  0
  9 33  1  0  0  0  0
 10 19  1  0  0  0  0
 10 11  2  0  0  0  0
 11 12  1  0  0  0  0
 11 34  1  0  0  0  0
 12 13  1  0  0  0  0
 12 17  2  0  0  0  0
 13 14  1  0  0  0  0
 13 15  1  0  0  0  0
 13 16  1  0  0  0  0
 17 18  1  0  0  0  0
 17 35  1  0  0  0  0
 18 23  1  0  0  0  0
 18 19  1  0  0  0  0
 19 20  2  0  0  0  0
 21 22  1  0  0  0  0
 21 36  1  0  0  0  0
 21 37  1  0  0  0  0
 22 38  1  0  0  0  0
 22 39  1  0  0  0  0
M  CHG  1   2   1
M  END
> <s_m_source_file>
AV-unprocessed.smi

> <i_m_source_file_index>
1757

> <i_lp_mmshare_version>
43012

> <i_f3d_flags>
0

> <s_epik_input>
W0NIM11OMVtDSDJdW0NIMl1bQ0hdKFtDSDJdW0NIMl0xKVtOSF1DKD1PKVtOSF1jMltjSF1jKEMoRikoRilGKVtjSF1bbkhdYzI9Tw==

> <s_epik_cmdline>
J2VwaWtfcHl0aG9uJywgJy1waCcsICc3LjAnLCAnLXRuJywgJzgnLCAnLW1hJywgJzIwMCcsICctbWV0YWxfYmluZGluZycsICctaW1hZScsICc8aW5maWxlLm1hZT4nLCAnLW9tYWUnLCAnPG91dGZpbGUubWFlPic=

> <r_lp_tautomer_probability>
1

> <r_epik_Ionization_Penalty>
0.00859077

> <r_epik_Ionization_Penalty_Charging>
0.00857233

> <r_epik_Ionization_Penalty_Neutral>
1.84472e-05

> <r_epik_State_Penalty>
-0

> <r_epik_Charging_Adjusted_Penalty>
0.00857233

> <i_epik_Tot_Q>
1

> <i_epik_Tot_abs_Q>
1

> <r_epik_Metal_State_Penalty>
0.377538

> <b_epik_Metal_Only>
0

> <s_lp_Force_Field>
OPLS_2005

> <r_lp_Energy>
26.4268

> <b_lp_Chiralities_Consistent>
1

> <s_lp_Variant>
AV-unprocessed.smi:1757-2

> <Gold.Version>
5.8.1

> <Gold.Id.Protein>
6NUR|6NUR_protein|mol2

> <Gold.PLP.Fitness>
40.3409

> <Gold.PLP.PLP>
-34.0197

> <Gold.PLP.part.hbond>
-2.0000

> <Gold.PLP.part.metal>
0.0000

> <Gold.PLP.part.buried>
-3.1820

> <Gold.PLP.part.nonpolar>
-33.9168

> <Gold.PLP.part.repulsive>
5.7480

> <Gold.PLP.ligand.clash>
0.0000

> <Gold.PLP.ligand.torsion>
1.1935

> <Gold.PLP.Chemscore.Hbond>
2.9000

> <Gold.PLP.Chemscore.CHOScore>
0.0000

> <Gold.PLP.Chemscore.Metal>
0.0000

> <Gold.Chemscore.Hbonds>
donor molecule, donor type, donor heavy atom, donor atom, acceptor molecule, acceptor atom, score
      L1  H     2    40       P1 10175  2.00
      P1  H  7997  8010       L1    20  0.90

> <Gold.PLP.Chemscore.Internal.Correction>
0.0082

> <Gold.Rescore>
     Score         DG    S(hbond)    S(metal)    S(lipo)     H(rot)  DE(clash)    DE(int)     intcor
     11.72     -16.83       1.76        0.00      68.64       1.00       2.33       2.79       ----

> <Gold.Chemscore.Fitness>
11.7204

> <Gold.Chemscore.DG>
-16.8327

> <Gold.Chemscore.ZeroCoef>
-5.4800

> <Gold.Chemscore.Hbond>
1.7611

> <Gold.Chemscore.Metal>
0.0000

> <Gold.Chemscore.Lipo>
68.6370

> <Gold.Chemscore.Internal_Hbond>
0.0000

> <Gold.Chemscore.DEClash>
2.3257

> <Gold.Chemscore.DEInternal>
2.7867

> <Gold.Chemscore.Rot>
1.0000

> <Gold.Chemscore.Internal.Correction>
   9.000000E+99

> <Gold.Chemscore.Hbonds>
donor molecule, donor type, donor heavy atom, donor atom, acceptor molecule, acceptor atom, score
      L1  H     2    40       P1 10175  0.99
      P1  H  7997  8010       L1    20  0.17

> <Gold.Chemscore.Hbond.Weighted>
-5.8822

> <Gold.Chemscore.Metal.Weighted>
-0.0000

> <Gold.Chemscore.Lipo.Weighted>
-8.0305

> <Gold.Chemscore.Internal_Hbond.Weighted>
0.0000

> <Gold.Chemscore.DEClash.Weighted>
2.3257

> <Gold.Chemscore.DEInternal.Weighted>
2.7867

> <Gold.Chemscore.Rot.Weighted>
2.5600

> <Gold.Chemscore.Internal.Correction.Weighted>
   9.000000E+99

> <Gold.Protein.RotatedTorsions>
[ 6907 6896 6895 6894 ] final -176.71 input  -60.11 | X-H torsion
[ 7974 7965 7964 7962 ] final -168.03 input  175.53 | X-H torsion
[ 8008 7997 7996 7995 ] final   71.55 input   59.86 | X-H torsion
[ 10167 10162 10161 10158 ] final  138.23 input  -65.29 | X-H torsion
[ 10718 10713 10712 10709 ] final -178.51 input   66.30 | X-H torsion
[ 10763 10752 10751 10750 ] final  -32.42 input  -60.55 | X-H torsion
[ 11005 11000 10999 10996 ] final -122.66 input  -57.11 | X-H torsion

> <Gold.Protein.ActiveResidues>
 VAL166  LYS551  ARG553  GLY616  TRP617  ASP618  TYR619  PRO620  LYS621  CYS622 
 ASP623  PHE694  ASN695  SER759  ASP760  ASP761  ALA762  ILE779  LEU786  VAL792 
 PHE793  MET794  SER795  GLU796  ALA797  LYS798  CYS799  TRP800  GLU811  SER814 

> <Gold.Protein.RotatedAtoms>
  151.6093  133.3349  159.3063 H   0  0  0  0  0  0  0  0  0  0  0  0  # atno 6907 bound_to 6896
  150.8165  134.7353  159.6746 H   0  0  0  0  0  0  0  0  0  0  0  0  # atno 6908 bound_to 6896
  152.4261  134.5871  160.0015 H   0  0  0  0  0  0  0  0  0  0  0  0  # atno 6909 bound_to 6896
  144.7211  140.2431  143.6289 H   0  0  0  0  0  0  0  0  0  0  0  0  # atno 7974 bound_to 7965
  155.7555  140.3487  155.5172 H   0  0  0  0  0  0  0  0  0  0  0  0  # atno 8008 bound_to 7997
  155.8963  140.1026  157.1403 H   0  0  0  0  0  0  0  0  0  0  0  0  # atno 8009 bound_to 7997
  154.4039  140.1294  156.4367 H   0  0  0  0  0  0  0  0  0  0  0  0  # atno 8010 bound_to 7997
  139.5118  144.6365  151.5682 H   0  0  0  0  0  0  0  0  0  0  0  0  # atno 10167 bound_to 10162
  156.8454  130.9700  151.3097 H   0  0  0  0  0  0  0  0  0  0  0  0  # atno 10718 bound_to 10713
  153.8135  135.6880  153.4837 H   0  0  0  0  0  0  0  0  0  0  0  0  # atno 10763 bound_to 10752
  153.1614  135.4578  154.9775 H   0  0  0  0  0  0  0  0  0  0  0  0  # atno 10764 bound_to 10752
  154.7958  135.3318  154.7613 H   0  0  0  0  0  0  0  0  0  0  0  0  # atno 10765 bound_to 10752
  140.9979  134.0446  157.3575 H   0  0  0  0  0  0  0  0  0  0  0  0  # atno 11005 bound_to 11000
  145.8301  139.2082  143.1888 LP  0  0  0  0  0  0  0  0  0  0  0  0  # atno 17320 bound_to 7965
  146.0439  140.8138  142.9815 LP  0  0  0  0  0  0  0  0  0  0  0  0  # atno 17321 bound_to 7965
  140.6116  143.9425  150.6457 LP  0  0  0  0  0  0  0  0  0  0  0  0  # atno 17342 bound_to 10162
  140.2670  143.3483  152.1272 LP  0  0  0  0  0  0  0  0  0  0  0  0  # atno 17343 bound_to 10162
  157.6333  130.8746  149.9313 LP  0  0  0  0  0  0  0  0  0  0  0  0  # atno 17370 bound_to 10713
  156.0858  130.3668  150.0491 LP  0  0  0  0  0  0  0  0  0  0  0  0  # atno 17371 bound_to 10713
  139.9024  135.0169  156.7329 LP  0  0  0  0  0  0  0  0  0  0  0  0  # atno 17394 bound_to 11000
  140.6937  133.9367  155.7982 LP  0  0  0  0  0  0  0  0  0  0  0  0  # atno 17395 bound_to 11000

$$$$
