#       Name:                AV-unprocessed.smi:1959
#       Creating user name   scv26
#       Creation time:       Fri Mar 27 10:08:09 2020


#       File generated by GOLD software.
#

@<TRIPOS>MOLECULE
AV-unprocessed.smi:1959
    50    51     1
SMALL
NO_CHARGES


@<TRIPOS>ATOM
      1 ****        -2.9451   4.2797   3.1539 C.3            1 S1                 0.0000
      2 ****        -2.7421   3.1899   2.1430 C.2            1 S1                 0.0000
      3 ****        -3.0349   3.2122   0.7506 C.2            1 S1                 0.0000
      4 ****        -2.6575   1.9763   0.3060 C.2            1 S1                 0.0000
      5 ****        -2.7078   1.3884  -1.0663 C.3            1 S1                 0.0000
      6 ****        -2.1735   1.2865   1.4040 N.pl3          1 S1                 0.0000
      7 ****        -1.6349  -0.0641   1.4779 C.3            1 S1                 0.0000
      8 ****        -0.1408  -0.1242   1.1384 C.2            1 S1                 0.0000
      9 ****         0.4234   0.8197   0.5831 O.2            1 S1                 0.0000
     10 ****         0.4876  -1.2661   1.4608 N.am           1 S1                 0.0000
     11 ****         1.9046  -1.5598   1.2384 C.3            1 S1                 0.0000
     12 ****         2.4328  -2.3978   2.4103 C.3            1 S1                 0.0000
     13 ****         2.1258  -2.2782  -0.1132 C.3            1 S1                 0.0000
     14 ****         1.6100  -1.5064  -1.2723 N.4            1 S1                 1.0000
     15 ****         2.5054  -0.4043  -1.6989 C.3            1 S1                 0.0000
     16 ****         1.8451   0.4003  -2.8301 C.3            1 S1                 0.0000
     17 ****         1.5508  -0.4678  -3.9182 O.3            1 S1                 0.0000
     18 ****         0.6401  -1.4973  -3.5506 C.3            1 S1                 0.0000
     19 ****         1.2505  -2.3574  -2.4302 C.3            1 S1                 0.0000
     20 ****        -2.2277   2.0336   2.5279 N.2            1 S1                 0.0000
     21 ****        -3.3161   5.1902   2.6828 H              1 S1                 0.0000
     22 ****        -2.0112   4.5253   3.6600 H              1 S1                 0.0000
     23 ****        -3.6681   3.9805   3.9132 H              1 S1                 0.0000
     24 ****        -3.4564   4.0164   0.1659 H              1 S1                 0.0000
     25 ****        -3.0882   2.1131  -1.7865 H              1 S1                 0.0000
     26 ****        -3.3620   0.5169  -1.0919 H              1 S1                 0.0000
     27 ****        -1.7152   1.0798  -1.3954 H              1 S1                 0.0000
     28 ****        -1.8008  -0.4591   2.4818 H              1 S1                 0.0000
     29 ****        -2.1881  -0.7040   0.7899 H              1 S1                 0.0000
     30 ****        -0.0560  -1.9862   1.9152 H              1 S1                 0.0000
     31 ****         2.4687  -0.6260   1.2420 H              1 S1                 0.0000
     32 ****         3.4973  -2.6043   2.2954 H              1 S1                 0.0000
     33 ****         1.9144  -3.3547   2.4828 H              1 S1                 0.0000
     34 ****         2.3012  -1.8750   3.3585 H              1 S1                 0.0000
     35 ****         3.1824  -2.5049  -0.2638 H              1 S1                 0.0000
     36 ****         1.6130  -3.2405  -0.0708 H              1 S1                 0.0000
     37 ****         2.7233   0.2575  -0.8612 H              1 S1                 0.0000
     38 ****         3.4584  -0.8135  -2.0378 H              1 S1                 0.0000
     39 ****         0.9340   0.8892  -2.4799 H              1 S1                 0.0000
     40 ****         2.5167   1.1864  -3.1752 H              1 S1                 0.0000
     41 ****        -0.3088  -1.0615  -3.2333 H              1 S1                 0.0000
     42 ****         0.4313  -2.1128  -4.4257 H              1 S1                 0.0000
     43 ****         2.1384  -2.8772  -2.7937 H              1 S1                 0.0000
     44 ****         0.5329  -3.1196  -2.1240 H              1 S1                 0.0000
     45 ****         0.7492  -1.0779  -0.9619 H              1 S1                 0.0000
     46 ****        -0.0939   1.6421   0.3464 LP             1 S1                 0.0000
     47 ****         1.3986   0.7634   0.3690 LP             1 S1                 0.0000
     48 ****         2.4013  -0.8877  -4.2349 LP             1 S1                 0.0000
     49 ****         1.1481   0.0693  -4.6594 LP             1 S1                 0.0000
     50 ****        -1.9417   1.7703   3.4492 LP             1 S1                 0.0000
@<TRIPOS>BOND
    1    1    2 1     
    2    1   21 1     
    3    1   22 1     
    4    1   23 1     
    5    2   20 2     
    6    2    3 1     
    7    3    4 2     
    8    3   24 1     
    9    4    5 1     
   10    4    6 1     
   11    5   25 1     
   12    5   26 1     
   13    5   27 1     
   14    6    7 1     
   15    6   20 1     
   16    7    8 1     
   17    7   28 1     
   18    7   29 1     
   19    8    9 2     
   20    8   10 am    
   21   10   11 1     
   22   10   30 1     
   23   11   12 1     
   24   11   13 1     
   25   11   31 1     
   26   12   32 1     
   27   12   33 1     
   28   12   34 1     
   29   13   14 1     
   30   13   35 1     
   31   13   36 1     
   32   14   19 1     
   33   14   15 1     
   34   14   45 1     
   35   15   16 1     
   36   15   37 1     
   37   15   38 1     
   38   16   17 1     
   39   16   39 1     
   40   16   40 1     
   41   17   18 1     
   42   18   19 1     
   43   18   41 1     
   44   18   42 1     
   45   19   43 1     
   46   19   44 1     
   47    9   46 1     
   48    9   47 1     
   49   17   48 1     
   50   17   49 1     
   51   20   50 1     
@<TRIPOS>SUBSTRUCTURE
      1 S1             1
@<TRIPOS>SET
LONE_PAIRS      STATIC     ATOMS    <user>   **** ""
5 46 47 48 49 50
DONOR_HYDROGENS      STATIC     ATOMS    <user>   **** ""
2 30 45
ATOM$BLUE        STATIC     ATOMS    COLORGROUP SYSTEM
5 46 47 48 49 50
ATOM$RED        STATIC     ATOMS    COLORGROUP SYSTEM
2 30 45
