#       Name:                AV-unprocessed.smi:1846
#       Creating user name   scv26
#       Creation time:       Fri Mar 27 09:22:21 2020


#       File generated by GOLD software.
#

@<TRIPOS>MOLECULE
AV-unprocessed.smi:1846
    42    43     1
SMALL
NO_CHARGES


@<TRIPOS>ATOM
      1 ****        -2.7762  -3.0287  -2.8485 C.3            1 S1                 0.0000
      2 ****        -2.6691  -2.6391  -1.3669 C.3            1 S1                 0.0000
      3 ****        -1.2726  -2.4342  -0.9555 N.am           1 S1                 0.0000
      4 ****        -0.6678  -3.5802  -0.2622 C.3            1 S1                 0.0000
      5 ****        -0.8297  -3.4720   1.2620 C.3            1 S1                 0.0000
      6 ****        -0.6261  -1.2705  -1.2213 C.2            1 S1                 0.0000
      7 ****        -1.1864  -0.3345  -1.7967 O.2            1 S1                 0.0000
      8 ****         0.8560  -1.1242  -0.8180 C.3            1 S1                 0.0000
      9 ****         1.3227   0.3035  -0.8828 C.2            1 S1                 0.0000
     10 ****         1.9356   0.9248  -1.9436 C.2            1 S1                 0.0000
     11 ****         2.3018   2.5932  -1.6008 S.3            1 S1                 0.0000
     12 ****         1.6046   2.3804   0.0078 C.2            1 S1                 0.0000
     13 ****         1.5032   3.3748   1.0253 N.am           1 S1                 0.0000
     14 ****         0.9480   3.0719   2.3406 C.3            1 S1                 0.0000
     15 ****         1.0407   4.3968   3.0908 C.3            1 S1                 0.0000
     16 ****         1.6262   5.2674   2.0987 N.am           1 S1                 0.0000
     17 ****         1.8783   4.6661   0.9339 C.2            1 S1                 0.0000
     18 ****         2.3716   5.2330  -0.0391 O.2            1 S1                 0.0000
     19 ****         1.1506   1.1414   0.2240 N.2            1 S1                 0.0000
     20 ****        -3.8166  -3.1896  -3.1307 H              1 S1                 0.0000
     21 ****        -2.2309  -3.9505  -3.0524 H              1 S1                 0.0000
     22 ****        -2.3752  -2.2508  -3.4986 H              1 S1                 0.0000
     23 ****        -3.2551  -1.7381  -1.1778 H              1 S1                 0.0000
     24 ****        -3.1347  -3.4129  -0.7551 H              1 S1                 0.0000
     25 ****        -1.1314  -4.5057  -0.6073 H              1 S1                 0.0000
     26 ****         0.3853  -3.6883  -0.5221 H              1 S1                 0.0000
     27 ****        -0.3743  -4.3286   1.7593 H              1 S1                 0.0000
     28 ****        -1.8827  -3.4491   1.5436 H              1 S1                 0.0000
     29 ****        -0.3624  -2.5724   1.6610 H              1 S1                 0.0000
     30 ****         1.0146  -1.5066   0.1892 H              1 S1                 0.0000
     31 ****         1.4568  -1.7442  -1.4840 H              1 S1                 0.0000
     32 ****         2.1857   0.5049  -2.9065 H              1 S1                 0.0000
     33 ****        -0.0859   2.7343   2.2544 H              1 S1                 0.0000
     34 ****         1.5292   2.2921   2.8347 H              1 S1                 0.0000
     35 ****         0.0605   4.7651   3.3955 H              1 S1                 0.0000
     36 ****         1.6842   4.3272   3.9686 H              1 S1                 0.0000
     37 ****         1.8197   6.2417   2.2805 H              1 S1                 0.0000
     38 ****        -2.1413  -0.4216  -2.0803 LP             1 S1                 0.0000
     39 ****        -0.6857   0.5116  -1.9797 LP             1 S1                 0.0000
     40 ****         2.5345   4.7245  -0.8846 LP             1 S1                 0.0000
     41 ****         2.6101   6.2027   0.0150 LP             1 S1                 0.0000
     42 ****         0.7335   0.8460   1.0835 LP             1 S1                 0.0000
@<TRIPOS>BOND
    1    1    2 1     
    2    1   20 1     
    3    1   21 1     
    4    1   22 1     
    5    2    3 1     
    6    2   23 1     
    7    2   24 1     
    8    3    4 1     
    9    3    6 am    
   10    4    5 1     
   11    4   25 1     
   12    4   26 1     
   13    5   27 1     
   14    5   28 1     
   15    5   29 1     
   16    6    7 2     
   17    6    8 1     
   18    8    9 1     
   19    8   30 1     
   20    8   31 1     
   21    9   19 1     
   22    9   10 2     
   23   10   11 1     
   24   10   32 1     
   25   11   12 1     
   26   12   13 1     
   27   12   19 2     
   28   13   17 am    
   29   13   14 1     
   30   14   15 1     
   31   14   33 1     
   32   14   34 1     
   33   15   16 1     
   34   15   35 1     
   35   15   36 1     
   36   16   17 am    
   37   16   37 1     
   38   17   18 2     
   39    7   38 1     
   40    7   39 1     
   41   18   40 1     
   42   18   41 1     
   43   19   42 1     
@<TRIPOS>SUBSTRUCTURE
      1 S1             1
@<TRIPOS>SET
LONE_PAIRS      STATIC     ATOMS    <user>   **** ""
5 38 39 40 41 42
DONOR_HYDROGENS      STATIC     ATOMS    <user>   **** ""
1 37
ATOM$BLUE        STATIC     ATOMS    COLORGROUP SYSTEM
5 38 39 40 41 42
ATOM$RED        STATIC     ATOMS    COLORGROUP SYSTEM
1 37
