AV-unprocessed.smi:35|AV-procd|sdf|255|dock3
  -GOLD-   2262016 13D 1   1.00000     0.00000
 Structure written by MMmdl.
 29 30  0  0  0  0  0  0  0  0  1 V2000
  151.6159  137.1664  159.9350 O   0  0  0  0  0  0  0  0  0  0  0  0
  151.0474  137.9825  159.2128 C   0  0  0  0  0  0  0  0  0  0  0  0
  151.6791  139.1808  158.8688 N   0  0  0  0  0  0  0  0  0  0  0  0
  151.1361  140.1792  158.0580 C   0  0  0  0  0  0  0  0  0  0  0  0
  151.7868  141.1934  157.8091 O   0  0  0  0  0  0  0  0  0  0  0  0
  149.8383  139.9625  157.5434 N   0  0  0  0  0  0  0  0  0  0  0  0
  149.2266  141.0355  156.6606 C   0  0  2  0  0  0  0  0  0  0  0  0
  147.9167  140.6811  156.3241 O   0  0  0  0  0  0  0  0  0  0  0  0
  147.8486  140.2946  154.9547 C   0  0  1  0  0  0  0  0  0  0  0  0
  146.4158  140.4219  154.4095 C   0  0  0  0  0  0  0  0  0  0  0  0
  146.3429  139.8716  153.1117 O   0  0  0  0  0  0  0  0  0  0  0  0
  148.8937  141.2004  154.2929 C   0  0  1  0  0  0  0  0  0  0  0  0
  148.3735  142.4966  154.0576 O   0  0  0  0  0  0  0  0  0  0  0  0
  150.0013  141.2521  155.3367 C   0  0  2  0  0  0  0  0  0  0  0  0
  150.9593  140.2446  155.0598 O   0  0  0  0  0  0  0  0  0  0  0  0
  149.1711  138.7845  157.8586 C   0  0  0  0  0  0  0  0  0  0  0  0
  149.7127  137.8249  158.6453 C   0  0  0  0  0  0  0  0  0  0  0  0
  148.6004  136.2193  158.9750 Br  0  0  0  0  0  0  0  0  0  0  0  0
  152.6066  139.3361  159.2361 H   0  0  0  0  0  0  0  0  0  0  0  0
  149.1699  141.9329  157.2797 H   0  0  0  0  0  0  0  0  0  0  0  0
  148.1923  139.2632  154.8566 H   0  0  0  0  0  0  0  0  0  0  0  0
  145.6940  139.9359  155.0669 H   0  0  0  0  0  0  0  0  0  0  0  0
  146.1342  141.4726  154.3338 H   0  0  0  0  0  0  0  0  0  0  0  0
  145.5916  140.2387  152.6709 H   0  0  0  0  0  0  0  0  0  0  0  0
  149.2346  140.7978  153.3379 H   0  0  0  0  0  0  0  0  0  0  0  0
  148.8582  143.1153  154.5824 H   0  0  0  0  0  0  0  0  0  0  0  0
  150.5120  142.2158  155.3595 H   0  0  0  0  0  0  0  0  0  0  0  0
  150.5012  139.4285  154.9268 H   0  0  0  0  0  0  0  0  0  0  0  0
  148.1797  138.6044  157.4729 H   0  0  0  0  0  0  0  0  0  0  0  0
  1  2  2  0  0  0  0
  2 17  1  0  0  0  0
  2  3  1  0  0  0  0
  3 19  1  0  0  0  0
  3  4  1  0  0  0  0
  4  5  2  0  0  0  0
  4  6  1  0  0  0  0
  6  7  1  0  0  0  0
  6 16  1  0  0  0  0
  7 14  1  0  0  0  0
  7  8  1  0  0  0  0
  7 20  1  0  0  0  0
  8  9  1  0  0  0  0
  9 10  1  0  0  0  0
  9 12  1  0  0  0  0
  9 21  1  0  0  0  0
 10 11  1  0  0  0  0
 10 22  1  0  0  0  0
 10 23  1  0  0  0  0
 11 24  1  0  0  0  0
 12 13  1  0  0  0  0
 12 14  1  0  0  0  0
 12 25  1  0  0  0  0
 13 26  1  0  0  0  0
 14 15  1  0  0  0  0
 14 27  1  0  0  0  0
 15 28  1  0  0  0  0
 16 17  2  0  0  0  0
 16 29  1  0  0  0  0
 17 18  1  0  0  0  0
M  END
> <s_m_source_file>
AV-unprocessed.smi

> <i_m_source_file_index>
35

> <i_lp_mmshare_version>
43012

> <i_f3d_flags>
0

> <s_epik_input>
Tz1jMVtuSF1jKD1PKW4oW2NIXWMxQnIpW0NAQEhdMk9bQ0BASF0oW0NIMl1bT0hdKVtDQEBIXShbT0hdKVtDQEhdMltPSF0=

> <s_epik_cmdline>
J2VwaWtfcHl0aG9uJywgJy1waCcsICc3LjAnLCAnLXRuJywgJzgnLCAnLW1hJywgJzIwMCcsICctbWV0YWxfYmluZGluZycsICctaW1hZScsICc8aW5maWxlLm1hZT4nLCAnLW9tYWUnLCAnPG91dGZpbGUubWFlPic=

> <r_lp_tautomer_probability>
0.999537

> <r_epik_Ionization_Penalty>
0.10812

> <r_epik_Ionization_Penalty_Charging>
0.108119

> <r_epik_Ionization_Penalty_Neutral>
4.93006e-07

> <r_epik_State_Penalty>
0.0979238

> <r_epik_Charging_Adjusted_Penalty>
0.206043

> <i_epik_Tot_Q>
0

> <i_epik_Tot_abs_Q>
0

> <r_epik_Metal_State_Penalty>
3.07911

> <b_epik_Metal_Only>
0

> <s_epik_Chemistry_Notes>
This compound contains an acetal/aminal-like group ( X-CH(R)-Y where X, Y are N, S, or O) that may be acid/base labile, releasing an aldehyde.

> <s_lp_Force_Field>
OPLS_2005

> <r_lp_Energy>
34.1394

> <b_lp_Chiralities_Consistent>
1

> <s_lp_Variant>
AV-unprocessed.smi:35-9

> <Gold.Version>
5.8.1

> <Gold.Id.Protein>
6NUR|6NUR_protein|mol2

> <Gold.PLP.Fitness>
36.5245

> <Gold.PLP.PLP>
-24.6599

> <Gold.PLP.part.hbond>
-5.2783

> <Gold.PLP.part.metal>
0.0000

> <Gold.PLP.part.buried>
-4.3000

> <Gold.PLP.part.nonpolar>
-14.2739

> <Gold.PLP.part.repulsive>
0.1425

> <Gold.PLP.ligand.clash>
0.0000

> <Gold.PLP.ligand.torsion>
0.0742

> <Gold.PLP.Chemscore.Hbond>
3.9818

> <Gold.PLP.Chemscore.CHOScore>
0.0000

> <Gold.PLP.Chemscore.Metal>
0.0000

> <Gold.Chemscore.Hbonds>
donor molecule, donor type, donor heavy atom, donor atom, acceptor molecule, acceptor atom, score
      L1  H    11    24       P1 10175  1.00
      L1  H    13    26       P1  8028  0.96
      P1  H  6896  6908       L1     1  1.00
      P1  H  7989  7998       L1    15  1.00
      P1  H  8011  8017       L1    13  0.01

> <Gold.PLP.Chemscore.Internal.Correction>
0.0676

> <Gold.Rescore>
     Score         DG    S(hbond)    S(metal)    S(lipo)     H(rot)  DE(clash)    DE(int)     intcor
     11.76     -12.09       3.80        0.00      28.38       3.67       0.00       0.33       ----

> <Gold.Chemscore.Fitness>
11.7623

> <Gold.Chemscore.DG>
-12.0884

> <Gold.Chemscore.ZeroCoef>
-5.4800

> <Gold.Chemscore.Hbond>
3.7974

> <Gold.Chemscore.Metal>
0.0000

> <Gold.Chemscore.Lipo>
28.3796

> <Gold.Chemscore.Internal_Hbond>
0.0000

> <Gold.Chemscore.DEClash>
0.0009

> <Gold.Chemscore.DEInternal>
0.3252

> <Gold.Chemscore.Rot>
3.6701

> <Gold.Chemscore.Internal.Correction>
   9.000000E+99

> <Gold.Chemscore.Hbonds>
donor molecule, donor type, donor heavy atom, donor atom, acceptor molecule, acceptor atom, score
      L1  H    11    24       P1 10175  0.85
      L1  H    13    26       P1  8028  0.92
      P1  H  6896  6908       L1     1  0.97
      P1  H  7989  7998       L1    15  0.20

> <Gold.Chemscore.Hbond.Weighted>
-12.6834

> <Gold.Chemscore.Metal.Weighted>
-0.0000

> <Gold.Chemscore.Lipo.Weighted>
-3.3204

> <Gold.Chemscore.Internal_Hbond.Weighted>
0.0000

> <Gold.Chemscore.DEClash.Weighted>
0.0009

> <Gold.Chemscore.DEInternal.Weighted>
0.3252

> <Gold.Chemscore.Rot.Weighted>
9.3955

> <Gold.Chemscore.Internal.Correction.Weighted>
   9.000000E+99

> <Gold.Protein.RotatedTorsions>
[ 6907 6896 6895 6894 ] final -117.95 input  -60.11 | X-H torsion
[ 7974 7965 7964 7962 ] final  -95.35 input  175.53 | X-H torsion
[ 8008 7997 7996 7995 ] final -140.79 input   59.86 | X-H torsion
[ 10167 10162 10161 10158 ] final  -11.56 input  -65.29 | X-H torsion
[ 10718 10713 10712 10709 ] final -148.93 input   66.30 | X-H torsion
[ 10763 10752 10751 10750 ] final  131.99 input  -60.55 | X-H torsion
[ 11005 11000 10999 10996 ] final  -63.05 input  -57.11 | X-H torsion

> <Gold.Protein.ActiveResidues>
 VAL166  LYS551  ARG553  GLY616  TRP617  ASP618  TYR619  PRO620  LYS621  CYS622 
 ASP623  PHE694  ASN695  SER759  ASP760  ASP761  ALA762  ILE779  LEU786  VAL792 
 PHE793  MET794  SER795  GLU796  ALA797  LYS798  CYS799  TRP800  GLU811  SER814 

> <Gold.Protein.RotatedAtoms>
  150.8179  133.8304  159.3151 H   0  0  0  0  0  0  0  0  0  0  0  0  # atno 6907 bound_to 6896
  151.6071  135.1041  160.0082 H   0  0  0  0  0  0  0  0  0  0  0  0  # atno 6908 bound_to 6896
  152.4270  133.7171  159.6568 H   0  0  0  0  0  0  0  0  0  0  0  0  # atno 6909 bound_to 6896
  145.3613  140.9492  143.2499 H   0  0  0  0  0  0  0  0  0  0  0  0  # atno 7974 bound_to 7965
  155.4672  140.0550  157.2984 H   0  0  0  0  0  0  0  0  0  0  0  0  # atno 8008 bound_to 7997
  154.4713  140.2041  155.9942 H   0  0  0  0  0  0  0  0  0  0  0  0  # atno 8009 bound_to 7997
  156.1060  140.3211  155.8011 H   0  0  0  0  0  0  0  0  0  0  0  0  # atno 8010 bound_to 7997
  140.7141  143.5626  150.9178 H   0  0  0  0  0  0  0  0  0  0  0  0  # atno 10167 bound_to 10162
  156.4266  130.8055  151.2280 H   0  0  0  0  0  0  0  0  0  0  0  0  # atno 10718 bound_to 10713
  153.7833  135.3165  155.3369 H   0  0  0  0  0  0  0  0  0  0  0  0  # atno 10763 bound_to 10752
  154.8153  135.4640  154.0629 H   0  0  0  0  0  0  0  0  0  0  0  0  # atno 10764 bound_to 10752
  153.1925  135.6910  153.8420 H   0  0  0  0  0  0  0  0  0  0  0  0  # atno 10765 bound_to 10752
  141.1380  133.6647  156.5621 H   0  0  0  0  0  0  0  0  0  0  0  0  # atno 11005 bound_to 11000
  144.8644  139.5129  143.6797 LP  0  0  0  0  0  0  0  0  0  0  0  0  # atno 17320 bound_to 7965
  146.2926  139.7184  142.9150 LP  0  0  0  0  0  0  0  0  0  0  0  0  # atno 17321 bound_to 7965
  139.9352  143.6446  152.3067 LP  0  0  0  0  0  0  0  0  0  0  0  0  # atno 17342 bound_to 10162
  139.6911  144.7646  151.1437 LP  0  0  0  0  0  0  0  0  0  0  0  0  # atno 17343 bound_to 10162
  157.7508  131.0211  150.3737 LP  0  0  0  0  0  0  0  0  0  0  0  0  # atno 17370 bound_to 10713
  156.4066  130.3926  149.6921 LP  0  0  0  0  0  0  0  0  0  0  0  0  # atno 17371 bound_to 10713
  140.3980  134.7382  157.4762 LP  0  0  0  0  0  0  0  0  0  0  0  0  # atno 17394 bound_to 11000
  140.0517  134.6121  155.8854 LP  0  0  0  0  0  0  0  0  0  0  0  0  # atno 17395 bound_to 11000

$$$$
