AV-unprocessed.smi:1419|AV-procd|sdf|5780|dock1
  -GOLD-   22720 5423D 1   1.00000     0.00000
 Structure written by MMmdl.
 41 42  0  0  0  0  0  0  0  0  1 V2000
  152.5093  142.2119  161.2559 C   0  0  0  0  0  0  0  0  0  0  0  0
  153.1261  142.0632  159.8588 C   0  0  2  0  0  0  0  0  0  0  0  0
  153.4268  143.4386  159.2259 C   0  0  0  0  0  0  0  0  0  0  0  0
  152.3155  144.3657  159.3452 N   0  0  0  0  0  0  0  0  0  0  0  0
  151.0957  144.2983  158.6844 C   0  0  0  0  0  0  0  0  0  0  0  0
  150.3666  145.3923  159.0920 C   0  0  0  0  0  0  0  0  0  0  0  0
  151.1100  146.1369  160.0045 N   0  0  0  0  0  0  0  0  0  0  0  0
  152.2502  145.4662  160.1072 C   0  0  0  0  0  0  0  0  0  0  0  0
  152.2126  141.2986  159.0101 N   0  0  0  0  0  0  0  0  0  0  0  0
  152.5139  140.1680  158.3470 C   0  0  0  0  0  0  0  0  0  0  0  0
  153.5927  139.5901  158.4871 O   0  0  0  0  0  0  0  0  0  0  0  0
  151.5365  139.7206  157.5211 N   0  0  0  0  0  0  0  0  0  0  0  0
  150.3274  140.4532  157.1218 C   0  0  0  0  0  0  0  0  0  0  0  0
  150.5382  140.9692  155.6836 C   0  0  2  0  0  0  0  0  0  0  0  0
  149.3101  141.7115  155.1472 C   0  0  0  0  0  0  0  0  0  0  0  0
  150.7995  139.8597  154.8238 O   0  0  0  0  0  0  0  0  0  0  0  0
  151.9356  139.0846  155.2079 C   0  0  2  0  0  0  0  0  0  0  0  0
  152.1057  137.9468  154.1959 C   0  0  0  0  0  0  0  0  0  0  0  0
  151.7258  138.5633  156.6443 C   0  0  0  0  0  0  0  0  0  0  0  0
  153.1796  142.7536  161.9239 H   0  0  0  0  0  0  0  0  0  0  0  0
  152.3142  141.2376  161.7055 H   0  0  0  0  0  0  0  0  0  0  0  0
  151.5653  142.7571  161.2185 H   0  0  0  0  0  0  0  0  0  0  0  0
  154.0669  141.5230  159.9785 H   0  0  0  0  0  0  0  0  0  0  0  0
  154.3062  143.8878  159.6900 H   0  0  0  0  0  0  0  0  0  0  0  0
  153.6574  143.3225  158.1662 H   0  0  0  0  0  0  0  0  0  0  0  0
  150.8570  143.5046  157.9920 H   0  0  0  0  0  0  0  0  0  0  0  0
  149.3722  145.6976  158.8018 H   0  0  0  0  0  0  0  0  0  0  0  0
  153.0614  145.7888  160.7433 H   0  0  0  0  0  0  0  0  0  0  0  0
  151.2980  141.6977  158.8579 H   0  0  0  0  0  0  0  0  0  0  0  0
  149.4708  139.7783  157.1582 H   0  0  0  0  0  0  0  0  0  0  0  0
  150.0742  141.2808  157.7843 H   0  0  0  0  0  0  0  0  0  0  0  0
  151.3935  141.6463  155.6573 H   0  0  0  0  0  0  0  0  0  0  0  0
  149.0757  142.5798  155.7633 H   0  0  0  0  0  0  0  0  0  0  0  0
  148.4332  141.0636  155.1328 H   0  0  0  0  0  0  0  0  0  0  0  0
  149.4817  142.0628  154.1294 H   0  0  0  0  0  0  0  0  0  0  0  0
  152.8243  139.7178  155.1729 H   0  0  0  0  0  0  0  0  0  0  0  0
  152.9717  137.3316  154.4406 H   0  0  0  0  0  0  0  0  0  0  0  0
  152.2510  138.3399  153.1895 H   0  0  0  0  0  0  0  0  0  0  0  0
  151.2284  137.2995  154.1779 H   0  0  0  0  0  0  0  0  0  0  0  0
  152.5680  137.9398  156.9484 H   0  0  0  0  0  0  0  0  0  0  0  0
  150.8455  137.9203  156.6932 H   0  0  0  0  0  0  0  0  0  0  0  0
  1  2  1  0  0  0  0
  1 20  1  0  0  0  0
  1 21  1  0  0  0  0
  1 22  1  0  0  0  0
  2  3  1  0  0  0  0
  2  9  1  0  0  0  0
  2 23  1  0  0  0  0
  3  4  1  0  0  0  0
  3 24  1  0  0  0  0
  3 25  1  0  0  0  0
  4  8  1  0  0  0  0
  4  5  1  0  0  0  0
  5  6  2  0  0  0  0
  5 26  1  0  0  0  0
  6  7  1  0  0  0  0
  6 27  1  0  0  0  0
  7  8  2  0  0  0  0
  8 28  1  0  0  0  0
  9 10  1  0  0  0  0
  9 29  1  0  0  0  0
 10 11  2  0  0  0  0
 10 12  1  0  0  0  0
 12 19  1  0  0  0  0
 12 13  1  0  0  0  0
 13 14  1  0  0  0  0
 13 30  1  0  0  0  0
 13 31  1  0  0  0  0
 14 15  1  0  0  0  0
 14 16  1  0  0  0  0
 14 32  1  0  0  0  0
 15 33  1  0  0  0  0
 15 34  1  0  0  0  0
 15 35  1  0  0  0  0
 16 17  1  0  0  0  0
 17 18  1  0  0  0  0
 17 19  1  0  0  0  0
 17 36  1  0  0  0  0
 18 37  1  0  0  0  0
 18 38  1  0  0  0  0
 18 39  1  0  0  0  0
 19 40  1  0  0  0  0
 19 41  1  0  0  0  0
M  END
> <s_m_source_file>
AV-unprocessed.smi

> <i_m_source_file_index>
1419

> <i_lp_mmshare_version>
43012

> <i_f3d_flags>
0

> <s_epik_input>
W2NIXTFuW2NIXVtjSF1uMVtDSDJdW0NAQEhdKFtDSDNdKVtOSF1DKD1PKU4yW0NIMl1bQ0BASF0oW0NIM10pT1tDQEBIXShbQ0gzXSlbQ0gyXTI=

> <s_epik_cmdline>
J2VwaWtfcHl0aG9uJywgJy1waCcsICc3LjAnLCAnLXRuJywgJzgnLCAnLW1hJywgJzIwMCcsICctbWV0YWxfYmluZGluZycsICctaW1hZScsICc8aW5maWxlLm1hZT4nLCAnLW9tYWUnLCAnPG91dGZpbGUubWFlPic=

> <r_lp_tautomer_probability>
1

> <r_epik_Ionization_Penalty>
0.625124

> <r_epik_Ionization_Penalty_Charging>
0.625093

> <r_epik_Ionization_Penalty_Neutral>
3.17415e-05

> <r_epik_State_Penalty>
0.641455

> <r_epik_Charging_Adjusted_Penalty>
1.26655

> <i_epik_Tot_Q>
0

> <i_epik_Tot_abs_Q>
0

> <r_epik_Metal_State_Penalty>
0.307717

> <b_epik_Metal_Only>
0

> <s_lp_Force_Field>
OPLS_2005

> <r_lp_Energy>
27.7679

> <b_lp_Chiralities_Consistent>
1

> <s_lp_Variant>
AV-unprocessed.smi:1419-7

> <Gold.Version>
5.8.1

> <Gold.Id.Protein>
6NUR|6NUR_protein|mol2

> <Gold.PLP.Fitness>
49.4397

> <Gold.PLP.PLP>
-41.4580

> <Gold.PLP.part.hbond>
-4.0000

> <Gold.PLP.part.metal>
0.0000

> <Gold.PLP.part.buried>
-1.7562

> <Gold.PLP.part.nonpolar>
-35.6251

> <Gold.PLP.part.repulsive>
0.4354

> <Gold.PLP.ligand.clash>
0.0000

> <Gold.PLP.ligand.torsion>
0.2488

> <Gold.PLP.Chemscore.Hbond>
1.8000

> <Gold.PLP.Chemscore.CHOScore>
1.0000

> <Gold.PLP.Chemscore.Metal>
0.0000

> <Gold.Chemscore.Hbonds>
donor molecule, donor type, donor heavy atom, donor atom, acceptor molecule, acceptor atom, score
      P1  H  7989  7998       L1    16  0.64
      P1  H  7997  8008       L1    11  1.00
      L1  C     6    27       P1  8029  1.00

> <Gold.PLP.Chemscore.Internal.Correction>
0.0795

> <Gold.Rescore>
     Score         DG    S(hbond)    S(metal)    S(lipo)     H(rot)  DE(clash)    DE(int)     intcor
     13.76     -15.33       0.87        0.00      93.92       1.58       1.18       0.39       ----

> <Gold.Chemscore.Fitness>
13.7642

> <Gold.Chemscore.DG>
-15.3336

> <Gold.Chemscore.ZeroCoef>
-5.4800

> <Gold.Chemscore.Hbond>
0.8688

> <Gold.Chemscore.Metal>
0.0000

> <Gold.Chemscore.Lipo>
93.9193

> <Gold.Chemscore.Internal_Hbond>
0.0000

> <Gold.Chemscore.DEClash>
1.1763

> <Gold.Chemscore.DEInternal>
0.3931

> <Gold.Chemscore.Rot>
1.5769

> <Gold.Chemscore.Internal.Correction>
   9.000000E+99

> <Gold.Chemscore.Hbonds>
donor molecule, donor type, donor heavy atom, donor atom, acceptor molecule, acceptor atom, score
      P1  H  7989  7998       L1    16  0.01
      P1  H  7997  8008       L1    11  0.89

> <Gold.Chemscore.Hbond.Weighted>
-2.9019

> <Gold.Chemscore.Metal.Weighted>
-0.0000

> <Gold.Chemscore.Lipo.Weighted>
-10.9886

> <Gold.Chemscore.Internal_Hbond.Weighted>
0.0000

> <Gold.Chemscore.DEClash.Weighted>
1.1763

> <Gold.Chemscore.DEInternal.Weighted>
0.3931

> <Gold.Chemscore.Rot.Weighted>
4.0369

> <Gold.Chemscore.Internal.Correction.Weighted>
   9.000000E+99

> <Gold.Protein.RotatedTorsions>
[ 6907 6896 6895 6894 ] final -133.57 input  -60.11 | X-H torsion
[ 7974 7965 7964 7962 ] final -134.08 input  175.53 | X-H torsion
[ 8008 7997 7996 7995 ] final -112.97 input   59.86 | X-H torsion
[ 10167 10162 10161 10158 ] final  -51.22 input  -65.29 | X-H torsion
[ 10718 10713 10712 10709 ] final   11.93 input   66.30 | X-H torsion
[ 10763 10752 10751 10750 ] final  -95.96 input  -60.55 | X-H torsion
[ 11005 11000 10999 10996 ] final -139.26 input  -57.11 | X-H torsion

> <Gold.Protein.ActiveResidues>
 VAL166  LYS551  ARG553  GLY616  TRP617  ASP618  TYR619  PRO620  LYS621  CYS622 
 ASP623  PHE694  ASN695  SER759  ASP760  ASP761  ALA762  ILE779  LEU786  VAL792 
 PHE793  MET794  SER795  GLU796  ALA797  LYS798  CYS799  TRP800  GLU811  SER814 

> <Gold.Protein.RotatedAtoms>
  150.9756  133.6298  159.2730 H   0  0  0  0  0  0  0  0  0  0  0  0  # atno 6907 bound_to 6896
  151.3572  135.0895  159.9432 H   0  0  0  0  0  0  0  0  0  0  0  0  # atno 6908 bound_to 6896
  152.5198  133.9337  159.7647 H   0  0  0  0  0  0  0  0  0  0  0  0  # atno 6909 bound_to 6896
  144.9135  140.6925  143.5010 H   0  0  0  0  0  0  0  0  0  0  0  0  # atno 7974 bound_to 7965
  155.0135  140.0393  157.2409 H   0  0  0  0  0  0  0  0  0  0  0  0  # atno 8008 bound_to 7997
  154.7440  140.2754  155.6326 H   0  0  0  0  0  0  0  0  0  0  0  0  # atno 8009 bound_to 7997
  156.2870  140.2660  156.2175 H   0  0  0  0  0  0  0  0  0  0  0  0  # atno 8010 bound_to 7997
  140.6599  143.2628  151.4472 H   0  0  0  0  0  0  0  0  0  0  0  0  # atno 10167 bound_to 10162
  157.0027  130.6086  149.5698 H   0  0  0  0  0  0  0  0  0  0  0  0  # atno 10718 bound_to 10713
  154.7196  135.5101  153.8791 H   0  0  0  0  0  0  0  0  0  0  0  0  # atno 10763 bound_to 10752
  153.0850  135.6643  153.9975 H   0  0  0  0  0  0  0  0  0  0  0  0  # atno 10764 bound_to 10752
  153.9801  135.3030  155.3400 H   0  0  0  0  0  0  0  0  0  0  0  0  # atno 10765 bound_to 10752
  140.8537  134.2254  157.4746 H   0  0  0  0  0  0  0  0  0  0  0  0  # atno 11005 bound_to 11000
  145.3414  139.1731  143.4483 LP  0  0  0  0  0  0  0  0  0  0  0  0  # atno 17320 bound_to 7965
  146.3170  140.3456  142.8651 LP  0  0  0  0  0  0  0  0  0  0  0  0  # atno 17321 bound_to 7965
  139.5830  144.1666  152.1993 LP  0  0  0  0  0  0  0  0  0  0  0  0  # atno 17342 bound_to 10162
  140.0997  144.5550  150.6997 LP  0  0  0  0  0  0  0  0  0  0  0  0  # atno 17343 bound_to 10162
  156.0165  130.5259  150.8149 LP  0  0  0  0  0  0  0  0  0  0  0  0  # atno 17370 bound_to 10713
  157.5378  131.0939  150.9868 LP  0  0  0  0  0  0  0  0  0  0  0  0  # atno 17371 bound_to 10713
  139.8704  134.9696  156.4671 LP  0  0  0  0  0  0  0  0  0  0  0  0  # atno 17394 bound_to 11000
  140.8761  133.7952  155.9416 LP  0  0  0  0  0  0  0  0  0  0  0  0  # atno 17395 bound_to 11000

$$$$
