#       Name:                AV-unprocessed.smi:2079
#       Creating user name   scv26
#       Creation time:       Fri Mar 27 11:18:08 2020


#       File generated by GOLD software.
#

@<TRIPOS>MOLECULE
AV-unprocessed.smi:2079
    47    48     1
SMALL
NO_CHARGES


@<TRIPOS>ATOM
      1 ****        -8.1210   0.5275   1.0619 C.3            1 S1                 0.0000
      2 ****        -6.6347   0.6029   0.9825 C.2            1 S1                 0.0000
      3 ****        -5.6408  -0.2865   1.2806 C.2            1 S1                 0.0000
      4 ****        -4.4594   0.4407   0.9764 C.2            1 S1                 0.0000
      5 ****        -3.1788  -0.1414   1.1576 N.am           1 S1                 0.0000
      6 ****        -1.9825   0.4273   0.9302 C.2            1 S1                 0.0000
      7 ****        -1.8074   1.5737   0.5162 O.2            1 S1                 0.0000
      8 ****        -0.9775  -0.4158   1.2089 N.am           1 S1                 0.0000
      9 ****         0.4383  -0.0928   1.0757 C.3            1 S1                 0.0000
     10 ****         0.9017  -0.1801  -0.3922 C.3            1 S1                 0.0000
     11 ****         2.3160   0.2364  -0.5918 N.4            1 S1                 1.0000
     12 ****         2.6415   0.4268  -2.0316 C.3            1 S1                 0.0000
     13 ****         4.0256   1.0689  -2.2148 C.3            1 S1                 0.0000
     14 ****         5.1123   0.2471  -1.5131 C.3            1 S1                 0.0000
     15 ****         4.7441   0.0500  -0.0364 C.3            1 S1                 0.0000
     16 ****         3.3425  -0.5736   0.1381 C.3            1 S1                 0.0000
     17 ****         3.3225  -2.0737  -0.2270 C.3            1 S1                 0.0000
     18 ****        -4.7093   1.6615   0.5280 N.2            1 S1                 0.0000
     19 ****        -6.1048   1.7721   0.5309 O.3            1 S1                 0.0000
     20 ****        -8.4514  -0.5012   1.2068 H              1 S1                 0.0000
     21 ****        -8.5779   0.9037   0.1462 H              1 S1                 0.0000
     22 ****        -8.4930   1.1229   1.8957 H              1 S1                 0.0000
     23 ****        -5.7459  -1.2930   1.6580 H              1 S1                 0.0000
     24 ****        -3.1745  -1.0904   1.5014 H              1 S1                 0.0000
     25 ****        -1.2071  -1.3401   1.5448 H              1 S1                 0.0000
     26 ****         0.6354   0.9000   1.4841 H              1 S1                 0.0000
     27 ****         0.9824  -0.8028   1.6975 H              1 S1                 0.0000
     28 ****         0.7405  -1.1830  -0.7881 H              1 S1                 0.0000
     29 ****         0.2724   0.4805  -0.9901 H              1 S1                 0.0000
     30 ****         2.5916  -0.5276  -2.5566 H              1 S1                 0.0000
     31 ****         1.8935   1.0723  -2.4937 H              1 S1                 0.0000
     32 ****         4.2555   1.1623  -3.2767 H              1 S1                 0.0000
     33 ****         4.0145   2.0821  -1.8108 H              1 S1                 0.0000
     34 ****         5.2257  -0.7192  -2.0055 H              1 S1                 0.0000
     35 ****         6.0757   0.7511  -1.5949 H              1 S1                 0.0000
     36 ****         5.4977  -0.5642   0.4576 H              1 S1                 0.0000
     37 ****         4.7691   1.0181   0.4662 H              1 S1                 0.0000
     38 ****         3.1239  -0.5043   1.2029 H              1 S1                 0.0000
     39 ****         4.1007  -2.6108   0.3158 H              1 S1                 0.0000
     40 ****         3.4934  -2.2456  -1.2893 H              1 S1                 0.0000
     41 ****         2.3760  -2.5433   0.0392 H              1 S1                 0.0000
     42 ****         2.3747   1.1610  -0.1892 H              1 S1                 0.0000
     43 ****        -2.5934   2.1606   0.3216 LP             1 S1                 0.0000
     44 ****        -0.8793   1.9178   0.3745 LP             1 S1                 0.0000
     45 ****        -4.0449   2.3544   0.2479 LP             1 S1                 0.0000
     46 ****        -6.3817   2.5215   1.1324 LP             1 S1                 0.0000
     47 ****        -6.4299   1.9524  -0.3975 LP             1 S1                 0.0000
@<TRIPOS>BOND
    1    1    2 1     
    2    1   20 1     
    3    1   21 1     
    4    1   22 1     
    5    2   19 1     
    6    2    3 2     
    7    3    4 1     
    8    3   23 1     
    9    4    5 1     
   10    4   18 2     
   11    5    6 am    
   12    5   24 1     
   13    6    7 2     
   14    6    8 am    
   15    8    9 1     
   16    8   25 1     
   17    9   10 1     
   18    9   26 1     
   19    9   27 1     
   20   10   11 1     
   21   10   28 1     
   22   10   29 1     
   23   11   16 1     
   24   11   12 1     
   25   11   42 1     
   26   12   13 1     
   27   12   30 1     
   28   12   31 1     
   29   13   14 1     
   30   13   32 1     
   31   13   33 1     
   32   14   15 1     
   33   14   34 1     
   34   14   35 1     
   35   15   16 1     
   36   15   36 1     
   37   15   37 1     
   38   16   17 1     
   39   16   38 1     
   40   17   39 1     
   41   17   40 1     
   42   17   41 1     
   43   18   19 1     
   44    7   43 1     
   45    7   44 1     
   46   18   45 1     
   47   19   46 1     
   48   19   47 1     
@<TRIPOS>SUBSTRUCTURE
      1 S1             1
@<TRIPOS>SET
LONE_PAIRS      STATIC     ATOMS    <user>   **** ""
5 43 44 45 46 47
DONOR_HYDROGENS      STATIC     ATOMS    <user>   **** ""
3 24 25 42
ATOM$BLUE        STATIC     ATOMS    COLORGROUP SYSTEM
5 43 44 45 46 47
ATOM$RED        STATIC     ATOMS    COLORGROUP SYSTEM
3 24 25 42
