AV-unprocessed.smi:109|AV-procd|sdf|1040|dock7
  -GOLD-   2262018 63D 1   1.00000     0.00000
 Structure written by MMmdl.
 58 61  0  0  0  0  0  0  0  0  1 V2000
  142.9647  139.0136  158.0048 O   0  0  0  0  0  0  0  0  0  0  0  0
  143.4802  139.2879  156.7204 C   0  0  0  0  0  0  0  0  0  0  0  0
  144.4542  138.1761  156.2986 C   0  0  0  0  0  0  0  0  0  0  0  0
  145.0863  138.4240  154.9137 C   0  0  1  0  0  0  0  0  0  0  0  0
  144.0508  138.4044  153.8790 N   0  0  0  0  0  0  0  0  0  0  0  0
  143.3774  137.2803  153.5474 C   0  0  0  0  0  0  0  0  0  0  0  0
  142.0649  137.1163  153.8586 N   0  0  0  0  0  0  0  0  0  0  0  0
  141.4284  135.9931  153.5121 C   0  0  0  0  0  0  0  0  0  0  0  0
  141.9055  134.9300  152.8603 N   0  0  0  0  0  0  0  0  0  0  0  0
  143.2234  135.0920  152.5465 C   0  0  0  0  0  0  0  0  0  0  0  0
  144.0242  136.2266  152.8521 C   0  0  0  0  0  0  0  0  0  0  0  0
  145.3135  136.0350  152.3716 N   0  0  0  0  0  0  0  0  0  0  0  0
  145.2692  134.8567  151.8092 C   0  0  0  0  0  0  0  0  0  0  0  0
  144.0467  134.2213  151.8692 N   0  0  0  0  0  0  0  0  0  0  0  0
  143.6452  132.8910  151.3215 C   0  0  2  0  0  0  0  0  0  0  0  0
  144.4103  131.9179  151.9685 O   0  0  0  0  0  0  0  0  0  0  0  0
  145.1110  131.1142  151.0242 C   0  0  2  0  0  0  0  0  0  0  0  0
  146.4251  130.5783  151.6194 C   0  0  0  0  0  0  0  0  0  0  0  0
  147.2528  131.6523  152.0113 O   0  0  0  0  0  0  0  0  0  0  0  0
  145.2598  132.0169  149.7923 C   0  0  2  0  0  0  0  0  0  0  0  0
  146.3912  132.8629  149.8990 O   0  0  0  0  0  0  0  0  0  0  0  0
  143.9787  132.8361  149.8224 C   0  0  1  0  0  0  0  0  0  0  0  0
  142.9511  132.1950  149.0938 O   0  0  0  0  0  0  0  0  0  0  0  0
  145.9191  139.7324  154.8665 C   0  0  0  0  0  0  0  0  0  0  0  0
  146.7312  139.9117  153.5618 C   0  0  0  0  0  0  0  0  0  0  0  0
  147.4917  141.2482  153.5468 C   0  0  0  0  0  0  0  0  0  0  0  0
  148.3983  141.3913  154.7785 C   0  0  0  0  0  0  0  0  0  0  0  0
  147.5959  141.2245  156.0776 C   0  0  0  0  0  0  0  0  0  0  0  0
  146.8409  139.8859  156.0960 C   0  0  0  0  0  0  0  0  0  0  0  0
  142.5837  132.8018  151.5575 H   0  0  0  0  0  0  0  0  0  0  0  0
  144.4609  130.2821  150.7467 H   0  0  0  0  0  0  0  0  0  0  0  0
  145.3625  131.4375  148.8738 H   0  0  0  0  0  0  0  0  0  0  0  0
  144.1087  133.8361  149.4049 H   0  0  0  0  0  0  0  0  0  0  0  0
  142.8451  138.0796  158.0863 H   0  0  0  0  0  0  0  0  0  0  0  0
  142.6530  139.3646  156.0142 H   0  0  0  0  0  0  0  0  0  0  0  0
  143.9802  140.2566  156.7434 H   0  0  0  0  0  0  0  0  0  0  0  0
  145.2323  138.0691  157.0552 H   0  0  0  0  0  0  0  0  0  0  0  0
  143.9115  137.2301  156.2823 H   0  0  0  0  0  0  0  0  0  0  0  0
  145.7857  137.6018  154.7632 H   0  0  0  0  0  0  0  0  0  0  0  0
  143.8679  139.2936  153.4363 H   0  0  0  0  0  0  0  0  0  0  0  0
  140.3878  135.9402  153.7964 H   0  0  0  0  0  0  0  0  0  0  0  0
  146.1324  134.4221  151.3264 H   0  0  0  0  0  0  0  0  0  0  0  0
  146.2195  129.9851  152.5107 H   0  0  0  0  0  0  0  0  0  0  0  0
  146.9495  129.9352  150.9120 H   0  0  0  0  0  0  0  0  0  0  0  0
  148.0643  131.5984  151.5301 H   0  0  0  0  0  0  0  0  0  0  0  0
  146.2016  133.6758  149.4561 H   0  0  0  0  0  0  0  0  0  0  0  0
  142.2247  132.7941  149.0115 H   0  0  0  0  0  0  0  0  0  0  0  0
  145.2066  140.5573  154.9159 H   0  0  0  0  0  0  0  0  0  0  0  0
  147.4439  139.0941  153.4476 H   0  0  0  0  0  0  0  0  0  0  0  0
  146.0740  139.8714  152.6937 H   0  0  0  0  0  0  0  0  0  0  0  0
  148.0871  141.3257  152.6365 H   0  0  0  0  0  0  0  0  0  0  0  0
  146.7787  142.0733  153.5207 H   0  0  0  0  0  0  0  0  0  0  0  0
  149.1903  140.6424  154.7388 H   0  0  0  0  0  0  0  0  0  0  0  0
  148.8903  142.3643  154.7678 H   0  0  0  0  0  0  0  0  0  0  0  0
  148.2641  141.2848  156.9370 H   0  0  0  0  0  0  0  0  0  0  0  0
  146.8868  142.0470  156.1785 H   0  0  0  0  0  0  0  0  0  0  0  0
  146.2555  139.8122  157.0131 H   0  0  0  0  0  0  0  0  0  0  0  0
  147.5653  139.0712  156.1259 H   0  0  0  0  0  0  0  0  0  0  0  0
  1  2  1  0  0  0  0
  1 34  1  0  0  0  0
  2  3  1  0  0  0  0
  2 35  1  0  0  0  0
  2 36  1  0  0  0  0
  3  4  1  0  0  0  0
  3 37  1  0  0  0  0
  3 38  1  0  0  0  0
  4  5  1  0  0  0  0
  4 24  1  0  0  0  0
  4 39  1  0  0  0  0
  5  6  1  0  0  0  0
  5 40  1  0  0  0  0
  6 11  1  0  0  0  0
  6  7  2  0  0  0  0
  7  8  1  0  0  0  0
  8  9  2  0  0  0  0
  8 41  1  0  0  0  0
  9 10  1  0  0  0  0
 10 14  1  0  0  0  0
 10 11  2  0  0  0  0
 11 12  1  0  0  0  0
 12 13  2  0  0  0  0
 13 14  1  0  0  0  0
 13 42  1  0  0  0  0
 14 15  1  0  0  0  0
 15 30  1  0  0  0  0
 15 22  1  0  0  0  0
 15 16  1  0  0  0  0
 16 17  1  0  0  0  0
 17 31  1  0  0  0  0
 17 18  1  0  0  0  0
 17 20  1  0  0  0  0
 18 19  1  0  0  0  0
 18 43  1  0  0  0  0
 18 44  1  0  0  0  0
 19 45  1  0  0  0  0
 20 32  1  0  0  0  0
 20 21  1  0  0  0  0
 20 22  1  0  0  0  0
 21 46  1  0  0  0  0
 22 33  1  0  0  0  0
 22 23  1  0  0  0  0
 23 47  1  0  0  0  0
 24 29  1  0  0  0  0
 24 25  1  0  0  0  0
 24 48  1  0  0  0  0
 25 26  1  0  0  0  0
 25 49  1  0  0  0  0
 25 50  1  0  0  0  0
 26 27  1  0  0  0  0
 26 51  1  0  0  0  0
 26 52  1  0  0  0  0
 27 28  1  0  0  0  0
 27 53  1  0  0  0  0
 27 54  1  0  0  0  0
 28 29  1  0  0  0  0
 28 55  1  0  0  0  0
 28 56  1  0  0  0  0
 29 57  1  0  0  0  0
 29 58  1  0  0  0  0
M  END
> <s_m_source_file>
AV-unprocessed.smi

> <i_m_source_file_index>
109

> <i_lp_mmshare_version>
43012

> <i_f3d_flags>
0

> <s_epik_input>
W0NIMl0xW0NIMl1bQ0gyXVtDSDJdW0NIMl1bQ0hdMVtDQEhdKFtDSDJdW0NIMl1bT0hdKVtOSF1jKG5bY0hdbjIpYyhjMjMpbltjSF1uM1tDQEBIXTRPW0NASF0oW0NIMl1bT0hdKVtDQEBIXShbT0hdKVtDQEhdNFtPSF0=

> <s_epik_cmdline>
J2VwaWtfcHl0aG9uJywgJy1waCcsICc3LjAnLCAnLXRuJywgJzgnLCAnLW1hJywgJzIwMCcsICctbWV0YWxfYmluZGluZycsICctaW1hZScsICc8aW5maWxlLm1hZT4nLCAnLW9tYWUnLCAnPG91dGZpbGUubWFlPic=

> <r_lp_tautomer_probability>
1

> <r_epik_Ionization_Penalty>
0.000793976

> <r_epik_Ionization_Penalty_Charging>
0

> <r_epik_Ionization_Penalty_Neutral>
0.000793976

> <r_epik_State_Penalty>
-0

> <r_epik_Charging_Adjusted_Penalty>
0

> <i_epik_Tot_Q>
0

> <i_epik_Tot_abs_Q>
0

> <r_epik_Metal_State_Penalty>
-0

> <b_epik_Metal_Only>
0

> <s_epik_Chemistry_Notes>
This compound contains an acetal/aminal-like group ( X-CH(R)-Y where X, Y are N, S, or O) that may be acid/base labile, releasing an aldehyde.

> <s_lp_Force_Field>
OPLS_2005

> <r_lp_Energy>
47.8615

> <b_lp_Chiralities_Consistent>
1

> <s_lp_Variant>
AV-unprocessed.smi:109-10

> <Gold.Version>
5.8.1

> <Gold.Id.Protein>
6NUR|6NUR_protein|mol2

> <Gold.PLP.Fitness>
49.7841

> <Gold.PLP.PLP>
-39.4460

> <Gold.PLP.part.hbond>
-6.1775

> <Gold.PLP.part.metal>
0.0000

> <Gold.PLP.part.buried>
-5.8664

> <Gold.PLP.part.nonpolar>
-29.6072

> <Gold.PLP.part.repulsive>
0.6343

> <Gold.PLP.ligand.clash>
0.6505

> <Gold.PLP.ligand.torsion>
0.9120

> <Gold.PLP.Chemscore.Hbond>
4.2078

> <Gold.PLP.Chemscore.CHOScore>
0.0000

> <Gold.PLP.Chemscore.Metal>
0.0000

> <Gold.Chemscore.Hbonds>
donor molecule, donor type, donor heavy atom, donor atom, acceptor molecule, acceptor atom, score
      L1  H     5    40       P1 10175  0.96
      L1  H    19    45       P1 10747  0.98
      L1  H    21    46       P1  7921  0.32
      L1  H    23    47       P1 10186  0.86
      P1  H 10785 10796       L1    23  0.84

> <Gold.PLP.Chemscore.Internal.Correction>
0.1892

> <Gold.Rescore>
     Score         DG    S(hbond)    S(metal)    S(lipo)     H(rot)  DE(clash)    DE(int)     intcor
     10.01     -11.99       3.63        0.00      71.56       5.47       0.04       1.94       ----

> <Gold.Chemscore.Fitness>
10.0135

> <Gold.Chemscore.DG>
-11.9878

> <Gold.Chemscore.ZeroCoef>
-5.4800

> <Gold.Chemscore.Hbond>
3.6315

> <Gold.Chemscore.Metal>
0.0000

> <Gold.Chemscore.Lipo>
71.5577

> <Gold.Chemscore.Internal_Hbond>
0.0000

> <Gold.Chemscore.DEClash>
0.0369

> <Gold.Chemscore.DEInternal>
1.9374

> <Gold.Chemscore.Rot>
5.4662

> <Gold.Chemscore.Internal.Correction>
   9.000000E+99

> <Gold.Chemscore.Hbonds>
donor molecule, donor type, donor heavy atom, donor atom, acceptor molecule, acceptor atom, score
      L1  H     5    40       P1 10175  0.91
      L1  H    19    45       P1 10747  0.93
      L1  H    21    46       P1  7921  0.01
      L1  H    23    47       P1 10186  0.83
      P1  H 10785 10796       L1    23  0.77

> <Gold.Chemscore.Hbond.Weighted>
-12.1291

> <Gold.Chemscore.Metal.Weighted>
-0.0000

> <Gold.Chemscore.Lipo.Weighted>
-8.3722

> <Gold.Chemscore.Internal_Hbond.Weighted>
0.0000

> <Gold.Chemscore.DEClash.Weighted>
0.0369

> <Gold.Chemscore.DEInternal.Weighted>
1.9374

> <Gold.Chemscore.Rot.Weighted>
13.9935

> <Gold.Chemscore.Internal.Correction.Weighted>
   9.000000E+99

> <Gold.Protein.RotatedTorsions>
[ 6907 6896 6895 6894 ] final  -88.97 input  -60.11 | X-H torsion
[ 7974 7965 7964 7962 ] final  -71.23 input  175.53 | X-H torsion
[ 8008 7997 7996 7995 ] final  -21.21 input   59.86 | X-H torsion
[ 10167 10162 10161 10158 ] final   63.83 input  -65.29 | X-H torsion
[ 10718 10713 10712 10709 ] final -118.13 input   66.30 | X-H torsion
[ 10763 10752 10751 10750 ] final -128.60 input  -60.55 | X-H torsion
[ 11005 11000 10999 10996 ] final  106.55 input  -57.11 | X-H torsion

> <Gold.Protein.ActiveResidues>
 VAL166  LYS551  ARG553  GLY616  TRP617  ASP618  TYR619  PRO620  LYS621  CYS622 
 ASP623  PHE694  ASN695  SER759  ASP760  ASP761  ALA762  ILE779  LEU786  VAL792 
 PHE793  MET794  SER795  GLU796  ALA797  LYS798  CYS799  TRP800  GLU811  SER814 

> <Gold.Protein.RotatedAtoms>
  150.6871  134.2659  159.4568 H   0  0  0  0  0  0  0  0  0  0  0  0  # atno 6907 bound_to 6896
  152.0586  134.9606  160.0584 H   0  0  0  0  0  0  0  0  0  0  0  0  # atno 6908 bound_to 6896
  152.1042  133.4231  159.4638 H   0  0  0  0  0  0  0  0  0  0  0  0  # atno 6909 bound_to 6896
  145.6807  140.9188  143.0833 H   0  0  0  0  0  0  0  0  0  0  0  0  # atno 7974 bound_to 7965
  154.4720  140.2041  155.9971 H   0  0  0  0  0  0  0  0  0  0  0  0  # atno 8008 bound_to 7997
  156.1026  140.3241  155.7933 H   0  0  0  0  0  0  0  0  0  0  0  0  # atno 8009 bound_to 7997
  155.4771  140.0536  157.2963 H   0  0  0  0  0  0  0  0  0  0  0  0  # atno 8010 bound_to 7997
  140.1288  144.4662  150.6877 H   0  0  0  0  0  0  0  0  0  0  0  0  # atno 10167 bound_to 10162
  156.1083  130.6228  150.9251 H   0  0  0  0  0  0  0  0  0  0  0  0  # atno 10718 bound_to 10713
  154.8756  135.3923  154.3784 H   0  0  0  0  0  0  0  0  0  0  0  0  # atno 10763 bound_to 10752
  153.4534  135.7028  153.6100 H   0  0  0  0  0  0  0  0  0  0  0  0  # atno 10764 bound_to 10752
  153.4630  135.3808  155.2317 H   0  0  0  0  0  0  0  0  0  0  0  0  # atno 10765 bound_to 10752
  139.8815  134.9373  156.5683 H   0  0  0  0  0  0  0  0  0  0  0  0  # atno 11005 bound_to 11000
  144.7027  139.8693  143.7439 LP  0  0  0  0  0  0  0  0  0  0  0  0  # atno 17320 bound_to 7965
  146.0966  139.3959  143.0372 LP  0  0  0  0  0  0  0  0  0  0  0  0  # atno 17321 bound_to 7965
  140.6829  143.2335  151.5337 LP  0  0  0  0  0  0  0  0  0  0  0  0  # atno 17342 bound_to 10162
  139.5530  144.2346  152.1564 LP  0  0  0  0  0  0  0  0  0  0  0  0  # atno 17343 bound_to 10162
  157.6262  131.0925  150.8528 LP  0  0  0  0  0  0  0  0  0  0  0  0  # atno 17370 bound_to 10713
  156.8644  130.5124  149.5301 LP  0  0  0  0  0  0  0  0  0  0  0  0  # atno 17371 bound_to 10713
  140.8117  133.8424  155.8816 LP  0  0  0  0  0  0  0  0  0  0  0  0  # atno 17394 bound_to 11000
  140.9500  134.1791  157.4735 LP  0  0  0  0  0  0  0  0  0  0  0  0  # atno 17395 bound_to 11000

$$$$
