AV-unprocessed.smi:249|AV-procd|sdf|1903|dock2
  -GOLD-   2262020583D 1   1.00000     0.00000
 Structure written by MMmdl.
 64 67  0  0  0  0  0  0  0  0  2 V2000
  151.7387  145.4487  159.4449 C   0  0  0  0  0  0  0  0  0  0  0  0
  150.9344  144.6027  158.4463 C   0  0  0  0  0  0  0  0  0  0  0  0
  150.5400  143.2697  158.9911 N   0  3  1  0  0  0  0  0  0  0  0  0
  149.1893  142.8097  158.5616 C   0  0  0  0  0  0  0  0  0  0  0  0
  149.1736  142.3787  157.0829 C   0  0  0  0  0  0  0  0  0  0  0  0
  150.2216  141.2763  156.8161 C   0  0  1  0  0  0  0  0  0  0  0  0
  150.2344  140.7954  155.4284 N   0  0  0  0  0  0  0  0  0  0  0  0
  149.0679  141.0900  154.6043 C   0  0  0  0  0  0  0  0  0  0  0  0
  150.7798  139.5781  155.1935 C   0  0  0  0  0  0  0  0  0  0  0  0
  152.0337  139.5440  154.6772 N   0  0  0  0  0  0  0  0  0  0  0  0
  152.6220  138.3715  154.4218 C   0  0  0  0  0  0  0  0  0  0  0  0
  152.1410  137.1396  154.6010 N   0  0  0  0  0  0  0  0  0  0  0  0
  150.8764  137.1703  155.1106 C   0  0  0  0  0  0  0  0  0  0  0  0
  150.1267  138.3357  155.4355 C   0  0  0  0  0  0  0  0  0  0  0  0
  148.8852  137.9720  155.9445 N   0  0  0  0  0  0  0  0  0  0  0  0
  148.8991  136.6675  155.9194 C   0  0  0  0  0  0  0  0  0  0  0  0
  150.0491  136.1036  155.4153 N   0  0  0  0  0  0  0  0  0  0  0  0
  150.3313  134.6861  155.2768 C   0  0  0  0  0  0  0  0  0  0  0  0
  150.1498  133.8603  156.5775 C   0  0  1  0  0  0  0  0  0  0  0  0
  148.6564  133.8663  156.9783 C   0  0  0  0  0  0  0  0  0  0  0  0
  148.4576  133.3023  158.2593 O   0  0  0  0  0  0  0  0  0  0  0  0
  150.7454  132.4227  156.5162 C   0  0  2  0  0  0  0  0  0  0  0  0
  152.2457  132.3662  156.2736 C   0  0  0  0  0  0  0  0  0  0  0  0
  152.4419  130.9302  155.8119 C   0  0  0  0  0  0  0  0  0  0  0  0
  151.3117  130.6692  154.9950 O   0  0  0  0  0  0  0  0  0  0  0  0
  150.2427  131.5362  155.3638 C   0  0  0  0  0  0  0  0  0  0  0  0
  151.6086  141.7355  157.3190 C   0  0  0  0  0  0  0  0  0  0  0  0
  151.5446  142.1803  158.7947 C   0  0  1  0  0  0  0  0  0  0  0  0
  152.9338  142.5104  159.3701 C   0  0  0  0  0  0  0  0  0  0  0  0
  152.1310  146.3412  158.9569 H   0  0  0  0  0  0  0  0  0  0  0  0
  152.5877  144.8915  159.8421 H   0  0  0  0  0  0  0  0  0  0  0  0
  151.1303  145.7885  160.2823 H   0  0  0  0  0  0  0  0  0  0  0  0
  150.0636  145.1589  158.1002 H   0  0  0  0  0  0  0  0  0  0  0  0
  151.5730  144.4697  157.5753 H   0  0  0  0  0  0  0  0  0  0  0  0
  148.9008  141.9619  159.1844 H   0  0  0  0  0  0  0  0  0  0  0  0
  148.4329  143.5710  158.7451 H   0  0  0  0  0  0  0  0  0  0  0  0
  148.1803  142.0125  156.8213 H   0  0  0  0  0  0  0  0  0  0  0  0
  149.3520  143.2501  156.4535 H   0  0  0  0  0  0  0  0  0  0  0  0
  149.9305  140.4161  157.4208 H   0  0  0  0  0  0  0  0  0  0  0  0
  149.2066  140.7279  153.5846 H   0  0  0  0  0  0  0  0  0  0  0  0
  148.9086  142.1671  154.5538 H   0  0  0  0  0  0  0  0  0  0  0  0
  148.1643  140.6345  155.0088 H   0  0  0  0  0  0  0  0  0  0  0  0
  153.6205  138.4285  154.0140 H   0  0  0  0  0  0  0  0  0  0  0  0
  148.0594  136.0775  156.2572 H   0  0  0  0  0  0  0  0  0  0  0  0
  149.6716  134.3019  154.4978 H   0  0  0  0  0  0  0  0  0  0  0  0
  151.3480  134.5725  154.8983 H   0  0  0  0  0  0  0  0  0  0  0  0
  150.6701  134.3898  157.3762 H   0  0  0  0  0  0  0  0  0  0  0  0
  148.2501  134.8775  156.9710 H   0  0  0  0  0  0  0  0  0  0  0  0
  148.0682  133.3002  156.2553 H   0  0  0  0  0  0  0  0  0  0  0  0
  148.4047  132.3628  158.1695 H   0  0  0  0  0  0  0  0  0  0  0  0
  150.5412  131.9102  157.4575 H   0  0  0  0  0  0  0  0  0  0  0  0
  152.5324  133.0558  155.4783 H   0  0  0  0  0  0  0  0  0  0  0  0
  152.8349  132.5993  157.1609 H   0  0  0  0  0  0  0  0  0  0  0  0
  153.3745  130.7835  155.2671 H   0  0  0  0  0  0  0  0  0  0  0  0
  152.4303  130.2488  156.6637 H   0  0  0  0  0  0  0  0  0  0  0  0
  149.3727  130.9474  155.6514 H   0  0  0  0  0  0  0  0  0  0  0  0
  149.9758  132.1310  154.4896 H   0  0  0  0  0  0  0  0  0  0  0  0
  152.3281  140.9226  157.2198 H   0  0  0  0  0  0  0  0  0  0  0  0
  151.9864  142.5549  156.7076 H   0  0  0  0  0  0  0  0  0  0  0  0
  151.1809  141.3301  159.3741 H   0  0  0  0  0  0  0  0  0  0  0  0
  153.5583  141.6169  159.3955 H   0  0  0  0  0  0  0  0  0  0  0  0
  152.8620  142.8870  160.3909 H   0  0  0  0  0  0  0  0  0  0  0  0
  153.4657  143.2482  158.7694 H   0  0  0  0  0  0  0  0  0  0  0  0
  150.4806  143.4039  159.9905 H   0  0  0  0  0  0  0  0  0  0  0  0
  1  2  1  0  0  0  0
  1 30  1  0  0  0  0
  1 31  1  0  0  0  0
  1 32  1  0  0  0  0
  2  3  1  0  0  0  0
  2 33  1  0  0  0  0
  2 34  1  0  0  0  0
  3 28  1  0  0  0  0
  3  4  1  0  0  0  0
  3 64  1  0  0  0  0
  4  5  1  0  0  0  0
  4 35  1  0  0  0  0
  4 36  1  0  0  0  0
  5  6  1  0  0  0  0
  5 37  1  0  0  0  0
  5 38  1  0  0  0  0
  6  7  1  0  0  0  0
  6 27  1  0  0  0  0
  6 39  1  0  0  0  0
  7  8  1  0  0  0  0
  7  9  1  0  0  0  0
  8 40  1  0  0  0  0
  8 41  1  0  0  0  0
  8 42  1  0  0  0  0
  9 14  1  0  0  0  0
  9 10  2  0  0  0  0
 10 11  1  0  0  0  0
 11 12  2  0  0  0  0
 11 43  1  0  0  0  0
 12 13  1  0  0  0  0
 13 17  1  0  0  0  0
 13 14  2  0  0  0  0
 14 15  1  0  0  0  0
 15 16  2  0  0  0  0
 16 17  1  0  0  0  0
 16 44  1  0  0  0  0
 17 18  1  0  0  0  0
 18 19  1  0  0  0  0
 18 45  1  0  0  0  0
 18 46  1  0  0  0  0
 19 20  1  0  0  0  0
 19 22  1  0  0  0  0
 19 47  1  0  0  0  0
 20 21  1  0  0  0  0
 20 48  1  0  0  0  0
 20 49  1  0  0  0  0
 21 50  1  0  0  0  0
 22 26  1  0  0  0  0
 22 23  1  0  0  0  0
 22 51  1  0  0  0  0
 23 24  1  0  0  0  0
 23 52  1  0  0  0  0
 23 53  1  0  0  0  0
 24 25  1  0  0  0  0
 24 54  1  0  0  0  0
 24 55  1  0  0  0  0
 25 26  1  0  0  0  0
 26 56  1  0  0  0  0
 26 57  1  0  0  0  0
 27 28  1  0  0  0  0
 27 58  1  0  0  0  0
 27 59  1  0  0  0  0
 28 29  1  0  0  0  0
 28 60  1  0  0  0  0
 29 61  1  0  0  0  0
 29 62  1  0  0  0  0
 29 63  1  0  0  0  0
M  CHG  1   3   1
M  END
> <s_m_source_file>
AV-unprocessed.smi

> <i_m_source_file_index>
249

> <i_lp_mmshare_version>
43012

> <i_f3d_flags>
0

> <s_epik_input>
W0NIM11bQ0gyXU4xW0NIMl1bQ0gyXVtDQEhdKFtDSDJdW0NASF0xW0NIM10pTihbQ0gzXSljKG5bY0hdbjIpYyhjMjMpbltjSF1uM1tDSDJdW0NASF0oW0NIMl1bT0hdKVtDQEBIXTRbQ0gyXVtDSDJdT1tDSDJdNA==

> <s_epik_cmdline>
J2VwaWtfcHl0aG9uJywgJy1waCcsICc3LjAnLCAnLXRuJywgJzgnLCAnLW1hJywgJzIwMCcsICctbWV0YWxfYmluZGluZycsICctaW1hZScsICc8aW5maWxlLm1hZT4nLCAnLW9tYWUnLCAnPG91dGZpbGUubWFlPic=

> <r_lp_tautomer_probability>
1

> <r_epik_Ionization_Penalty>
0.00294688

> <r_epik_Ionization_Penalty_Charging>
0.00169971

> <r_epik_Ionization_Penalty_Neutral>
0.00124717

> <r_epik_State_Penalty>
-0

> <r_epik_Charging_Adjusted_Penalty>
0.00169971

> <i_epik_Tot_Q>
1

> <i_epik_Tot_abs_Q>
1

> <r_epik_Metal_State_Penalty>
-0

> <b_epik_Metal_Only>
0

> <s_lp_Force_Field>
OPLS_2005

> <r_lp_Energy>
55.2795

> <b_lp_Chiralities_Consistent>
1

> <s_lp_Variant>
AV-unprocessed.smi:249-6

> <Gold.Version>
5.8.1

> <Gold.Id.Protein>
6NUR|6NUR_protein|mol2

> <Gold.PLP.Fitness>
45.8668

> <Gold.PLP.PLP>
-43.7693

> <Gold.PLP.part.hbond>
-2.5925

> <Gold.PLP.part.metal>
0.0000

> <Gold.PLP.part.buried>
-3.5120

> <Gold.PLP.part.nonpolar>
-38.0135

> <Gold.PLP.part.repulsive>
0.4440

> <Gold.PLP.ligand.clash>
0.0000

> <Gold.PLP.ligand.torsion>
1.5318

> <Gold.PLP.Chemscore.Hbond>
1.4024

> <Gold.PLP.Chemscore.CHOScore>
0.0000

> <Gold.PLP.Chemscore.Metal>
0.0000

> <Gold.Chemscore.Hbonds>
donor molecule, donor type, donor heavy atom, donor atom, acceptor molecule, acceptor atom, score
      P1  H  7989  7998       L1    10  0.58
      P1  H 10752 10764       L1    12  0.85

> <Gold.PLP.Chemscore.Internal.Correction>
0.9539

> <Gold.Rescore>
     Score         DG    S(hbond)    S(metal)    S(lipo)     H(rot)  DE(clash)    DE(int)     intcor
     10.62     -13.66       0.87        0.00     108.58       2.90       1.49       1.54       ----

> <Gold.Chemscore.Fitness>
10.6243

> <Gold.Chemscore.DG>
-13.6576

> <Gold.Chemscore.ZeroCoef>
-5.4800

> <Gold.Chemscore.Hbond>
0.8682

> <Gold.Chemscore.Metal>
0.0000

> <Gold.Chemscore.Lipo>
108.5758

> <Gold.Chemscore.Internal_Hbond>
0.0000

> <Gold.Chemscore.DEClash>
1.4916

> <Gold.Chemscore.DEInternal>
1.5416

> <Gold.Chemscore.Rot>
2.9006

> <Gold.Chemscore.Internal.Correction>
   9.000000E+99

> <Gold.Chemscore.Hbonds>
donor molecule, donor type, donor heavy atom, donor atom, acceptor molecule, acceptor atom, score
      P1  H  7989  7998       L1    10  0.05
      P1  H 10752 10764       L1    12  0.82

> <Gold.Chemscore.Hbond.Weighted>
-2.8998

> <Gold.Chemscore.Metal.Weighted>
-0.0000

> <Gold.Chemscore.Lipo.Weighted>
-12.7034

> <Gold.Chemscore.Internal_Hbond.Weighted>
0.0000

> <Gold.Chemscore.DEClash.Weighted>
1.4916

> <Gold.Chemscore.DEInternal.Weighted>
1.5416

> <Gold.Chemscore.Rot.Weighted>
7.4256

> <Gold.Chemscore.Internal.Correction.Weighted>
   9.000000E+99

> <Gold.Protein.RotatedTorsions>
[ 6907 6896 6895 6894 ] final  -20.50 input  -60.11 | X-H torsion
[ 7974 7965 7964 7962 ] final  157.13 input  175.53 | X-H torsion
[ 8008 7997 7996 7995 ] final  -13.97 input   59.86 | X-H torsion
[ 10167 10162 10161 10158 ] final  162.86 input  -65.29 | X-H torsion
[ 10718 10713 10712 10709 ] final -104.82 input   66.30 | X-H torsion
[ 10763 10752 10751 10750 ] final  -81.48 input  -60.55 | X-H torsion
[ 11005 11000 10999 10996 ] final  -48.59 input  -57.11 | X-H torsion

> <Gold.Protein.ActiveResidues>
 VAL166  LYS551  ARG553  GLY616  TRP617  ASP618  TYR619  PRO620  LYS621  CYS622 
 ASP623  PHE694  ASN695  SER759  ASP760  ASP761  ALA762  ILE779  LEU786  VAL792 
 PHE793  MET794  SER795  GLU796  ALA797  LYS798  CYS799  TRP800  GLU811  SER814 

> <Gold.Protein.RotatedAtoms>
  151.2473  135.0610  159.9048 H   0  0  0  0  0  0  0  0  0  0  0  0  # atno 6907 bound_to 6896
  152.5385  134.0370  159.8060 H   0  0  0  0  0  0  0  0  0  0  0  0  # atno 6908 bound_to 6896
  151.0572  133.5525  159.2668 H   0  0  0  0  0  0  0  0  0  0  0  0  # atno 6909 bound_to 6896
  144.7921  139.7298  143.6217 H   0  0  0  0  0  0  0  0  0  0  0  0  # atno 7974 bound_to 7965
  154.5248  140.2235  155.8909 H   0  0  0  0  0  0  0  0  0  0  0  0  # atno 8008 bound_to 7997
  156.1701  140.3123  155.8924 H   0  0  0  0  0  0  0  0  0  0  0  0  # atno 8009 bound_to 7997
  155.3574  140.0459  157.3037 H   0  0  0  0  0  0  0  0  0  0  0  0  # atno 8010 bound_to 7997
  139.4866  144.4395  151.8970 H   0  0  0  0  0  0  0  0  0  0  0  0  # atno 10167 bound_to 10162
  156.0320  130.5533  150.7450 H   0  0  0  0  0  0  0  0  0  0  0  0  # atno 10718 bound_to 10713
  154.5641  135.5624  153.7034 H   0  0  0  0  0  0  0  0  0  0  0  0  # atno 10763 bound_to 10752
  153.0027  135.6281  154.2204 H   0  0  0  0  0  0  0  0  0  0  0  0  # atno 10764 bound_to 10752
  154.2142  135.2872  155.2927 H   0  0  0  0  0  0  0  0  0  0  0  0  # atno 10765 bound_to 10752
  141.0709  133.6679  156.3463 H   0  0  0  0  0  0  0  0  0  0  0  0  # atno 11005 bound_to 11000
  146.2177  139.5579  142.9639 LP  0  0  0  0  0  0  0  0  0  0  0  0  # atno 17320 bound_to 7965
  145.5766  141.0387  143.2145 LP  0  0  0  0  0  0  0  0  0  0  0  0  # atno 17321 bound_to 7965
  140.3846  144.2693  150.5905 LP  0  0  0  0  0  0  0  0  0  0  0  0  # atno 17342 bound_to 10162
  140.5202  143.2268  151.8401 LP  0  0  0  0  0  0  0  0  0  0  0  0  # atno 17343 bound_to 10162
  157.5009  131.0918  151.0315 LP  0  0  0  0  0  0  0  0  0  0  0  0  # atno 17370 bound_to 10713
  157.0696  130.5858  149.5400 LP  0  0  0  0  0  0  0  0  0  0  0  0  # atno 17371 bound_to 10713
  140.5674  134.5874  157.5449 LP  0  0  0  0  0  0  0  0  0  0  0  0  # atno 17394 bound_to 11000
  139.9523  134.7595  156.0420 LP  0  0  0  0  0  0  0  0  0  0  0  0  # atno 17395 bound_to 11000

$$$$
