AV-unprocessed.smi:2032|AV-procd|sdf|8237|dock1
  -GOLD-   2272010503D 1   1.00000     0.00000
 Structure written by MMmdl.
 43 44  0  0  0  0  0  0  0  0  2 V2000
  151.6532  138.0002  154.4197 C   0  0  0  0  0  0  0  0  0  0  0  0
  150.5270  138.8754  154.9813 C   0  0  2  0  0  0  0  0  0  0  0  0
  149.1524  138.4878  154.4035 C   0  0  0  0  0  0  0  0  0  0  0  0
  148.0899  139.4111  154.8866 N   0  3  2  0  0  0  0  0  0  0  0  0
  146.6872  139.0833  154.4667 C   0  0  2  0  0  0  0  0  0  0  0  0
  146.2276  137.7808  155.1610 C   0  0  0  0  0  0  0  0  0  0  0  0
  146.4983  138.9867  152.9264 C   0  0  0  0  0  0  0  0  0  0  0  0
  146.7721  137.6517  152.3982 N   0  0  0  0  0  0  0  0  0  0  0  0
  145.8452  136.7300  152.0959 C   0  0  0  0  0  0  0  0  0  0  0  0
  144.6353  136.9180  152.2258 O   0  0  0  0  0  0  0  0  0  0  0  0
  146.4116  135.6013  151.6344 N   0  0  0  0  0  0  0  0  0  0  0  0
  145.7676  134.4336  151.1474 C   0  0  0  0  0  0  0  0  0  0  0  0
  144.4625  134.3547  150.8626 N   0  0  0  0  0  0  0  0  0  0  0  0
  144.1045  133.0896  150.3899 C   0  0  0  0  0  0  0  0  0  0  0  0
  145.1573  132.2117  150.3200 C   0  0  0  0  0  0  0  0  0  0  0  0
  146.6489  132.9426  150.8492 S   0  0  0  0  0  0  0  0  0  0  0  0
  148.4698  140.8111  154.5540 C   0  0  0  0  0  0  0  0  0  0  0  0
  149.8591  141.1726  155.1111 C   0  0  1  0  0  0  0  0  0  0  0  0
  149.8826  141.3535  156.6397 C   0  0  0  0  0  0  0  0  0  0  0  0
  150.8253  140.2286  154.6569 O   0  0  0  0  0  0  0  0  0  0  0  0
  151.4896  136.9486  154.6565 H   0  0  0  0  0  0  0  0  0  0  0  0
  152.6170  138.2881  154.8405 H   0  0  0  0  0  0  0  0  0  0  0  0
  151.7231  138.0923  153.3353 H   0  0  0  0  0  0  0  0  0  0  0  0
  150.5160  138.7513  156.0644 H   0  0  0  0  0  0  0  0  0  0  0  0
  149.1786  138.5010  153.3125 H   0  0  0  0  0  0  0  0  0  0  0  0
  148.9502  137.4636  154.7154 H   0  0  0  0  0  0  0  0  0  0  0  0
  146.0446  139.8958  154.8096 H   0  0  0  0  0  0  0  0  0  0  0  0
  145.1765  137.5691  154.9672 H   0  0  0  0  0  0  0  0  0  0  0  0
  146.3252  137.8198  156.2440 H   0  0  0  0  0  0  0  0  0  0  0  0
  146.8063  136.9256  154.8103 H   0  0  0  0  0  0  0  0  0  0  0  0
  145.4629  139.1936  152.6557 H   0  0  0  0  0  0  0  0  0  0  0  0
  147.1086  139.7360  152.4188 H   0  0  0  0  0  0  0  0  0  0  0  0
  147.7422  137.4097  152.2582 H   0  0  0  0  0  0  0  0  0  0  0  0
  147.4202  135.5825  151.6052 H   0  0  0  0  0  0  0  0  0  0  0  0
  143.0751  132.9003  150.1241 H   0  0  0  0  0  0  0  0  0  0  0  0
  145.1451  131.1836  149.9900 H   0  0  0  0  0  0  0  0  0  0  0  0
  148.4760  140.9257  153.4688 H   0  0  0  0  0  0  0  0  0  0  0  0
  147.7419  141.5259  154.9329 H   0  0  0  0  0  0  0  0  0  0  0  0
  150.1501  142.1300  154.6779 H   0  0  0  0  0  0  0  0  0  0  0  0
  149.2321  142.1751  156.9405 H   0  0  0  0  0  0  0  0  0  0  0  0
  150.8889  141.5870  156.9879 H   0  0  0  0  0  0  0  0  0  0  0  0
  149.5428  140.4639  157.1692 H   0  0  0  0  0  0  0  0  0  0  0  0
  148.1020  139.3342  155.8937 H   0  0  0  0  0  0  0  0  0  0  0  0
  1  2  1  0  0  0  0
  1 21  1  0  0  0  0
  1 22  1  0  0  0  0
  1 23  1  0  0  0  0
  2 20  1  0  0  0  0
  2  3  1  0  0  0  0
  2 24  1  0  0  0  0
  3  4  1  0  0  0  0
  3 25  1  0  0  0  0
  3 26  1  0  0  0  0
  4  5  1  0  0  0  0
  4 17  1  0  0  0  0
  4 43  1  0  0  0  0
  5  6  1  0  0  0  0
  5  7  1  0  0  0  0
  5 27  1  0  0  0  0
  6 28  1  0  0  0  0
  6 29  1  0  0  0  0
  6 30  1  0  0  0  0
  7  8  1  0  0  0  0
  7 31  1  0  0  0  0
  7 32  1  0  0  0  0
  8  9  1  0  0  0  0
  8 33  1  0  0  0  0
  9 10  2  0  0  0  0
  9 11  1  0  0  0  0
 11 12  1  0  0  0  0
 11 34  1  0  0  0  0
 12 16  1  0  0  0  0
 12 13  2  0  0  0  0
 13 14  1  0  0  0  0
 14 15  2  0  0  0  0
 14 35  1  0  0  0  0
 15 16  1  0  0  0  0
 15 36  1  0  0  0  0
 17 18  1  0  0  0  0
 17 37  1  0  0  0  0
 17 38  1  0  0  0  0
 18 19  1  0  0  0  0
 18 20  1  0  0  0  0
 18 39  1  0  0  0  0
 19 40  1  0  0  0  0
 19 41  1  0  0  0  0
 19 42  1  0  0  0  0
M  CHG  1   4   1
M  END
> <s_m_source_file>
AV-unprocessed.smi

> <i_m_source_file_index>
2032

> <i_lp_mmshare_version>
43012

> <i_f3d_flags>
0

> <s_epik_input>
W0NIM11bQ0BASF0xW0NIMl1OKFtDSDJdW0NASF0oTzEpW0NIM10pW0NASF0oW0NIM10pW0NIMl1bTkhdQyg9TylbTkhdYzJuW2NIXVtjSF1zMg==

> <s_epik_cmdline>
J2VwaWtfcHl0aG9uJywgJy1waCcsICc3LjAnLCAnLXRuJywgJzgnLCAnLW1hJywgJzIwMCcsICctbWV0YWxfYmluZGluZycsICctaW1hZScsICc8aW5maWxlLm1hZT4nLCAnLW9tYWUnLCAnPG91dGZpbGUubWFlPic=

> <r_lp_tautomer_probability>
0.999

> <r_epik_Ionization_Penalty>
0.695838

> <r_epik_Ionization_Penalty_Charging>
0.695697

> <r_epik_Ionization_Penalty_Neutral>
0.000141198

> <r_epik_State_Penalty>
0.717972

> <r_epik_Charging_Adjusted_Penalty>
1.41367

> <i_epik_Tot_Q>
1

> <i_epik_Tot_abs_Q>
1

> <r_epik_Metal_State_Penalty>
0.756405

> <b_epik_Metal_Only>
0

> <s_lp_Force_Field>
OPLS_2005

> <r_lp_Energy>
21.5501

> <b_lp_Chiralities_Consistent>
1

> <s_lp_Variant>
AV-unprocessed.smi:2032-7

> <Gold.Version>
5.8.1

> <Gold.Id.Protein>
6NUR|6NUR_protein|mol2

> <Gold.PLP.Fitness>
43.5029

> <Gold.PLP.PLP>
-32.5401

> <Gold.PLP.part.hbond>
-2.9891

> <Gold.PLP.part.metal>
0.0000

> <Gold.PLP.part.buried>
-5.3843

> <Gold.PLP.part.nonpolar>
-26.1714

> <Gold.PLP.part.repulsive>
1.0431

> <Gold.PLP.ligand.clash>
0.0000

> <Gold.PLP.ligand.torsion>
0.5675

> <Gold.PLP.Chemscore.Hbond>
3.0000

> <Gold.PLP.Chemscore.CHOScore>
0.9998

> <Gold.PLP.Chemscore.Metal>
0.0000

> <Gold.Chemscore.Hbonds>
donor molecule, donor type, donor heavy atom, donor atom, acceptor molecule, acceptor atom, score
      L1  H     8    33       P1  7948  1.00
      L1  H    11    34       P1  7948  1.00
      P1  H  7989  7998       L1    20  1.00
      L1  C    14    35       P1 10186  0.75

> <Gold.PLP.Chemscore.Internal.Correction>
0.0986

> <Gold.Rescore>
     Score         DG    S(hbond)    S(metal)    S(lipo)     H(rot)  DE(clash)    DE(int)     intcor
     17.79     -19.68       2.89        0.00      74.01       1.61       0.14       1.75       ----

> <Gold.Chemscore.Fitness>
17.7900

> <Gold.Chemscore.DG>
-19.6806

> <Gold.Chemscore.ZeroCoef>
-5.4800

> <Gold.Chemscore.Hbond>
2.8940

> <Gold.Chemscore.Metal>
0.0000

> <Gold.Chemscore.Lipo>
74.0052

> <Gold.Chemscore.Internal_Hbond>
0.0000

> <Gold.Chemscore.DEClash>
0.1440

> <Gold.Chemscore.DEInternal>
1.7466

> <Gold.Chemscore.Rot>
1.6110

> <Gold.Chemscore.Internal.Correction>
   9.000000E+99

> <Gold.Chemscore.Hbonds>
donor molecule, donor type, donor heavy atom, donor atom, acceptor molecule, acceptor atom, score
      L1  H     8    33       P1  7948  0.94
      L1  H    11    34       P1  7948  0.97
      P1  H  7989  7998       L1    20  0.62

> <Gold.Chemscore.Hbond.Weighted>
-9.6661

> <Gold.Chemscore.Metal.Weighted>
-0.0000

> <Gold.Chemscore.Lipo.Weighted>
-8.6586

> <Gold.Chemscore.Internal_Hbond.Weighted>
0.0000

> <Gold.Chemscore.DEClash.Weighted>
0.1440

> <Gold.Chemscore.DEInternal.Weighted>
1.7466

> <Gold.Chemscore.Rot.Weighted>
4.1242

> <Gold.Chemscore.Internal.Correction.Weighted>
   9.000000E+99

> <Gold.Protein.RotatedTorsions>
[ 6907 6896 6895 6894 ] final  120.95 input  -60.11 | X-H torsion
[ 7974 7965 7964 7962 ] final   93.10 input  175.53 | X-H torsion
[ 8008 7997 7996 7995 ] final -179.08 input   59.86 | X-H torsion
[ 10167 10162 10161 10158 ] final  140.94 input  -65.29 | X-H torsion
[ 10718 10713 10712 10709 ] final  -89.61 input   66.30 | X-H torsion
[ 10763 10752 10751 10750 ] final    8.11 input  -60.55 | X-H torsion
[ 11005 11000 10999 10996 ] final  -88.41 input  -57.11 | X-H torsion

> <Gold.Protein.ActiveResidues>
 VAL166  LYS551  ARG553  GLY616  TRP617  ASP618  TYR619  PRO620  LYS621  CYS622 
 ASP623  PHE694  ASN695  SER759  ASP760  ASP761  ALA762  ILE779  LEU786  VAL792 
 PHE793  MET794  SER795  GLU796  ALA797  LYS798  CYS799  TRP800  GLU811  SER814 

> <Gold.Protein.RotatedAtoms>
  152.4359  133.7360  159.6613 H   0  0  0  0  0  0  0  0  0  0  0  0  # atno 6907 bound_to 6896
  150.8243  133.8189  159.3131 H   0  0  0  0  0  0  0  0  0  0  0  0  # atno 6908 bound_to 6896
  151.5862  135.1058  160.0080 H   0  0  0  0  0  0  0  0  0  0  0  0  # atno 6909 bound_to 6896
  145.4835  139.2278  143.2869 H   0  0  0  0  0  0  0  0  0  0  0  0  # atno 7974 bound_to 7965
  156.0264  140.1272  157.0304 H   0  0  0  0  0  0  0  0  0  0  0  0  # atno 8008 bound_to 7997
  154.4332  140.1058  156.6107 H   0  0  0  0  0  0  0  0  0  0  0  0  # atno 8009 bound_to 7997
  155.5871  140.3469  155.4558 H   0  0  0  0  0  0  0  0  0  0  0  0  # atno 8010 bound_to 7997
  139.5034  144.6203  151.6067 H   0  0  0  0  0  0  0  0  0  0  0  0  # atno 10167 bound_to 10162
  155.9985  130.4878  150.5197 H   0  0  0  0  0  0  0  0  0  0  0  0  # atno 10718 bound_to 10713
  153.2287  135.6890  153.7915 H   0  0  0  0  0  0  0  0  0  0  0  0  # atno 10763 bound_to 10752
  153.7087  135.3286  155.3242 H   0  0  0  0  0  0  0  0  0  0  0  0  # atno 10764 bound_to 10752
  154.8304  135.4585  154.1164 H   0  0  0  0  0  0  0  0  0  0  0  0  # atno 10765 bound_to 10752
  141.1602  133.7568  156.9447 H   0  0  0  0  0  0  0  0  0  0  0  0  # atno 11005 bound_to 11000
  146.2327  140.5623  142.8968 LP  0  0  0  0  0  0  0  0  0  0  0  0  # atno 17320 bound_to 7965
  144.7875  140.5966  143.6564 LP  0  0  0  0  0  0  0  0  0  0  0  0  # atno 17321 bound_to 7965
  140.5903  143.9791  150.6320 LP  0  0  0  0  0  0  0  0  0  0  0  0  # atno 17342 bound_to 10162
  140.2970  143.3286  152.1008 LP  0  0  0  0  0  0  0  0  0  0  0  0  # atno 17343 bound_to 10162
  157.3160  131.0673  151.1967 LP  0  0  0  0  0  0  0  0  0  0  0  0  # atno 17370 bound_to 10713
  157.2896  130.6790  149.6107 LP  0  0  0  0  0  0  0  0  0  0  0  0  # atno 17371 bound_to 10713
  140.1298  134.9363  157.2320 LP  0  0  0  0  0  0  0  0  0  0  0  0  # atno 17394 bound_to 11000
  140.2968  134.3178  155.7300 LP  0  0  0  0  0  0  0  0  0  0  0  0  # atno 17395 bound_to 11000

$$$$
