AV-unprocessed.smi:2749|AV-procd|sdf|10587|dock7
  -GOLD-   2272015 33D 1   1.00000     0.00000
 Structure written by MMmdl.
 32 34  0  0  0  0  0  0  0  0  1 V2000
  150.7239  140.8107  156.8361 O   0  0  0  0  0  0  0  0  0  0  0  0
  150.2521  141.9066  156.5382 C   0  0  0  0  0  0  0  0  0  0  0  0
  150.3919  142.9734  157.3538 N   0  0  0  0  0  0  0  0  0  0  0  0
  151.0300  143.1073  158.6220 C   0  0  0  0  0  0  0  0  0  0  0  0
  150.9673  144.4060  159.1773 C   0  0  0  0  0  0  0  0  0  0  0  0
  151.5761  144.6615  160.4215 C   0  0  0  0  0  0  0  0  0  0  0  0
  152.2392  143.6097  161.0776 C   0  0  0  0  0  0  0  0  0  0  0  0
  152.8399  143.8068  162.2749 F   0  0  0  0  0  0  0  0  0  0  0  0
  152.2630  142.3476  160.4569 C   0  0  0  0  0  0  0  0  0  0  0  0
  151.6783  142.1020  159.2651 N   0  0  0  0  0  0  0  0  0  0  0  0
  149.5838  142.1222  155.3943 N   0  0  0  0  0  0  0  0  0  0  0  0
  149.2830  141.1089  154.3885 C   0  0  2  0  0  0  0  0  0  0  0  0
  147.9698  141.4036  153.6579 C   0  0  0  0  0  0  0  0  0  0  0  0
  147.1510  140.1391  153.9500 C   0  0  2  0  0  0  0  0  0  0  0  0
  146.6798  140.0835  155.4102 C   0  0  0  0  0  0  0  0  0  0  0  0
  147.9755  139.7421  156.1440 C   0  0  0  0  0  0  0  0  0  0  0  0
  148.9918  139.7179  154.9894 C   0  0  1  0  0  0  0  0  0  0  0  0
  148.1803  139.1649  153.9666 O   0  0  0  0  0  0  0  0  0  0  0  0
  150.0305  143.8372  156.9765 H   0  0  0  0  0  0  0  0  0  0  0  0
  150.4558  145.2038  158.6580 H   0  0  0  0  0  0  0  0  0  0  0  0
  151.5351  145.6466  160.8623 H   0  0  0  0  0  0  0  0  0  0  0  0
  152.7631  141.5136  160.9267 H   0  0  0  0  0  0  0  0  0  0  0  0
  149.2287  143.0528  155.2253 H   0  0  0  0  0  0  0  0  0  0  0  0
  150.0938  141.0428  153.6605 H   0  0  0  0  0  0  0  0  0  0  0  0
  147.4661  142.3079  154.0031 H   0  0  0  0  0  0  0  0  0  0  0  0
  148.1485  141.5060  152.5870 H   0  0  0  0  0  0  0  0  0  0  0  0
  146.3613  139.9472  153.2231 H   0  0  0  0  0  0  0  0  0  0  0  0
  146.2433  141.0271  155.7396 H   0  0  0  0  0  0  0  0  0  0  0  0
  145.9403  139.2950  155.5529 H   0  0  0  0  0  0  0  0  0  0  0  0
  148.2236  140.4554  156.9304 H   0  0  0  0  0  0  0  0  0  0  0  0
  147.8994  138.7556  156.6024 H   0  0  0  0  0  0  0  0  0  0  0  0
  149.8884  139.1370  155.2070 H   0  0  0  0  0  0  0  0  0  0  0  0
  1  2  2  0  0  0  0
  2  3  1  0  0  0  0
  2 11  1  0  0  0  0
  3  4  1  0  0  0  0
  3 19  1  0  0  0  0
  4 10  1  0  0  0  0
  4  5  2  0  0  0  0
  5  6  1  0  0  0  0
  5 20  1  0  0  0  0
  6  7  2  0  0  0  0
  6 21  1  0  0  0  0
  7  8  1  0  0  0  0
  7  9  1  0  0  0  0
  9 10  2  0  0  0  0
  9 22  1  0  0  0  0
 11 12  1  0  0  0  0
 11 23  1  0  0  0  0
 12 17  1  0  0  0  0
 12 13  1  0  0  0  0
 12 24  1  0  0  0  0
 13 14  1  0  0  0  0
 13 25  1  0  0  0  0
 13 26  1  0  0  0  0
 14 18  1  0  0  0  0
 14 15  1  0  0  0  0
 14 27  1  0  0  0  0
 15 16  1  0  0  0  0
 15 28  1  0  0  0  0
 15 29  1  0  0  0  0
 16 17  1  0  0  0  0
 16 30  1  0  0  0  0
 16 31  1  0  0  0  0
 17 18  1  0  0  0  0
 17 32  1  0  0  0  0
M  END
> <s_m_source_file>
AV-unprocessed.smi

> <i_m_source_file_index>
2749

> <i_lp_mmshare_version>
43012

> <i_f3d_flags>
0

> <s_epik_input>
W0NIMl0xW0NIMl1bQ0BIXShPMilbQ0BASF0oW0NIMl1bQ0BASF0xMilbTkhdQyg9TylbTkhdYzNbY0hdW2NIXWMoRilbY0hdbjM=

> <s_epik_cmdline>
J2VwaWtfcHl0aG9uJywgJy1waCcsICc3LjAnLCAnLXRuJywgJzgnLCAnLW1hJywgJzIwMCcsICctbWV0YWxfYmluZGluZycsICctaW1hZScsICc8aW5maWxlLm1hZT4nLCAnLW9tYWUnLCAnPG91dGZpbGUubWFlPic=

> <r_lp_tautomer_probability>
1

> <r_epik_Ionization_Penalty>
3.37159e-05

> <r_epik_Ionization_Penalty_Charging>
0

> <r_epik_Ionization_Penalty_Neutral>
3.37159e-05

> <r_epik_State_Penalty>
-0

> <r_epik_Charging_Adjusted_Penalty>
0

> <i_epik_Tot_Q>
0

> <i_epik_Tot_abs_Q>
0

> <r_epik_Metal_State_Penalty>
-0

> <b_epik_Metal_Only>
0

> <s_lp_Force_Field>
OPLS_2005

> <r_lp_Energy>
40.3406

> <b_lp_Chiralities_Consistent>
1

> <s_lp_Variant>
AV-unprocessed.smi:2749-3

> <Gold.Version>
5.8.1

> <Gold.Id.Protein>
6NUR|6NUR_protein|mol2

> <Gold.PLP.Fitness>
38.3321

> <Gold.PLP.PLP>
-33.0596

> <Gold.PLP.part.hbond>
-2.0000

> <Gold.PLP.part.metal>
0.0000

> <Gold.PLP.part.buried>
-5.2209

> <Gold.PLP.part.nonpolar>
-26.1027

> <Gold.PLP.part.repulsive>
0.3801

> <Gold.PLP.ligand.clash>
0.0000

> <Gold.PLP.ligand.torsion>
0.3614

> <Gold.PLP.Chemscore.Hbond>
1.9920

> <Gold.PLP.Chemscore.CHOScore>
0.0000

> <Gold.PLP.Chemscore.Metal>
0.0000

> <Gold.Chemscore.Hbonds>
donor molecule, donor type, donor heavy atom, donor atom, acceptor molecule, acceptor atom, score
      L1  H     3    19       P1  8028  0.99
      L1  H    11    23       P1  8028  1.00

> <Gold.PLP.Chemscore.Internal.Correction>
0.0193

> <Gold.Rescore>
     Score         DG    S(hbond)    S(metal)    S(lipo)     H(rot)  DE(clash)    DE(int)     intcor
     14.51     -18.16       1.88        0.00      76.48       1.00       0.74       2.91       ----

> <Gold.Chemscore.Fitness>
14.5058

> <Gold.Chemscore.DG>
-18.1558

> <Gold.Chemscore.ZeroCoef>
-5.4800

> <Gold.Chemscore.Hbond>
1.8824

> <Gold.Chemscore.Metal>
0.0000

> <Gold.Chemscore.Lipo>
76.4841

> <Gold.Chemscore.Internal_Hbond>
0.0000

> <Gold.Chemscore.DEClash>
0.7359

> <Gold.Chemscore.DEInternal>
2.9141

> <Gold.Chemscore.Rot>
1.0000

> <Gold.Chemscore.Internal.Correction>
   9.000000E+99

> <Gold.Chemscore.Hbonds>
donor molecule, donor type, donor heavy atom, donor atom, acceptor molecule, acceptor atom, score
      L1  H     3    19       P1  8028  0.91
      L1  H    11    23       P1  8028  0.98

> <Gold.Chemscore.Hbond.Weighted>
-6.2872

> <Gold.Chemscore.Metal.Weighted>
-0.0000

> <Gold.Chemscore.Lipo.Weighted>
-8.9486

> <Gold.Chemscore.Internal_Hbond.Weighted>
0.0000

> <Gold.Chemscore.DEClash.Weighted>
0.7359

> <Gold.Chemscore.DEInternal.Weighted>
2.9141

> <Gold.Chemscore.Rot.Weighted>
2.5600

> <Gold.Chemscore.Internal.Correction.Weighted>
   9.000000E+99

> <Gold.Protein.RotatedTorsions>
[ 6907 6896 6895 6894 ] final  174.49 input  -60.11 | X-H torsion
[ 7974 7965 7964 7962 ] final  156.79 input  175.53 | X-H torsion
[ 8008 7997 7996 7995 ] final  -64.53 input   59.86 | X-H torsion
[ 10167 10162 10161 10158 ] final  165.89 input  -65.29 | X-H torsion
[ 10718 10713 10712 10709 ] final  162.32 input   66.30 | X-H torsion
[ 10763 10752 10751 10750 ] final -127.19 input  -60.55 | X-H torsion
[ 11005 11000 10999 10996 ] final  -96.02 input  -57.11 | X-H torsion

> <Gold.Protein.ActiveResidues>
 VAL166  LYS551  ARG553  GLY616  TRP617  ASP618  TYR619  PRO620  LYS621  CYS622 
 ASP623  PHE694  ASN695  SER759  ASP760  ASP761  ALA762  ILE779  LEU786  VAL792 
 PHE793  MET794  SER795  GLU796  ALA797  LYS798  CYS799  TRP800  GLU811  SER814 

> <Gold.Protein.RotatedAtoms>
  151.7514  133.3327  159.3392 H   0  0  0  0  0  0  0  0  0  0  0  0  # atno 6907 bound_to 6896
  150.7533  134.6188  159.6134 H   0  0  0  0  0  0  0  0  0  0  0  0  # atno 6908 bound_to 6896
  152.3465  134.7065  160.0300 H   0  0  0  0  0  0  0  0  0  0  0  0  # atno 6909 bound_to 6896
  144.7942  139.7252  143.6209 H   0  0  0  0  0  0  0  0  0  0  0  0  # atno 7974 bound_to 7965
  154.4617  140.0952  156.6911 H   0  0  0  0  0  0  0  0  0  0  0  0  # atno 8008 bound_to 7997
  155.4974  140.3472  155.4347 H   0  0  0  0  0  0  0  0  0  0  0  0  # atno 8009 bound_to 7997
  156.0883  140.1390  156.9614 H   0  0  0  0  0  0  0  0  0  0  0  0  # atno 8010 bound_to 7997
  139.4914  144.4085  151.9327 H   0  0  0  0  0  0  0  0  0  0  0  0  # atno 10167 bound_to 10162
  157.1241  131.0500  151.2401 H   0  0  0  0  0  0  0  0  0  0  0  0  # atno 10718 bound_to 10713
  154.8751  135.3970  154.3554 H   0  0  0  0  0  0  0  0  0  0  0  0  # atno 10763 bound_to 10752
  153.4334  135.7025  153.6221 H   0  0  0  0  0  0  0  0  0  0  0  0  # atno 10764 bound_to 10752
  153.4833  135.3764  155.2423 H   0  0  0  0  0  0  0  0  0  0  0  0  # atno 10765 bound_to 10752
  141.1424  133.8068  157.0514 H   0  0  0  0  0  0  0  0  0  0  0  0  # atno 11005 bound_to 11000
  146.2204  139.5625  142.9622 LP  0  0  0  0  0  0  0  0  0  0  0  0  # atno 17320 bound_to 7965
  145.5717  141.0393  143.2170 LP  0  0  0  0  0  0  0  0  0  0  0  0  # atno 17321 bound_to 7965
  140.3526  144.3071  150.5947 LP  0  0  0  0  0  0  0  0  0  0  0  0  # atno 17342 bound_to 10162
  140.5472  143.2212  151.7987 LP  0  0  0  0  0  0  0  0  0  0  0  0  # atno 17343 bound_to 10162
  157.4450  130.7566  149.7102 LP  0  0  0  0  0  0  0  0  0  0  0  0  # atno 17370 bound_to 10713
  155.9822  130.4012  150.3430 LP  0  0  0  0  0  0  0  0  0  0  0  0  # atno 17371 bound_to 10713
  140.0629  134.9745  157.1336 LP  0  0  0  0  0  0  0  0  0  0  0  0  # atno 17394 bound_to 11000
  140.3822  134.2275  155.7170 LP  0  0  0  0  0  0  0  0  0  0  0  0  # atno 17395 bound_to 11000

$$$$
