AV-unprocessed.smi:735|AV-procd|sdf|3534|dock1
  -GOLD-   22720 0523D 1   1.00000     0.00000
 Structure written by MMmdl.
 16 16  0  0  0  0  0  0  0  0  3 V2000
  153.1668  139.5784  154.7745 O   0  0  0  0  0  0  0  0  0  0  0  0
  152.0051  139.4369  155.2188 C   0  0  0  0  0  0  0  0  0  0  0  0
  150.9866  139.9738  154.7261 O   0  5  0  0  0  0  0  0  0  0  0  0
  151.8267  138.4794  156.4111 C   0  0  0  0  0  0  0  0  0  0  0  0
  153.0541  138.1132  156.7894 F   0  0  0  0  0  0  0  0  0  0  0  0
  151.3006  139.1592  157.4337 F   0  0  0  0  0  0  0  0  0  0  0  0
  150.9997  137.2309  156.0698 C   0  0  0  0  0  0  0  0  0  0  0  0
  150.5400  137.0079  154.8170 C   0  0  0  0  0  0  0  0  0  0  0  0
  149.8277  135.8544  154.4852 N   0  0  0  0  0  0  0  0  0  0  0  0
  149.5798  134.8888  155.3941 C   0  0  0  0  0  0  0  0  0  0  0  0
  148.9565  133.8991  155.0162 O   0  0  0  0  0  0  0  0  0  0  0  0
  150.0345  135.0700  156.6704 N   0  5  0  0  0  0  0  0  0  0  0  0
  150.7189  136.1851  157.0731 C   0  0  0  0  0  0  0  0  0  0  0  0
  151.0785  136.3272  158.2412 O   0  0  0  0  0  0  0  0  0  0  0  0
  149.5030  135.7514  153.5350 H   0  0  0  0  0  0  0  0  0  0  0  0
  150.6892  137.6830  153.9876 H   0  0  0  0  0  0  0  0  0  0  0  0
  1  2  2  0  0  0  0
  2  3  1  0  0  0  0
  2  4  1  0  0  0  0
  4  5  1  0  0  0  0
  4  6  1  0  0  0  0
  4  7  1  0  0  0  0
  7 13  1  0  0  0  0
  7  8  2  0  0  0  0
  8  9  1  0  0  0  0
  8 16  1  0  0  0  0
  9 15  1  0  0  0  0
  9 10  1  0  0  0  0
 10 11  2  0  0  0  0
 10 12  1  0  0  0  0
 12 13  1  0  0  0  0
 13 14  2  0  0  0  0
M  CHG  1   3  -1
M  CHG  1  12  -1
M  END
> <s_m_source_file>
AV-unprocessed.smi

> <i_m_source_file_index>
735

> <i_lp_mmshare_version>
43012

> <i_f3d_flags>
0

> <s_epik_input>
Tz1DKFtPSF0pQyhGKShGKWMxW2NIXVtuSF1jKD1PKVtuSF1jMT1P

> <s_epik_cmdline>
J2VwaWtfcHl0aG9uJywgJy1waCcsICc3LjAnLCAnLXRuJywgJzgnLCAnLW1hJywgJzIwMCcsICctbWV0YWxfYmluZGluZycsICctaW1hZScsICc8aW5maWxlLm1hZT4nLCAnLW9tYWUnLCAnPG91dGZpbGUubWFlPic=

> <r_lp_tautomer_probability>
0.999514

> <r_epik_Ionization_Penalty>
1.58373

> <r_epik_Ionization_Penalty_Charging>
0.000433443

> <r_epik_Ionization_Penalty_Neutral>
1.5833

> <r_epik_State_Penalty>
2.35383

> <r_epik_Charging_Adjusted_Penalty>
2.35426

> <i_epik_Tot_Q>
-2

> <i_epik_Tot_abs_Q>
2

> <r_epik_Metal_State_Penalty>
1.75831

> <b_epik_Metal_Only>
1

> <s_lp_Force_Field>
OPLS_2005

> <r_lp_Energy>
21.8504

> <b_lp_Chiralities_Consistent>
1

> <s_lp_Variant>
AV-unprocessed.smi:735-3

> <Gold.Version>
5.8.1

> <Gold.Id.Protein>
6NUR|6NUR_protein|mol2

> <Gold.PLP.Fitness>
31.3469

> <Gold.PLP.PLP>
-17.9611

> <Gold.PLP.part.hbond>
-5.3028

> <Gold.PLP.part.metal>
0.0000

> <Gold.PLP.part.buried>
-2.2403

> <Gold.PLP.part.nonpolar>
-10.3539

> <Gold.PLP.part.repulsive>
0.2252

> <Gold.PLP.ligand.clash>
0.2435

> <Gold.PLP.ligand.torsion>
0.0879

> <Gold.PLP.Chemscore.Hbond>
4.5760

> <Gold.PLP.Chemscore.CHOScore>
0.0000

> <Gold.PLP.Chemscore.Metal>
0.0000

> <Gold.Chemscore.Hbonds>
donor molecule, donor type, donor heavy atom, donor atom, acceptor molecule, acceptor atom, score
      L1  H     9    15       P1  7948  1.00
      P1  H  6896  6909       L1    14  0.62
      P1  H  7989  7998       L1     3  1.00
      P1  H  7997  8010       L1     1  2.00

> <Gold.PLP.Chemscore.Internal.Correction>
0.0771

> <Gold.Rescore>
     Score         DG    S(hbond)    S(metal)    S(lipo)     H(rot)  DE(clash)    DE(int)     intcor
     12.09     -15.43       3.92        0.00      12.81       1.81       0.00       3.34       ----

> <Gold.Chemscore.Fitness>
12.0926

> <Gold.Chemscore.DG>
-15.4314

> <Gold.Chemscore.ZeroCoef>
-5.4800

> <Gold.Chemscore.Hbond>
3.9152

> <Gold.Chemscore.Metal>
0.0000

> <Gold.Chemscore.Lipo>
12.8134

> <Gold.Chemscore.Internal_Hbond>
0.0000

> <Gold.Chemscore.DEClash>
0.0000

> <Gold.Chemscore.DEInternal>
3.3388

> <Gold.Chemscore.Rot>
1.8064

> <Gold.Chemscore.Internal.Correction>
   9.000000E+99

> <Gold.Chemscore.Hbonds>
donor molecule, donor type, donor heavy atom, donor atom, acceptor molecule, acceptor atom, score
      L1  H     9    15       P1  7948  0.25
      P1  H  6896  6909       L1    14  0.59
      P1  H  7989  7998       L1     3  0.35
      P1  H  7997  8010       L1     1  0.98

> <Gold.Chemscore.Hbond.Weighted>
-13.0766

> <Gold.Chemscore.Metal.Weighted>
-0.0000

> <Gold.Chemscore.Lipo.Weighted>
-1.4992

> <Gold.Chemscore.Internal_Hbond.Weighted>
0.0000

> <Gold.Chemscore.DEClash.Weighted>
0.0000

> <Gold.Chemscore.DEInternal.Weighted>
3.3388

> <Gold.Chemscore.Rot.Weighted>
4.6244

> <Gold.Chemscore.Internal.Correction.Weighted>
   9.000000E+99

> <Gold.Protein.RotatedTorsions>
[ 6907 6896 6895 6894 ] final   86.01 input  -60.11 | X-H torsion
[ 7974 7965 7964 7962 ] final  151.44 input  175.53 | X-H torsion
[ 8008 7997 7996 7995 ] final  105.23 input   59.86 | X-H torsion
[ 10167 10162 10161 10158 ] final    6.01 input  -65.29 | X-H torsion
[ 10718 10713 10712 10709 ] final  111.96 input   66.30 | X-H torsion
[ 10763 10752 10751 10750 ] final -112.17 input  -60.55 | X-H torsion
[ 11005 11000 10999 10996 ] final -147.36 input  -57.11 | X-H torsion

> <Gold.Protein.ActiveResidues>
 VAL166  LYS551  ARG553  GLY616  TRP617  ASP618  TYR619  PRO620  LYS621  CYS622 
 ASP623  PHE694  ASN695  SER759  ASP760  ASP761  ALA762  ILE779  LEU786  VAL792 
 PHE793  MET794  SER795  GLU796  ALA797  LYS798  CYS799  TRP800  GLU811  SER814 

> <Gold.Protein.RotatedAtoms>
  152.5386  134.2498  159.8894 H   0  0  0  0  0  0  0  0  0  0  0  0  # atno 6907 bound_to 6896
  151.2462  133.4367  159.2617 H   0  0  0  0  0  0  0  0  0  0  0  0  # atno 6908 bound_to 6896
  151.0581  134.9732  159.8302 H   0  0  0  0  0  0  0  0  0  0  0  0  # atno 6909 bound_to 6896
  144.8292  139.6538  143.6066 H   0  0  0  0  0  0  0  0  0  0  0  0  # atno 7974 bound_to 7965
  156.1642  140.3134  155.8859 H   0  0  0  0  0  0  0  0  0  0  0  0  # atno 8008 bound_to 7997
  155.3721  140.0482  157.3062 H   0  0  0  0  0  0  0  0  0  0  0  0  # atno 8009 bound_to 7997
  154.5176  140.2187  155.9048 H   0  0  0  0  0  0  0  0  0  0  0  0  # atno 8010 bound_to 7997
  140.6451  143.7681  150.7487 H   0  0  0  0  0  0  0  0  0  0  0  0  # atno 10167 bound_to 10162
  157.6418  131.0959  150.6825 H   0  0  0  0  0  0  0  0  0  0  0  0  # atno 10718 bound_to 10713
  154.8337  135.4500  154.1153 H   0  0  0  0  0  0  0  0  0  0  0  0  # atno 10763 bound_to 10752
  153.2404  135.6915  153.7796 H   0  0  0  0  0  0  0  0  0  0  0  0  # atno 10764 bound_to 10752
  153.7145  135.3351  155.3229 H   0  0  0  0  0  0  0  0  0  0  0  0  # atno 10765 bound_to 10752
  140.7724  134.3173  157.5071 H   0  0  0  0  0  0  0  0  0  0  0  0  # atno 11005 bound_to 11000
  146.2596  139.6380  142.9371 LP  0  0  0  0  0  0  0  0  0  0  0  0  # atno 17320 bound_to 7965
  145.4933  141.0438  143.2581 LP  0  0  0  0  0  0  0  0  0  0  0  0  # atno 17321 bound_to 7965
  140.1320  143.4517  152.2248 LP  0  0  0  0  0  0  0  0  0  0  0  0  # atno 17342 bound_to 10162
  139.5662  144.7436  151.4017 LP  0  0  0  0  0  0  0  0  0  0  0  0  # atno 17343 bound_to 10162
  156.7147  130.4662  149.5538 LP  0  0  0  0  0  0  0  0  0  0  0  0  # atno 17370 bound_to 10713
  156.1706  130.6434  151.0832 LP  0  0  0  0  0  0  0  0  0  0  0  0  # atno 17371 bound_to 10713
  139.8754  134.9269  156.3412 LP  0  0  0  0  0  0  0  0  0  0  0  0  # atno 17394 bound_to 11000
  140.9561  133.7419  156.0337 LP  0  0  0  0  0  0  0  0  0  0  0  0  # atno 17395 bound_to 11000

$$$$
