AV-unprocessed.smi:72|AV-procd|sdf|753|dock3
  -GOLD-   2262017 93D 1   1.00000     0.00000
 Structure written by MMmdl.
 29 30  0  0  0  0  0  0  0  0  1 V2000
  147.1888  132.3374  155.4985 N   0  0  0  0  0  0  0  0  0  0  0  0
  147.8395  133.5493  155.5999 C   0  0  0  0  0  0  0  0  0  0  0  0
  147.6784  134.4348  154.5256 N   0  0  0  0  0  0  0  0  0  0  0  0
  148.2849  135.5758  154.6175 C   0  0  0  0  0  0  0  0  0  0  0  0
  149.0916  135.9106  155.7792 N   0  0  0  0  0  0  0  0  0  0  0  0
  149.8121  137.2414  155.9179 C   0  0  2  0  0  0  0  0  0  0  0  0
  148.9392  138.2935  155.6210 O   0  0  0  0  0  0  0  0  0  0  0  0
  149.2849  138.8821  154.3705 C   0  0  1  0  0  0  0  0  0  0  0  0
  148.7504  140.3210  154.2642 C   0  0  0  0  0  0  0  0  0  0  0  0
  149.5762  141.0833  153.4099 O   0  0  0  0  0  0  0  0  0  0  0  0
  150.8114  138.7380  154.3347 C   0  0  1  0  0  0  0  0  0  0  0  0
  151.4398  139.7568  155.0919 O   0  0  0  0  0  0  0  0  0  0  0  0
  151.0380  137.3777  154.9810 C   0  0  2  0  0  0  0  0  0  0  0  0
  151.1084  136.3804  153.9764 O   0  0  0  0  0  0  0  0  0  0  0  0
  149.2144  134.9609  156.8305 C   0  0  0  0  0  0  0  0  0  0  0  0
  149.9033  135.2191  157.8175 O   0  0  0  0  0  0  0  0  0  0  0  0
  148.5361  133.7454  156.6825 N   0  0  0  0  0  0  0  0  0  0  0  0
  150.0692  137.3244  156.9751 H   0  0  0  0  0  0  0  0  0  0  0  0
  148.8738  138.2727  153.5638 H   0  0  0  0  0  0  0  0  0  0  0  0
  151.1996  138.7899  153.3165 H   0  0  0  0  0  0  0  0  0  0  0  0
  151.9572  137.3406  155.5674 H   0  0  0  0  0  0  0  0  0  0  0  0
  147.2333  131.6231  156.2107 H   0  0  0  0  0  0  0  0  0  0  0  0
  146.6224  132.0739  154.7053 H   0  0  0  0  0  0  0  0  0  0  0  0
  148.2264  136.3386  153.8413 H   0  0  0  0  0  0  0  0  0  0  0  0
  147.7202  140.3382  153.9074 H   0  0  0  0  0  0  0  0  0  0  0  0
  148.7656  140.8002  155.2436 H   0  0  0  0  0  0  0  0  0  0  0  0
  149.8935  140.5227  152.7185 H   0  0  0  0  0  0  0  0  0  0  0  0
  151.3119  139.5707  156.0095 H   0  0  0  0  0  0  0  0  0  0  0  0
  150.3878  136.5079  153.3784 H   0  0  0  0  0  0  0  0  0  0  0  0
  1  2  1  0  0  0  0
  1 22  1  0  0  0  0
  1 23  1  0  0  0  0
  2 17  2  0  0  0  0
  2  3  1  0  0  0  0
  3  4  2  0  0  0  0
  4  5  1  0  0  0  0
  4 24  1  0  0  0  0
  5  6  1  0  0  0  0
  5 15  1  0  0  0  0
  6 18  1  0  0  0  0
  6 13  1  0  0  0  0
  6  7  1  0  0  0  0
  7  8  1  0  0  0  0
  8 19  1  0  0  0  0
  8  9  1  0  0  0  0
  8 11  1  0  0  0  0
  9 10  1  0  0  0  0
  9 25  1  0  0  0  0
  9 26  1  0  0  0  0
 10 27  1  0  0  0  0
 11 20  1  0  0  0  0
 11 12  1  0  0  0  0
 11 13  1  0  0  0  0
 12 28  1  0  0  0  0
 13 21  1  0  0  0  0
 13 14  1  0  0  0  0
 14 29  1  0  0  0  0
 15 16  2  0  0  0  0
 15 17  1  0  0  0  0
M  END
> <s_m_source_file>
AV-unprocessed.smi

> <i_m_source_file_index>
72

> <i_lp_mmshare_version>
43012

> <i_f3d_flags>
0

> <s_epik_input>
W05IMl1jMW5bY0hdbihjKD1PKW4xKVtDQEBIXTJPW0NASF0oW0NIMl1bT0hdKVtDQEBIXShbT0hdKVtDQEhdMltPSF0=

> <s_epik_cmdline>
J2VwaWtfcHl0aG9uJywgJy1waCcsICc3LjAnLCAnLXRuJywgJzgnLCAnLW1hJywgJzIwMCcsICctbWV0YWxfYmluZGluZycsICctaW1hZScsICc8aW5maWxlLm1hZT4nLCAnLW9tYWUnLCAnPG91dGZpbGUubWFlPic=

> <r_lp_tautomer_probability>
4.77166e-05

> <r_epik_Ionization_Penalty>
1.3546

> <r_epik_Ionization_Penalty_Charging>
1.46833e-10

> <r_epik_Ionization_Penalty_Neutral>
1.3546

> <r_epik_State_Penalty>
3.51908

> <r_epik_Charging_Adjusted_Penalty>
3.51908

> <i_epik_Tot_Q>
0

> <i_epik_Tot_abs_Q>
0

> <r_epik_Metal_State_Penalty>
3.44088

> <b_epik_Metal_Only>
1

> <s_epik_Chemistry_Notes>
This compound contains an acetal/aminal-like group ( X-CH(R)-Y where X, Y are N, S, or O) that may be acid/base labile, releasing an aldehyde.

> <s_lp_Force_Field>
OPLS_2005

> <r_lp_Energy>
33.7938

> <b_lp_Chiralities_Consistent>
1

> <s_lp_Variant>
AV-unprocessed.smi:72-91

> <Gold.Version>
5.8.1

> <Gold.Id.Protein>
6NUR|6NUR_protein|mol2

> <Gold.PLP.Fitness>
36.0708

> <Gold.PLP.PLP>
-19.5148

> <Gold.PLP.part.hbond>
-7.2145

> <Gold.PLP.part.metal>
0.0000

> <Gold.PLP.part.buried>
-2.7085

> <Gold.PLP.part.nonpolar>
-10.0061

> <Gold.PLP.part.repulsive>
0.0840

> <Gold.PLP.ligand.clash>
0.0000

> <Gold.PLP.ligand.torsion>
0.5633

> <Gold.PLP.Chemscore.Hbond>
4.8783

> <Gold.PLP.Chemscore.CHOScore>
1.0000

> <Gold.PLP.Chemscore.Metal>
0.0000

> <Gold.Chemscore.Hbonds>
donor molecule, donor type, donor heavy atom, donor atom, acceptor molecule, acceptor atom, score
      L1  H    10    27       P1  7957  0.88
      L1  H    14    29       P1  7948  0.29
      P1  H  6896  6907       L1    16  0.70
      P1  H  7989  7998       L1    12  0.55
      P1  H  8011  8017       L1    10  0.35
      P1  H 10752 10763       L1    14  1.00
      L1  C     4    24       P1  7948  0.95

> <Gold.PLP.Chemscore.Internal.Correction>
0.0477

> <Gold.Rescore>
     Score         DG    S(hbond)    S(metal)    S(lipo)     H(rot)  DE(clash)    DE(int)     intcor
      6.31      -7.97       2.92        0.00      26.71       4.06       0.00       1.66       ----

> <Gold.Chemscore.Fitness>
6.3112

> <Gold.Chemscore.DG>
-7.9746

> <Gold.Chemscore.ZeroCoef>
-5.4800

> <Gold.Chemscore.Hbond>
2.9232

> <Gold.Chemscore.Metal>
0.0000

> <Gold.Chemscore.Lipo>
26.7056

> <Gold.Chemscore.Internal_Hbond>
0.0000

> <Gold.Chemscore.DEClash>
0.0009

> <Gold.Chemscore.DEInternal>
1.6625

> <Gold.Chemscore.Rot>
4.0600

> <Gold.Chemscore.Internal.Correction>
   9.000000E+99

> <Gold.Chemscore.Hbonds>
donor molecule, donor type, donor heavy atom, donor atom, acceptor molecule, acceptor atom, score
      L1  H    10    27       P1  7957  0.86
      P1  H  6896  6907       L1    16  0.66
      P1  H  7989  7998       L1    12  0.03
      P1  H  8011  8017       L1    10  0.01
      P1  H 10752 10763       L1    14  0.34

> <Gold.Chemscore.Hbond.Weighted>
-9.7636

> <Gold.Chemscore.Metal.Weighted>
-0.0000

> <Gold.Chemscore.Lipo.Weighted>
-3.1246

> <Gold.Chemscore.Internal_Hbond.Weighted>
0.0000

> <Gold.Chemscore.DEClash.Weighted>
0.0009

> <Gold.Chemscore.DEInternal.Weighted>
1.6625

> <Gold.Chemscore.Rot.Weighted>
10.3936

> <Gold.Chemscore.Internal.Correction.Weighted>
   9.000000E+99

> <Gold.Protein.RotatedTorsions>
[ 6907 6896 6895 6894 ] final  -58.19 input  -60.11 | X-H torsion
[ 7974 7965 7964 7962 ] final   59.20 input  175.53 | X-H torsion
[ 8008 7997 7996 7995 ] final -143.92 input   59.86 | X-H torsion
[ 10167 10162 10161 10158 ] final   -3.26 input  -65.29 | X-H torsion
[ 10718 10713 10712 10709 ] final -143.12 input   66.30 | X-H torsion
[ 10763 10752 10751 10750 ] final   39.30 input  -60.55 | X-H torsion
[ 11005 11000 10999 10996 ] final  -82.12 input  -57.11 | X-H torsion

> <Gold.Protein.ActiveResidues>
 VAL166  LYS551  ARG553  GLY616  TRP617  ASP618  TYR619  PRO620  LYS621  CYS622 
 ASP623  PHE694  ASN695  SER759  ASP760  ASP761  ALA762  ILE779  LEU786  VAL792 
 PHE793  MET794  SER795  GLU796  ALA797  LYS798  CYS799  TRP800  GLU811  SER814 

> <Gold.Protein.RotatedAtoms>
  150.8027  134.7131  159.6614 H   0  0  0  0  0  0  0  0  0  0  0  0  # atno 6907 bound_to 6896
  152.4144  134.6064  160.0023 H   0  0  0  0  0  0  0  0  0  0  0  0  # atno 6908 bound_to 6896
  151.6297  133.3296  159.3142 H   0  0  0  0  0  0  0  0  0  0  0  0  # atno 6909 bound_to 6896
  145.9098  139.3645  143.0542 H   0  0  0  0  0  0  0  0  0  0  0  0  # atno 7974 bound_to 7965
  155.5185  140.0589  157.2911 H   0  0  0  0  0  0  0  0  0  0  0  0  # atno 8008 bound_to 7997
  154.4526  140.1956  156.0420 H   0  0  0  0  0  0  0  0  0  0  0  0  # atno 8009 bound_to 7997
  156.0735  140.3257  155.7609 H   0  0  0  0  0  0  0  0  0  0  0  0  # atno 8010 bound_to 7997
  140.6883  143.6560  150.8308 H   0  0  0  0  0  0  0  0  0  0  0  0  # atno 10167 bound_to 10162
  156.3541  130.7703  151.1861 H   0  0  0  0  0  0  0  0  0  0  0  0  # atno 10718 bound_to 10713
  152.9972  135.6224  154.2443 H   0  0  0  0  0  0  0  0  0  0  0  0  # atno 10763 bound_to 10752
  154.2183  135.2797  155.2936 H   0  0  0  0  0  0  0  0  0  0  0  0  # atno 10764 bound_to 10752
  154.5550  135.5722  153.7014 H   0  0  0  0  0  0  0  0  0  0  0  0  # atno 10765 bound_to 10752
  141.1664  133.7229  156.8524 H   0  0  0  0  0  0  0  0  0  0  0  0  # atno 11005 bound_to 11000
  145.8686  140.9433  143.0662 LP  0  0  0  0  0  0  0  0  0  0  0  0  # atno 17320 bound_to 7965
  144.6742  140.0625  143.7475 LP  0  0  0  0  0  0  0  0  0  0  0  0  # atno 17321 bound_to 7965
  140.0270  143.5483  152.2776 LP  0  0  0  0  0  0  0  0  0  0  0  0  # atno 17342 bound_to 10162
  139.6262  144.7637  151.2634 LP  0  0  0  0  0  0  0  0  0  0  0  0  # atno 17343 bound_to 10162
  157.7465  131.0419  150.4669 LP  0  0  0  0  0  0  0  0  0  0  0  0  # atno 17370 bound_to 10713
  156.4869  130.4086  149.6429 LP  0  0  0  0  0  0  0  0  0  0  0  0  # atno 17371 bound_to 10713
  140.1906  134.8968  157.3056 LP  0  0  0  0  0  0  0  0  0  0  0  0  # atno 17394 bound_to 11000
  140.2294  134.3927  155.7528 LP  0  0  0  0  0  0  0  0  0  0  0  0  # atno 17395 bound_to 11000

$$$$
