#       Name:                AV-unprocessed.smi:2711
#       Creating user name   scv26
#       Creation time:       Fri Mar 27 14:51:26 2020


#       File generated by GOLD software.
#

@<TRIPOS>MOLECULE
AV-unprocessed.smi:2711
    39    40     1
SMALL
NO_CHARGES


@<TRIPOS>ATOM
      1 ****        -6.3547   2.7284  -0.2608 C.3            1 S1                 0.0000
      2 ****        -5.0593   2.5895   0.4646 C.2            1 S1                 0.0000
      3 ****        -4.8662   2.4685   1.8164 C.2            1 S1                 0.0000
      4 ****        -3.5245   2.3555   2.1842 N.2            1 S1                 0.0000
      5 ****        -2.6849   2.3791   1.1437 C.2            1 S1                 0.0000
      6 ****        -1.3513   2.2930   1.2775 N.pl3          1 S1                -1.0000
      7 ****        -0.7212   1.1197   1.0417 C.2            1 S1                 0.0000
      8 ****        -1.2517   0.0609   0.6971 O.2            1 S1                 0.0000
      9 ****         0.6075   1.1762   1.2170 N.am           1 S1                 0.0000
     10 ****         1.5450   0.0689   1.0367 C.3            1 S1                 0.0000
     11 ****         1.9728  -0.1424  -0.4276 C.2            1 S1                 0.0000
     12 ****         1.7009   0.7065  -1.2786 O.2            1 S1                 0.0000
     13 ****         2.6597  -1.2630  -0.7327 N.am           1 S1                 0.0000
     14 ****         3.0518  -2.3088   0.2113 C.3            1 S1                 0.0000
     15 ****         4.0154  -3.2162  -0.5542 C.3            1 S1                 0.0000
     16 ****         3.6255  -3.0270  -2.0135 C.3            1 S1                 0.0000
     17 ****         3.1213  -1.5853  -2.0815 C.3            1 S1                 0.0000
     18 ****        -3.5401   2.5631  -0.3898 S.3            1 S1                 0.0000
     19 ****        -6.8453   1.7603  -0.3611 H              1 S1                 0.0000
     20 ****        -6.2040   3.1358  -1.2607 H              1 S1                 0.0000
     21 ****        -7.0296   3.3961   0.2748 H              1 S1                 0.0000
     22 ****        -5.6225   2.4546   2.5872 H              1 S1                 0.0000
     23 ****         0.9995   2.0647   1.4918 H              1 S1                 0.0000
     24 ****         2.4334   0.2822   1.6312 H              1 S1                 0.0000
     25 ****         1.1085  -0.8461   1.4400 H              1 S1                 0.0000
     26 ****         3.5236  -1.9041   1.1077 H              1 S1                 0.0000
     27 ****         2.1639  -2.8661   0.5135 H              1 S1                 0.0000
     28 ****         5.0395  -2.8718  -0.4035 H              1 S1                 0.0000
     29 ****         3.9622  -4.2569  -0.2327 H              1 S1                 0.0000
     30 ****         4.4491  -3.2201  -2.7013 H              1 S1                 0.0000
     31 ****         2.8131  -3.7105  -2.2645 H              1 S1                 0.0000
     32 ****         2.3286  -1.4767  -2.8234 H              1 S1                 0.0000
     33 ****         3.9326  -0.9069  -2.3499 H              1 S1                 0.0000
     34 ****        -3.2209   2.2657   3.1327 LP             1 S1                 0.0000
     35 ****        -0.8237   3.0970   1.5517 LP             1 S1                 0.0000
     36 ****        -2.2422   0.0171   0.5667 LP             1 S1                 0.0000
     37 ****        -0.6913  -0.7539   0.5481 LP             1 S1                 0.0000
     38 ****         1.2022   1.5333  -1.0186 LP             1 S1                 0.0000
     39 ****         1.9791   0.5685  -2.2292 LP             1 S1                 0.0000
@<TRIPOS>BOND
    1    1    2 1     
    2    1   19 1     
    3    1   20 1     
    4    1   21 1     
    5    2   18 1     
    6    2    3 2     
    7    3    4 1     
    8    3   22 1     
    9    4    5 2     
   10    5    6 1     
   11    5   18 1     
   12    6    7 1     
   13    7    8 2     
   14    7    9 am    
   15    9   10 1     
   16    9   23 1     
   17   10   11 1     
   18   10   24 1     
   19   10   25 1     
   20   11   12 2     
   21   11   13 am    
   22   13   17 1     
   23   13   14 1     
   24   14   15 1     
   25   14   26 1     
   26   14   27 1     
   27   15   16 1     
   28   15   28 1     
   29   15   29 1     
   30   16   17 1     
   31   16   30 1     
   32   16   31 1     
   33   17   32 1     
   34   17   33 1     
   35    4   34 1     
   36    6   35 1     
   37    8   36 1     
   38    8   37 1     
   39   12   38 1     
   40   12   39 1     
@<TRIPOS>SUBSTRUCTURE
      1 S1             1
@<TRIPOS>SET
LONE_PAIRS      STATIC     ATOMS    <user>   **** ""
6 34 35 36 37 38 39
DONOR_HYDROGENS      STATIC     ATOMS    <user>   **** ""
1 23
ATOM$BLUE        STATIC     ATOMS    COLORGROUP SYSTEM
6 34 35 36 37 38 39
ATOM$RED        STATIC     ATOMS    COLORGROUP SYSTEM
1 23
