AV-unprocessed.smi:2032|AV-procd|sdf|8236|dock2
  -GOLD-   2272010503D 1   1.00000     0.00000
 Structure written by MMmdl.
 42 43  0  0  0  0  0  0  0  0  1 V2000
  149.8270  141.3711  155.7059 C   0  0  0  0  0  0  0  0  0  0  0  0
  150.1898  139.8824  155.7072 C   0  0  1  0  0  0  0  0  0  0  0  0
  148.9413  138.9845  155.7581 C   0  0  0  0  0  0  0  0  0  0  0  0
  149.2706  137.5600  155.6813 N   0  0  0  0  0  0  0  0  0  0  0  0
  148.0739  136.6941  155.7690 C   0  0  1  0  0  0  0  0  0  0  0  0
  147.5045  136.5723  157.2006 C   0  0  0  0  0  0  0  0  0  0  0  0
  146.9222  137.1121  154.8168 C   0  0  0  0  0  0  0  0  0  0  0  0
  146.8530  136.2708  153.6233 N   0  0  0  0  0  0  0  0  0  0  0  0
  145.8617  135.4206  153.3212 C   0  0  0  0  0  0  0  0  0  0  0  0
  144.8854  135.2272  154.0464 O   0  0  0  0  0  0  0  0  0  0  0  0
  146.0788  134.8267  152.1347 N   0  0  0  0  0  0  0  0  0  0  0  0
  145.2580  133.8845  151.4611 C   0  0  0  0  0  0  0  0  0  0  0  0
  143.9237  133.8441  151.5531 N   0  0  0  0  0  0  0  0  0  0  0  0
  143.3760  132.8144  150.7837 C   0  0  0  0  0  0  0  0  0  0  0  0
  144.3145  132.0758  150.1070 C   0  0  0  0  0  0  0  0  0  0  0  0
  145.9336  132.6472  150.4113 S   0  0  0  0  0  0  0  0  0  0  0  0
  150.0387  137.3366  154.4534 C   0  0  0  0  0  0  0  0  0  0  0  0
  151.2842  138.2381  154.3386 C   0  0  2  0  0  0  0  0  0  0  0  0
  152.4291  137.8172  155.2758 C   0  0  0  0  0  0  0  0  0  0  0  0
  150.9260  139.6069  154.5196 O   0  0  0  0  0  0  0  0  0  0  0  0
  149.2627  141.6387  156.5994 H   0  0  0  0  0  0  0  0  0  0  0  0
  149.2209  141.6286  154.8369 H   0  0  0  0  0  0  0  0  0  0  0  0
  150.7241  141.9903  155.6820 H   0  0  0  0  0  0  0  0  0  0  0  0
  150.8157  139.6838  156.5778 H   0  0  0  0  0  0  0  0  0  0  0  0
  148.4204  139.2074  156.6877 H   0  0  0  0  0  0  0  0  0  0  0  0
  148.2632  139.2508  154.9456 H   0  0  0  0  0  0  0  0  0  0  0  0
  148.3667  135.6866  155.4696 H   0  0  0  0  0  0  0  0  0  0  0  0
  146.5560  136.0346  157.2047 H   0  0  0  0  0  0  0  0  0  0  0  0
  147.3291  137.5516  157.6472 H   0  0  0  0  0  0  0  0  0  0  0  0
  148.1695  136.0164  157.8606 H   0  0  0  0  0  0  0  0  0  0  0  0
  145.9606  137.0565  155.3257 H   0  0  0  0  0  0  0  0  0  0  0  0
  147.0212  138.1641  154.5439 H   0  0  0  0  0  0  0  0  0  0  0  0
  147.6100  136.3680  152.9625 H   0  0  0  0  0  0  0  0  0  0  0  0
  146.9267  135.0853  151.6522 H   0  0  0  0  0  0  0  0  0  0  0  0
  142.3046  132.6782  150.7761 H   0  0  0  0  0  0  0  0  0  0  0  0
  144.1519  131.2336  149.4510 H   0  0  0  0  0  0  0  0  0  0  0  0
  150.3712  136.3017  154.3877 H   0  0  0  0  0  0  0  0  0  0  0  0
  149.3956  137.5108  153.5893 H   0  0  0  0  0  0  0  0  0  0  0  0
  151.6630  138.1556  153.3195 H   0  0  0  0  0  0  0  0  0  0  0  0
  152.7701  136.8085  155.0413 H   0  0  0  0  0  0  0  0  0  0  0  0
  152.1261  137.8219  156.3227 H   0  0  0  0  0  0  0  0  0  0  0  0
  153.2829  138.4866  155.1712 H   0  0  0  0  0  0  0  0  0  0  0  0
  1  2  1  0  0  0  0
  1 21  1  0  0  0  0
  1 22  1  0  0  0  0
  1 23  1  0  0  0  0
  2 20  1  0  0  0  0
  2  3  1  0  0  0  0
  2 24  1  0  0  0  0
  3  4  1  0  0  0  0
  3 25  1  0  0  0  0
  3 26  1  0  0  0  0
  4  5  1  0  0  0  0
  4 17  1  0  0  0  0
  5  6  1  0  0  0  0
  5  7  1  0  0  0  0
  5 27  1  0  0  0  0
  6 28  1  0  0  0  0
  6 29  1  0  0  0  0
  6 30  1  0  0  0  0
  7  8  1  0  0  0  0
  7 31  1  0  0  0  0
  7 32  1  0  0  0  0
  8  9  1  0  0  0  0
  8 33  1  0  0  0  0
  9 10  2  0  0  0  0
  9 11  1  0  0  0  0
 11 12  1  0  0  0  0
 11 34  1  0  0  0  0
 12 16  1  0  0  0  0
 12 13  2  0  0  0  0
 13 14  1  0  0  0  0
 14 15  2  0  0  0  0
 14 35  1  0  0  0  0
 15 16  1  0  0  0  0
 15 36  1  0  0  0  0
 17 18  1  0  0  0  0
 17 37  1  0  0  0  0
 17 38  1  0  0  0  0
 18 19  1  0  0  0  0
 18 20  1  0  0  0  0
 18 39  1  0  0  0  0
 19 40  1  0  0  0  0
 19 41  1  0  0  0  0
 19 42  1  0  0  0  0
M  END
> <s_m_source_file>
AV-unprocessed.smi

> <i_m_source_file_index>
2032

> <i_lp_mmshare_version>
43012

> <i_f3d_flags>
0

> <s_epik_input>
W0NIM11bQ0BASF0xW0NIMl1OKFtDSDJdW0NASF0oTzEpW0NIM10pW0NASF0oW0NIM10pW0NIMl1bTkhdQyg9TylbTkhdYzJuW2NIXVtjSF1zMg==

> <s_epik_cmdline>
J2VwaWtfcHl0aG9uJywgJy1waCcsICc3LjAnLCAnLXRuJywgJzgnLCAnLW1hJywgJzIwMCcsICctbWV0YWxfYmluZGluZycsICctaW1hZScsICc8aW5maWxlLm1hZT4nLCAnLW9tYWUnLCAnPG91dGZpbGUubWFlPic=

> <r_lp_tautomer_probability>
0.999

> <r_epik_Ionization_Penalty>
0.219202

> <r_epik_Ionization_Penalty_Charging>
0

> <r_epik_Ionization_Penalty_Neutral>
0.219202

> <r_epik_State_Penalty>
0.209349

> <r_epik_Charging_Adjusted_Penalty>
0.209349

> <i_epik_Tot_Q>
0

> <i_epik_Tot_abs_Q>
0

> <r_epik_Metal_State_Penalty>
0.247737

> <b_epik_Metal_Only>
0

> <s_lp_Force_Field>
OPLS_2005

> <r_lp_Energy>
32.3781

> <b_lp_Chiralities_Consistent>
1

> <s_lp_Variant>
AV-unprocessed.smi:2032-6

> <Gold.Version>
5.8.1

> <Gold.Id.Protein>
6NUR|6NUR_protein|mol2

> <Gold.PLP.Fitness>
38.3652

> <Gold.PLP.PLP>
-28.4607

> <Gold.PLP.part.hbond>
-3.0000

> <Gold.PLP.part.metal>
0.0000

> <Gold.PLP.part.buried>
-4.8986

> <Gold.PLP.part.nonpolar>
-22.0509

> <Gold.PLP.part.repulsive>
0.2939

> <Gold.PLP.ligand.clash>
0.0000

> <Gold.PLP.ligand.torsion>
1.0738

> <Gold.PLP.Chemscore.Hbond>
3.0000

> <Gold.PLP.Chemscore.CHOScore>
1.0000

> <Gold.PLP.Chemscore.Metal>
0.0000

> <Gold.Chemscore.Hbonds>
donor molecule, donor type, donor heavy atom, donor atom, acceptor molecule, acceptor atom, score
      L1  H     8    33       P1  7948  1.00
      L1  H    11    34       P1  7948  0.31
      P1  H  7989  7998       L1    20  1.00
      L1  C    14    35       P1 10186  0.73

> <Gold.PLP.Chemscore.Internal.Correction>
0.0521

> <Gold.Rescore>
     Score         DG    S(hbond)    S(metal)    S(lipo)     H(rot)  DE(clash)    DE(int)     intcor
     17.68     -18.88       2.91        0.00      65.84       1.57       0.00       1.19       ----

> <Gold.Chemscore.Fitness>
17.6802

> <Gold.Chemscore.DG>
-18.8757

> <Gold.Chemscore.ZeroCoef>
-5.4800

> <Gold.Chemscore.Hbond>
2.9116

> <Gold.Chemscore.Metal>
0.0000

> <Gold.Chemscore.Lipo>
65.8360

> <Gold.Chemscore.Internal_Hbond>
0.0000

> <Gold.Chemscore.DEClash>
0.0044

> <Gold.Chemscore.DEInternal>
1.1911

> <Gold.Chemscore.Rot>
1.5750

> <Gold.Chemscore.Internal.Correction>
   9.000000E+99

> <Gold.Chemscore.Hbonds>
donor molecule, donor type, donor heavy atom, donor atom, acceptor molecule, acceptor atom, score
      L1  H     8    33       P1  7948  1.00
      L1  H    11    34       P1  7948  0.30
      P1  H  7989  7998       L1    20  0.97

> <Gold.Chemscore.Hbond.Weighted>
-9.7248

> <Gold.Chemscore.Metal.Weighted>
-0.0000

> <Gold.Chemscore.Lipo.Weighted>
-7.7028

> <Gold.Chemscore.Internal_Hbond.Weighted>
0.0000

> <Gold.Chemscore.DEClash.Weighted>
0.0044

> <Gold.Chemscore.DEInternal.Weighted>
1.1911

> <Gold.Chemscore.Rot.Weighted>
4.0319

> <Gold.Chemscore.Internal.Correction.Weighted>
   9.000000E+99

> <Gold.Protein.RotatedTorsions>
[ 6907 6896 6895 6894 ] final  -96.91 input  -60.11 | X-H torsion
[ 7974 7965 7964 7962 ] final -174.73 input  175.53 | X-H torsion
[ 8008 7997 7996 7995 ] final  -39.54 input   59.86 | X-H torsion
[ 10167 10162 10161 10158 ] final  -78.41 input  -65.29 | X-H torsion
[ 10718 10713 10712 10709 ] final  -79.53 input   66.30 | X-H torsion
[ 10763 10752 10751 10750 ] final -158.92 input  -60.55 | X-H torsion
[ 11005 11000 10999 10996 ] final  -32.94 input  -57.11 | X-H torsion

> <Gold.Protein.ActiveResidues>
 VAL166  LYS551  ARG553  GLY616  TRP617  ASP618  TYR619  PRO620  LYS621  CYS622 
 ASP623  PHE694  ASN695  SER759  ASP760  ASP761  ALA762  ILE779  LEU786  VAL792 
 PHE793  MET794  SER795  GLU796  ALA797  LYS798  CYS799  TRP800  GLU811  SER814 

> <Gold.Protein.RotatedAtoms>
  150.7001  134.1429  159.4111 H   0  0  0  0  0  0  0  0  0  0  0  0  # atno 6907 bound_to 6896
  151.9413  135.0209  160.0545 H   0  0  0  0  0  0  0  0  0  0  0  0  # atno 6908 bound_to 6896
  152.2091  133.4862  159.5137 H   0  0  0  0  0  0  0  0  0  0  0  0  # atno 6909 bound_to 6896
  144.7130  140.1427  143.6390 H   0  0  0  0  0  0  0  0  0  0  0  0  # atno 7974 bound_to 7965
  154.4022  140.1549  156.2881 H   0  0  0  0  0  0  0  0  0  0  0  0  # atno 8008 bound_to 7997
  155.8810  140.3444  155.5866 H   0  0  0  0  0  0  0  0  0  0  0  0  # atno 8009 bound_to 7997
  155.7667  140.0825  157.2119 H   0  0  0  0  0  0  0  0  0  0  0  0  # atno 8010 bound_to 7997
  140.4685  143.2433  151.8242 H   0  0  0  0  0  0  0  0  0  0  0  0  # atno 10167 bound_to 10162
  156.0090  130.4548  150.3662 H   0  0  0  0  0  0  0  0  0  0  0  0  # atno 10718 bound_to 10713
  154.7517  135.3094  154.8544 H   0  0  0  0  0  0  0  0  0  0  0  0  # atno 10763 bound_to 10752
  153.9330  135.6783  153.4749 H   0  0  0  0  0  0  0  0  0  0  0  0  # atno 10764 bound_to 10752
  153.1113  135.4865  154.8969 H   0  0  0  0  0  0  0  0  0  0  0  0  # atno 10765 bound_to 10752
  140.9594  133.7173  156.1345 H   0  0  0  0  0  0  0  0  0  0  0  0  # atno 11005 bound_to 11000
  145.9187  139.2532  143.1394 LP  0  0  0  0  0  0  0  0  0  0  0  0  # atno 17320 bound_to 7965
  145.9642  140.8811  143.0195 LP  0  0  0  0  0  0  0  0  0  0  0  0  # atno 17321 bound_to 7965
  139.4815  144.4921  151.9171 LP  0  0  0  0  0  0  0  0  0  0  0  0  # atno 17342 bound_to 10162
  140.4007  144.2497  150.5893 LP  0  0  0  0  0  0  0  0  0  0  0  0  # atno 17343 bound_to 10162
  157.1748  131.0378  151.2777 LP  0  0  0  0  0  0  0  0  0  0  0  0  # atno 17370 bound_to 10713
  157.4197  130.7431  149.6904 LP  0  0  0  0  0  0  0  0  0  0  0  0  # atno 17371 bound_to 10713
  140.7489  134.4067  157.5544 LP  0  0  0  0  0  0  0  0  0  0  0  0  # atno 17394 bound_to 11000
  139.8873  134.8886  156.2537 LP  0  0  0  0  0  0  0  0  0  0  0  0  # atno 17395 bound_to 11000

$$$$
