AV-unprocessed.smi:142|AV-procd|sdf|1191|dock4
  -GOLD-   2262018343D 1   1.00000     0.00000
 Structure written by MMmdl.
 52 55  0  0  0  0  0  0  0  0  1 V2000
  149.8173  139.8483  154.7072 C   0  0  0  0  0  0  0  0  0  0  0  0
  150.9182  139.2915  155.6200 C   0  0  2  0  0  0  0  0  0  0  0  0
  150.4211  138.0967  156.2996 N   0  0  0  0  0  0  0  0  0  0  0  0
  150.8678  136.8482  156.0954 C   0  0  0  0  0  0  0  0  0  0  0  0
  151.7261  136.5678  155.2574 O   0  0  0  0  0  0  0  0  0  0  0  0
  150.2441  135.7603  156.9818 C   0  0  0  0  0  0  0  0  0  0  0  0
  149.7973  134.5759  156.2169 N   0  0  0  0  0  0  0  0  0  0  0  0
  148.8259  134.7582  155.2009 C   0  0  0  0  0  0  0  0  0  0  0  0
  148.3767  135.8756  154.9405 O   0  0  0  0  0  0  0  0  0  0  0  0
  148.3992  133.5450  154.5132 C   0  0  0  0  0  0  0  0  0  0  0  0
  147.4703  133.6199  153.5449 F   0  0  0  0  0  0  0  0  0  0  0  0
  148.9199  132.3437  154.8380 C   0  0  0  0  0  0  0  0  0  0  0  0
  149.8813  132.1819  155.8161 N   0  0  0  0  0  0  0  0  0  0  0  0
  150.3672  130.7905  156.1506 C   0  0  1  0  0  0  0  0  0  0  0  0
  149.6006  129.6744  155.4156 C   0  0  0  0  0  0  0  0  0  0  0  0
  150.6990  128.9550  154.6494 C   0  0  0  0  0  0  0  0  0  0  0  0
  151.9577  129.3439  155.4166 C   0  0  0  0  0  0  0  0  0  0  0  0
  151.7106  130.6903  155.7908 O   0  0  0  0  0  0  0  0  0  0  0  0
  150.3212  133.3048  156.5546 C   0  0  0  0  0  0  0  0  0  0  0  0
  151.1321  133.1818  157.4737 O   0  0  0  0  0  0  0  0  0  0  0  0
  151.4242  140.3655  156.5803 C   0  0  0  0  0  0  0  0  0  0  0  0
  151.0886  141.7160  156.3450 C   0  0  0  0  0  0  0  0  0  0  0  0
  151.5348  142.7267  157.2183 C   0  0  0  0  0  0  0  0  0  0  0  0
  152.3217  142.3953  158.3396 C   0  0  0  0  0  0  0  0  0  0  0  0
  152.7724  143.4022  159.2183 C   0  0  0  0  0  0  0  0  0  0  0  0
  153.5580  143.0624  160.3369 C   0  0  0  0  0  0  0  0  0  0  0  0
  153.8957  141.7169  160.5803 C   0  0  0  0  0  0  0  0  0  0  0  0
  153.4486  140.7074  159.7059 C   0  0  0  0  0  0  0  0  0  0  0  0
  152.6605  141.0419  158.5854 C   0  0  0  0  0  0  0  0  0  0  0  0
  152.2082  140.0345  157.7098 C   0  0  0  0  0  0  0  0  0  0  0  0
  150.1799  140.6994  154.1304 H   0  0  0  0  0  0  0  0  0  0  0  0
  148.9546  140.1820  155.2850 H   0  0  0  0  0  0  0  0  0  0  0  0
  149.4737  139.0943  153.9983 H   0  0  0  0  0  0  0  0  0  0  0  0
  151.7535  138.9907  154.9843 H   0  0  0  0  0  0  0  0  0  0  0  0
  149.7101  138.2360  157.0027 H   0  0  0  0  0  0  0  0  0  0  0  0
  150.9647  135.4662  157.7471 H   0  0  0  0  0  0  0  0  0  0  0  0
  149.4262  136.2083  157.5477 H   0  0  0  0  0  0  0  0  0  0  0  0
  148.5645  131.4749  154.3029 H   0  0  0  0  0  0  0  0  0  0  0  0
  150.2787  130.6928  157.2337 H   0  0  0  0  0  0  0  0  0  0  0  0
  149.1468  129.0181  156.1589 H   0  0  0  0  0  0  0  0  0  0  0  0
  148.8116  130.0611  154.7700 H   0  0  0  0  0  0  0  0  0  0  0  0
  150.5486  127.8764  154.6017 H   0  0  0  0  0  0  0  0  0  0  0  0
  150.7552  129.3318  153.6278 H   0  0  0  0  0  0  0  0  0  0  0  0
  152.0725  128.7314  156.3123 H   0  0  0  0  0  0  0  0  0  0  0  0
  152.8636  129.2528  154.8167 H   0  0  0  0  0  0  0  0  0  0  0  0
  150.4852  141.9819  155.4894 H   0  0  0  0  0  0  0  0  0  0  0  0
  151.2700  143.7557  157.0229 H   0  0  0  0  0  0  0  0  0  0  0  0
  152.5190  144.4371  159.0390 H   0  0  0  0  0  0  0  0  0  0  0  0
  153.9026  143.8344  161.0087 H   0  0  0  0  0  0  0  0  0  0  0  0
  154.4988  141.4586  161.4383 H   0  0  0  0  0  0  0  0  0  0  0  0
  153.7141  139.6779  159.8989 H   0  0  0  0  0  0  0  0  0  0  0  0
  152.4671  139.0049  157.9102 H   0  0  0  0  0  0  0  0  0  0  0  0
  1  2  1  0  0  0  0
  1 31  1  0  0  0  0
  1 32  1  0  0  0  0
  1 33  1  0  0  0  0
  2  3  1  0  0  0  0
  2 21  1  0  0  0  0
  2 34  1  0  0  0  0
  3  4  1  0  0  0  0
  3 35  1  0  0  0  0
  4  5  2  0  0  0  0
  4  6  1  0  0  0  0
  6  7  1  0  0  0  0
  6 36  1  0  0  0  0
  6 37  1  0  0  0  0
  7 19  1  0  0  0  0
  7  8  1  0  0  0  0
  8  9  2  0  0  0  0
  8 10  1  0  0  0  0
 10 11  1  0  0  0  0
 10 12  2  0  0  0  0
 12 13  1  0  0  0  0
 12 38  1  0  0  0  0
 13 14  1  0  0  0  0
 13 19  1  0  0  0  0
 14 18  1  0  0  0  0
 14 15  1  0  0  0  0
 14 39  1  0  0  0  0
 15 16  1  0  0  0  0
 15 40  1  0  0  0  0
 15 41  1  0  0  0  0
 16 17  1  0  0  0  0
 16 42  1  0  0  0  0
 16 43  1  0  0  0  0
 17 18  1  0  0  0  0
 17 44  1  0  0  0  0
 17 45  1  0  0  0  0
 19 20  2  0  0  0  0
 21 30  1  0  0  0  0
 21 22  2  0  0  0  0
 22 23  1  0  0  0  0
 22 46  1  0  0  0  0
 23 24  2  0  0  0  0
 23 47  1  0  0  0  0
 24 29  1  0  0  0  0
 24 25  1  0  0  0  0
 25 26  2  0  0  0  0
 25 48  1  0  0  0  0
 26 27  1  0  0  0  0
 26 49  1  0  0  0  0
 27 28  2  0  0  0  0
 27 50  1  0  0  0  0
 28 29  1  0  0  0  0
 28 51  1  0  0  0  0
 29 30  2  0  0  0  0
 30 52  1  0  0  0  0
M  END
> <s_m_source_file>
AV-unprocessed.smi

> <i_m_source_file_index>
142

> <i_lp_mmshare_version>
43012

> <i_f3d_flags>
0

> <s_epik_input>
W2NIXTFbY0hdW2NIXVtjSF1jKGMxMilbY0hdYyhbY0hdW2NIXTIpW0NASF0oW0NIM10pW05IXUMoPU8pW0NIMl1uM2MoPU8pYyhGKVtjSF1uKGMzPU8pW0NAQEhdNFtDSDJdW0NIMl1bQ0gyXU80

> <s_epik_cmdline>
J2VwaWtfcHl0aG9uJywgJy1waCcsICc3LjAnLCAnLXRuJywgJzgnLCAnLW1hJywgJzIwMCcsICctbWV0YWxfYmluZGluZycsICctaW1hZScsICc8aW5maWxlLm1hZT4nLCAnLW9tYWUnLCAnPG91dGZpbGUubWFlPic=

> <r_lp_tautomer_probability>
1

> <r_epik_Ionization_Penalty>
3.35688e-08

> <r_epik_Ionization_Penalty_Charging>
3.59856e-09

> <r_epik_Ionization_Penalty_Neutral>
2.99702e-08

> <r_epik_State_Penalty>
-0

> <r_epik_Charging_Adjusted_Penalty>
3.59856e-09

> <i_epik_Tot_Q>
0

> <i_epik_Tot_abs_Q>
0

> <r_epik_Metal_State_Penalty>
-0

> <b_epik_Metal_Only>
0

> <s_epik_Chemistry_Notes>
This compound contains an acetal/aminal-like group ( X-CH(R)-Y where X, Y are N, S, or O) that may be acid/base labile, releasing an aldehyde.

> <s_lp_Force_Field>
OPLS_2005

> <r_lp_Energy>
25.6775

> <b_lp_Chiralities_Consistent>
1

> <s_lp_Variant>
AV-unprocessed.smi:142-3

> <Gold.Version>
5.8.1

> <Gold.Id.Protein>
6NUR|6NUR_protein|mol2

> <Gold.PLP.Fitness>
62.1645

> <Gold.PLP.PLP>
-58.5966

> <Gold.PLP.part.hbond>
-1.7647

> <Gold.PLP.part.metal>
0.0000

> <Gold.PLP.part.buried>
-4.7817

> <Gold.PLP.part.nonpolar>
-54.6955

> <Gold.PLP.part.repulsive>
1.9588

> <Gold.PLP.ligand.clash>
0.0000

> <Gold.PLP.ligand.torsion>
0.7030

> <Gold.PLP.Chemscore.Hbond>
1.6313

> <Gold.PLP.Chemscore.CHOScore>
0.0000

> <Gold.PLP.Chemscore.Metal>
0.0000

> <Gold.Chemscore.Hbonds>
donor molecule, donor type, donor heavy atom, donor atom, acceptor molecule, acceptor atom, score
      P1  H  6896  6909       L1    20  0.74
      P1  H 10752 10763       L1     5  1.00

> <Gold.PLP.Chemscore.Internal.Correction>
0.0802

> <Gold.Rescore>
     Score         DG    S(hbond)    S(metal)    S(lipo)     H(rot)  DE(clash)    DE(int)     intcor
     18.33     -21.19       1.66        0.00     131.13       2.02       0.01       2.84       ----

> <Gold.Chemscore.Fitness>
18.3341

> <Gold.Chemscore.DG>
-21.1858

> <Gold.Chemscore.ZeroCoef>
-5.4800

> <Gold.Chemscore.Hbond>
1.6552

> <Gold.Chemscore.Metal>
0.0000

> <Gold.Chemscore.Lipo>
131.1296

> <Gold.Chemscore.Internal_Hbond>
0.0000

> <Gold.Chemscore.DEClash>
0.0148

> <Gold.Chemscore.DEInternal>
2.8368

> <Gold.Chemscore.Rot>
2.0175

> <Gold.Chemscore.Internal.Correction>
   9.000000E+99

> <Gold.Chemscore.Hbonds>
donor molecule, donor type, donor heavy atom, donor atom, acceptor molecule, acceptor atom, score
      P1  H  6896  6909       L1    20  0.72
      P1  H 10752 10763       L1     5  1.00

> <Gold.Chemscore.Hbond.Weighted>
-5.5285

> <Gold.Chemscore.Metal.Weighted>
-0.0000

> <Gold.Chemscore.Lipo.Weighted>
-15.3422

> <Gold.Chemscore.Internal_Hbond.Weighted>
0.0000

> <Gold.Chemscore.DEClash.Weighted>
0.0148

> <Gold.Chemscore.DEInternal.Weighted>
2.8368

> <Gold.Chemscore.Rot.Weighted>
5.1648

> <Gold.Chemscore.Internal.Correction.Weighted>
   9.000000E+99

> <Gold.Protein.RotatedTorsions>
[ 6907 6896 6895 6894 ] final  -50.53 input  -60.11 | X-H torsion
[ 7974 7965 7964 7962 ] final   94.00 input  175.53 | X-H torsion
[ 8008 7997 7996 7995 ] final  -78.08 input   59.86 | X-H torsion
[ 10167 10162 10161 10158 ] final  169.79 input  -65.29 | X-H torsion
[ 10718 10713 10712 10709 ] final -135.58 input   66.30 | X-H torsion
[ 10763 10752 10751 10750 ] final   62.88 input  -60.55 | X-H torsion
[ 11005 11000 10999 10996 ] final  147.27 input  -57.11 | X-H torsion

> <Gold.Protein.ActiveResidues>
 VAL166  LYS551  ARG553  GLY616  TRP617  ASP618  TYR619  PRO620  LYS621  CYS622 
 ASP623  PHE694  ASN695  SER759  ASP760  ASP761  ALA762  ILE779  LEU786  VAL792 
 PHE793  MET794  SER795  GLU796  ALA797  LYS798  CYS799  TRP800  GLU811  SER814 

> <Gold.Protein.RotatedAtoms>
  150.8698  134.8069  159.7145 H   0  0  0  0  0  0  0  0  0  0  0  0  # atno 6907 bound_to 6896
  152.4707  134.4965  159.9721 H   0  0  0  0  0  0  0  0  0  0  0  0  # atno 6908 bound_to 6896
  151.5055  133.3457  159.2911 H   0  0  0  0  0  0  0  0  0  0  0  0  # atno 6909 bound_to 6896
  145.4715  139.2282  143.2932 H   0  0  0  0  0  0  0  0  0  0  0  0  # atno 7974 bound_to 7965
  154.5655  140.0700  156.8885 H   0  0  0  0  0  0  0  0  0  0  0  0  # atno 8008 bound_to 7997
  155.2730  140.3366  155.4245 H   0  0  0  0  0  0  0  0  0  0  0  0  # atno 8009 bound_to 7997
  156.2077  140.1746  156.7749 H   0  0  0  0  0  0  0  0  0  0  0  0  # atno 8010 bound_to 7997
  139.5001  144.3667  151.9768 H   0  0  0  0  0  0  0  0  0  0  0  0  # atno 10167 bound_to 10162
  156.2677  130.7247  151.1203 H   0  0  0  0  0  0  0  0  0  0  0  0  # atno 10718 bound_to 10713
  152.9998  135.5449  154.6263 H   0  0  0  0  0  0  0  0  0  0  0  0  # atno 10763 bound_to 10752
  154.5551  135.2829  155.0974 H   0  0  0  0  0  0  0  0  0  0  0  0  # atno 10764 bound_to 10752
  154.2199  135.6452  153.5194 H   0  0  0  0  0  0  0  0  0  0  0  0  # atno 10765 bound_to 10752
  140.0862  134.9068  157.1579 H   0  0  0  0  0  0  0  0  0  0  0  0  # atno 11005 bound_to 11000
  146.2394  140.5493  142.8940 LP  0  0  0  0  0  0  0  0  0  0  0  0  # atno 17320 bound_to 7965
  144.7942  140.6091  143.6521 LP  0  0  0  0  0  0  0  0  0  0  0  0  # atno 17321 bound_to 7965
  140.3103  144.3545  150.6035 LP  0  0  0  0  0  0  0  0  0  0  0  0  # atno 17342 bound_to 10162
  140.5804  143.2173  151.7439 LP  0  0  0  0  0  0  0  0  0  0  0  0  # atno 17343 bound_to 10162
  157.7273  131.0640  150.5871 LP  0  0  0  0  0  0  0  0  0  0  0  0  # atno 17370 bound_to 10713
  156.5965  130.4343  149.5915 LP  0  0  0  0  0  0  0  0  0  0  0  0  # atno 17371 bound_to 10713
  140.3417  134.2697  155.7211 LP  0  0  0  0  0  0  0  0  0  0  0  0  # atno 17394 bound_to 11000
  141.2063  133.7836  157.0183 LP  0  0  0  0  0  0  0  0  0  0  0  0  # atno 17395 bound_to 11000

$$$$
