#       Name:                AV-unprocessed.smi:1395
#       Creating user name   scv26
#       Creation time:       Fri Mar 27 05:29:30 2020


#       File generated by GOLD software.
#

@<TRIPOS>MOLECULE
AV-unprocessed.smi:1395
    48    49     1
SMALL
NO_CHARGES


@<TRIPOS>ATOM
      1 ****        -4.2592   1.0051   1.0917 C.3            1 S1                 0.0000
      2 ****        -4.0545   2.2125   0.1911 C.ar           1 S1                 0.0000
      3 ****        -5.1693   2.9953  -0.1774 C.ar           1 S1                 0.0000
      4 ****        -4.9790   4.1109  -1.0107 C.ar           1 S1                 0.0000
      5 ****        -3.6730   4.3983  -1.4429 C.ar           1 S1                 0.0000
      6 ****        -2.6021   3.6558  -1.0955 N.ar           1 S1                 0.0000
      7 ****        -2.7685   2.5760  -0.2912 C.ar           1 S1                 0.0000
      8 ****        -1.6847   1.7463   0.1137 N.am           1 S1                 0.0000
      9 ****        -0.3795   1.8697  -0.1864 C.2            1 S1                 0.0000
     10 ****         0.1150   2.7652  -0.8715 O.2            1 S1                 0.0000
     11 ****         0.3399   0.8780   0.3601 N.am           1 S1                 0.0000
     12 ****         1.7891   0.7198   0.2379 C.3            1 S1                 0.0000
     13 ****         2.1938   0.1663  -1.1434 C.3            1 S1                 0.0000
     14 ****         1.7931  -1.3096  -1.3137 C.3            1 S1                 0.0000
     15 ****         2.3646  -2.1476  -0.2289 N.4            1 S1                 1.0000
     16 ****         2.1133  -3.5973  -0.4425 C.3            1 S1                 0.0000
     17 ****         3.1235  -4.5340   0.2374 C.2            1 S1                 0.0000
     18 ****         4.2841  -4.0334   0.6760 N.am           1 S1                 0.0000
     19 ****         2.8476  -5.7233   0.3692 O.2            1 S1                 0.0000
     20 ****         1.9260  -1.6747   1.1118 C.3            1 S1                 0.0000
     21 ****         2.3256  -0.2060   1.3437 C.3            1 S1                 0.0000
     22 ****        -5.3081   0.8878   1.3659 H              1 S1                 0.0000
     23 ****        -3.6828   1.1118   2.0111 H              1 S1                 0.0000
     24 ****        -3.9413   0.0932   0.5854 H              1 S1                 0.0000
     25 ****        -6.1605   2.7465   0.1723 H              1 S1                 0.0000
     26 ****        -5.8117   4.7296  -1.3106 H              1 S1                 0.0000
     27 ****        -3.4822   5.2458  -2.0844 H              1 S1                 0.0000
     28 ****        -1.9383   0.9637   0.6979 H              1 S1                 0.0000
     29 ****        -0.1494   0.1905   0.9141 H              1 S1                 0.0000
     30 ****         2.2440   1.7031   0.3704 H              1 S1                 0.0000
     31 ****         1.7588   0.7664  -1.9433 H              1 S1                 0.0000
     32 ****         3.2748   0.2548  -1.2594 H              1 S1                 0.0000
     33 ****         0.7068  -1.4117  -1.3233 H              1 S1                 0.0000
     34 ****         2.1523  -1.6641  -2.2806 H              1 S1                 0.0000
     35 ****         1.1003  -3.8514  -0.1258 H              1 S1                 0.0000
     36 ****         2.1651  -3.8212  -1.5089 H              1 S1                 0.0000
     37 ****         4.9629  -4.6222   1.1349 H              1 S1                 0.0000
     38 ****         4.4746  -3.0486   0.5519 H              1 S1                 0.0000
     39 ****         0.8449  -1.7906   1.2035 H              1 S1                 0.0000
     40 ****         2.3713  -2.2922   1.8921 H              1 S1                 0.0000
     41 ****         3.4139  -0.1350   1.3725 H              1 S1                 0.0000
     42 ****         1.9755   0.1286   2.3211 H              1 S1                 0.0000
     43 ****         3.3652  -2.0220  -0.2781 H              1 S1                 0.0000
     44 ****        -1.6913   3.8996  -1.4286 LP             1 S1                 0.0000
     45 ****        -0.4684   3.4805  -1.2561 LP             1 S1                 0.0000
     46 ****         1.1001   2.7772  -1.0434 LP             1 S1                 0.0000
     47 ****         1.9724  -6.0736   0.0354 LP             1 S1                 0.0000
     48 ****         3.4981  -6.3416   0.8103 LP             1 S1                 0.0000
@<TRIPOS>BOND
    1    1    2 1     
    2    1   22 1     
    3    1   23 1     
    4    1   24 1     
    5    2    7 ar    
    6    2    3 ar    
    7    3    4 ar    
    8    3   25 1     
    9    4    5 ar    
   10    4   26 1     
   11    5    6 ar    
   12    5   27 1     
   13    6    7 ar    
   14    7    8 1     
   15    8    9 am    
   16    8   28 1     
   17    9   10 2     
   18    9   11 am    
   19   11   12 1     
   20   11   29 1     
   21   12   21 1     
   22   12   13 1     
   23   12   30 1     
   24   13   14 1     
   25   13   31 1     
   26   13   32 1     
   27   14   15 1     
   28   14   33 1     
   29   14   34 1     
   30   15   16 1     
   31   15   20 1     
   32   15   43 1     
   33   16   17 1     
   34   16   35 1     
   35   16   36 1     
   36   17   18 am    
   37   17   19 2     
   38   18   37 1     
   39   18   38 1     
   40   20   21 1     
   41   20   39 1     
   42   20   40 1     
   43   21   41 1     
   44   21   42 1     
   45    6   44 1     
   46   10   45 1     
   47   10   46 1     
   48   19   47 1     
   49   19   48 1     
@<TRIPOS>SUBSTRUCTURE
      1 S1             1
@<TRIPOS>SET
LONE_PAIRS      STATIC     ATOMS    <user>   **** ""
5 44 45 46 47 48
DONOR_HYDROGENS      STATIC     ATOMS    <user>   **** ""
5 28 29 43 37 38
ATOM$BLUE        STATIC     ATOMS    COLORGROUP SYSTEM
5 44 45 46 47 48
ATOM$RED        STATIC     ATOMS    COLORGROUP SYSTEM
5 28 29 43 37 38
