#       Name:                AV-unprocessed.smi:284
#       Creating user name   scv26
#       Creation time:       Thu Mar 26 21:52:19 2020


#       File generated by GOLD software.
#

@<TRIPOS>MOLECULE
AV-unprocessed.smi:284
    72    74     1
SMALL
NO_CHARGES


@<TRIPOS>ATOM
      1 ****        -0.8074   5.0943  -2.4426 C.3            1 S1                 0.0000
      2 ****        -0.1732   3.7223  -2.2762 C.2            1 S1                 0.0000
      3 ****         1.1672   3.5541  -2.1980 C.2            1 S1                 0.0000
      4 ****         1.7745   2.3204  -2.0451 N.am           1 S1                 0.0000
      5 ****         3.2787   2.1646  -1.9687 C.3            1 S1                 0.0000
      6 ****         3.8515   1.7779  -3.3411 C.3            1 S1                 0.0000
      7 ****         5.0495   2.6981  -3.4780 C.3            1 S1                 0.0000
      8 ****         6.2087   2.0929  -2.9359 O.3            1 S1                 0.0000
      9 ****         4.6042   3.9256  -2.6748 C.3            1 S1                 0.0000
     10 ****         5.7087   4.8750  -2.1788 C.3            1 S1                 0.0000
     11 ****         6.3067   5.5398  -3.2711 O.3            1 S1                 0.0000
     12 ****         3.8675   3.3750  -1.5873 O.3            1 S1                 0.0000
     13 ****         0.9815   1.1574  -1.9794 C.2            1 S1                 0.0000
     14 ****         1.5022   0.0464  -1.8545 O.2            1 S1                 0.0000
     15 ****        -0.4219   1.2981  -2.0611 N.am           1 S1                 0.0000
     16 ****        -1.2572   0.0802  -1.9651 C.3            1 S1                 0.0000
     17 ****        -1.5856  -0.3189  -0.5178 C.2            1 S1                 0.0000
     18 ****        -1.5491   0.5223   0.3807 O.2            1 S1                 0.0000
     19 ****        -1.9377  -1.6066  -0.3480 N.am           1 S1                 0.0000
     20 ****        -2.2774  -2.2990   0.8472 C.ar           1 S1                 0.0000
     21 ****        -2.9387  -3.5344   0.7051 C.ar           1 S1                 0.0000
     22 ****        -3.2941  -4.2965   1.8344 C.ar           1 S1                 0.0000
     23 ****        -2.9887  -3.8432   3.1411 C.ar           1 S1                 0.0000
     24 ****        -3.3574  -4.6481   4.4023 C.3            1 S1                 0.0000
     25 ****        -2.0789  -4.9768   5.2019 C.3            1 S1                 0.0000
     26 ****        -4.0630  -5.9849   4.0801 C.3            1 S1                 0.0000
     27 ****        -4.3105  -3.8163   5.2855 C.3            1 S1                 0.0000
     28 ****        -2.3163  -2.6057   3.2752 C.ar           1 S1                 0.0000
     29 ****        -1.9582  -1.8429   2.1474 C.ar           1 S1                 0.0000
     30 ****        -1.0570   2.5565  -2.2002 C.2            1 S1                 0.0000
     31 ****        -2.2858   2.6382  -2.2468 O.2            1 S1                 0.0000
     32 ****        -0.0585   5.8850  -2.4957 H              1 S1                 0.0000
     33 ****        -1.4647   5.3144  -1.6008 H              1 S1                 0.0000
     34 ****        -1.3976   5.1326  -3.3589 H              1 S1                 0.0000
     35 ****         1.7816   4.4389  -2.2599 H              1 S1                 0.0000
     36 ****         3.4733   1.4301  -1.1855 H              1 S1                 0.0000
     37 ****         4.0916   0.7149  -3.3872 H              1 S1                 0.0000
     38 ****         3.1209   2.0050  -4.1194 H              1 S1                 0.0000
     39 ****         5.2495   2.9497  -4.5200 H              1 S1                 0.0000
     40 ****         6.0421   1.8805  -2.0303 H              1 S1                 0.0000
     41 ****         3.8991   4.4946  -3.2829 H              1 S1                 0.0000
     42 ****         5.2793   5.6281  -1.5176 H              1 S1                 0.0000
     43 ****         6.4695   4.3467  -1.6044 H              1 S1                 0.0000
     44 ****         6.9726   6.1232  -2.9404 H              1 S1                 0.0000
     45 ****        -2.1967   0.1961  -2.5071 H              1 S1                 0.0000
     46 ****        -0.7688  -0.7578  -2.4660 H              1 S1                 0.0000
     47 ****        -2.0036  -2.1546  -1.1934 H              1 S1                 0.0000
     48 ****        -3.1812  -3.9068  -0.2797 H              1 S1                 0.0000
     49 ****        -3.8022  -5.2324   1.6639 H              1 S1                 0.0000
     50 ****        -2.3073  -5.5669   6.0902 H              1 S1                 0.0000
     51 ****        -1.5627  -4.0789   5.5416 H              1 S1                 0.0000
     52 ****        -1.3745  -5.5520   4.5999 H              1 S1                 0.0000
     53 ****        -3.4319  -6.6390   3.4771 H              1 S1                 0.0000
     54 ****        -5.0000  -5.8284   3.5441 H              1 S1                 0.0000
     55 ****        -4.3074  -6.5319   4.9916 H              1 S1                 0.0000
     56 ****        -4.6061  -4.3674   6.1790 H              1 S1                 0.0000
     57 ****        -5.2218  -3.5564   4.7455 H              1 S1                 0.0000
     58 ****        -3.8520  -2.8861   5.6214 H              1 S1                 0.0000
     59 ****        -2.0608  -2.2280   4.2537 H              1 S1                 0.0000
     60 ****        -1.4273  -0.9187   2.3113 H              1 S1                 0.0000
     61 ****         6.9798   2.7268  -2.9970 LP             1 S1                 0.0000
     62 ****         6.4222   1.2584  -3.4440 LP             1 S1                 0.0000
     63 ****         5.6144   6.0647  -3.7662 LP             1 S1                 0.0000
     64 ****         6.7212   4.8701  -3.8874 LP             1 S1                 0.0000
     65 ****         4.4851   3.2142  -0.8174 LP             1 S1                 0.0000
     66 ****         3.1529   4.0183  -1.3127 LP             1 S1                 0.0000
     67 ****         2.4973  -0.0360  -1.7987 LP             1 S1                 0.0000
     68 ****         0.9294  -0.7720  -1.8090 LP             1 S1                 0.0000
     69 ****        -1.3051   1.4689   0.1698 LP             1 S1                 0.0000
     70 ****        -1.7634   0.2589   1.3213 LP             1 S1                 0.0000
     71 ****        -2.7242   3.5320  -2.3408 LP             1 S1                 0.0000
     72 ****        -2.8444   1.8107  -2.1907 LP             1 S1                 0.0000
@<TRIPOS>BOND
    1    1    2 1     
    2    1   32 1     
    3    1   33 1     
    4    1   34 1     
    5    2   30 1     
    6    2    3 2     
    7    3    4 1     
    8    3   35 1     
    9    4    5 1     
   10    4   13 am    
   11    5   12 1     
   12    5    6 1     
   13    5   36 1     
   14    6    7 1     
   15    6   37 1     
   16    6   38 1     
   17    7    8 1     
   18    7    9 1     
   19    7   39 1     
   20    8   40 1     
   21    9   10 1     
   22    9   12 1     
   23    9   41 1     
   24   10   11 1     
   25   10   42 1     
   26   10   43 1     
   27   11   44 1     
   28   13   14 2     
   29   13   15 am    
   30   15   16 1     
   31   15   30 am    
   32   16   17 1     
   33   16   45 1     
   34   16   46 1     
   35   17   18 2     
   36   17   19 am    
   37   19   20 1     
   38   19   47 1     
   39   20   29 ar    
   40   20   21 ar    
   41   21   22 ar    
   42   21   48 1     
   43   22   23 ar    
   44   22   49 1     
   45   23   24 1     
   46   23   28 ar    
   47   24   25 1     
   48   24   26 1     
   49   24   27 1     
   50   25   50 1     
   51   25   51 1     
   52   25   52 1     
   53   26   53 1     
   54   26   54 1     
   55   26   55 1     
   56   27   56 1     
   57   27   57 1     
   58   27   58 1     
   59   28   29 ar    
   60   28   59 1     
   61   29   60 1     
   62   30   31 2     
   63    8   61 1     
   64    8   62 1     
   65   11   63 1     
   66   11   64 1     
   67   12   65 1     
   68   12   66 1     
   69   14   67 1     
   70   14   68 1     
   71   18   69 1     
   72   18   70 1     
   73   31   71 1     
   74   31   72 1     
@<TRIPOS>SUBSTRUCTURE
      1 S1             1
@<TRIPOS>SET
LONE_PAIRS      STATIC     ATOMS    <user>   **** ""
12 61 62 63 64 65 66 67 68 69 70 71 72
DONOR_HYDROGENS      STATIC     ATOMS    <user>   **** ""
3 40 44 47
ATOM$BLUE        STATIC     ATOMS    COLORGROUP SYSTEM
12 61 62 63 64 65 66 67 68 69 70 71 72
ATOM$RED        STATIC     ATOMS    COLORGROUP SYSTEM
3 40 44 47
