AV-unprocessed.smi:1805|AV-procd|sdf|7297|dock9
  -GOLD-   22720 8553D 1   1.00000     0.00000
 Structure written by MMmdl.
 29 30  0  0  0  0  0  0  0  0  1 V2000
  150.3453  140.5216  156.1879 O   0  0  0  0  0  0  0  0  0  0  0  0
  149.9595  141.6859  156.0814 C   0  0  0  0  0  0  0  0  0  0  0  0
  150.5222  142.7175  156.7262 N   0  0  0  0  0  0  0  0  0  0  0  0
  151.6489  142.6176  157.6470 C   0  0  0  0  0  0  0  0  0  0  0  0
  151.3634  143.3510  158.9676 C   0  0  2  0  0  0  0  0  0  0  0  0
  151.4954  144.8702  158.8696 C   0  0  0  0  0  0  0  0  0  0  0  0
  151.8373  145.2966  160.2897 C   0  0  0  0  0  0  0  0  0  0  0  0
  152.2008  143.9881  160.9968 C   0  0  0  0  0  0  0  0  0  0  0  0
  152.3303  143.0316  159.9555 O   0  0  0  0  0  0  0  0  0  0  0  0
  148.9338  142.0919  155.3152 N   0  0  0  0  0  0  0  0  0  0  0  0
  148.1101  141.2911  154.4841 C   0  0  0  0  0  0  0  0  0  0  0  0
  148.4511  139.9932  154.0159 C   0  0  0  0  0  0  0  0  0  0  0  0
  147.4892  139.4835  153.2598 N   0  0  0  0  0  0  0  0  0  0  0  0
  146.5374  140.4438  153.2410 N   0  0  0  0  0  0  0  0  0  0  0  0
  146.8722  141.5622  153.9723 C   0  0  0  0  0  0  0  0  0  0  0  0
  145.6743  140.3227  152.7306 H   0  0  0  0  0  0  0  0  0  0  0  0
  150.1381  143.6388  156.5765 H   0  0  0  0  0  0  0  0  0  0  0  0
  151.9124  141.5747  157.8312 H   0  0  0  0  0  0  0  0  0  0  0  0
  152.5117  143.0716  157.1589 H   0  0  0  0  0  0  0  0  0  0  0  0
  150.3713  143.0909  159.3422 H   0  0  0  0  0  0  0  0  0  0  0  0
  152.3178  145.1358  158.2038 H   0  0  0  0  0  0  0  0  0  0  0  0
  150.5904  145.3453  158.4899 H   0  0  0  0  0  0  0  0  0  0  0  0
  152.6723  145.9979  160.2913 H   0  0  0  0  0  0  0  0  0  0  0  0
  150.9920  145.7796  160.7812 H   0  0  0  0  0  0  0  0  0  0  0  0
  153.1203  144.0657  161.5775 H   0  0  0  0  0  0  0  0  0  0  0  0
  151.3984  143.6793  161.6682 H   0  0  0  0  0  0  0  0  0  0  0  0
  148.7222  143.0789  155.3237 H   0  0  0  0  0  0  0  0  0  0  0  0
  149.3459  139.4155  154.1959 H   0  0  0  0  0  0  0  0  0  0  0  0
  146.2168  142.4164  154.0555 H   0  0  0  0  0  0  0  0  0  0  0  0
  1  2  2  0  0  0  0
  2  3  1  0  0  0  0
  2 10  1  0  0  0  0
  3  4  1  0  0  0  0
  3 17  1  0  0  0  0
  4  5  1  0  0  0  0
  4 18  1  0  0  0  0
  4 19  1  0  0  0  0
  5  9  1  0  0  0  0
  5  6  1  0  0  0  0
  5 20  1  0  0  0  0
  6  7  1  0  0  0  0
  6 21  1  0  0  0  0
  6 22  1  0  0  0  0
  7  8  1  0  0  0  0
  7 23  1  0  0  0  0
  7 24  1  0  0  0  0
  8  9  1  0  0  0  0
  8 25  1  0  0  0  0
  8 26  1  0  0  0  0
 10 11  1  0  0  0  0
 10 27  1  0  0  0  0
 11 15  2  0  0  0  0
 11 12  1  0  0  0  0
 12 13  2  0  0  0  0
 12 28  1  0  0  0  0
 13 14  1  0  0  0  0
 14 16  1  0  0  0  0
 14 15  1  0  0  0  0
 15 29  1  0  0  0  0
M  END
> <s_m_source_file>
AV-unprocessed.smi

> <i_m_source_file_index>
1805

> <i_lp_mmshare_version>
43012

> <i_f3d_flags>
0

> <s_epik_input>
W2NIXTFbbkhdbltjSF1jMVtOSF1DKD1PKVtOSF1bQ0gyXVtDQEBIXTJbQ0gyXVtDSDJdW0NIMl1PMg==

> <s_epik_cmdline>
J2VwaWtfcHl0aG9uJywgJy1waCcsICc3LjAnLCAnLXRuJywgJzgnLCAnLW1hJywgJzIwMCcsICctbWV0YWxfYmluZGluZycsICctaW1hZScsICc8aW5maWxlLm1hZT4nLCAnLW9tYWUnLCAnPG91dGZpbGUubWFlPic=

> <r_lp_tautomer_probability>
1

> <r_epik_Ionization_Penalty>
4.81496e-05

> <r_epik_Ionization_Penalty_Charging>
0

> <r_epik_Ionization_Penalty_Neutral>
4.81496e-05

> <r_epik_State_Penalty>
-0

> <r_epik_Charging_Adjusted_Penalty>
0

> <i_epik_Tot_Q>
0

> <i_epik_Tot_abs_Q>
0

> <r_epik_Metal_State_Penalty>
-0

> <b_epik_Metal_Only>
0

> <s_lp_Force_Field>
OPLS_2005

> <r_lp_Energy>
19.369

> <b_lp_Chiralities_Consistent>
1

> <s_lp_Variant>
AV-unprocessed.smi:1805-1

> <Gold.Version>
5.8.1

> <Gold.Id.Protein>
6NUR|6NUR_protein|mol2

> <Gold.PLP.Fitness>
40.9635

> <Gold.PLP.PLP>
-32.5487

> <Gold.PLP.part.hbond>
-3.0000

> <Gold.PLP.part.metal>
0.0000

> <Gold.PLP.part.buried>
-6.7033

> <Gold.PLP.part.nonpolar>
-23.6725

> <Gold.PLP.part.repulsive>
0.4899

> <Gold.PLP.ligand.clash>
0.0000

> <Gold.PLP.ligand.torsion>
0.2362

> <Gold.PLP.Chemscore.Hbond>
2.9600

> <Gold.PLP.Chemscore.CHOScore>
0.0000

> <Gold.PLP.Chemscore.Metal>
0.0000

> <Gold.Chemscore.Hbonds>
donor molecule, donor type, donor heavy atom, donor atom, acceptor molecule, acceptor atom, score
      L1  H     3    17       P1  8028  0.98
      L1  H    10    27       P1  8028  1.00
      L1  H    14    16       P1 10175  1.00

> <Gold.PLP.Chemscore.Internal.Correction>
0.0072

> <Gold.Rescore>
     Score         DG    S(hbond)    S(metal)    S(lipo)     H(rot)  DE(clash)    DE(int)     intcor
     19.17     -20.74       2.94        0.00      75.66       1.33       0.10       1.46       ----

> <Gold.Chemscore.Fitness>
19.1710

> <Gold.Chemscore.DG>
-20.7358

> <Gold.Chemscore.ZeroCoef>
-5.4800

> <Gold.Chemscore.Hbond>
2.9372

> <Gold.Chemscore.Metal>
0.0000

> <Gold.Chemscore.Lipo>
75.6558

> <Gold.Chemscore.Internal_Hbond>
0.0000

> <Gold.Chemscore.DEClash>
0.1036

> <Gold.Chemscore.DEInternal>
1.4612

> <Gold.Chemscore.Rot>
1.3306

> <Gold.Chemscore.Internal.Correction>
   9.000000E+99

> <Gold.Chemscore.Hbonds>
donor molecule, donor type, donor heavy atom, donor atom, acceptor molecule, acceptor atom, score
      L1  H     3    17       P1  8028  0.93
      L1  H    10    27       P1  8028  0.99
      L1  H    14    16       P1 10175  0.80

> <Gold.Chemscore.Hbond.Weighted>
-9.8103

> <Gold.Chemscore.Metal.Weighted>
-0.0000

> <Gold.Chemscore.Lipo.Weighted>
-8.8517

> <Gold.Chemscore.Internal_Hbond.Weighted>
0.0000

> <Gold.Chemscore.DEClash.Weighted>
0.1036

> <Gold.Chemscore.DEInternal.Weighted>
1.4612

> <Gold.Chemscore.Rot.Weighted>
3.4063

> <Gold.Chemscore.Internal.Correction.Weighted>
   9.000000E+99

> <Gold.Protein.RotatedTorsions>
[ 6907 6896 6895 6894 ] final   21.54 input  -60.11 | X-H torsion
[ 7974 7965 7964 7962 ] final  171.95 input  175.53 | X-H torsion
[ 8008 7997 7996 7995 ] final  -78.68 input   59.86 | X-H torsion
[ 10167 10162 10161 10158 ] final   31.37 input  -65.29 | X-H torsion
[ 10718 10713 10712 10709 ] final  -78.12 input   66.30 | X-H torsion
[ 10763 10752 10751 10750 ] final -142.62 input  -60.55 | X-H torsion
[ 11005 11000 10999 10996 ] final -149.93 input  -57.11 | X-H torsion

> <Gold.Protein.ActiveResidues>
 VAL166  LYS551  ARG553  GLY616  TRP617  ASP618  TYR619  PRO620  LYS621  CYS622 
 ASP623  PHE694  ASN695  SER759  ASP760  ASP761  ALA762  ILE779  LEU786  VAL792 
 PHE793  MET794  SER795  GLU796  ALA797  LYS798  CYS799  TRP800  GLU811  SER814 

> <Gold.Protein.RotatedAtoms>
  151.9133  135.0329  160.0515 H   0  0  0  0  0  0  0  0  0  0  0  0  # atno 6907 bound_to 6896
  152.2261  133.5017  159.5198 H   0  0  0  0  0  0  0  0  0  0  0  0  # atno 6908 bound_to 6896
  150.7013  134.1195  159.4072 H   0  0  0  0  0  0  0  0  0  0  0  0  # atno 6909 bound_to 6896
  144.7281  139.9426  143.6429 H   0  0  0  0  0  0  0  0  0  0  0  0  # atno 7974 bound_to 7965
  154.5712  140.0690  156.8967 H   0  0  0  0  0  0  0  0  0  0  0  0  # atno 8008 bound_to 7997
  155.2631  140.3360  155.4253 H   0  0  0  0  0  0  0  0  0  0  0  0  # atno 8009 bound_to 7997
  156.2120  140.1763  156.7660 H   0  0  0  0  0  0  0  0  0  0  0  0  # atno 8010 bound_to 7997
  140.4595  144.0928  150.6209 H   0  0  0  0  0  0  0  0  0  0  0  0  # atno 10167 bound_to 10162
  156.0126  130.4509  150.3449 H   0  0  0  0  0  0  0  0  0  0  0  0  # atno 10718 bound_to 10713
  154.8502  135.3491  154.6057 H   0  0  0  0  0  0  0  0  0  0  0  0  # atno 10763 bound_to 10752
  153.6665  135.6987  153.5165 H   0  0  0  0  0  0  0  0  0  0  0  0  # atno 10764 bound_to 10752
  153.2776  135.4273  155.1005 H   0  0  0  0  0  0  0  0  0  0  0  0  # atno 10765 bound_to 10752
  140.7456  134.3465  157.5138 H   0  0  0  0  0  0  0  0  0  0  0  0  # atno 11005 bound_to 11000
  146.0773  139.3761  143.0486 LP  0  0  0  0  0  0  0  0  0  0  0  0  # atno 17320 bound_to 7965
  145.7888  140.9824  143.1060 LP  0  0  0  0  0  0  0  0  0  0  0  0  # atno 17321 bound_to 7965
  140.4111  143.2656  151.9832 LP  0  0  0  0  0  0  0  0  0  0  0  0  # atno 17342 bound_to 10162
  139.4804  144.5915  151.7764 LP  0  0  0  0  0  0  0  0  0  0  0  0  # atno 17343 bound_to 10162
  157.1543  131.0329  151.2870 LP  0  0  0  0  0  0  0  0  0  0  0  0  # atno 17370 bound_to 10713
  157.4365  130.7520  149.7034 LP  0  0  0  0  0  0  0  0  0  0  0  0  # atno 17371 bound_to 10713
  139.8797  134.9109  156.3024 LP  0  0  0  0  0  0  0  0  0  0  0  0  # atno 17394 bound_to 11000
  140.9798  133.7275  156.0655 LP  0  0  0  0  0  0  0  0  0  0  0  0  # atno 17395 bound_to 11000

$$$$
