#       Name:                AV-unprocessed.smi:3233
#       Creating user name   scv26
#       Creation time:       Fri Mar 27 18:21:08 2020


#       File generated by GOLD software.
#

@<TRIPOS>MOLECULE
AV-unprocessed.smi:3233
    42    43     1
SMALL
NO_CHARGES


@<TRIPOS>ATOM
      1 ****        -4.1989  -3.4934   0.2334 C.3            1 S1                 0.0000
      2 ****        -3.8933  -2.1215   0.6472 N.am           1 S1                 0.0000
      3 ****        -4.9559  -1.3332   1.1198 C.2            1 S1                 0.0000
      4 ****        -4.7683  -0.0688   1.5222 C.2            1 S1                 0.0000
      5 ****        -3.4350   0.4804   1.4621 C.2            1 S1                 0.0000
      6 ****        -2.3946  -0.2613   1.0043 C.2            1 S1                 0.0000
      7 ****        -1.0640   0.1853   0.9161 N.am           1 S1                 0.0000
      8 ****        -0.5520   1.4239   1.0647 C.2            1 S1                 0.0000
      9 ****        -1.2004   2.4415   1.3032 O.2            1 S1                 0.0000
     10 ****         0.9659   1.5293   0.9220 C.3            1 S1                 0.0000
     11 ****         1.3836   0.7634  -0.1999 O.3            1 S1                 0.0000
     12 ****         2.7899   0.7569  -0.3963 C.3            1 S1                 0.0000
     13 ****         3.3314   2.0795  -0.9486 C.3            1 S1                 0.0000
     14 ****         4.6208   1.7088  -1.6935 C.3            1 S1                 0.0000
     15 ****         4.5583   0.1936  -1.9435 C.3            1 S1                 0.0000
     16 ****         3.1722  -0.2554  -1.4738 C.3            1 S1                 0.0000
     17 ****        -2.6111  -1.6556   0.5697 C.2            1 S1                 0.0000
     18 ****        -1.6963  -2.3732   0.1574 O.2            1 S1                 0.0000
     19 ****        -5.2622  -3.7266   0.2974 H              1 S1                 0.0000
     20 ****        -3.6695  -4.2085   0.8646 H              1 S1                 0.0000
     21 ****        -3.8938  -3.6612  -0.8005 H              1 S1                 0.0000
     22 ****        -5.9223  -1.8157   1.1353 H              1 S1                 0.0000
     23 ****        -5.5948   0.5254   1.8834 H              1 S1                 0.0000
     24 ****        -3.3098   1.4932   1.8068 H              1 S1                 0.0000
     25 ****        -0.3984  -0.5364   0.6778 H              1 S1                 0.0000
     26 ****         1.2495   2.5758   0.8019 H              1 S1                 0.0000
     27 ****         1.4336   1.1582   1.8350 H              1 S1                 0.0000
     28 ****         3.3071   0.4965   0.5293 H              1 S1                 0.0000
     29 ****         2.6153   2.5004  -1.6560 H              1 S1                 0.0000
     30 ****         3.5003   2.8232  -0.1690 H              1 S1                 0.0000
     31 ****         4.7044   2.2669  -2.6267 H              1 S1                 0.0000
     32 ****         5.4963   1.9515  -1.0903 H              1 S1                 0.0000
     33 ****         4.7343  -0.0608  -2.9891 H              1 S1                 0.0000
     34 ****         5.3269  -0.3056  -1.3522 H              1 S1                 0.0000
     35 ****         3.1626  -1.2828  -1.1087 H              1 S1                 0.0000
     36 ****         2.4686  -0.1923  -2.3054 H              1 S1                 0.0000
     37 ****        -2.1941   2.3893   1.4028 LP             1 S1                 0.0000
     38 ****        -0.7339   3.3209   1.3975 LP             1 S1                 0.0000
     39 ****         0.9524   1.1422  -1.0188 LP             1 S1                 0.0000
     40 ****         1.0789  -0.1801  -0.0689 LP             1 S1                 0.0000
     41 ****        -1.8872  -3.3128  -0.1269 LP             1 S1                 0.0000
     42 ****        -0.7639  -2.0154   0.1075 LP             1 S1                 0.0000
@<TRIPOS>BOND
    1    1    2 1     
    2    1   19 1     
    3    1   20 1     
    4    1   21 1     
    5    2   17 am    
    6    2    3 1     
    7    3    4 2     
    8    3   22 1     
    9    4    5 1     
   10    4   23 1     
   11    5    6 2     
   12    5   24 1     
   13    6    7 1     
   14    6   17 1     
   15    7    8 am    
   16    7   25 1     
   17    8    9 2     
   18    8   10 1     
   19   10   11 1     
   20   10   26 1     
   21   10   27 1     
   22   11   12 1     
   23   12   16 1     
   24   12   13 1     
   25   12   28 1     
   26   13   14 1     
   27   13   29 1     
   28   13   30 1     
   29   14   15 1     
   30   14   31 1     
   31   14   32 1     
   32   15   16 1     
   33   15   33 1     
   34   15   34 1     
   35   16   35 1     
   36   16   36 1     
   37   17   18 2     
   38    9   37 1     
   39    9   38 1     
   40   11   39 1     
   41   11   40 1     
   42   18   41 1     
   43   18   42 1     
@<TRIPOS>SUBSTRUCTURE
      1 S1             1
@<TRIPOS>SET
LONE_PAIRS      STATIC     ATOMS    <user>   **** ""
6 37 38 39 40 41 42
DONOR_HYDROGENS      STATIC     ATOMS    <user>   **** ""
1 25
ATOM$BLUE        STATIC     ATOMS    COLORGROUP SYSTEM
6 37 38 39 40 41 42
ATOM$RED        STATIC     ATOMS    COLORGROUP SYSTEM
1 25
