AV-unprocessed.smi:3025|AV-procd|sdf|11508|dock9
  -GOLD-   2272016443D 1   1.00000     0.00000
 Structure written by MMmdl.
 42 43  0  0  0  0  0  0  0  0  2 V2000
  154.4389  139.9454  161.4011 C   0  0  0  0  0  0  0  0  0  0  0  0
  154.3070  141.2961  160.6891 C   0  0  0  0  0  0  0  0  0  0  0  0
  153.2896  142.2240  161.3744 C   0  0  0  0  0  0  0  0  0  0  0  0
  152.8244  143.4086  160.5024 C   0  0  2  0  0  0  0  0  0  0  0  0
  151.3493  143.7888  160.7544 C   0  0  0  0  0  0  0  0  0  0  0  0
  150.8962  144.9520  159.8550 C   0  0  0  0  0  0  0  0  0  0  0  0
  151.1183  144.6565  158.3565 C   0  0  2  0  0  0  0  0  0  0  0  0
  150.2075  143.6048  157.8472 N   0  3  0  0  0  0  0  0  0  0  0  0
  150.8073  142.6511  156.8912 C   0  0  0  0  0  0  0  0  0  0  0  0
  150.1977  141.2531  157.0584 C   0  0  0  0  0  0  0  0  0  0  0  0
  149.2652  140.9111  155.9441 C   0  0  0  0  0  0  0  0  0  0  0  0
  149.6512  140.1237  154.9388 N   0  0  0  0  0  0  0  0  0  0  0  0
  148.5255  140.0415  154.1967 N   0  0  0  0  0  0  0  0  0  0  0  0
  147.5662  140.7479  154.7930 C   0  0  0  0  0  0  0  0  0  0  0  0
  147.9613  141.3244  155.9207 N   0  0  0  0  0  0  0  0  0  0  0  0
  152.5853  144.2612  158.1054 C   0  0  0  0  0  0  0  0  0  0  0  0
  153.0398  143.0998  159.0070 C   0  0  0  0  0  0  0  0  0  0  0  0
  155.1632  139.3075  160.8937 H   0  0  0  0  0  0  0  0  0  0  0  0
  153.4865  139.4151  161.4207 H   0  0  0  0  0  0  0  0  0  0  0  0
  154.7730  140.0739  162.4310 H   0  0  0  0  0  0  0  0  0  0  0  0
  155.2876  141.7700  160.6564 H   0  0  0  0  0  0  0  0  0  0  0  0
  154.0095  141.1263  159.6538 H   0  0  0  0  0  0  0  0  0  0  0  0
  152.4182  141.6278  161.6486 H   0  0  0  0  0  0  0  0  0  0  0  0
  153.7050  142.5965  162.3118 H   0  0  0  0  0  0  0  0  0  0  0  0
  153.4446  144.2711  160.7519 H   0  0  0  0  0  0  0  0  0  0  0  0
  150.7086  142.9222  160.5867 H   0  0  0  0  0  0  0  0  0  0  0  0
  151.2048  144.0783  161.7950 H   0  0  0  0  0  0  0  0  0  0  0  0
  149.8548  145.1994  160.0595 H   0  0  0  0  0  0  0  0  0  0  0  0
  151.4652  145.8426  160.1251 H   0  0  0  0  0  0  0  0  0  0  0  0
  150.9189  145.5646  157.7857 H   0  0  0  0  0  0  0  0  0  0  0  0
  149.8880  143.0694  158.6418 H   0  0  0  0  0  0  0  0  0  0  0  0
  150.6484  142.9985  155.8706 H   0  0  0  0  0  0  0  0  0  0  0  0
  151.8850  142.6061  157.0544 H   0  0  0  0  0  0  0  0  0  0  0  0
  150.9884  140.5025  157.0991 H   0  0  0  0  0  0  0  0  0  0  0  0
  149.6602  141.1880  158.0058 H   0  0  0  0  0  0  0  0  0  0  0  0
  146.5642  140.8381  154.3998 H   0  0  0  0  0  0  0  0  0  0  0  0
  152.7324  144.0001  157.0568 H   0  0  0  0  0  0  0  0  0  0  0  0
  153.2250  145.1247  158.2930 H   0  0  0  0  0  0  0  0  0  0  0  0
  154.0941  142.8930  158.8192 H   0  0  0  0  0  0  0  0  0  0  0  0
  152.5000  142.1915  158.7367 H   0  0  0  0  0  0  0  0  0  0  0  0
  149.4073  144.0479  157.4188 H   0  0  0  0  0  0  0  0  0  0  0  0
  148.4631  139.5134  153.3375 H   0  0  0  0  0  0  0  0  0  0  0  0
  1  2  1  0  0  0  0
  1 18  1  0  0  0  0
  1 19  1  0  0  0  0
  1 20  1  0  0  0  0
  2  3  1  0  0  0  0
  2 21  1  0  0  0  0
  2 22  1  0  0  0  0
  3  4  1  0  0  0  0
  3 23  1  0  0  0  0
  3 24  1  0  0  0  0
  4 17  1  0  0  0  0
  4  5  1  0  0  0  0
  4 25  1  0  0  0  0
  5  6  1  0  0  0  0
  5 26  1  0  0  0  0
  5 27  1  0  0  0  0
  6  7  1  0  0  0  0
  6 28  1  0  0  0  0
  6 29  1  0  0  0  0
  7  8  1  0  0  0  0
  7 16  1  0  0  0  0
  7 30  1  0  0  0  0
  8  9  1  0  0  0  0
  8 31  1  0  0  0  0
  8 41  1  0  0  0  0
  9 10  1  0  0  0  0
  9 32  1  0  0  0  0
  9 33  1  0  0  0  0
 10 34  1  0  0  0  0
 10 35  1  0  0  0  0
 10 11  1  0  0  0  0
 11 15  1  0  0  0  0
 11 12  2  0  0  0  0
 12 13  1  0  0  0  0
 13 14  1  0  0  0  0
 13 42  1  0  0  0  0
 14 15  2  0  0  0  0
 14 36  1  0  0  0  0
 16 17  1  0  0  0  0
 16 37  1  0  0  0  0
 16 38  1  0  0  0  0
 17 39  1  0  0  0  0
 17 40  1  0  0  0  0
M  CHG  1   8   1
M  END
> <s_m_source_file>
AV-unprocessed.smi

> <i_m_source_file_index>
3025

> <i_lp_mmshare_version>
43012

> <i_f3d_flags>
0

> <s_epik_input>
W0NIM11bQ0gyXVtDSDJdW0NAQEhdMVtDSDJdW0NIMl1bQ0BIXShbQ0gyXVtDSDJdMSlbTkhdW0NIMl1bQ0gyXWMybm5bY0hdW25IXTI=

> <s_epik_cmdline>
J2VwaWtfcHl0aG9uJywgJy1waCcsICc3LjAnLCAnLXRuJywgJzgnLCAnLW1hJywgJzIwMCcsICctbWV0YWxfYmluZGluZycsICctaW1hZScsICc8aW5maWxlLm1hZT4nLCAnLW9tYWUnLCAnPG91dGZpbGUubWFlPic=

> <r_epik_Ionization_Penalty>
0.00995411

> <r_epik_Ionization_Penalty_Charging>
0.000442289

> <r_epik_Ionization_Penalty_Neutral>
0.00951182

> <r_epik_State_Penalty>
0.448541

> <r_epik_Charging_Adjusted_Penalty>
0.448983

> <i_epik_Tot_Q>
1

> <i_epik_Tot_abs_Q>
1

> <r_epik_Metal_State_Penalty>
0.682245

> <b_epik_Metal_Only>
0

> <s_lp_Force_Field>
OPLS_2005

> <r_lp_Energy>
14.0161

> <b_lp_Chiralities_Consistent>
1

> <s_lp_Variant>
AV-unprocessed.smi:3025-4

> <Gold.Version>
5.8.1

> <Gold.Id.Protein>
6NUR|6NUR_protein|mol2

> <Gold.PLP.Fitness>
49.9422

> <Gold.PLP.PLP>
-44.3814

> <Gold.PLP.part.hbond>
-3.0844

> <Gold.PLP.part.metal>
0.0000

> <Gold.PLP.part.buried>
-5.4710

> <Gold.PLP.part.nonpolar>
-36.9249

> <Gold.PLP.part.repulsive>
1.1489

> <Gold.PLP.ligand.clash>
2.2119

> <Gold.PLP.ligand.torsion>
1.9829

> <Gold.PLP.Chemscore.Hbond>
3.8960

> <Gold.PLP.Chemscore.CHOScore>
0.0000

> <Gold.PLP.Chemscore.Metal>
0.0000

> <Gold.Chemscore.Hbonds>
donor molecule, donor type, donor heavy atom, donor atom, acceptor molecule, acceptor atom, score
      L1  H     8    41       P1  8028  1.49

> <Gold.PLP.Chemscore.Internal.Correction>
0.0504

> <Gold.Rescore>
     Score         DG    S(hbond)    S(metal)    S(lipo)     H(rot)  DE(clash)    DE(int)     intcor
     18.75     -21.50       2.60        0.00     118.77       2.56       0.58       2.17       ----

> <Gold.Chemscore.Fitness>
18.7468

> <Gold.Chemscore.DG>
-21.5038

> <Gold.Chemscore.ZeroCoef>
-5.4800

> <Gold.Chemscore.Hbond>
2.5996

> <Gold.Chemscore.Metal>
0.0000

> <Gold.Chemscore.Lipo>
118.7654

> <Gold.Chemscore.Internal_Hbond>
0.0000

> <Gold.Chemscore.DEClash>
0.5849

> <Gold.Chemscore.DEInternal>
2.1722

> <Gold.Chemscore.Rot>
2.5602

> <Gold.Chemscore.Internal.Correction>
   9.000000E+99

> <Gold.Chemscore.Hbonds>
donor molecule, donor type, donor heavy atom, donor atom, acceptor molecule, acceptor atom, score
      L1  H     8    41       P1  8028  0.17
      L1  H    13    42       P1  7957  0.01

> <Gold.Chemscore.Hbond.Weighted>
-8.6825

> <Gold.Chemscore.Metal.Weighted>
-0.0000

> <Gold.Chemscore.Lipo.Weighted>
-13.8956

> <Gold.Chemscore.Internal_Hbond.Weighted>
0.0000

> <Gold.Chemscore.DEClash.Weighted>
0.5849

> <Gold.Chemscore.DEInternal.Weighted>
2.1722

> <Gold.Chemscore.Rot.Weighted>
6.5542

> <Gold.Chemscore.Internal.Correction.Weighted>
   9.000000E+99

> <Gold.Protein.RotatedTorsions>
[ 6907 6896 6895 6894 ] final   65.30 input  -60.11 | X-H torsion
[ 7974 7965 7964 7962 ] final  -23.50 input  175.53 | X-H torsion
[ 8008 7997 7996 7995 ] final   95.60 input   59.86 | X-H torsion
[ 10167 10162 10161 10158 ] final  152.59 input  -65.29 | X-H torsion
[ 10718 10713 10712 10709 ] final  114.31 input   66.30 | X-H torsion
[ 10763 10752 10751 10750 ] final -169.33 input  -60.55 | X-H torsion
[ 11005 11000 10999 10996 ] final   46.13 input  -57.11 | X-H torsion

> <Gold.Protein.ActiveResidues>
 VAL166  LYS551  ARG553  GLY616  TRP617  ASP618  TYR619  PRO620  LYS621  CYS622 
 ASP623  PHE694  ASN695  SER759  ASP760  ASP761  ALA762  ILE779  LEU786  VAL792 
 PHE793  MET794  SER795  GLU796  ALA797  LYS798  CYS799  TRP800  GLU811  SER814 

> <Gold.Protein.RotatedAtoms>
  152.4397  134.5616  159.9895 H   0  0  0  0  0  0  0  0  0  0  0  0  # atno 6907 bound_to 6896
  151.5717  133.3383  159.2999 H   0  0  0  0  0  0  0  0  0  0  0  0  # atno 6908 bound_to 6896
  150.8301  134.7584  159.6910 H   0  0  0  0  0  0  0  0  0  0  0  0  # atno 6909 bound_to 6896
  146.1612  140.4624  142.8570 H   0  0  0  0  0  0  0  0  0  0  0  0  # atno 7974 bound_to 7965
  156.0706  140.3284  155.7571 H   0  0  0  0  0  0  0  0  0  0  0  0  # atno 8008 bound_to 7997
  155.5311  140.0593  157.2906 H   0  0  0  0  0  0  0  0  0  0  0  0  # atno 8009 bound_to 7997
  154.4528  140.1927  156.0485 H   0  0  0  0  0  0  0  0  0  0  0  0  # atno 8010 bound_to 7997
  139.4832  144.5345  151.7668 H   0  0  0  0  0  0  0  0  0  0  0  0  # atno 10167 bound_to 10162
  157.6289  131.0996  150.7167 H   0  0  0  0  0  0  0  0  0  0  0  0  # atno 10718 bound_to 10713
  154.6535  135.2914  154.9957 H   0  0  0  0  0  0  0  0  0  0  0  0  # atno 10763 bound_to 10752
  154.1042  135.6572  153.4877 H   0  0  0  0  0  0  0  0  0  0  0  0  # atno 10764 bound_to 10752
  153.0389  135.5250  154.7453 H   0  0  0  0  0  0  0  0  0  0  0  0  # atno 10765 bound_to 10752
  140.1397  134.4599  155.8459 H   0  0  0  0  0  0  0  0  0  0  0  0  # atno 11005 bound_to 11000
  144.8030  140.6248  143.6465 LP  0  0  0  0  0  0  0  0  0  0  0  0  # atno 17320 bound_to 7965
  145.4583  139.1515  143.3880 LP  0  0  0  0  0  0  0  0  0  0  0  0  # atno 17321 bound_to 7965
  140.4876  144.1358  150.5944 LP  0  0  0  0  0  0  0  0  0  0  0  0  # atno 17342 bound_to 10162
  140.4208  143.2612  151.9718 LP  0  0  0  0  0  0  0  0  0  0  0  0  # atno 17343 bound_to 10162
  156.7510  130.4768  149.5456 LP  0  0  0  0  0  0  0  0  0  0  0  0  # atno 17370 bound_to 10713
  156.1478  130.6289  151.0555 LP  0  0  0  0  0  0  0  0  0  0  0  0  # atno 17371 bound_to 10713
  141.2184  133.6828  156.7223 LP  0  0  0  0  0  0  0  0  0  0  0  0  # atno 17394 bound_to 11000
  140.2738  134.8371  157.3871 LP  0  0  0  0  0  0  0  0  0  0  0  0  # atno 17395 bound_to 11000

$$$$
