AV-unprocessed.smi:1032|AV-procd|sdf|4482|dock3
  -GOLD-   22720 2463D 1   1.00000     0.00000
 Structure written by MMmdl.
 46 47  0  0  0  0  0  0  0  0  2 V2000
  151.0660  141.5537  158.0071 C   0  0  0  0  0  0  0  0  0  0  0  0
  150.0767  141.7473  156.8492 C   0  0  2  0  0  0  0  0  0  0  0  0
  148.6192  141.5983  157.3173 C   0  0  0  0  0  0  0  0  0  0  0  0
  147.6347  141.7544  156.1462 C   0  0  0  0  0  0  0  0  0  0  0  0
  147.9333  140.7800  155.0632 N   0  3  1  0  0  0  0  0  0  0  0  0
  146.9308  140.7916  153.9667 C   0  0  0  0  0  0  0  0  0  0  0  0
  147.1311  139.6308  152.9709 C   0  0  2  0  0  0  0  0  0  0  0  0
  146.9352  140.1453  151.6684 O   0  0  0  0  0  0  0  0  0  0  0  0
  146.1027  138.5038  153.2007 C   0  0  0  0  0  0  0  0  0  0  0  0
  146.4989  137.2554  152.5553 N   0  0  0  0  0  0  0  0  0  0  0  0
  145.6501  136.3256  152.0924 C   0  0  0  0  0  0  0  0  0  0  0  0
  144.4268  136.4219  152.1919 O   0  0  0  0  0  0  0  0  0  0  0  0
  146.3121  135.2942  151.5395 N   0  0  0  0  0  0  0  0  0  0  0  0
  145.7892  134.1198  150.9315 C   0  0  0  0  0  0  0  0  0  0  0  0
  144.3931  134.0465  150.7450 C   0  0  0  0  0  0  0  0  0  0  0  0
  143.8450  132.8877  150.1594 C   0  0  0  0  0  0  0  0  0  0  0  0
  144.5883  131.8307  149.7706 N   0  0  0  0  0  0  0  0  0  0  0  0
  145.9228  131.8962  149.9616 C   0  0  0  0  0  0  0  0  0  0  0  0
  146.5718  133.0073  150.5371 C   0  0  0  0  0  0  0  0  0  0  0  0
  149.3232  140.9354  154.5627 C   0  0  0  0  0  0  0  0  0  0  0  0
  150.3440  140.7606  155.7000 C   0  0  0  0  0  0  0  0  0  0  0  0
  150.9878  140.5533  158.4340 H   0  0  0  0  0  0  0  0  0  0  0  0
  150.8794  142.2715  158.8066 H   0  0  0  0  0  0  0  0  0  0  0  0
  152.0946  141.6934  157.6733 H   0  0  0  0  0  0  0  0  0  0  0  0
  150.2088  142.7603  156.4659 H   0  0  0  0  0  0  0  0  0  0  0  0
  148.4775  140.6219  157.7830 H   0  0  0  0  0  0  0  0  0  0  0  0
  148.3961  142.3410  158.0840 H   0  0  0  0  0  0  0  0  0  0  0  0
  146.6208  141.6134  156.5185 H   0  0  0  0  0  0  0  0  0  0  0  0
  147.6838  142.7693  155.7485 H   0  0  0  0  0  0  0  0  0  0  0  0
  145.9300  140.7588  154.4001 H   0  0  0  0  0  0  0  0  0  0  0  0
  146.9902  141.7325  153.4170 H   0  0  0  0  0  0  0  0  0  0  0  0
  148.1430  139.2355  153.0500 H   0  0  0  0  0  0  0  0  0  0  0  0
  147.7819  140.2965  151.2757 H   0  0  0  0  0  0  0  0  0  0  0  0
  145.9908  138.3127  154.2695 H   0  0  0  0  0  0  0  0  0  0  0  0
  145.1147  138.7980  152.8444 H   0  0  0  0  0  0  0  0  0  0  0  0
  147.4893  137.0980  152.4369 H   0  0  0  0  0  0  0  0  0  0  0  0
  147.3189  135.3330  151.5995 H   0  0  0  0  0  0  0  0  0  0  0  0
  143.7489  134.8621  151.0395 H   0  0  0  0  0  0  0  0  0  0  0  0
  142.7796  132.8077  150.0017 H   0  0  0  0  0  0  0  0  0  0  0  0
  146.4924  131.0323  149.6517 H   0  0  0  0  0  0  0  0  0  0  0  0
  147.6414  132.9743  150.6731 H   0  0  0  0  0  0  0  0  0  0  0  0
  149.5229  140.1927  153.7893 H   0  0  0  0  0  0  0  0  0  0  0  0
  149.4382  141.9162  154.0981 H   0  0  0  0  0  0  0  0  0  0  0  0
  151.3532  140.9034  155.3121 H   0  0  0  0  0  0  0  0  0  0  0  0
  150.2992  139.7363  156.0732 H   0  0  0  0  0  0  0  0  0  0  0  0
  147.8856  139.8576  155.4725 H   0  0  0  0  0  0  0  0  0  0  0  0
  1  2  1  0  0  0  0
  1 22  1  0  0  0  0
  1 23  1  0  0  0  0
  1 24  1  0  0  0  0
  2 21  1  0  0  0  0
  2  3  1  0  0  0  0
  2 25  1  0  0  0  0
  3  4  1  0  0  0  0
  3 26  1  0  0  0  0
  3 27  1  0  0  0  0
  4  5  1  0  0  0  0
  4 28  1  0  0  0  0
  4 29  1  0  0  0  0
  5  6  1  0  0  0  0
  5 20  1  0  0  0  0
  5 46  1  0  0  0  0
  6  7  1  0  0  0  0
  6 30  1  0  0  0  0
  6 31  1  0  0  0  0
  7  8  1  0  0  0  0
  7  9  1  0  0  0  0
  7 32  1  0  0  0  0
  8 33  1  0  0  0  0
  9 10  1  0  0  0  0
  9 34  1  0  0  0  0
  9 35  1  0  0  0  0
 10 11  1  0  0  0  0
 10 36  1  0  0  0  0
 11 12  2  0  0  0  0
 11 13  1  0  0  0  0
 13 14  1  0  0  0  0
 13 37  1  0  0  0  0
 14 19  1  0  0  0  0
 14 15  2  0  0  0  0
 15 16  1  0  0  0  0
 15 38  1  0  0  0  0
 16 17  2  0  0  0  0
 16 39  1  0  0  0  0
 17 18  1  0  0  0  0
 18 19  2  0  0  0  0
 18 40  1  0  0  0  0
 19 41  1  0  0  0  0
 20 21  1  0  0  0  0
 20 42  1  0  0  0  0
 20 43  1  0  0  0  0
 21 44  1  0  0  0  0
 21 45  1  0  0  0  0
M  CHG  1   5   1
M  END
> <s_m_source_file>
AV-unprocessed.smi

> <i_m_source_file_index>
1032

> <i_lp_mmshare_version>
43012

> <i_f3d_flags>
0

> <s_epik_input>
W0NIM11bQ0hdMVtDSDJdW0NIMl1OKFtDSDJdW0NIMl0xKVtDSDJdW0NASF0oW09IXSlbQ0gyXVtOSF1DKD1PKVtOSF1jMltjSF1bY0hdbltjSF1bY0hdMg==

> <s_epik_cmdline>
J2VwaWtfcHl0aG9uJywgJy1waCcsICc3LjAnLCAnLXRuJywgJzgnLCAnLW1hJywgJzIwMCcsICctbWV0YWxfYmluZGluZycsICctaW1hZScsICc8aW5maWxlLm1hZT4nLCAnLW9tYWUnLCAnPG91dGZpbGUubWFlPic=

> <r_epik_Ionization_Penalty>
0.11743

> <r_epik_Ionization_Penalty_Charging>
0.00147689

> <r_epik_Ionization_Penalty_Neutral>
0.115954

> <r_epik_State_Penalty>
0.105552

> <r_epik_Charging_Adjusted_Penalty>
0.107029

> <i_epik_Tot_Q>
1

> <i_epik_Tot_abs_Q>
1

> <r_epik_Metal_State_Penalty>
0.0881315

> <b_epik_Metal_Only>
0

> <s_lp_Force_Field>
OPLS_2005

> <r_lp_Energy>
24.9442

> <b_lp_Chiralities_Consistent>
1

> <s_lp_Variant>
AV-unprocessed.smi:1032-1

> <Gold.Version>
5.8.1

> <Gold.Id.Protein>
6NUR|6NUR_protein|mol2

> <Gold.PLP.Fitness>
51.2794

> <Gold.PLP.PLP>
-38.9318

> <Gold.PLP.part.hbond>
-4.2354

> <Gold.PLP.part.metal>
0.0000

> <Gold.PLP.part.buried>
-4.1916

> <Gold.PLP.part.nonpolar>
-30.5420

> <Gold.PLP.part.repulsive>
0.4568

> <Gold.PLP.ligand.clash>
0.0000

> <Gold.PLP.ligand.torsion>
0.9691

> <Gold.PLP.Chemscore.Hbond>
3.0582

> <Gold.PLP.Chemscore.CHOScore>
1.6933

> <Gold.PLP.Chemscore.Metal>
0.0000

> <Gold.Chemscore.Hbonds>
donor molecule, donor type, donor heavy atom, donor atom, acceptor molecule, acceptor atom, score
      L1  H     8    33       P1  7957  1.00
      L1  H    10    36       P1  7948  1.00
      L1  H    13    37       P1  7948  1.00
      P1  H 10785 10796       L1    17  0.03
      L1  C    16    39       P1 10186  1.00
      L1  C    18    40       P1 10747  0.78

> <Gold.PLP.Chemscore.Internal.Correction>
0.0309

> <Gold.Rescore>
     Score         DG    S(hbond)    S(metal)    S(lipo)     H(rot)  DE(clash)    DE(int)     intcor
     17.99     -20.52       2.91        0.00      95.54       2.29       0.09       2.44       ----

> <Gold.Chemscore.Fitness>
17.9950

> <Gold.Chemscore.DG>
-20.5230

> <Gold.Chemscore.ZeroCoef>
-5.4800

> <Gold.Chemscore.Hbond>
2.9096

> <Gold.Chemscore.Metal>
0.0000

> <Gold.Chemscore.Lipo>
95.5413

> <Gold.Chemscore.Internal_Hbond>
0.0000

> <Gold.Chemscore.DEClash>
0.0854

> <Gold.Chemscore.DEInternal>
2.4425

> <Gold.Chemscore.Rot>
2.2865

> <Gold.Chemscore.Internal.Correction>
   9.000000E+99

> <Gold.Chemscore.Hbonds>
donor molecule, donor type, donor heavy atom, donor atom, acceptor molecule, acceptor atom, score
      L1  H     8    33       P1  7957  0.98
      L1  H    10    36       P1  7948  0.99
      L1  H    13    37       P1  7948  0.92
      P1  H 10785 10796       L1    17  0.05

> <Gold.Chemscore.Hbond.Weighted>
-9.7182

> <Gold.Chemscore.Metal.Weighted>
-0.0000

> <Gold.Chemscore.Lipo.Weighted>
-11.1783

> <Gold.Chemscore.Internal_Hbond.Weighted>
0.0000

> <Gold.Chemscore.DEClash.Weighted>
0.0854

> <Gold.Chemscore.DEInternal.Weighted>
2.4425

> <Gold.Chemscore.Rot.Weighted>
5.8536

> <Gold.Chemscore.Internal.Correction.Weighted>
   9.000000E+99

> <Gold.Protein.RotatedTorsions>
[ 6907 6896 6895 6894 ] final -179.18 input  -60.11 | X-H torsion
[ 7974 7965 7964 7962 ] final   79.41 input  175.53 | X-H torsion
[ 8008 7997 7996 7995 ] final   28.82 input   59.86 | X-H torsion
[ 10167 10162 10161 10158 ] final  111.47 input  -65.29 | X-H torsion
[ 10718 10713 10712 10709 ] final -125.79 input   66.30 | X-H torsion
[ 10763 10752 10751 10750 ] final  169.80 input  -60.55 | X-H torsion
[ 11005 11000 10999 10996 ] final   -4.21 input  -57.11 | X-H torsion

> <Gold.Protein.ActiveResidues>
 VAL166  LYS551  ARG553  GLY616  TRP617  ASP618  TYR619  PRO620  LYS621  CYS622 
 ASP623  PHE694  ASN695  SER759  ASP760  ASP761  ALA762  ILE779  LEU786  VAL792 
 PHE793  MET794  SER795  GLU796  ALA797  LYS798  CYS799  TRP800  GLU811  SER814 

> <Gold.Protein.RotatedAtoms>
  151.6492  133.3322  159.3147 H   0  0  0  0  0  0  0  0  0  0  0  0  # atno 6907 bound_to 6896
  150.7969  134.7038  159.6574 H   0  0  0  0  0  0  0  0  0  0  0  0  # atno 6908 bound_to 6896
  152.4057  134.6216  160.0103 H   0  0  0  0  0  0  0  0  0  0  0  0  # atno 6909 bound_to 6896
  145.6645  139.2480  143.1903 H   0  0  0  0  0  0  0  0  0  0  0  0  # atno 7974 bound_to 7965
  155.0647  140.3194  155.4649 H   0  0  0  0  0  0  0  0  0  0  0  0  # atno 8008 bound_to 7997
  156.2805  140.2122  156.5719 H   0  0  0  0  0  0  0  0  0  0  0  0  # atno 8009 bound_to 7997
  154.7104  140.0498  157.0532 H   0  0  0  0  0  0  0  0  0  0  0  0  # atno 8010 bound_to 7997
  139.6609  144.7128  151.1867 H   0  0  0  0  0  0  0  0  0  0  0  0  # atno 10167 bound_to 10162
  156.1707  130.6665  151.0175 H   0  0  0  0  0  0  0  0  0  0  0  0  # atno 10718 bound_to 10713
  154.3885  135.2754  155.2169 H   0  0  0  0  0  0  0  0  0  0  0  0  # atno 10763 bound_to 10752
  154.4246  135.5992  153.6034 H   0  0  0  0  0  0  0  0  0  0  0  0  # atno 10764 bound_to 10752
  152.9832  135.5980  154.4136 H   0  0  0  0  0  0  0  0  0  0  0  0  # atno 10765 bound_to 10752
  140.6778  133.9180  155.8535 H   0  0  0  0  0  0  0  0  0  0  0  0  # atno 11005 bound_to 11000
  146.1097  140.7443  142.9509 LP  0  0  0  0  0  0  0  0  0  0  0  0  # atno 17320 bound_to 7965
  144.7077  140.3919  143.7105 LP  0  0  0  0  0  0  0  0  0  0  0  0  # atno 17321 bound_to 7965
  140.7579  143.5996  150.8713 LP  0  0  0  0  0  0  0  0  0  0  0  0  # atno 17342 bound_to 10162
  139.9653  143.6117  152.2990 LP  0  0  0  0  0  0  0  0  0  0  0  0  # atno 17343 bound_to 10162
  157.6800  131.0840  150.7394 LP  0  0  0  0  0  0  0  0  0  0  0  0  # atno 17370 bound_to 10713
  156.7453  130.4752  149.5468 LP  0  0  0  0  0  0  0  0  0  0  0  0  # atno 17371 bound_to 10713
  141.0341  134.0714  157.3979 LP  0  0  0  0  0  0  0  0  0  0  0  0  # atno 17394 bound_to 11000
  139.8961  135.0144  156.7035 LP  0  0  0  0  0  0  0  0  0  0  0  0  # atno 17395 bound_to 11000

$$$$
