AV-unprocessed.smi:2066|AV-procd|sdf|8420|dock8
  -GOLD-   2272011113D 1   1.00000     0.00000
 Structure written by MMmdl.
 40 41  0  0  0  0  0  0  0  0  2 V2000
  150.3642  135.1919  156.5271 C   0  0  0  0  0  0  0  0  0  0  0  0
  149.8464  135.3287  155.0740 C   0  0  0  0  0  0  0  0  0  0  0  0
  150.5703  134.2610  154.2112 C   0  0  0  0  0  0  0  0  0  0  0  0
  148.3153  135.0371  154.9980 C   0  0  0  0  0  0  0  0  0  0  0  0
  147.7966  134.8901  153.6376 N   0  0  0  0  0  0  0  0  0  0  0  0
  146.8677  134.0045  153.2483 C   0  0  0  0  0  0  0  0  0  0  0  0
  146.3471  133.1888  154.0097 O   0  0  0  0  0  0  0  0  0  0  0  0
  146.5961  134.1290  151.9376 N   0  0  0  0  0  0  0  0  0  0  0  0
  145.6890  133.3687  151.1541 C   0  0  0  0  0  0  0  0  0  0  0  0
  146.0151  132.7418  150.0177 N   0  0  0  0  0  0  0  0  0  0  0  0
  144.9250  132.0711  149.4576 C   0  0  0  0  0  0  0  0  0  0  0  0
  143.7684  132.1995  150.1854 C   0  0  0  0  0  0  0  0  0  0  0  0
  144.0030  133.1754  151.6111 S   0  0  0  0  0  0  0  0  0  0  0  0
  150.0932  136.7198  154.5396 N   0  3  0  0  0  0  0  0  0  0  0  0
  149.3162  137.8056  155.2054 C   0  0  0  0  0  0  0  0  0  0  0  0
  149.4906  139.1369  154.4590 C   0  0  0  0  0  0  0  0  0  0  0  0
  150.8681  139.4794  154.4299 O   0  0  0  0  0  0  0  0  0  0  0  0
  151.6314  138.5105  153.7266 C   0  0  0  0  0  0  0  0  0  0  0  0
  151.5193  137.1398  154.4181 C   0  0  0  0  0  0  0  0  0  0  0  0
  150.3154  134.1592  156.8731 H   0  0  0  0  0  0  0  0  0  0  0  0
  149.7772  135.7848  157.2289 H   0  0  0  0  0  0  0  0  0  0  0  0
  151.4049  135.5031  156.6168 H   0  0  0  0  0  0  0  0  0  0  0  0
  150.3261  133.2460  154.5248 H   0  0  0  0  0  0  0  0  0  0  0  0
  151.6550  134.3325  154.2907 H   0  0  0  0  0  0  0  0  0  0  0  0
  150.2995  134.3474  153.1582 H   0  0  0  0  0  0  0  0  0  0  0  0
  148.0421  134.1503  155.5677 H   0  0  0  0  0  0  0  0  0  0  0  0
  147.7673  135.8580  155.4618 H   0  0  0  0  0  0  0  0  0  0  0  0
  148.1679  135.5201  152.9414 H   0  0  0  0  0  0  0  0  0  0  0  0
  147.0972  134.8504  151.4404 H   0  0  0  0  0  0  0  0  0  0  0  0
  145.0623  131.5249  148.5363 H   0  0  0  0  0  0  0  0  0  0  0  0
  142.7965  131.7812  149.9697 H   0  0  0  0  0  0  0  0  0  0  0  0
  148.2541  137.5760  155.2487 H   0  0  0  0  0  0  0  0  0  0  0  0
  149.6551  137.9344  156.2341 H   0  0  0  0  0  0  0  0  0  0  0  0
  149.0904  139.0754  153.4456 H   0  0  0  0  0  0  0  0  0  0  0  0
  148.9428  139.9281  154.9713 H   0  0  0  0  0  0  0  0  0  0  0  0
  151.2951  138.4500  152.6903 H   0  0  0  0  0  0  0  0  0  0  0  0
  152.6723  138.8338  153.7021 H   0  0  0  0  0  0  0  0  0  0  0  0
  151.9821  137.1806  155.4048 H   0  0  0  0  0  0  0  0  0  0  0  0
  152.0957  136.4389  153.8165 H   0  0  0  0  0  0  0  0  0  0  0  0
  149.7550  136.6894  153.5884 H   0  0  0  0  0  0  0  0  0  0  0  0
  1  2  1  0  0  0  0
  1 20  1  0  0  0  0
  1 21  1  0  0  0  0
  1 22  1  0  0  0  0
  2  3  1  0  0  0  0
  2  4  1  0  0  0  0
  2 14  1  0  0  0  0
  3 23  1  0  0  0  0
  3 24  1  0  0  0  0
  3 25  1  0  0  0  0
  4  5  1  0  0  0  0
  4 26  1  0  0  0  0
  4 27  1  0  0  0  0
  5  6  1  0  0  0  0
  5 28  1  0  0  0  0
  6  7  2  0  0  0  0
  6  8  1  0  0  0  0
  8  9  1  0  0  0  0
  8 29  1  0  0  0  0
  9 13  1  0  0  0  0
  9 10  2  0  0  0  0
 10 11  1  0  0  0  0
 11 12  2  0  0  0  0
 11 30  1  0  0  0  0
 12 13  1  0  0  0  0
 12 31  1  0  0  0  0
 14 19  1  0  0  0  0
 14 15  1  0  0  0  0
 14 40  1  0  0  0  0
 15 16  1  0  0  0  0
 15 32  1  0  0  0  0
 15 33  1  0  0  0  0
 16 17  1  0  0  0  0
 16 34  1  0  0  0  0
 16 35  1  0  0  0  0
 17 18  1  0  0  0  0
 18 19  1  0  0  0  0
 18 36  1  0  0  0  0
 18 37  1  0  0  0  0
 19 38  1  0  0  0  0
 19 39  1  0  0  0  0
M  CHG  1  14   1
M  END
> <s_m_source_file>
AV-unprocessed.smi

> <i_m_source_file_index>
2066

> <i_lp_mmshare_version>
43012

> <i_f3d_flags>
0

> <s_epik_input>
W0NIMl0xW0NIMl1PW0NIMl1bQ0gyXU4xQyhbQ0gzXSkoW0NIM10pW0NIMl1bTkhdQyg9TylbTkhdYzJuW2NIXVtjSF1zMg==

> <s_epik_cmdline>
J2VwaWtfcHl0aG9uJywgJy1waCcsICc3LjAnLCAnLXRuJywgJzgnLCAnLW1hJywgJzIwMCcsICctbWV0YWxfYmluZGluZycsICctaW1hZScsICc8aW5maWxlLm1hZT4nLCAnLW9tYWUnLCAnPG91dGZpbGUubWFlPic=

> <r_lp_tautomer_probability>
0.999

> <r_epik_Ionization_Penalty>
0.695839

> <r_epik_Ionization_Penalty_Charging>
0.695697

> <r_epik_Ionization_Penalty_Neutral>
0.000141498

> <r_epik_State_Penalty>
0.717972

> <r_epik_Charging_Adjusted_Penalty>
1.41367

> <i_epik_Tot_Q>
1

> <i_epik_Tot_abs_Q>
1

> <r_epik_Metal_State_Penalty>
0.756569

> <b_epik_Metal_Only>
0

> <s_lp_Force_Field>
OPLS_2005

> <r_lp_Energy>
24.1099

> <b_lp_Chiralities_Consistent>
1

> <s_lp_Variant>
AV-unprocessed.smi:2066-2

> <Gold.Version>
5.8.1

> <Gold.Id.Protein>
6NUR|6NUR_protein|mol2

> <Gold.PLP.Fitness>
42.3346

> <Gold.PLP.PLP>
-28.2494

> <Gold.PLP.part.hbond>
-3.7836

> <Gold.PLP.part.metal>
0.0000

> <Gold.PLP.part.buried>
-5.2351

> <Gold.PLP.part.nonpolar>
-20.5226

> <Gold.PLP.part.repulsive>
0.4594

> <Gold.PLP.ligand.clash>
0.0000

> <Gold.PLP.ligand.torsion>
0.7457

> <Gold.PLP.Chemscore.Hbond>
4.3670

> <Gold.PLP.Chemscore.CHOScore>
0.7954

> <Gold.PLP.Chemscore.Metal>
0.0000

> <Gold.Chemscore.Hbonds>
donor molecule, donor type, donor heavy atom, donor atom, acceptor molecule, acceptor atom, score
      L1  H     5    28       P1  7948  0.91
      L1  H     8    29       P1  7948  0.24
      L1  H    14    40       P1  7948  2.00
      P1  H  7989  7998       L1    17  0.60
      L1  C    12    31       P1 10952  1.00

> <Gold.PLP.Chemscore.Internal.Correction>
0.0893

> <Gold.Rescore>
     Score         DG    S(hbond)    S(metal)    S(lipo)     H(rot)  DE(clash)    DE(int)     intcor
     16.54     -18.75       2.77        0.00      69.96       1.62       1.38       0.84       ----

> <Gold.Chemscore.Fitness>
16.5394

> <Gold.Chemscore.DG>
-18.7544

> <Gold.Chemscore.ZeroCoef>
-5.4800

> <Gold.Chemscore.Hbond>
2.7683

> <Gold.Chemscore.Metal>
0.0000

> <Gold.Chemscore.Lipo>
69.9588

> <Gold.Chemscore.Internal_Hbond>
0.0000

> <Gold.Chemscore.DEClash>
1.3772

> <Gold.Chemscore.DEInternal>
0.8378

> <Gold.Chemscore.Rot>
1.6238

> <Gold.Chemscore.Internal.Correction>
   9.000000E+99

> <Gold.Chemscore.Hbonds>
donor molecule, donor type, donor heavy atom, donor atom, acceptor molecule, acceptor atom, score
      L1  H     5    28       P1  7948  0.89
      L1  H     8    29       P1  7948  0.17
      L1  H    14    40       P1  7948  0.50
      P1  H  7989  7998       L1    17  0.04

> <Gold.Chemscore.Hbond.Weighted>
-9.2463

> <Gold.Chemscore.Metal.Weighted>
-0.0000

> <Gold.Chemscore.Lipo.Weighted>
-8.1852

> <Gold.Chemscore.Internal_Hbond.Weighted>
0.0000

> <Gold.Chemscore.DEClash.Weighted>
1.3772

> <Gold.Chemscore.DEInternal.Weighted>
0.8378

> <Gold.Chemscore.Rot.Weighted>
4.1570

> <Gold.Chemscore.Internal.Correction.Weighted>
   9.000000E+99

> <Gold.Protein.RotatedTorsions>
[ 6907 6896 6895 6894 ] final -176.11 input  -60.11 | X-H torsion
[ 7974 7965 7964 7962 ] final  122.77 input  175.53 | X-H torsion
[ 8008 7997 7996 7995 ] final  122.79 input   59.86 | X-H torsion
[ 10167 10162 10161 10158 ] final   11.86 input  -65.29 | X-H torsion
[ 10718 10713 10712 10709 ] final   79.19 input   66.30 | X-H torsion
[ 10763 10752 10751 10750 ] final -134.50 input  -60.55 | X-H torsion
[ 11005 11000 10999 10996 ] final  -21.00 input  -57.11 | X-H torsion

> <Gold.Protein.ActiveResidues>
 VAL166  LYS551  ARG553  GLY616  TRP617  ASP618  TYR619  PRO620  LYS621  CYS622 
 ASP623  PHE694  ASN695  SER759  ASP760  ASP761  ALA762  ILE779  LEU786  VAL792 
 PHE793  MET794  SER795  GLU796  ALA797  LYS798  CYS799  TRP800  GLU811  SER814 

> <Gold.Protein.RotatedAtoms>
  151.5995  133.3358  159.3044 H   0  0  0  0  0  0  0  0  0  0  0  0  # atno 6907 bound_to 6896
  150.8215  134.7429  159.6788 H   0  0  0  0  0  0  0  0  0  0  0  0  # atno 6908 bound_to 6896
  152.4308  134.5786  159.9993 H   0  0  0  0  0  0  0  0  0  0  0  0  # atno 6909 bound_to 6896
  145.1037  139.3501  143.4799 H   0  0  0  0  0  0  0  0  0  0  0  0  # atno 7974 bound_to 7965
  156.2741  140.2777  156.1524 H   0  0  0  0  0  0  0  0  0  0  0  0  # atno 8008 bound_to 7997
  155.0839  140.0388  157.2665 H   0  0  0  0  0  0  0  0  0  0  0  0  # atno 8009 bound_to 7997
  154.6942  140.2635  155.6788 H   0  0  0  0  0  0  0  0  0  0  0  0  # atno 8010 bound_to 7997
  140.6105  143.8418  150.7060 H   0  0  0  0  0  0  0  0  0  0  0  0  # atno 10167 bound_to 10162
  157.6769  130.9902  150.1896 H   0  0  0  0  0  0  0  0  0  0  0  0  # atno 10718 bound_to 10713
  154.8718  135.3733  154.4745 H   0  0  0  0  0  0  0  0  0  0  0  0  # atno 10763 bound_to 10752
  153.5403  135.7026  153.5645 H   0  0  0  0  0  0  0  0  0  0  0  0  # atno 10764 bound_to 10752
  153.3809  135.3997  155.1821 H   0  0  0  0  0  0  0  0  0  0  0  0  # atno 10765 bound_to 10752
  140.8519  133.7850  155.9976 H   0  0  0  0  0  0  0  0  0  0  0  0  # atno 11005 bound_to 11000
  146.3529  140.0925  142.8612 LP  0  0  0  0  0  0  0  0  0  0  0  0  # atno 17320 bound_to 7965
  145.0926  140.9294  143.4760 LP  0  0  0  0  0  0  0  0  0  0  0  0  # atno 17321 bound_to 7965
  140.1985  143.3978  152.1810 LP  0  0  0  0  0  0  0  0  0  0  0  0  # atno 17342 bound_to 10162
  139.5357  144.7207  151.4900 LP  0  0  0  0  0  0  0  0  0  0  0  0  # atno 17343 bound_to 10162
  156.2610  130.3711  149.8131 LP  0  0  0  0  0  0  0  0  0  0  0  0  # atno 17370 bound_to 10713
  156.5876  130.8492  151.3399 LP  0  0  0  0  0  0  0  0  0  0  0  0  # atno 17371 bound_to 10713
  140.8780  134.2646  157.5158 LP  0  0  0  0  0  0  0  0  0  0  0  0  # atno 17394 bound_to 11000
  139.8704  134.9601  156.4352 LP  0  0  0  0  0  0  0  0  0  0  0  0  # atno 17395 bound_to 11000

$$$$
