#       Name:                AV-unprocessed.smi:2247
#       Creating user name   scv26
#       Creation time:       Fri Mar 27 12:29:18 2020


#       File generated by GOLD software.
#

@<TRIPOS>MOLECULE
AV-unprocessed.smi:2247
    41    42     1
SMALL
NO_CHARGES


@<TRIPOS>ATOM
      1 ****        -3.9764  -1.8754   2.0753 C.3            1 S1                 0.0000
      2 ****        -3.3476  -0.9922   0.9822 C.3            1 S1                 0.0000
      3 ****        -3.8432  -1.3743  -0.4214 C.3            1 S1                 0.0000
      4 ****        -1.8791  -1.0004   1.0261 N.am           1 S1                 0.0000
      5 ****        -1.1186  -2.1635   1.4545 C.3            1 S1                 0.0000
      6 ****         0.3223  -1.8572   1.0357 C.3            1 S1                 0.0000
      7 ****         0.3962  -0.3316   0.8657 C.3            1 S1                 0.0000
      8 ****         1.1965   0.0037  -0.3112 N.am           1 S1                 0.0000
      9 ****         1.8187   1.1730  -0.5258 C.2            1 S1                 0.0000
     10 ****         1.7531   2.0990   0.2890 O.2            1 S1                 0.0000
     11 ****         2.5112   1.1309  -1.7274 N.2            1 S1                 0.0000
     12 ****         3.4066   2.0335  -1.9893 C.2            1 S1                 0.0000
     13 ****         3.8884   3.1279  -1.2755 N.pl3          1 S1                 0.0000
     14 ****         4.8493   3.7401  -2.0304 C.2            1 S1                 0.0000
     15 ****         4.9697   3.0651  -3.1696 C.2            1 S1                 0.0000
     16 ****         4.0998   2.0163  -3.1733 O.3            1 S1                 0.0000
     17 ****        -1.0802   0.0131   0.6635 C.2            1 S1                 0.0000
     18 ****        -1.4574   1.1060   0.2400 O.2            1 S1                 0.0000
     19 ****        -5.0618  -1.7743   2.0765 H              1 S1                 0.0000
     20 ****        -3.6222  -1.5895   3.0662 H              1 S1                 0.0000
     21 ****        -3.7493  -2.9315   1.9272 H              1 S1                 0.0000
     22 ****        -3.6797   0.0284   1.1813 H              1 S1                 0.0000
     23 ****        -4.9308  -1.3261  -0.4787 H              1 S1                 0.0000
     24 ****        -3.5407  -2.3882  -0.6858 H              1 S1                 0.0000
     25 ****        -3.4454  -0.6992  -1.1798 H              1 S1                 0.0000
     26 ****        -1.1914  -2.2666   2.5379 H              1 S1                 0.0000
     27 ****        -1.4844  -3.0817   0.9932 H              1 S1                 0.0000
     28 ****         1.0456  -2.2241   1.7645 H              1 S1                 0.0000
     29 ****         0.5320  -2.3628   0.0910 H              1 S1                 0.0000
     30 ****         0.7653   0.1466   1.7745 H              1 S1                 0.0000
     31 ****         1.2880  -0.7123  -1.0171 H              1 S1                 0.0000
     32 ****         3.6061   3.4509  -0.3612 H              1 S1                 0.0000
     33 ****         5.3585   4.6179  -1.6605 H              1 S1                 0.0000
     34 ****         5.5994   3.1971  -4.0369 H              1 S1                 0.0000
     35 ****         1.2271   1.9869   1.1320 LP             1 S1                 0.0000
     36 ****         2.2260   2.9609   0.1056 LP             1 S1                 0.0000
     37 ****         2.3210   0.4068  -2.3903 LP             1 S1                 0.0000
     38 ****         3.4639   2.1061  -3.9398 LP             1 S1                 0.0000
     39 ****         4.6048   1.1574  -3.2580 LP             1 S1                 0.0000
     40 ****        -2.4346   1.2945   0.1430 LP             1 S1                 0.0000
     41 ****        -0.7864   1.8052  -0.0070 LP             1 S1                 0.0000
@<TRIPOS>BOND
    1    1    2 1     
    2    1   19 1     
    3    1   20 1     
    4    1   21 1     
    5    2    3 1     
    6    2    4 1     
    7    2   22 1     
    8    3   23 1     
    9    3   24 1     
   10    3   25 1     
   11    4   17 am    
   12    4    5 1     
   13    5    6 1     
   14    5   26 1     
   15    5   27 1     
   16    6    7 1     
   17    6   28 1     
   18    6   29 1     
   19    7    8 1     
   20    7   17 1     
   21    7   30 1     
   22    8   31 1     
   23    8    9 am    
   24    9   11 1     
   25    9   10 2     
   26   11   12 2     
   27   12   16 1     
   28   12   13 1     
   29   13   32 1     
   30   13   14 1     
   31   14   33 1     
   32   14   15 2     
   33   15   34 1     
   34   15   16 1     
   35   17   18 2     
   36   10   35 1     
   37   10   36 1     
   38   11   37 1     
   39   16   38 1     
   40   16   39 1     
   41   18   40 1     
   42   18   41 1     
@<TRIPOS>SUBSTRUCTURE
      1 S1             1
@<TRIPOS>SET
LONE_PAIRS      STATIC     ATOMS    <user>   **** ""
7 35 36 37 38 39 40 41
DONOR_HYDROGENS      STATIC     ATOMS    <user>   **** ""
2 31 32
ATOM$BLUE        STATIC     ATOMS    COLORGROUP SYSTEM
7 35 36 37 38 39 40 41
ATOM$RED        STATIC     ATOMS    COLORGROUP SYSTEM
2 31 32
