AV-unprocessed.smi:1922|AV-procd|sdf|7787|dock4
  -GOLD-   22720 9533D 1   1.00000     0.00000
 Structure written by MMmdl.
 34 35  0  0  0  0  0  0  0  0  2 V2000
  154.0181  139.0676  161.3053 O   0  0  0  0  0  0  0  0  0  0  0  0
  153.7879  139.5162  160.1811 C   0  0  0  0  0  0  0  0  0  0  0  0
  153.9711  138.6490  158.9258 C   0  0  0  0  0  0  0  0  0  0  0  0
  152.7382  138.4465  158.1506 N   0  0  0  0  0  0  0  0  0  0  0  0
  152.6999  139.1936  156.8964 N   0  5  0  0  0  0  0  0  0  0  0  0
  151.6157  139.0716  156.0855 C   0  0  0  0  0  0  0  0  0  0  0  0
  151.5210  139.6531  155.0071 O   0  0  0  0  0  0  0  0  0  0  0  0
  150.5245  138.2185  156.5259 C   0  0  0  0  0  0  0  0  0  0  0  0
  150.5754  137.5614  157.7014 C   0  0  0  0  0  0  0  0  0  0  0  0
  151.7204  137.6570  158.5988 C   0  0  0  0  0  0  0  0  0  0  0  0
  151.7686  137.0682  159.6794 O   0  0  0  0  0  0  0  0  0  0  0  0
  153.3752  140.7741  159.9617 N   0  0  0  0  0  0  0  0  0  0  0  0
  153.1110  141.7744  160.9906 C   0  0  0  0  0  0  0  0  0  0  0  0
  152.9931  143.1886  160.3919 C   0  0  0  0  0  0  0  0  0  0  0  0
  152.0931  144.1223  161.2036 C   0  0  0  0  0  0  0  0  0  0  0  0
  151.7410  145.2637  160.2438 C   0  0  0  0  0  0  0  0  0  0  0  0
  151.8931  144.6937  158.8249 C   0  0  0  0  0  0  0  0  0  0  0  0
  152.3759  143.2481  158.9902 C   0  0  0  0  0  0  0  0  0  0  0  0
  154.7277  139.1029  158.2830 H   0  0  0  0  0  0  0  0  0  0  0  0
  154.3895  137.6907  159.2387 H   0  0  0  0  0  0  0  0  0  0  0  0
  149.6525  138.1112  155.8979 H   0  0  0  0  0  0  0  0  0  0  0  0
  149.7406  136.9404  157.9894 H   0  0  0  0  0  0  0  0  0  0  0  0
  153.2181  141.0546  159.0047 H   0  0  0  0  0  0  0  0  0  0  0  0
  152.2163  141.5222  161.5625 H   0  0  0  0  0  0  0  0  0  0  0  0
  153.9407  141.7465  161.6972 H   0  0  0  0  0  0  0  0  0  0  0  0
  153.9873  143.6366  160.3459 H   0  0  0  0  0  0  0  0  0  0  0  0
  151.1812  143.5984  161.4943 H   0  0  0  0  0  0  0  0  0  0  0  0
  152.5738  144.4784  162.1152 H   0  0  0  0  0  0  0  0  0  0  0  0
  150.7359  145.6446  160.4272 H   0  0  0  0  0  0  0  0  0  0  0  0
  152.4342  146.0943  160.3817 H   0  0  0  0  0  0  0  0  0  0  0  0
  150.9568  144.7348  158.2676 H   0  0  0  0  0  0  0  0  0  0  0  0
  152.6284  145.2768  158.2690 H   0  0  0  0  0  0  0  0  0  0  0  0
  153.0780  142.9530  158.2096 H   0  0  0  0  0  0  0  0  0  0  0  0
  151.5208  142.5729  158.9339 H   0  0  0  0  0  0  0  0  0  0  0  0
  1  2  2  0  0  0  0
  2  3  1  0  0  0  0
  2 12  1  0  0  0  0
  3 19  1  0  0  0  0
  3 20  1  0  0  0  0
  3  4  1  0  0  0  0
  4  5  1  0  0  0  0
  4 10  1  0  0  0  0
  5  6  1  0  0  0  0
  6  7  2  0  0  0  0
  6  8  1  0  0  0  0
  8 21  1  0  0  0  0
  8  9  2  0  0  0  0
  9 22  1  0  0  0  0
  9 10  1  0  0  0  0
 10 11  2  0  0  0  0
 12 13  1  0  0  0  0
 12 23  1  0  0  0  0
 13 14  1  0  0  0  0
 13 24  1  0  0  0  0
 13 25  1  0  0  0  0
 14 18  1  0  0  0  0
 14 15  1  0  0  0  0
 14 26  1  0  0  0  0
 15 16  1  0  0  0  0
 15 27  1  0  0  0  0
 15 28  1  0  0  0  0
 16 17  1  0  0  0  0
 16 29  1  0  0  0  0
 16 30  1  0  0  0  0
 17 18  1  0  0  0  0
 17 31  1  0  0  0  0
 17 32  1  0  0  0  0
 18 33  1  0  0  0  0
 18 34  1  0  0  0  0
M  CHG  1   5  -1
M  END
> <s_m_source_file>
AV-unprocessed.smi

> <i_m_source_file_index>
1922

> <i_lp_mmshare_version>
43012

> <i_f3d_flags>
0

> <s_epik_input>
W0NIMl0xW0NIMl1bQ0gyXVtDSDJdW0NIXTFbQ0gyXVtOSF1DKD1PKVtDSDJdbjJbbkhdYyg9TylbY0hdW2NIXWMyPU8=

> <s_epik_cmdline>
J2VwaWtfcHl0aG9uJywgJy1waCcsICc3LjAnLCAnLXRuJywgJzgnLCAnLW1hJywgJzIwMCcsICctbWV0YWxfYmluZGluZycsICctaW1hZScsICc8aW5maWxlLm1hZT4nLCAnLW9tYWUnLCAnPG91dGZpbGUubWFlPic=

> <r_lp_tautomer_probability>
1

> <r_epik_Ionization_Penalty>
0.0984168

> <r_epik_Ionization_Penalty_Charging>
0.0984168

> <r_epik_Ionization_Penalty_Neutral>
1.97085e-08

> <r_epik_State_Penalty>
0.0346886

> <r_epik_Charging_Adjusted_Penalty>
0.133105

> <i_epik_Tot_Q>
-1

> <i_epik_Tot_abs_Q>
1

> <r_epik_Metal_State_Penalty>
0.0346886

> <b_epik_Metal_Only>
0

> <s_lp_Force_Field>
OPLS_2005

> <r_lp_Energy>
36.8816

> <b_lp_Chiralities_Consistent>
1

> <s_lp_Variant>
AV-unprocessed.smi:1922-1

> <Gold.Version>
5.8.1

> <Gold.Id.Protein>
6NUR|6NUR_protein|mol2

> <Gold.PLP.Fitness>
48.3670

> <Gold.PLP.PLP>
-37.4399

> <Gold.PLP.part.hbond>
-3.0000

> <Gold.PLP.part.metal>
0.0000

> <Gold.PLP.part.buried>
-5.9087

> <Gold.PLP.part.nonpolar>
-28.7641

> <Gold.PLP.part.repulsive>
0.1364

> <Gold.PLP.ligand.clash>
0.0000

> <Gold.PLP.ligand.torsion>
0.5416

> <Gold.PLP.Chemscore.Hbond>
4.0000

> <Gold.PLP.Chemscore.CHOScore>
0.0000

> <Gold.PLP.Chemscore.Metal>
0.0000

> <Gold.Chemscore.Hbonds>
donor molecule, donor type, donor heavy atom, donor atom, acceptor molecule, acceptor atom, score
      P1  H  6896  6908       L1    11  1.00
      P1  H  7989  7998       L1     7  1.00
      P1  H  7997  8010       L1     5  1.89

> <Gold.PLP.Chemscore.Internal.Correction>
0.0102

> <Gold.Rescore>
     Score         DG    S(hbond)    S(metal)    S(lipo)     H(rot)  DE(clash)    DE(int)     intcor
     19.51     -19.88       2.85        0.00      84.06       1.94       0.01       0.37       ----

> <Gold.Chemscore.Fitness>
19.5092

> <Gold.Chemscore.DG>
-19.8835

> <Gold.Chemscore.ZeroCoef>
-5.4800

> <Gold.Chemscore.Hbond>
2.8550

> <Gold.Chemscore.Metal>
0.0000

> <Gold.Chemscore.Lipo>
84.0554

> <Gold.Chemscore.Internal_Hbond>
0.0000

> <Gold.Chemscore.DEClash>
0.0077

> <Gold.Chemscore.DEInternal>
0.3666

> <Gold.Chemscore.Rot>
1.9401

> <Gold.Chemscore.Internal.Correction>
   9.000000E+99

> <Gold.Chemscore.Hbonds>
donor molecule, donor type, donor heavy atom, donor atom, acceptor molecule, acceptor atom, score
      P1  H  6896  6908       L1    11  0.98
      P1  H  7989  7998       L1     7  0.99
      P1  H  7997  8010       L1     5  0.82

> <Gold.Chemscore.Hbond.Weighted>
-9.5357

> <Gold.Chemscore.Metal.Weighted>
-0.0000

> <Gold.Chemscore.Lipo.Weighted>
-9.8345

> <Gold.Chemscore.Internal_Hbond.Weighted>
0.0000

> <Gold.Chemscore.DEClash.Weighted>
0.0077

> <Gold.Chemscore.DEInternal.Weighted>
0.3666

> <Gold.Chemscore.Rot.Weighted>
4.9666

> <Gold.Chemscore.Internal.Correction.Weighted>
   9.000000E+99

> <Gold.Protein.RotatedTorsions>
[ 6907 6896 6895 6894 ] final -132.18 input  -60.11 | X-H torsion
[ 7974 7965 7964 7962 ] final    3.89 input  175.53 | X-H torsion
[ 8008 7997 7996 7995 ] final   86.16 input   59.86 | X-H torsion
[ 10167 10162 10161 10158 ] final -121.83 input  -65.29 | X-H torsion
[ 10718 10713 10712 10709 ] final  -74.27 input   66.30 | X-H torsion
[ 10763 10752 10751 10750 ] final  176.90 input  -60.55 | X-H torsion
[ 11005 11000 10999 10996 ] final   55.11 input  -57.11 | X-H torsion

> <Gold.Protein.ActiveResidues>
 VAL166  LYS551  ARG553  GLY616  TRP617  ASP618  TYR619  PRO620  LYS621  CYS622 
 ASP623  PHE694  ASN695  SER759  ASP760  ASP761  ALA762  ILE779  LEU786  VAL792 
 PHE793  MET794  SER795  GLU796  ALA797  LYS798  CYS799  TRP800  GLU811  SER814 

> <Gold.Protein.RotatedAtoms>
  150.9595  133.6461  159.2756 H   0  0  0  0  0  0  0  0  0  0  0  0  # atno 6907 bound_to 6896
  151.3789  135.0935  159.9499 H   0  0  0  0  0  0  0  0  0  0  0  0  # atno 6908 bound_to 6896
  152.5142  133.9133  159.7553 H   0  0  0  0  0  0  0  0  0  0  0  0  # atno 6909 bound_to 6896
  146.2445  140.0617  142.8368 H   0  0  0  0  0  0  0  0  0  0  0  0  # atno 7974 bound_to 7965
  155.9592  140.3395  155.6476 H   0  0  0  0  0  0  0  0  0  0  0  0  # atno 8008 bound_to 7997
  155.6820  140.0739  157.2499 H   0  0  0  0  0  0  0  0  0  0  0  0  # atno 8009 bound_to 7997
  154.4139  140.1672  156.1980 H   0  0  0  0  0  0  0  0  0  0  0  0  # atno 8010 bound_to 7997
  140.0207  143.5347  152.2222 H   0  0  0  0  0  0  0  0  0  0  0  0  # atno 10167 bound_to 10162
  156.0249  130.4413  150.2866 H   0  0  0  0  0  0  0  0  0  0  0  0  # atno 10718 bound_to 10713
  154.4873  135.2777  155.1524 H   0  0  0  0  0  0  0  0  0  0  0  0  # atno 10763 bound_to 10752
  154.3210  135.6209  153.5511 H   0  0  0  0  0  0  0  0  0  0  0  0  # atno 10764 bound_to 10752
  152.9883  135.5742  154.5287 H   0  0  0  0  0  0  0  0  0  0  0  0  # atno 10765 bound_to 10752
  140.0633  134.5572  155.9127 H   0  0  0  0  0  0  0  0  0  0  0  0  # atno 11005 bound_to 11000
  145.0894  140.9274  143.4778 LP  0  0  0  0  0  0  0  0  0  0  0  0  # atno 17320 bound_to 7965
  145.0786  139.2977  143.5795 LP  0  0  0  0  0  0  0  0  0  0  0  0  # atno 17321 bound_to 7965
  139.6141  144.7615  151.2885 LP  0  0  0  0  0  0  0  0  0  0  0  0  # atno 17342 bound_to 10162
  140.7343  143.6769  150.8034 LP  0  0  0  0  0  0  0  0  0  0  0  0  # atno 17343 bound_to 10162
  157.0970  131.0185  151.3100 LP  0  0  0  0  0  0  0  0  0  0  0  0  # atno 17370 bound_to 10713
  157.4810  130.7765  149.7414 LP  0  0  0  0  0  0  0  0  0  0  0  0  # atno 17371 bound_to 10713
  141.1982  133.6600  156.5781 LP  0  0  0  0  0  0  0  0  0  0  0  0  # atno 17394 bound_to 11000
  140.3737  134.7583  157.4616 LP  0  0  0  0  0  0  0  0  0  0  0  0  # atno 17395 bound_to 11000

$$$$
