AV-unprocessed.smi:2278|AV-procd|sdf|9179|dock5
  -GOLD-   2272012393D 1   1.00000     0.00000
 Structure written by MMmdl.
 46 47  0  0  0  0  0  0  0  0  2 V2000
  150.9679  141.5675  157.0840 C   0  0  0  0  0  0  0  0  0  0  0  0
  149.8131  141.2255  156.1596 C   0  0  0  0  0  0  0  0  0  0  0  0
  150.1396  140.4419  155.0492 N   0  0  0  0  0  0  0  0  0  0  0  0
  149.2185  140.0966  154.2106 C   0  0  0  0  0  0  0  0  0  0  0  0
  147.8790  140.4848  154.3820 N   0  0  0  0  0  0  0  0  0  0  0  0
  146.9306  140.0063  153.3601 C   0  0  0  0  0  0  0  0  0  0  0  0
  147.1536  138.5232  152.9856 C   0  0  2  0  0  0  0  0  0  0  0  0
  147.9431  138.4911  151.8137 O   0  0  0  0  0  0  0  0  0  0  0  0
  145.8447  137.7500  152.7125 C   0  0  0  0  0  0  0  0  0  0  0  0
  146.0847  136.3375  152.3223 N   0  3  2  0  0  0  0  0  0  0  0  0
  145.1668  135.8892  151.2437 C   0  0  0  0  0  0  0  0  0  0  0  0
  145.5256  134.4739  150.7606 C   0  0  0  0  0  0  0  0  0  0  0  0
  145.5165  133.4670  151.9229 C   0  0  1  0  0  0  0  0  0  0  0  0
  145.9054  132.0570  151.4567 C   0  0  0  0  0  0  0  0  0  0  0  0
  146.4448  133.9740  153.0392 C   0  0  0  0  0  0  0  0  0  0  0  0
  146.0672  135.3992  153.4762 C   0  0  0  0  0  0  0  0  0  0  0  0
  147.4774  141.2592  155.4320 C   0  0  0  0  0  0  0  0  0  0  0  0
  146.3007  141.5968  155.5747 O   0  0  0  0  0  0  0  0  0  0  0  0
  148.5363  141.6418  156.3801 C   0  0  0  0  0  0  0  0  0  0  0  0
  148.1206  142.4908  157.5752 C   0  0  0  0  0  0  0  0  0  0  0  0
  151.0900  142.6483  157.1604 H   0  0  0  0  0  0  0  0  0  0  0  0
  151.9074  141.1514  156.7176 H   0  0  0  0  0  0  0  0  0  0  0  0
  150.7905  141.1648  158.0816 H   0  0  0  0  0  0  0  0  0  0  0  0
  149.4197  139.4849  153.3293 H   0  0  0  0  0  0  0  0  0  0  0  0
  145.8967  140.1568  153.6763 H   0  0  0  0  0  0  0  0  0  0  0  0
  147.0294  140.6255  152.4658 H   0  0  0  0  0  0  0  0  0  0  0  0
  147.7264  138.0429  153.7779 H   0  0  0  0  0  0  0  0  0  0  0  0
  148.6454  139.1176  151.9035 H   0  0  0  0  0  0  0  0  0  0  0  0
  145.1925  137.7576  153.5855 H   0  0  0  0  0  0  0  0  0  0  0  0
  145.2989  138.2681  151.9221 H   0  0  0  0  0  0  0  0  0  0  0  0
  144.1373  135.9157  151.6050 H   0  0  0  0  0  0  0  0  0  0  0  0
  145.2250  136.5778  150.3997 H   0  0  0  0  0  0  0  0  0  0  0  0
  144.8210  134.1607  149.9893 H   0  0  0  0  0  0  0  0  0  0  0  0
  146.5105  134.4890  150.2908 H   0  0  0  0  0  0  0  0  0  0  0  0
  144.5019  133.4166  152.3211 H   0  0  0  0  0  0  0  0  0  0  0  0
  146.9137  132.0394  151.0420 H   0  0  0  0  0  0  0  0  0  0  0  0
  145.2227  131.6963  150.6867 H   0  0  0  0  0  0  0  0  0  0  0  0
  145.8731  131.3469  152.2834 H   0  0  0  0  0  0  0  0  0  0  0  0
  146.3958  133.3035  153.8981 H   0  0  0  0  0  0  0  0  0  0  0  0
  147.4805  133.9610  152.6964 H   0  0  0  0  0  0  0  0  0  0  0  0
  146.7647  135.7277  154.2457 H   0  0  0  0  0  0  0  0  0  0  0  0
  145.0754  135.3995  153.9317 H   0  0  0  0  0  0  0  0  0  0  0  0
  147.3724  141.9639  158.1680 H   0  0  0  0  0  0  0  0  0  0  0  0
  147.6836  143.4302  157.2355 H   0  0  0  0  0  0  0  0  0  0  0  0
  148.9489  142.7358  158.2377 H   0  0  0  0  0  0  0  0  0  0  0  0
  147.0149  136.3099  151.9287 H   0  0  0  0  0  0  0  0  0  0  0  0
  1  2  1  0  0  0  0
  1 21  1  0  0  0  0
  1 22  1  0  0  0  0
  1 23  1  0  0  0  0
  2 19  2  0  0  0  0
  2  3  1  0  0  0  0
  3  4  2  0  0  0  0
  4  5  1  0  0  0  0
  4 24  1  0  0  0  0
  5  6  1  0  0  0  0
  5 17  1  0  0  0  0
  6  7  1  0  0  0  0
  6 25  1  0  0  0  0
  6 26  1  0  0  0  0
  7  8  1  0  0  0  0
  7  9  1  0  0  0  0
  7 27  1  0  0  0  0
  8 28  1  0  0  0  0
  9 10  1  0  0  0  0
  9 29  1  0  0  0  0
  9 30  1  0  0  0  0
 10 16  1  0  0  0  0
 10 11  1  0  0  0  0
 10 46  1  0  0  0  0
 11 12  1  0  0  0  0
 11 31  1  0  0  0  0
 11 32  1  0  0  0  0
 12 13  1  0  0  0  0
 12 33  1  0  0  0  0
 12 34  1  0  0  0  0
 13 14  1  0  0  0  0
 13 15  1  0  0  0  0
 13 35  1  0  0  0  0
 14 36  1  0  0  0  0
 14 37  1  0  0  0  0
 14 38  1  0  0  0  0
 15 16  1  0  0  0  0
 15 39  1  0  0  0  0
 15 40  1  0  0  0  0
 16 41  1  0  0  0  0
 16 42  1  0  0  0  0
 17 18  2  0  0  0  0
 17 19  1  0  0  0  0
 19 20  1  0  0  0  0
 20 43  1  0  0  0  0
 20 44  1  0  0  0  0
 20 45  1  0  0  0  0
M  CHG  1  10   1
M  END
> <s_m_source_file>
AV-unprocessed.smi

> <i_m_source_file_index>
2278

> <i_lp_mmshare_version>
43012

> <i_f3d_flags>
0

> <s_epik_input>
W0NIM11jMW5bY0hdbihjKD1PKWMxW0NIM10pW0NIMl1bQ0BIXShbT0hdKVtDSDJdTjJbQ0gyXVtDSDJdW0NIXShbQ0gzXSlbQ0gyXVtDSDJdMg==

> <s_epik_cmdline>
J2VwaWtfcHl0aG9uJywgJy1waCcsICc3LjAnLCAnLXRuJywgJzgnLCAnLW1hJywgJzIwMCcsICctbWV0YWxfYmluZGluZycsICctaW1hZScsICc8aW5maWxlLm1hZT4nLCAnLW9tYWUnLCAnPG91dGZpbGUubWFlPic=

> <r_lp_tautomer_probability>
1

> <r_epik_Ionization_Penalty>
0.00139489

> <r_epik_Ionization_Penalty_Charging>
0.00136819

> <r_epik_Ionization_Penalty_Neutral>
2.66975e-05

> <r_epik_State_Penalty>
0.000910892

> <r_epik_Charging_Adjusted_Penalty>
0.00227908

> <i_epik_Tot_Q>
1

> <i_epik_Tot_abs_Q>
1

> <r_epik_Metal_State_Penalty>
-0

> <b_epik_Metal_Only>
0

> <s_lp_Force_Field>
OPLS_2005

> <r_lp_Energy>
28.1947

> <b_lp_Chiralities_Consistent>
1

> <s_lp_Variant>
AV-unprocessed.smi:2278-1

> <Gold.Version>
5.8.1

> <Gold.Id.Protein>
6NUR|6NUR_protein|mol2

> <Gold.PLP.Fitness>
45.7250

> <Gold.PLP.PLP>
-30.8927

> <Gold.PLP.part.hbond>
-4.6501

> <Gold.PLP.part.metal>
0.0000

> <Gold.PLP.part.buried>
-1.8282

> <Gold.PLP.part.nonpolar>
-25.0810

> <Gold.PLP.part.repulsive>
0.1789

> <Gold.PLP.ligand.clash>
0.0000

> <Gold.PLP.ligand.torsion>
1.2152

> <Gold.PLP.Chemscore.Hbond>
4.7326

> <Gold.PLP.Chemscore.CHOScore>
1.0000

> <Gold.PLP.Chemscore.Metal>
0.0000

> <Gold.Chemscore.Hbonds>
donor molecule, donor type, donor heavy atom, donor atom, acceptor molecule, acceptor atom, score
      L1  H     8    28       P1  7957  0.80
      L1  H    10    46       P1  7948  2.00
      P1  H  7954  7966       L1     8  0.88
      P1  H  7989  7998       L1     3  0.41
      L1  C     4    24       P1  7957  1.00

> <Gold.PLP.Chemscore.Internal.Correction>
0.0650

> <Gold.Rescore>
     Score         DG    S(hbond)    S(metal)    S(lipo)     H(rot)  DE(clash)    DE(int)     intcor
     14.26     -15.90       2.48        0.00      66.30       2.20       0.29       1.35       ----

> <Gold.Chemscore.Fitness>
14.2589

> <Gold.Chemscore.DG>
-15.8962

> <Gold.Chemscore.ZeroCoef>
-5.4800

> <Gold.Chemscore.Hbond>
2.4812

> <Gold.Chemscore.Metal>
0.0000

> <Gold.Chemscore.Lipo>
66.3021

> <Gold.Chemscore.Internal_Hbond>
0.0000

> <Gold.Chemscore.DEClash>
0.2923

> <Gold.Chemscore.DEInternal>
1.3450

> <Gold.Chemscore.Rot>
2.1986

> <Gold.Chemscore.Internal.Correction>
   9.000000E+99

> <Gold.Chemscore.Hbonds>
donor molecule, donor type, donor heavy atom, donor atom, acceptor molecule, acceptor atom, score
      L1  H     8    28       P1  7957  0.73
      L1  H    10    46       P1  7948  0.99
      P1  H  7954  7966       L1     8  0.25
      P1  H  7989  7998       L1     3  0.04

> <Gold.Chemscore.Hbond.Weighted>
-8.2873

> <Gold.Chemscore.Metal.Weighted>
-0.0000

> <Gold.Chemscore.Lipo.Weighted>
-7.7573

> <Gold.Chemscore.Internal_Hbond.Weighted>
0.0000

> <Gold.Chemscore.DEClash.Weighted>
0.2923

> <Gold.Chemscore.DEInternal.Weighted>
1.3450

> <Gold.Chemscore.Rot.Weighted>
5.6285

> <Gold.Chemscore.Internal.Correction.Weighted>
   9.000000E+99

> <Gold.Protein.RotatedTorsions>
[ 6907 6896 6895 6894 ] final -121.79 input  -60.11 | X-H torsion
[ 7974 7965 7964 7962 ] final  138.56 input  175.53 | X-H torsion
[ 8008 7997 7996 7995 ] final   54.65 input   59.86 | X-H torsion
[ 10167 10162 10161 10158 ] final  154.78 input  -65.29 | X-H torsion
[ 10718 10713 10712 10709 ] final   18.27 input   66.30 | X-H torsion
[ 10763 10752 10751 10750 ] final  -67.86 input  -60.55 | X-H torsion
[ 11005 11000 10999 10996 ] final -121.97 input  -57.11 | X-H torsion

> <Gold.Protein.ActiveResidues>
 VAL166  LYS551  ARG553  GLY616  TRP617  ASP618  TYR619  PRO620  LYS621  CYS622 
 ASP623  PHE694  ASN695  SER759  ASP760  ASP761  ALA762  ILE779  LEU786  VAL792 
 PHE793  MET794  SER795  GLU796  ALA797  LYS798  CYS799  TRP800  GLU811  SER814 

> <Gold.Protein.RotatedAtoms>
  150.8515  133.7779  159.3023 H   0  0  0  0  0  0  0  0  0  0  0  0  # atno 6907 bound_to 6896
  151.5450  135.1066  159.9945 H   0  0  0  0  0  0  0  0  0  0  0  0  # atno 6908 bound_to 6896
  152.4556  133.7674  159.6836 H   0  0  0  0  0  0  0  0  0  0  0  0  # atno 6909 bound_to 6896
  144.9361  139.4988  143.5594 H   0  0  0  0  0  0  0  0  0  0  0  0  # atno 7974 bound_to 7965
  155.4883  140.3470  155.4350 H   0  0  0  0  0  0  0  0  0  0  0  0  # atno 8008 bound_to 7997
  156.0994  140.1431  156.9516 H   0  0  0  0  0  0  0  0  0  0  0  0  # atno 8009 bound_to 7997
  154.4684  140.0909  156.7058 H   0  0  0  0  0  0  0  0  0  0  0  0  # atno 8010 bound_to 7997
  139.4822  144.5157  151.7955 H   0  0  0  0  0  0  0  0  0  0  0  0  # atno 10167 bound_to 10162
  157.0939  130.6439  149.5855 H   0  0  0  0  0  0  0  0  0  0  0  0  # atno 10718 bound_to 10713
  154.3807  135.6075  153.5789 H   0  0  0  0  0  0  0  0  0  0  0  0  # atno 10763 bound_to 10752
  152.9788  135.5860  154.4413 H   0  0  0  0  0  0  0  0  0  0  0  0  # atno 10764 bound_to 10752
  154.4182  135.2845  155.1970 H   0  0  0  0  0  0  0  0  0  0  0  0  # atno 10765 bound_to 10752
  141.0030  134.0375  157.3513 H   0  0  0  0  0  0  0  0  0  0  0  0  # atno 11005 bound_to 11000
  146.3267  139.8346  142.8902 LP  0  0  0  0  0  0  0  0  0  0  0  0  # atno 17320 bound_to 7965
  145.3065  141.0208  143.3579 LP  0  0  0  0  0  0  0  0  0  0  0  0  # atno 17321 bound_to 7965
  140.4665  144.1648  150.5912 LP  0  0  0  0  0  0  0  0  0  0  0  0  # atno 17342 bound_to 10162
  140.4428  143.2519  151.9450 LP  0  0  0  0  0  0  0  0  0  0  0  0  # atno 17343 bound_to 10162
  155.9891  130.4937  150.7198 LP  0  0  0  0  0  0  0  0  0  0  0  0  # atno 17370 bound_to 10713
  157.4698  131.0892  151.0655 LP  0  0  0  0  0  0  0  0  0  0  0  0  # atno 17371 bound_to 10713
  139.9048  135.0176  156.7438 LP  0  0  0  0  0  0  0  0  0  0  0  0  # atno 17394 bound_to 11000
  140.6858  133.9434  155.7937 LP  0  0  0  0  0  0  0  0  0  0  0  0  # atno 17395 bound_to 11000

$$$$
