AV-unprocessed.smi:256|AV-procd|sdf|1962|dock10
  -GOLD-   2262021113D 1   1.00000     0.00000
 Structure written by MMmdl.
 61 64  0  0  0  0  0  0  0  0  1 V2000
  146.8016  142.1456  154.2757 C   0  0  0  0  0  0  0  0  0  0  0  0
  148.3000  142.1776  154.6150 C   0  0  0  0  0  0  0  0  0  0  0  0
  148.8537  140.8836  155.2721 C   0  0  1  0  0  0  0  0  0  0  0  0
  148.2129  139.6504  154.5816 C   0  0  0  0  0  0  0  0  0  0  0  0
  148.6822  138.3993  155.1728 N   0  0  0  0  0  0  0  0  0  0  0  0
  148.0274  137.2545  154.8517 C   0  0  0  0  0  0  0  0  0  0  0  0
  148.4883  136.0563  155.3015 N   0  0  0  0  0  0  0  0  0  0  0  0
  147.8455  134.9259  154.9939 C   0  0  0  0  0  0  0  0  0  0  0  0
  146.7439  134.7662  154.2582 N   0  0  0  0  0  0  0  0  0  0  0  0
  146.2809  135.9630  153.7965 C   0  0  0  0  0  0  0  0  0  0  0  0
  146.8548  137.2419  154.0445 C   0  0  0  0  0  0  0  0  0  0  0  0
  146.1118  138.2251  153.4010 N   0  0  0  0  0  0  0  0  0  0  0  0
  145.1517  137.5662  152.8121 C   0  0  0  0  0  0  0  0  0  0  0  0
  145.1814  136.2016  152.9905 N   0  0  0  0  0  0  0  0  0  0  0  0
  144.2461  135.2313  152.4425 C   0  0  0  0  0  0  0  0  0  0  0  0
  144.8071  134.4315  151.2405 C   0  0  0  0  0  0  0  0  0  0  0  0
  145.0072  135.3439  150.1739 O   0  0  0  0  0  0  0  0  0  0  0  0
  146.1544  133.7457  151.5580 C   0  0  0  0  0  0  0  0  0  0  0  0
  146.5995  132.7952  150.4325 C   0  0  0  0  0  0  0  0  0  0  0  0
  145.5792  131.8408  150.1645 O   0  0  0  0  0  0  0  0  0  0  0  0
  144.3752  132.4384  149.6993 C   0  0  0  0  0  0  0  0  0  0  0  0
  143.7933  133.3643  150.7825 C   0  0  0  0  0  0  0  0  0  0  0  0
  150.1340  138.2911  155.1796 C   0  0  0  0  0  0  0  0  0  0  0  0
  150.7342  139.5141  155.8809 C   0  0  0  0  0  0  0  0  0  0  0  0
  150.3335  140.7836  155.2607 N   0  0  0  0  0  0  0  0  0  0  0  0
  150.9932  141.9143  155.9330 C   0  0  0  0  0  0  0  0  0  0  0  0
  150.8349  141.9736  157.4626 C   0  0  0  0  0  0  0  0  0  0  0  0
  150.8799  143.3249  157.8919 O   0  0  0  0  0  0  0  0  0  0  0  0
  152.1348  143.6772  158.4467 C   0  0  0  0  0  0  0  0  0  0  0  0
  146.4605  143.1319  153.9609 H   0  0  0  0  0  0  0  0  0  0  0  0
  146.2066  141.8515  155.1407 H   0  0  0  0  0  0  0  0  0  0  0  0
  146.5814  141.4583  153.4592 H   0  0  0  0  0  0  0  0  0  0  0  0
  148.8702  142.4102  153.7149 H   0  0  0  0  0  0  0  0  0  0  0  0
  148.4269  143.0249  155.2858 H   0  0  0  0  0  0  0  0  0  0  0  0
  148.5229  140.8826  156.3121 H   0  0  0  0  0  0  0  0  0  0  0  0
  147.1286  139.6842  154.6838 H   0  0  0  0  0  0  0  0  0  0  0  0
  148.4412  139.6568  153.5146 H   0  0  0  0  0  0  0  0  0  0  0  0
  148.2758  134.0197  155.3940 H   0  0  0  0  0  0  0  0  0  0  0  0
  144.3949  138.0593  152.2192 H   0  0  0  0  0  0  0  0  0  0  0  0
  143.9585  134.5492  153.2436 H   0  0  0  0  0  0  0  0  0  0  0  0
  143.3360  135.7600  152.1549 H   0  0  0  0  0  0  0  0  0  0  0  0
  145.2390  134.8542  149.3996 H   0  0  0  0  0  0  0  0  0  0  0  0
  146.9352  134.4846  151.7426 H   0  0  0  0  0  0  0  0  0  0  0  0
  146.0544  133.1690  152.4786 H   0  0  0  0  0  0  0  0  0  0  0  0
  146.8436  133.3481  149.5242 H   0  0  0  0  0  0  0  0  0  0  0  0
  147.5048  132.2658  150.7302 H   0  0  0  0  0  0  0  0  0  0  0  0
  144.5602  132.9835  148.7723 H   0  0  0  0  0  0  0  0  0  0  0  0
  143.6617  131.6489  149.4626 H   0  0  0  0  0  0  0  0  0  0  0  0
  143.5031  132.7522  151.6374 H   0  0  0  0  0  0  0  0  0  0  0  0
  142.8783  133.8354  150.4207 H   0  0  0  0  0  0  0  0  0  0  0  0
  150.4658  137.3852  155.6853 H   0  0  0  0  0  0  0  0  0  0  0  0
  150.4949  138.2309  154.1517 H   0  0  0  0  0  0  0  0  0  0  0  0
  150.4498  139.5085  156.9344 H   0  0  0  0  0  0  0  0  0  0  0  0
  151.8167  139.4011  155.8498 H   0  0  0  0  0  0  0  0  0  0  0  0
  152.0662  141.8678  155.7639 H   0  0  0  0  0  0  0  0  0  0  0  0
  150.6541  142.8545  155.4960 H   0  0  0  0  0  0  0  0  0  0  0  0
  149.8763  141.5339  157.7415 H   0  0  0  0  0  0  0  0  0  0  0  0
  151.6032  141.3837  157.9633 H   0  0  0  0  0  0  0  0  0  0  0  0
  152.1143  144.7190  158.7662 H   0  0  0  0  0  0  0  0  0  0  0  0
  152.9341  143.5661  157.7130 H   0  0  0  0  0  0  0  0  0  0  0  0
  152.3687  143.0623  159.3167 H   0  0  0  0  0  0  0  0  0  0  0  0
  1  2  1  0  0  0  0
  1 30  1  0  0  0  0
  1 31  1  0  0  0  0
  1 32  1  0  0  0  0
  2  3  1  0  0  0  0
  2 33  1  0  0  0  0
  2 34  1  0  0  0  0
  3 25  1  0  0  0  0
  3  4  1  0  0  0  0
  3 35  1  0  0  0  0
  4  5  1  0  0  0  0
  4 36  1  0  0  0  0
  4 37  1  0  0  0  0
  5  6  1  0  0  0  0
  5 23  1  0  0  0  0
  6 11  1  0  0  0  0
  6  7  2  0  0  0  0
  7  8  1  0  0  0  0
  8  9  2  0  0  0  0
  8 38  1  0  0  0  0
  9 10  1  0  0  0  0
 10 14  1  0  0  0  0
 10 11  2  0  0  0  0
 11 12  1  0  0  0  0
 12 13  2  0  0  0  0
 13 14  1  0  0  0  0
 13 39  1  0  0  0  0
 14 15  1  0  0  0  0
 15 16  1  0  0  0  0
 15 40  1  0  0  0  0
 15 41  1  0  0  0  0
 16 22  1  0  0  0  0
 16 17  1  0  0  0  0
 16 18  1  0  0  0  0
 17 42  1  0  0  0  0
 18 19  1  0  0  0  0
 18 43  1  0  0  0  0
 18 44  1  0  0  0  0
 19 20  1  0  0  0  0
 19 45  1  0  0  0  0
 19 46  1  0  0  0  0
 20 21  1  0  0  0  0
 21 22  1  0  0  0  0
 21 47  1  0  0  0  0
 21 48  1  0  0  0  0
 22 49  1  0  0  0  0
 22 50  1  0  0  0  0
 23 24  1  0  0  0  0
 23 51  1  0  0  0  0
 23 52  1  0  0  0  0
 24 25  1  0  0  0  0
 24 53  1  0  0  0  0
 24 54  1  0  0  0  0
 25 26  1  0  0  0  0
 26 27  1  0  0  0  0
 26 55  1  0  0  0  0
 26 56  1  0  0  0  0
 27 28  1  0  0  0  0
 27 57  1  0  0  0  0
 27 58  1  0  0  0  0
 28 29  1  0  0  0  0
 29 59  1  0  0  0  0
 29 60  1  0  0  0  0
 29 61  1  0  0  0  0
M  END
> <s_m_source_file>
AV-unprocessed.smi

> <i_m_source_file_index>
256

> <i_lp_mmshare_version>
43012

> <i_f3d_flags>
0

> <s_epik_input>
W0NIM11PW0NIMl1bQ0gyXU4xW0NIMl1bQ0gyXU4oW0NIMl1bQ0BIXTFbQ0gyXVtDSDNdKWMobltjSF1uMiljKGMyMyluW2NIXW4zW0NIMl1DNChbT0hdKVtDSDJdW0NIMl1PW0NIMl1bQ0gyXTQ=

> <s_epik_cmdline>
J2VwaWtfcHl0aG9uJywgJy1waCcsICc3LjAnLCAnLXRuJywgJzgnLCAnLW1hJywgJzIwMCcsICctbWV0YWxfYmluZGluZycsICctaW1hZScsICc8aW5maWxlLm1hZT4nLCAnLW9tYWUnLCAnPG91dGZpbGUubWFlPic=

> <r_lp_tautomer_probability>
1

> <r_epik_Ionization_Penalty>
0.676279

> <r_epik_Ionization_Penalty_Charging>
0

> <r_epik_Ionization_Penalty_Neutral>
0.676279

> <r_epik_State_Penalty>
0.6855

> <r_epik_Charging_Adjusted_Penalty>
0.6855

> <i_epik_Tot_Q>
0

> <i_epik_Tot_abs_Q>
0

> <r_epik_Metal_State_Penalty>
0.678557

> <b_epik_Metal_Only>
0

> <s_lp_Force_Field>
OPLS_2005

> <r_lp_Energy>
58.0034

> <b_lp_Chiralities_Consistent>
1

> <s_lp_Variant>
AV-unprocessed.smi:256-6

> <Gold.Version>
5.8.1

> <Gold.Id.Protein>
6NUR|6NUR_protein|mol2

> <Gold.PLP.Fitness>
45.0338

> <Gold.PLP.PLP>
-37.0810

> <Gold.PLP.part.hbond>
-2.0000

> <Gold.PLP.part.metal>
0.0000

> <Gold.PLP.part.buried>
-1.8183

> <Gold.PLP.part.nonpolar>
-33.5957

> <Gold.PLP.part.repulsive>
0.8466

> <Gold.PLP.ligand.clash>
0.0000

> <Gold.PLP.ligand.torsion>
1.2236

> <Gold.PLP.Chemscore.Hbond>
1.4055

> <Gold.PLP.Chemscore.CHOScore>
1.9290

> <Gold.PLP.Chemscore.Metal>
0.0000

> <Gold.Chemscore.Hbonds>
donor molecule, donor type, donor heavy atom, donor atom, acceptor molecule, acceptor atom, score
      L1  H    17    42       P1  7921  0.96
      P1  H  7989  7998       L1    25  0.36
      L1  C    13    39       P1 10171  1.00
      L1  C    13    39       P1 10175  0.93

> <Gold.PLP.Chemscore.Internal.Correction>
0.3965

> <Gold.Rescore>
     Score         DG    S(hbond)    S(metal)    S(lipo)     H(rot)  DE(clash)    DE(int)     intcor
      9.51     -13.96       1.05        0.00     105.18       2.87       1.64       2.81       ----

> <Gold.Chemscore.Fitness>
9.5090

> <Gold.Chemscore.DG>
-13.9559

> <Gold.Chemscore.ZeroCoef>
-5.4800

> <Gold.Chemscore.Hbond>
1.0532

> <Gold.Chemscore.Metal>
0.0000

> <Gold.Chemscore.Lipo>
105.1755

> <Gold.Chemscore.Internal_Hbond>
0.0000

> <Gold.Chemscore.DEClash>
1.6356

> <Gold.Chemscore.DEInternal>
2.8113

> <Gold.Chemscore.Rot>
2.8700

> <Gold.Chemscore.Internal.Correction>
   9.000000E+99

> <Gold.Chemscore.Hbonds>
donor molecule, donor type, donor heavy atom, donor atom, acceptor molecule, acceptor atom, score
      L1  H    17    42       P1  7921  0.90
      P1  H  7989  7998       L1    25  0.02

> <Gold.Chemscore.Hbond.Weighted>
-3.5175

> <Gold.Chemscore.Metal.Weighted>
-0.0000

> <Gold.Chemscore.Lipo.Weighted>
-12.3055

> <Gold.Chemscore.Internal_Hbond.Weighted>
0.0000

> <Gold.Chemscore.DEClash.Weighted>
1.6356

> <Gold.Chemscore.DEInternal.Weighted>
2.8113

> <Gold.Chemscore.Rot.Weighted>
7.3472

> <Gold.Chemscore.Internal.Correction.Weighted>
   9.000000E+99

> <Gold.Protein.RotatedTorsions>
[ 6907 6896 6895 6894 ] final -177.71 input  -60.11 | X-H torsion
[ 7974 7965 7964 7962 ] final -150.54 input  175.53 | X-H torsion
[ 8008 7997 7996 7995 ] final   15.67 input   59.86 | X-H torsion
[ 10167 10162 10161 10158 ] final   74.62 input  -65.29 | X-H torsion
[ 10718 10713 10712 10709 ] final  -79.67 input   66.30 | X-H torsion
[ 10763 10752 10751 10750 ] final   46.67 input  -60.55 | X-H torsion
[ 11005 11000 10999 10996 ] final -113.44 input  -57.11 | X-H torsion

> <Gold.Protein.ActiveResidues>
 VAL166  LYS551  ARG553  GLY616  TRP617  ASP618  TYR619  PRO620  LYS621  CYS622 
 ASP623  PHE694  ASN695  SER759  ASP760  ASP761  ALA762  ILE779  LEU786  VAL792 
 PHE793  MET794  SER795  GLU796  ALA797  LYS798  CYS799  TRP800  GLU811  SER814 

> <Gold.Protein.RotatedAtoms>
  151.6254  133.3336  159.3096 H   0  0  0  0  0  0  0  0  0  0  0  0  # atno 6907 bound_to 6896
  150.8084  134.7227  159.6677 H   0  0  0  0  0  0  0  0  0  0  0  0  # atno 6908 bound_to 6896
  152.4180  134.6011  160.0052 H   0  0  0  0  0  0  0  0  0  0  0  0  # atno 6909 bound_to 6896
  144.7902  140.4918  143.5778 H   0  0  0  0  0  0  0  0  0  0  0  0  # atno 7974 bound_to 7965
  154.8660  140.2951  155.5510 H   0  0  0  0  0  0  0  0  0  0  0  0  # atno 8008 bound_to 7997
  156.3021  140.2469  156.3575 H   0  0  0  0  0  0  0  0  0  0  0  0  # atno 8009 bound_to 7997
  154.8867  140.0396  157.1804 H   0  0  0  0  0  0  0  0  0  0  0  0  # atno 8010 bound_to 7997
  140.0118  144.5608  150.7653 H   0  0  0  0  0  0  0  0  0  0  0  0  # atno 10167 bound_to 10162
  156.0087  130.4552  150.3684 H   0  0  0  0  0  0  0  0  0  0  0  0  # atno 10718 bound_to 10713
  152.9808  135.6001  154.3637 H   0  0  0  0  0  0  0  0  0  0  0  0  # atno 10763 bound_to 10752
  154.3316  135.2768  155.2470 H   0  0  0  0  0  0  0  0  0  0  0  0  # atno 10764 bound_to 10752
  154.4592  135.5970  153.6299 H   0  0  0  0  0  0  0  0  0  0  0  0  # atno 10765 bound_to 10752
  141.0614  133.9529  157.2660 H   0  0  0  0  0  0  0  0  0  0  0  0  # atno 11005 bound_to 11000
  145.5815  139.1489  143.3233 LP  0  0  0  0  0  0  0  0  0  0  0  0  # atno 17320 bound_to 7965
  146.2150  140.5945  142.9042 LP  0  0  0  0  0  0  0  0  0  0  0  0  # atno 17321 bound_to 7965
  140.7378  143.2770  151.3710 LP  0  0  0  0  0  0  0  0  0  0  0  0  # atno 17342 bound_to 10162
  139.6200  144.0926  152.2382 LP  0  0  0  0  0  0  0  0  0  0  0  0  # atno 17343 bound_to 10162
  157.1770  131.0383  151.2767 LP  0  0  0  0  0  0  0  0  0  0  0  0  # atno 17370 bound_to 10713
  157.4179  130.7421  149.6890 LP  0  0  0  0  0  0  0  0  0  0  0  0  # atno 17371 bound_to 10713
  139.9436  135.0187  156.8784 LP  0  0  0  0  0  0  0  0  0  0  0  0  # atno 17394 bound_to 11000
  140.5861  134.0306  155.7482 LP  0  0  0  0  0  0  0  0  0  0  0  0  # atno 17395 bound_to 11000

$$$$
