AV-unprocessed.smi:640|AV-procd|sdf|3150|dock3
  -GOLD-   22720 0 73D 1   1.00000     0.00000
 Structure written by MMmdl.
 38 40  0  0  0  0  0  0  0  0  3 V2000
  149.8001  141.1054  158.1842 O   0  0  0  0  0  0  0  0  0  0  0  0
  150.5385  141.7859  157.4712 C   0  0  0  0  0  0  0  0  0  0  0  0
  150.5903  141.5518  155.9553 C   0  0  0  0  0  0  0  0  0  0  0  0
  150.8914  140.1543  155.6027 N   0  0  0  0  0  0  0  0  0  0  0  0
  151.9787  139.5452  156.2603 C   0  0  0  0  0  0  0  0  0  0  0  0
  152.3365  138.2684  156.0198 C   0  0  0  0  0  0  0  0  0  0  0  0
  153.4510  137.6560  156.7090 N   0  3  0  0  0  0  0  0  0  0  0  0
  153.6658  136.4607  156.5348 O   0  0  0  0  0  0  0  0  0  0  0  0
  154.1481  138.3473  157.4459 O   0  5  0  0  0  0  0  0  0  0  0  0
  151.5617  137.5232  155.0463 C   0  0  0  0  0  0  0  0  0  0  0  0
  150.5183  138.0989  154.4174 C   0  0  0  0  0  0  0  0  0  0  0  0
  150.1269  139.4865  154.6854 C   0  0  0  0  0  0  0  0  0  0  0  0
  149.1701  140.0160  154.1197 O   0  0  0  0  0  0  0  0  0  0  0  0
  151.3508  142.7416  157.9485 N   0  0  0  0  0  0  0  0  0  0  0  0
  151.4809  143.1260  159.3501 C   0  0  0  0  0  0  0  0  0  0  0  0
  151.1331  144.5877  159.5644 C   0  0  0  0  0  0  0  0  0  0  0  0
  152.1121  145.6873  159.2262 C   0  0  0  0  0  0  0  0  0  0  0  0
  151.7777  145.3878  160.6706 C   0  0  0  0  0  0  0  0  0  0  0  0
  152.8624  142.8230  159.9052 C   0  0  0  0  0  0  0  0  0  0  0  0
  153.2556  141.4228  160.3123 C   0  0  0  0  0  0  0  0  0  0  0  0
  153.0690  142.4920  161.3646 C   0  0  0  0  0  0  0  0  0  0  0  0
  149.6466  141.8600  155.5010 H   0  0  0  0  0  0  0  0  0  0  0  0
  151.3404  142.2237  155.5359 H   0  0  0  0  0  0  0  0  0  0  0  0
  152.4858  140.1814  156.9713 H   0  0  0  0  0  0  0  0  0  0  0  0
  151.8114  136.4980  154.8152 H   0  0  0  0  0  0  0  0  0  0  0  0
  149.9543  137.5251  153.6966 H   0  0  0  0  0  0  0  0  0  0  0  0
  151.9256  143.2441  157.2876 H   0  0  0  0  0  0  0  0  0  0  0  0
  150.7616  142.5466  159.9328 H   0  0  0  0  0  0  0  0  0  0  0  0
  150.0867  144.8161  159.3690 H   0  0  0  0  0  0  0  0  0  0  0  0
  153.1014  145.4017  158.8744 H   0  0  0  0  0  0  0  0  0  0  0  0
  151.7102  146.6019  158.7952 H   0  0  0  0  0  0  0  0  0  0  0  0
  151.1535  146.1033  161.2018 H   0  0  0  0  0  0  0  0  0  0  0  0
  152.5405  144.8973  161.2722 H   0  0  0  0  0  0  0  0  0  0  0  0
  153.6506  143.4165  159.4453 H   0  0  0  0  0  0  0  0  0  0  0  0
  152.4986  140.6435  160.2512 H   0  0  0  0  0  0  0  0  0  0  0  0
  154.2721  141.1039  160.0915 H   0  0  0  0  0  0  0  0  0  0  0  0
  153.9617  142.8848  161.8470 H   0  0  0  0  0  0  0  0  0  0  0  0
  152.1901  142.4148  162.0015 H   0  0  0  0  0  0  0  0  0  0  0  0
  1  2  2  0  0  0  0
  2  3  1  0  0  0  0
  2 14  1  0  0  0  0
  3  4  1  0  0  0  0
  3 22  1  0  0  0  0
  3 23  1  0  0  0  0
  4 12  1  0  0  0  0
  4  5  1  0  0  0  0
  5  6  2  0  0  0  0
  5 24  1  0  0  0  0
  6  7  1  0  0  0  0
  6 10  1  0  0  0  0
  7  8  2  0  0  0  0
  7  9  1  0  0  0  0
 10 11  2  0  0  0  0
 10 25  1  0  0  0  0
 11 12  1  0  0  0  0
 11 26  1  0  0  0  0
 12 13  2  0  0  0  0
 14 15  1  0  0  0  0
 14 27  1  0  0  0  0
 15 16  1  0  0  0  0
 15 19  1  0  0  0  0
 15 28  1  0  0  0  0
 16 18  1  0  0  0  0
 16 17  1  0  0  0  0
 16 29  1  0  0  0  0
 17 18  1  0  0  0  0
 17 30  1  0  0  0  0
 17 31  1  0  0  0  0
 18 32  1  0  0  0  0
 18 33  1  0  0  0  0
 19 21  1  0  0  0  0
 19 20  1  0  0  0  0
 19 34  1  0  0  0  0
 20 21  1  0  0  0  0
 20 35  1  0  0  0  0
 20 36  1  0  0  0  0
 21 37  1  0  0  0  0
 21 38  1  0  0  0  0
M  CHG  1   7   1
M  CHG  1   9  -1
M  END
> <s_m_source_file>
AV-unprocessed.smi

> <i_m_source_file_index>
640

> <i_lp_mmshare_version>
43012

> <i_f3d_flags>
0

> <s_epik_input>
W0NIMl0xW0NIMl1bQ0hdMVtDSF0oW0NIXTJbQ0gyXVtDSDJdMilbTkhdQyg9TylbQ0gyXW4zW2NIXWMoW04rXSg9TylbTy1dKVtjSF1bY0hdYzM9Tw==

> <s_epik_cmdline>
J2VwaWtfcHl0aG9uJywgJy1waCcsICc3LjAnLCAnLXRuJywgJzgnLCAnLW1hJywgJzIwMCcsICctbWV0YWxfYmluZGluZycsICctaW1hZScsICc8aW5maWxlLm1hZT4nLCAnLW9tYWUnLCAnPG91dGZpbGUubWFlPic=

> <r_lp_tautomer_probability>
1

> <r_epik_Ionization_Penalty>
2.04963e-08

> <r_epik_Ionization_Penalty_Charging>
8.36809e-11

> <r_epik_Ionization_Penalty_Neutral>
2.04126e-08

> <r_epik_State_Penalty>
-0

> <r_epik_Charging_Adjusted_Penalty>
8.36809e-11

> <i_epik_Tot_Q>
0

> <i_epik_Tot_abs_Q>
2

> <r_epik_Metal_State_Penalty>
-0

> <b_epik_Metal_Only>
0

> <s_lp_Force_Field>
OPLS_2005

> <r_lp_Energy>
35.0527

> <b_lp_Chiralities_Consistent>
1

> <s_lp_Variant>
AV-unprocessed.smi:640-1

> <Gold.Version>
5.8.1

> <Gold.Id.Protein>
6NUR|6NUR_protein|mol2

> <Gold.PLP.Fitness>
50.9778

> <Gold.PLP.PLP>
-46.1599

> <Gold.PLP.part.hbond>
-1.9304

> <Gold.PLP.part.metal>
0.0000

> <Gold.PLP.part.buried>
-4.3455

> <Gold.PLP.part.nonpolar>
-40.3939

> <Gold.PLP.part.repulsive>
1.3032

> <Gold.PLP.ligand.clash>
0.0000

> <Gold.PLP.ligand.torsion>
1.2449

> <Gold.PLP.Chemscore.Hbond>
1.7120

> <Gold.PLP.Chemscore.CHOScore>
0.0000

> <Gold.PLP.Chemscore.Metal>
0.0000

> <Gold.Chemscore.Hbonds>
donor molecule, donor type, donor heavy atom, donor atom, acceptor molecule, acceptor atom, score
      P1  H  7997  8010       L1     9  0.78
      P1  H 10752 10764       L1     8  0.91

> <Gold.PLP.Chemscore.Internal.Correction>
2.1717

> <Gold.Rescore>
     Score         DG    S(hbond)    S(metal)    S(lipo)     H(rot)  DE(clash)    DE(int)     intcor
     17.83     -19.91       1.86        0.00     112.54       1.94       0.88       1.21       ----

> <Gold.Chemscore.Fitness>
17.8255

> <Gold.Chemscore.DG>
-19.9088

> <Gold.Chemscore.ZeroCoef>
-5.4800

> <Gold.Chemscore.Hbond>
1.8633

> <Gold.Chemscore.Metal>
0.0000

> <Gold.Chemscore.Lipo>
112.5353

> <Gold.Chemscore.Internal_Hbond>
0.0000

> <Gold.Chemscore.DEClash>
0.8766

> <Gold.Chemscore.DEInternal>
1.2068

> <Gold.Chemscore.Rot>
1.9380

> <Gold.Chemscore.Internal.Correction>
   9.000000E+99

> <Gold.Chemscore.Hbonds>
donor molecule, donor type, donor heavy atom, donor atom, acceptor molecule, acceptor atom, score
      P1  H  7997  8010       L1     9  0.78
      P1  H 10752 10764       L1     8  0.86

> <Gold.Chemscore.Hbond.Weighted>
-6.2235

> <Gold.Chemscore.Metal.Weighted>
-0.0000

> <Gold.Chemscore.Lipo.Weighted>
-13.1666

> <Gold.Chemscore.Internal_Hbond.Weighted>
0.0000

> <Gold.Chemscore.DEClash.Weighted>
0.8766

> <Gold.Chemscore.DEInternal.Weighted>
1.2068

> <Gold.Chemscore.Rot.Weighted>
4.9613

> <Gold.Chemscore.Internal.Correction.Weighted>
   9.000000E+99

> <Gold.Protein.RotatedTorsions>
[ 6907 6896 6895 6894 ] final -131.51 input  -60.11 | X-H torsion
[ 7974 7965 7964 7962 ] final    2.42 input  175.53 | X-H torsion
[ 8008 7997 7996 7995 ] final   24.37 input   59.86 | X-H torsion
[ 10167 10162 10161 10158 ] final -125.97 input  -65.29 | X-H torsion
[ 10718 10713 10712 10709 ] final   96.57 input   66.30 | X-H torsion
[ 10763 10752 10751 10750 ] final    7.74 input  -60.55 | X-H torsion
[ 11005 11000 10999 10996 ] final -102.62 input  -57.11 | X-H torsion

> <Gold.Protein.ActiveResidues>
 VAL166  LYS551  ARG553  GLY616  TRP617  ASP618  TYR619  PRO620  LYS621  CYS622 
 ASP623  PHE694  ASN695  SER759  ASP760  ASP761  ALA762  ILE779  LEU786  VAL792 
 PHE793  MET794  SER795  GLU796  ALA797  LYS798  CYS799  TRP800  GLU811  SER814 

> <Gold.Protein.RotatedAtoms>
  150.9518  133.6541  159.2770 H   0  0  0  0  0  0  0  0  0  0  0  0  # atno 6907 bound_to 6896
  151.3894  135.0952  159.9531 H   0  0  0  0  0  0  0  0  0  0  0  0  # atno 6908 bound_to 6896
  152.5113  133.9036  159.7508 H   0  0  0  0  0  0  0  0  0  0  0  0  # atno 6909 bound_to 6896
  146.2444  140.0838  142.8355 H   0  0  0  0  0  0  0  0  0  0  0  0  # atno 7974 bound_to 7965
  154.9952  140.3118  155.4890 H   0  0  0  0  0  0  0  0  0  0  0  0  # atno 8008 bound_to 7997
  156.2934  140.2242  156.4999 H   0  0  0  0  0  0  0  0  0  0  0  0  # atno 8009 bound_to 7997
  154.7668  140.0455  157.1006 H   0  0  0  0  0  0  0  0  0  0  0  0  # atno 8010 bound_to 7997
  139.9765  143.5789  152.2394 H   0  0  0  0  0  0  0  0  0  0  0  0  # atno 10167 bound_to 10162
  157.6925  131.0582  150.4511 H   0  0  0  0  0  0  0  0  0  0  0  0  # atno 10718 bound_to 10713
  153.2329  135.6894  153.7869 H   0  0  0  0  0  0  0  0  0  0  0  0  # atno 10763 bound_to 10752
  153.7027  135.3295  155.3229 H   0  0  0  0  0  0  0  0  0  0  0  0  # atno 10764 bound_to 10752
  154.8322  135.4572  154.1221 H   0  0  0  0  0  0  0  0  0  0  0  0  # atno 10765 bound_to 10752
  141.1181  133.8573  157.1383 H   0  0  0  0  0  0  0  0  0  0  0  0  # atno 11005 bound_to 11000
  145.0709  140.9155  143.4882 LP  0  0  0  0  0  0  0  0  0  0  0  0  # atno 17320 bound_to 7965
  145.0972  139.2848  143.5704 LP  0  0  0  0  0  0  0  0  0  0  0  0  # atno 17321 bound_to 7965
  139.6442  144.7657  151.2277 LP  0  0  0  0  0  0  0  0  0  0  0  0  # atno 17342 bound_to 10162
  140.7504  143.6267  150.8462 LP  0  0  0  0  0  0  0  0  0  0  0  0  # atno 17343 bound_to 10162
  156.4862  130.4085  149.6432 LP  0  0  0  0  0  0  0  0  0  0  0  0  # atno 17370 bound_to 10713
  156.3460  130.7407  151.2359 LP  0  0  0  0  0  0  0  0  0  0  0  0  # atno 17371 bound_to 10713
  140.0118  134.9985  157.0410 LP  0  0  0  0  0  0  0  0  0  0  0  0  # atno 17394 bound_to 11000
  140.4587  134.1507  155.7189 LP  0  0  0  0  0  0  0  0  0  0  0  0  # atno 17395 bound_to 11000

$$$$
