AV-unprocessed.smi:1815|AV-procd|sdf|7353|dock3
  -GOLD-   22720 9 13D 1   1.00000     0.00000
 Structure written by MMmdl.
 40 41  0  0  0  0  0  0  0  0  2 V2000
  151.7603  138.3583  154.5122 C   0  0  0  0  0  0  0  0  0  0  0  0
  150.5126  139.1792  154.8568 C   0  0  2  0  0  0  0  0  0  0  0  0
  149.3794  138.9597  153.8389 C   0  0  0  0  0  0  0  0  0  0  0  0
  148.2242  139.8334  154.1495 N   0  3  2  0  0  0  0  0  0  0  0  0
  147.0682  139.5761  153.2553 C   0  0  0  0  0  0  0  0  0  0  0  0
  146.2368  138.3565  153.6985 C   0  0  0  0  0  0  0  0  0  0  0  0
  146.5659  137.1715  152.9143 N   0  0  0  0  0  0  0  0  0  0  0  0
  145.6626  136.3618  152.3424 C   0  0  0  0  0  0  0  0  0  0  0  0
  144.4469  136.5375  152.4324 O   0  0  0  0  0  0  0  0  0  0  0  0
  146.2563  135.3557  151.6770 N   0  0  0  0  0  0  0  0  0  0  0  0
  145.6406  134.3047  150.9472 C   0  0  0  0  0  0  0  0  0  0  0  0
  144.3678  134.3179  150.5337 N   0  0  0  0  0  0  0  0  0  0  0  0
  144.0299  133.1542  149.8384 C   0  0  0  0  0  0  0  0  0  0  0  0
  145.0649  132.2590  149.7314 C   0  0  0  0  0  0  0  0  0  0  0  0
  146.5138  132.8456  150.5035 S   0  0  0  0  0  0  0  0  0  0  0  0
  148.6497  141.2545  154.1838 C   0  0  0  0  0  0  0  0  0  0  0  0
  149.8197  141.4605  155.1663 C   0  0  1  0  0  0  0  0  0  0  0  0
  149.3982  141.3946  156.6451 C   0  0  0  0  0  0  0  0  0  0  0  0
  150.8824  140.5556  154.8660 O   0  0  0  0  0  0  0  0  0  0  0  0
  151.5376  137.2911  154.4980 H   0  0  0  0  0  0  0  0  0  0  0  0
  152.5501  138.5226  155.2456 H   0  0  0  0  0  0  0  0  0  0  0  0
  152.1548  138.6306  153.5328 H   0  0  0  0  0  0  0  0  0  0  0  0
  150.1764  138.8810  155.8498 H   0  0  0  0  0  0  0  0  0  0  0  0
  149.7305  139.1675  152.8267 H   0  0  0  0  0  0  0  0  0  0  0  0
  149.0682  137.9144  153.8618 H   0  0  0  0  0  0  0  0  0  0  0  0
  146.4429  140.4681  153.1909 H   0  0  0  0  0  0  0  0  0  0  0  0
  147.4445  139.3905  152.2483 H   0  0  0  0  0  0  0  0  0  0  0  0
  146.3886  138.1540  154.7600 H   0  0  0  0  0  0  0  0  0  0  0  0
  145.1719  138.5442  153.5670 H   0  0  0  0  0  0  0  0  0  0  0  0
  147.5456  136.9592  152.7921 H   0  0  0  0  0  0  0  0  0  0  0  0
  147.2653  135.3391  151.6912 H   0  0  0  0  0  0  0  0  0  0  0  0
  143.0273  133.0458  149.4521 H   0  0  0  0  0  0  0  0  0  0  0  0
  145.0621  131.2940  149.2466 H   0  0  0  0  0  0  0  0  0  0  0  0
  148.9567  141.5575  153.1815 H   0  0  0  0  0  0  0  0  0  0  0  0
  147.8213  141.9031  154.4675 H   0  0  0  0  0  0  0  0  0  0  0  0
  150.2205  142.4606  154.9986 H   0  0  0  0  0  0  0  0  0  0  0  0
  148.6860  142.1863  156.8788 H   0  0  0  0  0  0  0  0  0  0  0  0
  150.2595  141.5237  157.3009 H   0  0  0  0  0  0  0  0  0  0  0  0
  148.9223  140.4480  156.8994 H   0  0  0  0  0  0  0  0  0  0  0  0
  147.9261  139.5882  155.0832 H   0  0  0  0  0  0  0  0  0  0  0  0
  1  2  1  0  0  0  0
  1 20  1  0  0  0  0
  1 21  1  0  0  0  0
  1 22  1  0  0  0  0
  2 19  1  0  0  0  0
  2  3  1  0  0  0  0
  2 23  1  0  0  0  0
  3  4  1  0  0  0  0
  3 24  1  0  0  0  0
  3 25  1  0  0  0  0
  4  5  1  0  0  0  0
  4 16  1  0  0  0  0
  4 40  1  0  0  0  0
  5  6  1  0  0  0  0
  5 26  1  0  0  0  0
  5 27  1  0  0  0  0
  6  7  1  0  0  0  0
  6 28  1  0  0  0  0
  6 29  1  0  0  0  0
  7  8  1  0  0  0  0
  7 30  1  0  0  0  0
  8  9  2  0  0  0  0
  8 10  1  0  0  0  0
 10 11  1  0  0  0  0
 10 31  1  0  0  0  0
 11 15  1  0  0  0  0
 11 12  2  0  0  0  0
 12 13  1  0  0  0  0
 13 14  2  0  0  0  0
 13 32  1  0  0  0  0
 14 15  1  0  0  0  0
 14 33  1  0  0  0  0
 16 17  1  0  0  0  0
 16 34  1  0  0  0  0
 16 35  1  0  0  0  0
 17 18  1  0  0  0  0
 17 19  1  0  0  0  0
 17 36  1  0  0  0  0
 18 37  1  0  0  0  0
 18 38  1  0  0  0  0
 18 39  1  0  0  0  0
M  CHG  1   4   1
M  END
> <s_m_source_file>
AV-unprocessed.smi

> <i_m_source_file_index>
1815

> <i_lp_mmshare_version>
43012

> <i_f3d_flags>
0

> <s_epik_input>
W0NIM11bQ0BASF0xW0NIMl1OKFtDSDJdW0NASF0oTzEpW0NIM10pW0NIMl1bQ0gyXVtOSF1DKD1PKVtOSF1jMm5bY0hdW2NIXXMy

> <s_epik_cmdline>
J2VwaWtfcHl0aG9uJywgJy1waCcsICc3LjAnLCAnLXRuJywgJzgnLCAnLW1hJywgJzIwMCcsICctbWV0YWxfYmluZGluZycsICctaW1hZScsICc8aW5maWxlLm1hZT4nLCAnLW9tYWUnLCAnPG91dGZpbGUubWFlPic=

> <r_lp_tautomer_probability>
0.999

> <r_epik_Ionization_Penalty>
0.695838

> <r_epik_Ionization_Penalty_Charging>
0.695697

> <r_epik_Ionization_Penalty_Neutral>
0.000141198

> <r_epik_State_Penalty>
0.717972

> <r_epik_Charging_Adjusted_Penalty>
1.41367

> <i_epik_Tot_Q>
1

> <i_epik_Tot_abs_Q>
1

> <r_epik_Metal_State_Penalty>
0.756405

> <b_epik_Metal_Only>
0

> <s_lp_Force_Field>
OPLS_2005

> <r_lp_Energy>
15.3222

> <b_lp_Chiralities_Consistent>
1

> <s_lp_Variant>
AV-unprocessed.smi:1815-4

> <Gold.Version>
5.8.1

> <Gold.Id.Protein>
6NUR|6NUR_protein|mol2

> <Gold.PLP.Fitness>
45.5221

> <Gold.PLP.PLP>
-34.8411

> <Gold.PLP.part.hbond>
-3.0871

> <Gold.PLP.part.metal>
0.0000

> <Gold.PLP.part.buried>
-2.2595

> <Gold.PLP.part.nonpolar>
-29.5538

> <Gold.PLP.part.repulsive>
0.6107

> <Gold.PLP.ligand.clash>
0.0000

> <Gold.PLP.ligand.torsion>
0.6697

> <Gold.PLP.Chemscore.Hbond>
3.0000

> <Gold.PLP.Chemscore.CHOScore>
1.0000

> <Gold.PLP.Chemscore.Metal>
0.0000

> <Gold.Chemscore.Hbonds>
donor molecule, donor type, donor heavy atom, donor atom, acceptor molecule, acceptor atom, score
      L1  H     7    30       P1  7948  1.00
      L1  H    10    31       P1  7948  1.00
      P1  H  7989  7998       L1    19  1.00
      L1  C    13    32       P1 10186  1.00

> <Gold.PLP.Chemscore.Internal.Correction>
0.0204

> <Gold.Rescore>
     Score         DG    S(hbond)    S(metal)    S(lipo)     H(rot)  DE(clash)    DE(int)     intcor
     17.29     -19.30       2.50        0.00      82.55       1.64       0.10       1.91       ----

> <Gold.Chemscore.Fitness>
17.2913

> <Gold.Chemscore.DG>
-19.2973

> <Gold.Chemscore.ZeroCoef>
-5.4800

> <Gold.Chemscore.Hbond>
2.5010

> <Gold.Chemscore.Metal>
0.0000

> <Gold.Chemscore.Lipo>
82.5501

> <Gold.Chemscore.Internal_Hbond>
0.0000

> <Gold.Chemscore.DEClash>
0.1007

> <Gold.Chemscore.DEInternal>
1.9053

> <Gold.Chemscore.Rot>
1.6385

> <Gold.Chemscore.Internal.Correction>
   9.000000E+99

> <Gold.Chemscore.Hbonds>
donor molecule, donor type, donor heavy atom, donor atom, acceptor molecule, acceptor atom, score
      L1  H     7    30       P1  7948  0.96
      L1  H    10    31       P1  7948  0.94
      P1  H  7989  7998       L1    19  0.56

> <Gold.Chemscore.Hbond.Weighted>
-8.3534

> <Gold.Chemscore.Metal.Weighted>
-0.0000

> <Gold.Chemscore.Lipo.Weighted>
-9.6584

> <Gold.Chemscore.Internal_Hbond.Weighted>
0.0000

> <Gold.Chemscore.DEClash.Weighted>
0.1007

> <Gold.Chemscore.DEInternal.Weighted>
1.9053

> <Gold.Chemscore.Rot.Weighted>
4.1945

> <Gold.Chemscore.Internal.Correction.Weighted>
   9.000000E+99

> <Gold.Protein.RotatedTorsions>
[ 6907 6896 6895 6894 ] final   14.64 input  -60.11 | X-H torsion
[ 7974 7965 7964 7962 ] final  -50.35 input  175.53 | X-H torsion
[ 8008 7997 7996 7995 ] final  160.01 input   59.86 | X-H torsion
[ 10167 10162 10161 10158 ] final -120.02 input  -65.29 | X-H torsion
[ 10718 10713 10712 10709 ] final   66.10 input   66.30 | X-H torsion
[ 10763 10752 10751 10750 ] final  -55.58 input  -60.55 | X-H torsion
[ 11005 11000 10999 10996 ] final  -93.78 input  -57.11 | X-H torsion

> <Gold.Protein.ActiveResidues>
 VAL166  LYS551  ARG553  GLY616  TRP617  ASP618  TYR619  PRO620  LYS621  CYS622 
 ASP623  PHE694  ASN695  SER759  ASP760  ASP761  ALA762  ILE779  LEU786  VAL792 
 PHE793  MET794  SER795  GLU796  ALA797  LYS798  CYS799  TRP800  GLU811  SER814 

> <Gold.Protein.RotatedAtoms>
  151.8054  135.0696  160.0405 H   0  0  0  0  0  0  0  0  0  0  0  0  # atno 6907 bound_to 6896
  152.3059  133.5698  159.5657 H   0  0  0  0  0  0  0  0  0  0  0  0  # atno 6908 bound_to 6896
  150.7296  134.0139  159.3721 H   0  0  0  0  0  0  0  0  0  0  0  0  # atno 6909 bound_to 6896
  145.9308  140.7751  142.9600 H   0  0  0  0  0  0  0  0  0  0  0  0  # atno 7974 bound_to 7965
  156.2201  140.1816  156.7497 H   0  0  0  0  0  0  0  0  0  0  0  0  # atno 8008 bound_to 7997
  154.5852  140.0659  156.9190 H   0  0  0  0  0  0  0  0  0  0  0  0  # atno 8009 bound_to 7997
  155.2432  140.3323  155.4292 H   0  0  0  0  0  0  0  0  0  0  0  0  # atno 8010 bound_to 7997
  140.0404  143.5159  152.2133 H   0  0  0  0  0  0  0  0  0  0  0  0  # atno 10167 bound_to 10162
  157.6148  130.9250  150.0065 H   0  0  0  0  0  0  0  0  0  0  0  0  # atno 10718 bound_to 10713
  154.1931  135.6424  153.5065 H   0  0  0  0  0  0  0  0  0  0  0  0  # atno 10763 bound_to 10752
  153.0030  135.5433  154.6394 H   0  0  0  0  0  0  0  0  0  0  0  0  # atno 10764 bound_to 10752
  154.5788  135.2923  155.0726 H   0  0  0  0  0  0  0  0  0  0  0  0  # atno 10765 bound_to 10752
  141.1488  133.7911  157.0206 H   0  0  0  0  0  0  0  0  0  0  0  0  # atno 11005 bound_to 11000
  144.6764  140.2124  143.7375 LP  0  0  0  0  0  0  0  0  0  0  0  0  # atno 17320 bound_to 7965
  145.8428  139.2138  143.1817 LP  0  0  0  0  0  0  0  0  0  0  0  0  # atno 17321 bound_to 7965
  139.6018  144.7584  151.3155 LP  0  0  0  0  0  0  0  0  0  0  0  0  # atno 17342 bound_to 10162
  140.7263  143.6995  150.7857 LP  0  0  0  0  0  0  0  0  0  0  0  0  # atno 17343 bound_to 10162
  156.1265  130.3644  149.9801 LP  0  0  0  0  0  0  0  0  0  0  0  0  # atno 17370 bound_to 10713
  156.7870  130.9242  151.3646 LP  0  0  0  0  0  0  0  0  0  0  0  0  # atno 17371 bound_to 10713
  140.0818  134.9644  157.1636 LP  0  0  0  0  0  0  0  0  0  0  0  0  # atno 17394 bound_to 11000
  140.3566  134.2540  155.7192 LP  0  0  0  0  0  0  0  0  0  0  0  0  # atno 17395 bound_to 11000

$$$$
