AV-unprocessed.smi:3181|AV-procd|sdf|12139|dock3
  -GOLD-   2272017573D 1   1.00000     0.00000
 Structure written by MMmdl.
 42 43  0  0  0  0  0  0  0  0  2 V2000
  151.1645  139.4417  158.6885 C   0  0  0  0  0  0  0  0  0  0  0  0
  150.8662  140.5375  157.6502 C   0  0  2  0  0  0  0  0  0  0  0  0
  151.8409  140.5137  156.4560 C   0  0  0  0  0  0  0  0  0  0  0  0
  151.7031  139.3221  155.6390 N   0  0  0  0  0  0  0  0  0  0  0  0
  152.1649  138.0845  155.8256 C   0  0  0  0  0  0  0  0  0  0  0  0
  151.8413  137.2411  154.8558 N   0  0  0  0  0  0  0  0  0  0  0  0
  151.1256  138.0817  154.0506 C   0  0  0  0  0  0  0  0  0  0  0  0
  151.0119  139.3405  154.4753 N   0  0  0  0  0  0  0  0  0  0  0  0
  150.9137  141.8696  158.2947 N   0  3  0  0  0  0  0  0  0  0  0  0
  152.2224  142.5654  158.2636 C   0  0  2  0  0  0  0  0  0  0  0  0
  153.2331  141.8521  159.1768 C   0  0  0  0  0  0  0  0  0  0  0  0
  152.9022  142.0452  160.6651 C   0  0  0  0  0  0  0  0  0  0  0  0
  152.7970  143.5344  161.0513 C   0  0  2  0  0  0  0  0  0  0  0  0
  152.4730  143.6608  162.5506 C   0  0  0  0  0  0  0  0  0  0  0  0
  151.7685  144.2634  160.1469 C   0  0  1  0  0  0  0  0  0  0  0  0
  151.6644  145.7688  160.4499 C   0  0  0  0  0  0  0  0  0  0  0  0
  152.1091  144.0534  158.6549 C   0  0  0  0  0  0  0  0  0  0  0  0
  151.0624  138.4447  158.2597 H   0  0  0  0  0  0  0  0  0  0  0  0
  150.4780  139.4971  159.5335 H   0  0  0  0  0  0  0  0  0  0  0  0
  152.1784  139.5329  159.0797 H   0  0  0  0  0  0  0  0  0  0  0  0
  149.8629  140.3630  157.2583 H   0  0  0  0  0  0  0  0  0  0  0  0
  151.6705  141.3801  155.8153 H   0  0  0  0  0  0  0  0  0  0  0  0
  152.8727  140.5834  156.8054 H   0  0  0  0  0  0  0  0  0  0  0  0
  152.7515  137.7954  156.6856 H   0  0  0  0  0  0  0  0  0  0  0  0
  150.6760  137.7566  153.1238 H   0  0  0  0  0  0  0  0  0  0  0  0
  150.2147  142.4651  157.8739 H   0  0  0  0  0  0  0  0  0  0  0  0
  152.5994  142.4972  157.2419 H   0  0  0  0  0  0  0  0  0  0  0  0
  153.2761  140.7886  158.9372 H   0  0  0  0  0  0  0  0  0  0  0  0
  154.2314  142.2464  158.9825 H   0  0  0  0  0  0  0  0  0  0  0  0
  151.9668  141.5363  160.9020 H   0  0  0  0  0  0  0  0  0  0  0  0
  153.6714  141.5602  161.2675 H   0  0  0  0  0  0  0  0  0  0  0  0
  153.7756  143.9887  160.8878 H   0  0  0  0  0  0  0  0  0  0  0  0
  151.4728  143.2885  162.7737 H   0  0  0  0  0  0  0  0  0  0  0  0
  152.5312  144.6938  162.8925 H   0  0  0  0  0  0  0  0  0  0  0  0
  153.1802  143.0894  163.1526 H   0  0  0  0  0  0  0  0  0  0  0  0
  150.7856  143.8284  160.3324 H   0  0  0  0  0  0  0  0  0  0  0  0
  152.6339  146.2600  160.3614 H   0  0  0  0  0  0  0  0  0  0  0  0
  151.2836  145.9548  161.4539 H   0  0  0  0  0  0  0  0  0  0  0  0
  150.9797  146.2605  159.7583 H   0  0  0  0  0  0  0  0  0  0  0  0
  153.0611  144.5411  158.4396 H   0  0  0  0  0  0  0  0  0  0  0  0
  151.3760  144.5578  158.0252 H   0  0  0  0  0  0  0  0  0  0  0  0
  150.6700  141.7374  159.2660 H   0  0  0  0  0  0  0  0  0  0  0  0
  1  2  1  0  0  0  0
  1 18  1  0  0  0  0
  1 19  1  0  0  0  0
  1 20  1  0  0  0  0
  2  3  1  0  0  0  0
  2  9  1  0  0  0  0
  2 21  1  0  0  0  0
  3  4  1  0  0  0  0
  3 22  1  0  0  0  0
  3 23  1  0  0  0  0
  4  8  1  0  0  0  0
  4  5  1  0  0  0  0
  5  6  2  0  0  0  0
  5 24  1  0  0  0  0
  6  7  1  0  0  0  0
  7  8  2  0  0  0  0
  7 25  1  0  0  0  0
  9 10  1  0  0  0  0
  9 26  1  0  0  0  0
  9 42  1  0  0  0  0
 10 17  1  0  0  0  0
 10 11  1  0  0  0  0
 10 27  1  0  0  0  0
 11 12  1  0  0  0  0
 11 28  1  0  0  0  0
 11 29  1  0  0  0  0
 12 13  1  0  0  0  0
 12 30  1  0  0  0  0
 12 31  1  0  0  0  0
 13 14  1  0  0  0  0
 13 15  1  0  0  0  0
 13 32  1  0  0  0  0
 14 33  1  0  0  0  0
 14 34  1  0  0  0  0
 14 35  1  0  0  0  0
 15 16  1  0  0  0  0
 15 17  1  0  0  0  0
 15 36  1  0  0  0  0
 16 37  1  0  0  0  0
 16 38  1  0  0  0  0
 16 39  1  0  0  0  0
 17 40  1  0  0  0  0
 17 41  1  0  0  0  0
M  CHG  1   9   1
M  END
> <s_m_source_file>
AV-unprocessed.smi

> <i_m_source_file_index>
3181

> <i_lp_mmshare_version>
43012

> <i_f3d_flags>
0

> <s_epik_input>
bjFbY0hdbltjSF1uMVtDSDJdW0NAQEhdKFtDSDNdKVtOSF1bQ0BASF0yW0NIMl1bQ0gyXVtDQEBIXShbQ0gzXSlbQ0BASF0oW0NIM10pW0NIMl0y

> <s_epik_cmdline>
J2VwaWtfcHl0aG9uJywgJy1waCcsICc3LjAnLCAnLXRuJywgJzgnLCAnLW1hJywgJzIwMCcsICctbWV0YWxfYmluZGluZycsICctaW1hZScsICc8aW5maWxlLm1hZT4nLCAnLW9tYWUnLCAnPG91dGZpbGUubWFlPic=

> <r_lp_tautomer_probability>
1

> <r_epik_Ionization_Penalty>
0.000617007

> <r_epik_Ionization_Penalty_Charging>
0.000616215

> <r_epik_Ionization_Penalty_Neutral>
7.92544e-07

> <r_epik_State_Penalty>
0.000388807

> <r_epik_Charging_Adjusted_Penalty>
0.00100502

> <i_epik_Tot_Q>
1

> <i_epik_Tot_abs_Q>
1

> <r_epik_Metal_State_Penalty>
-0

> <b_epik_Metal_Only>
0

> <s_lp_Force_Field>
OPLS_2005

> <r_lp_Energy>
23.3583

> <b_lp_Chiralities_Consistent>
1

> <s_lp_Variant>
AV-unprocessed.smi:3181-5

> <Gold.Version>
5.8.1

> <Gold.Id.Protein>
6NUR|6NUR_protein|mol2

> <Gold.PLP.Fitness>
47.4187

> <Gold.PLP.PLP>
-39.5069

> <Gold.PLP.part.hbond>
-2.0000

> <Gold.PLP.part.metal>
0.0000

> <Gold.PLP.part.buried>
-3.7088

> <Gold.PLP.part.nonpolar>
-34.4879

> <Gold.PLP.part.repulsive>
0.3191

> <Gold.PLP.ligand.clash>
0.0000

> <Gold.PLP.ligand.torsion>
0.7425

> <Gold.PLP.Chemscore.Hbond>
2.0000

> <Gold.PLP.Chemscore.CHOScore>
1.1231

> <Gold.PLP.Chemscore.Metal>
0.0000

> <Gold.Chemscore.Hbonds>
donor molecule, donor type, donor heavy atom, donor atom, acceptor molecule, acceptor atom, score
      P1  H  7989  7998       L1     8  1.00
      P1  H 10752 10764       L1     6  0.98
      L1  C     7    25       P1  7948  0.40
      L1  C     7    25       P1  7949  0.69

> <Gold.PLP.Chemscore.Internal.Correction>
0.0276

> <Gold.Rescore>
     Score         DG    S(hbond)    S(metal)    S(lipo)     H(rot)  DE(clash)    DE(int)     intcor
     17.22     -18.69       1.86        0.00     106.04       2.11       0.79       0.69       ----

> <Gold.Chemscore.Fitness>
17.2166

> <Gold.Chemscore.DG>
-18.6891

> <Gold.Chemscore.ZeroCoef>
-5.4800

> <Gold.Chemscore.Hbond>
1.8571

> <Gold.Chemscore.Metal>
0.0000

> <Gold.Chemscore.Lipo>
106.0389

> <Gold.Chemscore.Internal_Hbond>
0.0000

> <Gold.Chemscore.DEClash>
0.7865

> <Gold.Chemscore.DEInternal>
0.6860

> <Gold.Chemscore.Rot>
2.1095

> <Gold.Chemscore.Internal.Correction>
   9.000000E+99

> <Gold.Chemscore.Hbonds>
donor molecule, donor type, donor heavy atom, donor atom, acceptor molecule, acceptor atom, score
      P1  H  7989  7998       L1     8  0.60
      P1  H 10752 10764       L1     6  0.90

> <Gold.Chemscore.Hbond.Weighted>
-6.2029

> <Gold.Chemscore.Metal.Weighted>
-0.0000

> <Gold.Chemscore.Lipo.Weighted>
-12.4066

> <Gold.Chemscore.Internal_Hbond.Weighted>
0.0000

> <Gold.Chemscore.DEClash.Weighted>
0.7865

> <Gold.Chemscore.DEInternal.Weighted>
0.6860

> <Gold.Chemscore.Rot.Weighted>
5.4003

> <Gold.Chemscore.Internal.Correction.Weighted>
   9.000000E+99

> <Gold.Protein.RotatedTorsions>
[ 6907 6896 6895 6894 ] final  138.20 input  -60.11 | X-H torsion
[ 7974 7965 7964 7962 ] final -149.72 input  175.53 | X-H torsion
[ 8008 7997 7996 7995 ] final  -14.91 input   59.86 | X-H torsion
[ 10167 10162 10161 10158 ] final  -24.77 input  -65.29 | X-H torsion
[ 10718 10713 10712 10709 ] final   51.48 input   66.30 | X-H torsion
[ 10763 10752 10751 10750 ] final  -68.35 input  -60.55 | X-H torsion
[ 11005 11000 10999 10996 ] final  -79.03 input  -57.11 | X-H torsion

> <Gold.Protein.ActiveResidues>
 VAL166  LYS551  ARG553  GLY616  TRP617  ASP618  TYR619  PRO620  LYS621  CYS622 
 ASP623  PHE694  ASN695  SER759  ASP760  ASP761  ALA762  ILE779  LEU786  VAL792 
 PHE793  MET794  SER795  GLU796  ALA797  LYS798  CYS799  TRP800  GLU811  SER814 

> <Gold.Protein.RotatedAtoms>
  152.2693  133.5368  159.5428 H   0  0  0  0  0  0  0  0  0  0  0  0  # atno 6907 bound_to 6896
  150.7153  134.0720  159.3877 H   0  0  0  0  0  0  0  0  0  0  0  0  # atno 6908 bound_to 6896
  151.8635  135.0515  160.0522 H   0  0  0  0  0  0  0  0  0  0  0  0  # atno 6909 bound_to 6896
  144.7950  140.5027  143.5746 H   0  0  0  0  0  0  0  0  0  0  0  0  # atno 7974 bound_to 7965
  154.5172  140.2210  155.9043 H   0  0  0  0  0  0  0  0  0  0  0  0  # atno 8008 bound_to 7997
  156.1621  140.3140  155.8791 H   0  0  0  0  0  0  0  0  0  0  0  0  # atno 8009 bound_to 7997
  155.3730  140.0468  157.3036 H   0  0  0  0  0  0  0  0  0  0  0  0  # atno 8010 bound_to 7997
  140.7288  143.4323  151.0782 H   0  0  0  0  0  0  0  0  0  0  0  0  # atno 10167 bound_to 10162
  157.4985  130.8422  149.8287 H   0  0  0  0  0  0  0  0  0  0  0  0  # atno 10718 bound_to 10713
  154.3878  135.6059  153.5826 H   0  0  0  0  0  0  0  0  0  0  0  0  # atno 10763 bound_to 10752
  152.9787  135.5876  154.4334 H   0  0  0  0  0  0  0  0  0  0  0  0  # atno 10764 bound_to 10752
  154.4113  135.2844  155.2013 H   0  0  0  0  0  0  0  0  0  0  0  0  # atno 10765 bound_to 10752
  141.1666  133.7088  156.8061 H   0  0  0  0  0  0  0  0  0  0  0  0  # atno 11005 bound_to 11000
  145.5695  139.1483  143.3296 LP  0  0  0  0  0  0  0  0  0  0  0  0  # atno 17320 bound_to 7965
  146.2216  140.5829  142.9015 LP  0  0  0  0  0  0  0  0  0  0  0  0  # atno 17321 bound_to 7965
  139.7981  143.8122  152.3160 LP  0  0  0  0  0  0  0  0  0  0  0  0  # atno 17342 bound_to 10162
  139.8129  144.7328  150.9673 LP  0  0  0  0  0  0  0  0  0  0  0  0  # atno 17343 bound_to 10162
  156.0215  130.3794  150.1949 LP  0  0  0  0  0  0  0  0  0  0  0  0  # atno 17370 bound_to 10713
  157.0138  130.9959  151.3358 LP  0  0  0  0  0  0  0  0  0  0  0  0  # atno 17371 bound_to 10713
  140.2221  134.8749  157.3388 LP  0  0  0  0  0  0  0  0  0  0  0  0  # atno 17394 bound_to 11000
  140.1977  134.4293  155.7680 LP  0  0  0  0  0  0  0  0  0  0  0  0  # atno 17395 bound_to 11000

$$$$
