AV-unprocessed.smi:2393|AV-procd|sdf|9489|dock8
  -GOLD-   2272013113D 1   1.00000     0.00000
 Structure written by MMmdl.
 43 44  0  0  0  0  0  0  0  0  1 V2000
  144.8143  132.3130  150.0484 C   0  0  0  0  0  0  0  0  0  0  0  0
  144.5091  133.4206  151.0349 C   0  0  0  0  0  0  0  0  0  0  0  0
  143.2570  133.4945  151.6750 C   0  0  0  0  0  0  0  0  0  0  0  0
  143.0344  134.5511  152.5798 C   0  0  0  0  0  0  0  0  0  0  0  0
  141.7119  134.6911  153.3044 C   0  0  0  0  0  0  0  0  0  0  0  0
  143.9624  135.4922  152.8556 N   0  0  0  0  0  0  0  0  0  0  0  0
  145.1716  135.4314  152.2446 C   0  0  0  0  0  0  0  0  0  0  0  0
  146.2168  136.3654  152.4730 N   0  0  0  0  0  0  0  0  0  0  0  0
  146.2450  137.3791  153.3561 C   0  0  0  0  0  0  0  0  0  0  0  0
  145.3132  137.7102  154.0900 O   0  0  0  0  0  0  0  0  0  0  0  0
  147.4292  138.0088  153.3359 N   0  0  0  0  0  0  0  0  0  0  0  0
  147.7838  139.1544  154.1692 C   0  0  1  0  0  0  0  0  0  0  0  0
  149.2322  139.5746  153.8943 C   0  0  0  0  0  0  0  0  0  0  0  0
  149.5815  140.8431  154.6849 C   0  0  0  0  0  0  0  0  0  0  0  0
  148.6683  141.8932  154.3718 O   0  0  0  0  0  0  0  0  0  0  0  0
  147.2851  141.6299  154.6318 C   0  0  0  0  0  0  0  0  0  0  0  0
  147.0178  141.5444  156.1503 C   0  0  0  0  0  0  0  0  0  0  0  0
  146.5328  142.8430  154.0602 C   0  0  0  0  0  0  0  0  0  0  0  0
  146.8511  140.3452  153.8850 C   0  0  0  0  0  0  0  0  0  0  0  0
  145.4781  134.4014  151.3273 C   0  0  0  0  0  0  0  0  0  0  0  0
  144.0083  131.5793  150.0138 H   0  0  0  0  0  0  0  0  0  0  0  0
  145.7326  131.7968  150.3293 H   0  0  0  0  0  0  0  0  0  0  0  0
  144.9442  132.7262  149.0479 H   0  0  0  0  0  0  0  0  0  0  0  0
  142.4881  132.7615  151.4782 H   0  0  0  0  0  0  0  0  0  0  0  0
  141.0798  133.8171  153.1452 H   0  0  0  0  0  0  0  0  0  0  0  0
  141.1764  135.5702  152.9452 H   0  0  0  0  0  0  0  0  0  0  0  0
  141.8735  134.8014  154.3771 H   0  0  0  0  0  0  0  0  0  0  0  0
  147.0433  136.2382  151.9082 H   0  0  0  0  0  0  0  0  0  0  0  0
  148.1379  137.6716  152.7010 H   0  0  0  0  0  0  0  0  0  0  0  0
  147.7040  138.8679  155.2190 H   0  0  0  0  0  0  0  0  0  0  0  0
  149.9183  138.7696  154.1599 H   0  0  0  0  0  0  0  0  0  0  0  0
  149.3702  139.7656  152.8289 H   0  0  0  0  0  0  0  0  0  0  0  0
  149.5924  140.6448  155.7565 H   0  0  0  0  0  0  0  0  0  0  0  0
  150.5869  141.1744  154.4252 H   0  0  0  0  0  0  0  0  0  0  0  0
  145.9510  141.4425  156.3525 H   0  0  0  0  0  0  0  0  0  0  0  0
  147.3640  142.4441  156.6600 H   0  0  0  0  0  0  0  0  0  0  0  0
  147.5112  140.6945  156.6195 H   0  0  0  0  0  0  0  0  0  0  0  0
  145.4551  142.7390  154.1897 H   0  0  0  0  0  0  0  0  0  0  0  0
  146.7277  142.9647  152.9942 H   0  0  0  0  0  0  0  0  0  0  0  0
  146.8384  143.7659  154.5546 H   0  0  0  0  0  0  0  0  0  0  0  0
  146.8535  140.5392  152.8110 H   0  0  0  0  0  0  0  0  0  0  0  0
  145.8222  140.0911  154.1432 H   0  0  0  0  0  0  0  0  0  0  0  0
  146.4459  134.3634  150.8481 H   0  0  0  0  0  0  0  0  0  0  0  0
  1  2  1  0  0  0  0
  1 21  1  0  0  0  0
  1 22  1  0  0  0  0
  1 23  1  0  0  0  0
  2 20  1  0  0  0  0
  2  3  2  0  0  0  0
  3  4  1  0  0  0  0
  3 24  1  0  0  0  0
  4  5  1  0  0  0  0
  4  6  2  0  0  0  0
  5 25  1  0  0  0  0
  5 26  1  0  0  0  0
  5 27  1  0  0  0  0
  6  7  1  0  0  0  0
  7  8  1  0  0  0  0
  7 20  2  0  0  0  0
  8  9  1  0  0  0  0
  8 28  1  0  0  0  0
  9 10  2  0  0  0  0
  9 11  1  0  0  0  0
 11 12  1  0  0  0  0
 11 29  1  0  0  0  0
 12 19  1  0  0  0  0
 12 13  1  0  0  0  0
 12 30  1  0  0  0  0
 13 14  1  0  0  0  0
 13 31  1  0  0  0  0
 13 32  1  0  0  0  0
 14 15  1  0  0  0  0
 14 33  1  0  0  0  0
 14 34  1  0  0  0  0
 15 16  1  0  0  0  0
 16 17  1  0  0  0  0
 16 18  1  0  0  0  0
 16 19  1  0  0  0  0
 17 35  1  0  0  0  0
 17 36  1  0  0  0  0
 17 37  1  0  0  0  0
 18 38  1  0  0  0  0
 18 39  1  0  0  0  0
 18 40  1  0  0  0  0
 19 41  1  0  0  0  0
 19 42  1  0  0  0  0
 20 43  1  0  0  0  0
M  END
> <s_m_source_file>
AV-unprocessed.smi

> <i_m_source_file_index>
2393

> <i_lp_mmshare_version>
43012

> <i_f3d_flags>
0

> <s_epik_input>
W0NIM11jMVtjSF1jKFtDSDNdKW5jKFtjSF0xKVtOSF1DKD1PKVtOSF1bQ0BASF0oW0NIMl0yKVtDSDJdW0NIMl1PQzIoW0NIM10pW0NIM10=

> <s_epik_cmdline>
J2VwaWtfcHl0aG9uJywgJy1waCcsICc3LjAnLCAnLXRuJywgJzgnLCAnLW1hJywgJzIwMCcsICctbWV0YWxfYmluZGluZycsICctaW1hZScsICc8aW5maWxlLm1hZT4nLCAnLW9tYWUnLCAnPG91dGZpbGUubWFlPic=

> <r_lp_tautomer_probability>
1

> <r_epik_Ionization_Penalty>
0.000261351

> <r_epik_Ionization_Penalty_Charging>
0

> <r_epik_Ionization_Penalty_Neutral>
0.000261351

> <r_epik_State_Penalty>
-0

> <r_epik_Charging_Adjusted_Penalty>
0

> <i_epik_Tot_Q>
0

> <i_epik_Tot_abs_Q>
0

> <r_epik_Metal_State_Penalty>
-0

> <b_epik_Metal_Only>
0

> <s_lp_Force_Field>
OPLS_2005

> <r_lp_Energy>
12.7135

> <b_lp_Chiralities_Consistent>
1

> <s_lp_Variant>
AV-unprocessed.smi:2393-2

> <Gold.Version>
5.8.1

> <Gold.Id.Protein>
6NUR|6NUR_protein|mol2

> <Gold.PLP.Fitness>
41.3648

> <Gold.PLP.PLP>
-35.0760

> <Gold.PLP.part.hbond>
-3.0000

> <Gold.PLP.part.metal>
0.0000

> <Gold.PLP.part.buried>
-3.7287

> <Gold.PLP.part.nonpolar>
-28.9047

> <Gold.PLP.part.repulsive>
0.7062

> <Gold.PLP.ligand.clash>
0.0000

> <Gold.PLP.ligand.torsion>
0.0079

> <Gold.PLP.Chemscore.Hbond>
2.1014

> <Gold.PLP.Chemscore.CHOScore>
0.0000

> <Gold.PLP.Chemscore.Metal>
0.0000

> <Gold.Chemscore.Hbonds>
donor molecule, donor type, donor heavy atom, donor atom, acceptor molecule, acceptor atom, score
      L1  H     8    28       P1  7948  0.96
      L1  H    11    29       P1  7948  0.99
      P1  H  8011  8017       L1    15  0.04

> <Gold.PLP.Chemscore.Internal.Correction>
0.0003

> <Gold.Rescore>
     Score         DG    S(hbond)    S(metal)    S(lipo)     H(rot)  DE(clash)    DE(int)     intcor
     17.57     -18.93       1.96        0.00      80.82       1.00       0.05       1.31       ----

> <Gold.Chemscore.Fitness>
17.5675

> <Gold.Chemscore.DG>
-18.9258

> <Gold.Chemscore.ZeroCoef>
-5.4800

> <Gold.Chemscore.Hbond>
1.9611

> <Gold.Chemscore.Metal>
0.0000

> <Gold.Chemscore.Lipo>
80.8185

> <Gold.Chemscore.Internal_Hbond>
0.0000

> <Gold.Chemscore.DEClash>
0.0461

> <Gold.Chemscore.DEInternal>
1.3122

> <Gold.Chemscore.Rot>
1.0000

> <Gold.Chemscore.Internal.Correction>
   9.000000E+99

> <Gold.Chemscore.Hbonds>
donor molecule, donor type, donor heavy atom, donor atom, acceptor molecule, acceptor atom, score
      L1  H     8    28       P1  7948  0.92
      L1  H    11    29       P1  7948  0.94

> <Gold.Chemscore.Hbond.Weighted>
-6.5501

> <Gold.Chemscore.Metal.Weighted>
-0.0000

> <Gold.Chemscore.Lipo.Weighted>
-9.4558

> <Gold.Chemscore.Internal_Hbond.Weighted>
0.0000

> <Gold.Chemscore.DEClash.Weighted>
0.0461

> <Gold.Chemscore.DEInternal.Weighted>
1.3122

> <Gold.Chemscore.Rot.Weighted>
2.5600

> <Gold.Chemscore.Internal.Correction.Weighted>
   9.000000E+99

> <Gold.Protein.RotatedTorsions>
[ 6907 6896 6895 6894 ] final  -56.95 input  -60.11 | X-H torsion
[ 7974 7965 7964 7962 ] final -142.31 input  175.53 | X-H torsion
[ 8008 7997 7996 7995 ] final  117.45 input   59.86 | X-H torsion
[ 10167 10162 10161 10158 ] final  169.65 input  -65.29 | X-H torsion
[ 10718 10713 10712 10709 ] final  160.38 input   66.30 | X-H torsion
[ 10763 10752 10751 10750 ] final -149.67 input  -60.55 | X-H torsion
[ 11005 11000 10999 10996 ] final   43.79 input  -57.11 | X-H torsion

> <Gold.Protein.ActiveResidues>
 VAL166  LYS551  ARG553  GLY616  TRP617  ASP618  TYR619  PRO620  LYS621  CYS622 
 ASP623  PHE694  ASN695  SER759  ASP760  ASP761  ALA762  ILE779  LEU786  VAL792 
 PHE793  MET794  SER795  GLU796  ALA797  LYS798  CYS799  TRP800  GLU811  SER814 

> <Gold.Protein.RotatedAtoms>
  150.8125  134.7288  159.6700 H   0  0  0  0  0  0  0  0  0  0  0  0  # atno 6907 bound_to 6896
  152.4245  134.5891  159.9979 H   0  0  0  0  0  0  0  0  0  0  0  0  # atno 6908 bound_to 6896
  151.6097  133.3311  159.3101 H   0  0  0  0  0  0  0  0  0  0  0  0  # atno 6909 bound_to 6896
  144.8453  140.5974  143.5425 H   0  0  0  0  0  0  0  0  0  0  0  0  # atno 7974 bound_to 7965
  156.2495  140.2896  156.0680 H   0  0  0  0  0  0  0  0  0  0  0  0  # atno 8008 bound_to 7997
  155.1702  140.0401  157.2878 H   0  0  0  0  0  0  0  0  0  0  0  0  # atno 8009 bound_to 7997
  154.6331  140.2504  155.7417 H   0  0  0  0  0  0  0  0  0  0  0  0  # atno 8010 bound_to 7997
  139.4998  144.3683  151.9752 H   0  0  0  0  0  0  0  0  0  0  0  0  # atno 10167 bound_to 10162
  157.1511  131.0564  151.2279 H   0  0  0  0  0  0  0  0  0  0  0  0  # atno 10718 bound_to 10713
  154.8163  135.3303  154.7165 H   0  0  0  0  0  0  0  0  0  0  0  0  # atno 10763 bound_to 10752
  153.7805  135.6919  153.4894 H   0  0  0  0  0  0  0  0  0  0  0  0  # atno 10764 bound_to 10752
  153.1983  135.4525  155.0183 H   0  0  0  0  0  0  0  0  0  0  0  0  # atno 10765 bound_to 10752
  140.1612  134.4339  155.8316 H   0  0  0  0  0  0  0  0  0  0  0  0  # atno 11005 bound_to 11000
  145.4610  139.1513  143.3866 LP  0  0  0  0  0  0  0  0  0  0  0  0  # atno 17320 bound_to 7965
  146.2739  140.4740  142.8803 LP  0  0  0  0  0  0  0  0  0  0  0  0  # atno 17321 bound_to 7965
  140.3119  144.3528  150.6032 LP  0  0  0  0  0  0  0  0  0  0  0  0  # atno 17342 bound_to 10162
  140.5792  143.2174  151.7459 LP  0  0  0  0  0  0  0  0  0  0  0  0  # atno 17343 bound_to 10162
  157.4219  130.7442  149.6920 LP  0  0  0  0  0  0  0  0  0  0  0  0  # atno 17370 bound_to 10713
  155.9770  130.4068  150.3739 LP  0  0  0  0  0  0  0  0  0  0  0  0  # atno 17371 bound_to 10713
  141.2209  133.6914  156.7597 LP  0  0  0  0  0  0  0  0  0  0  0  0  # atno 17394 bound_to 11000
  140.2488  134.8557  157.3646 LP  0  0  0  0  0  0  0  0  0  0  0  0  # atno 17395 bound_to 11000

$$$$
