AV-unprocessed.smi:1131|AV-procd|sdf|4852|dock5
  -GOLD-   22720 3423D 1   1.00000     0.00000
 Structure written by MMmdl.
 32 33  0  0  0  0  0  0  0  0  2 V2000
  152.5001  139.4719  157.4940 O   0  0  0  0  0  0  0  0  0  0  0  0
  151.6942  140.2972  157.0623 C   0  0  0  0  0  0  0  0  0  0  0  0
  151.0360  140.0980  155.6917 C   0  0  0  0  0  0  0  0  0  0  0  0
  150.6911  138.6907  155.4365 N   0  0  0  0  0  0  0  0  0  0  0  0
  149.3287  138.3511  155.3633 C   0  0  0  0  0  0  0  0  0  0  0  0
  148.9232  137.0874  155.1354 C   0  0  0  0  0  0  0  0  0  0  0  0
  149.9394  136.0566  154.9626 C   0  0  0  0  0  0  0  0  0  0  0  0
  149.5875  134.8980  154.7499 O   0  0  0  0  0  0  0  0  0  0  0  0
  151.2483  136.4354  155.0466 N   0  5  0  0  0  0  0  0  0  0  0  0
  151.6461  137.7243  155.2805 C   0  0  0  0  0  0  0  0  0  0  0  0
  152.8334  138.0443  155.3541 O   0  0  0  0  0  0  0  0  0  0  0  0
  151.3256  141.3928  157.7420 N   0  0  0  0  0  0  0  0  0  0  0  0
  151.8617  141.8002  159.0355 C   0  0  0  0  0  0  0  0  0  0  0  0
  152.0726  143.3249  159.1171 C   0  0  2  0  0  0  0  0  0  0  0  0
  151.6717  143.9317  160.4457 C   0  0  0  0  0  0  0  0  0  0  0  0
  151.5293  145.4029  160.0764 C   0  0  0  0  0  0  0  0  0  0  0  0
  150.9801  145.3997  158.7641 O   0  0  0  0  0  0  0  0  0  0  0  0
  151.2350  144.1471  158.1314 C   0  0  0  0  0  0  0  0  0  0  0  0
  150.1465  140.7274  155.6480 H   0  0  0  0  0  0  0  0  0  0  0  0
  151.6901  140.4697  154.9004 H   0  0  0  0  0  0  0  0  0  0  0  0
  148.6411  139.1713  155.5084 H   0  0  0  0  0  0  0  0  0  0  0  0
  147.8725  136.8424  155.0845 H   0  0  0  0  0  0  0  0  0  0  0  0
  150.6544  142.0115  157.3104 H   0  0  0  0  0  0  0  0  0  0  0  0
  151.1603  141.4770  159.8051 H   0  0  0  0  0  0  0  0  0  0  0  0
  152.7985  141.2762  159.2313 H   0  0  0  0  0  0  0  0  0  0  0  0
  153.1258  143.5561  158.9474 H   0  0  0  0  0  0  0  0  0  0  0  0
  150.7107  143.5344  160.7762 H   0  0  0  0  0  0  0  0  0  0  0  0
  152.4048  143.7603  161.2346 H   0  0  0  0  0  0  0  0  0  0  0  0
  150.8986  145.9540  160.7742 H   0  0  0  0  0  0  0  0  0  0  0  0
  152.5076  145.8843  160.0469 H   0  0  0  0  0  0  0  0  0  0  0  0
  151.7473  144.2842  157.1783 H   0  0  0  0  0  0  0  0  0  0  0  0
  150.2775  143.6650  157.9310 H   0  0  0  0  0  0  0  0  0  0  0  0
  1  2  2  0  0  0  0
  2  3  1  0  0  0  0
  2 12  1  0  0  0  0
  3  4  1  0  0  0  0
  3 19  1  0  0  0  0
  3 20  1  0  0  0  0
  4 10  1  0  0  0  0
  4  5  1  0  0  0  0
  5  6  2  0  0  0  0
  5 21  1  0  0  0  0
  6  7  1  0  0  0  0
  6 22  1  0  0  0  0
  7  8  2  0  0  0  0
  7  9  1  0  0  0  0
  9 10  1  0  0  0  0
 10 11  2  0  0  0  0
 12 13  1  0  0  0  0
 12 23  1  0  0  0  0
 13 14  1  0  0  0  0
 13 24  1  0  0  0  0
 13 25  1  0  0  0  0
 14 18  1  0  0  0  0
 14 15  1  0  0  0  0
 14 26  1  0  0  0  0
 15 16  1  0  0  0  0
 15 27  1  0  0  0  0
 15 28  1  0  0  0  0
 16 17  1  0  0  0  0
 16 29  1  0  0  0  0
 16 30  1  0  0  0  0
 17 18  1  0  0  0  0
 18 31  1  0  0  0  0
 18 32  1  0  0  0  0
M  CHG  1   9  -1
M  END
> <s_m_source_file>
AV-unprocessed.smi

> <i_m_source_file_index>
1131

> <i_lp_mmshare_version>
43012

> <i_f3d_flags>
0

> <s_epik_input>
W0NIMl0xT1tDSDJdW0NIMl1bQ0BIXTFbQ0gyXVtOSF1DKD1PKVtDSDJdbjJbY0hdW2NIXWMoPU8pW25IXWMyPU8=

> <s_epik_cmdline>
J2VwaWtfcHl0aG9uJywgJy1waCcsICc3LjAnLCAnLXRuJywgJzgnLCAnLW1hJywgJzIwMCcsICctbWV0YWxfYmluZGluZycsICctaW1hZScsICc8aW5maWxlLm1hZT4nLCAnLW9tYWUnLCAnPG91dGZpbGUubWFlPic=

> <r_lp_tautomer_probability>
0.999537

> <r_epik_Ionization_Penalty>
3.07866

> <r_epik_Ionization_Penalty_Charging>
2.6898e-08

> <r_epik_Ionization_Penalty_Neutral>
3.07866

> <r_epik_State_Penalty>
3.07769

> <r_epik_Charging_Adjusted_Penalty>
3.07769

> <i_epik_Tot_Q>
-1

> <i_epik_Tot_abs_Q>
1

> <r_epik_Metal_State_Penalty>
0.459839

> <b_epik_Metal_Only>
1

> <s_lp_Force_Field>
OPLS_2005

> <r_lp_Energy>
26.4243

> <b_lp_Chiralities_Consistent>
1

> <s_lp_Variant>
AV-unprocessed.smi:1131-3

> <Gold.Version>
5.8.1

> <Gold.Id.Protein>
6NUR|6NUR_protein|mol2

> <Gold.PLP.Fitness>
41.1610

> <Gold.PLP.PLP>
-34.2236

> <Gold.PLP.part.hbond>
-3.3578

> <Gold.PLP.part.metal>
0.0000

> <Gold.PLP.part.buried>
-4.9382

> <Gold.PLP.part.nonpolar>
-27.3149

> <Gold.PLP.part.repulsive>
0.5395

> <Gold.PLP.ligand.clash>
0.0000

> <Gold.PLP.ligand.torsion>
1.0343

> <Gold.PLP.Chemscore.Hbond>
3.0000

> <Gold.PLP.Chemscore.CHOScore>
0.0000

> <Gold.PLP.Chemscore.Metal>
0.0000

> <Gold.Chemscore.Hbonds>
donor molecule, donor type, donor heavy atom, donor atom, acceptor molecule, acceptor atom, score
      P1  H  7997  8009       L1     1  0.55
      P1  H 10752 10764       L1     9  2.00

> <Gold.PLP.Chemscore.Internal.Correction>
0.0059

> <Gold.Rescore>
     Score         DG    S(hbond)    S(metal)    S(lipo)     H(rot)  DE(clash)    DE(int)     intcor
     10.80     -14.30       1.85        0.00      67.20       2.05       0.00       3.50       ----

> <Gold.Chemscore.Fitness>
10.7971

> <Gold.Chemscore.DG>
-14.2967

> <Gold.Chemscore.ZeroCoef>
-5.4800

> <Gold.Chemscore.Hbond>
1.8542

> <Gold.Chemscore.Metal>
0.0000

> <Gold.Chemscore.Lipo>
67.1986

> <Gold.Chemscore.Internal_Hbond>
0.0000

> <Gold.Chemscore.DEClash>
0.0009

> <Gold.Chemscore.DEInternal>
3.4987

> <Gold.Chemscore.Rot>
2.0463

> <Gold.Chemscore.Internal.Correction>
   9.000000E+99

> <Gold.Chemscore.Hbonds>
donor molecule, donor type, donor heavy atom, donor atom, acceptor molecule, acceptor atom, score
      P1  H  7997  8009       L1     1  0.16
      P1  H 10752 10764       L1     9  0.34

> <Gold.Chemscore.Hbond.Weighted>
-6.1931

> <Gold.Chemscore.Metal.Weighted>
-0.0000

> <Gold.Chemscore.Lipo.Weighted>
-7.8622

> <Gold.Chemscore.Internal_Hbond.Weighted>
0.0000

> <Gold.Chemscore.DEClash.Weighted>
0.0009

> <Gold.Chemscore.DEInternal.Weighted>
3.4987

> <Gold.Chemscore.Rot.Weighted>
5.2386

> <Gold.Chemscore.Internal.Correction.Weighted>
   9.000000E+99

> <Gold.Protein.RotatedTorsions>
[ 6907 6896 6895 6894 ] final  165.70 input  -60.11 | X-H torsion
[ 7974 7965 7964 7962 ] final  -68.54 input  175.53 | X-H torsion
[ 8008 7997 7996 7995 ] final -167.38 input   59.86 | X-H torsion
[ 10167 10162 10161 10158 ] final   67.07 input  -65.29 | X-H torsion
[ 10718 10713 10712 10709 ] final   95.41 input   66.30 | X-H torsion
[ 10763 10752 10751 10750 ] final  -59.25 input  -60.55 | X-H torsion
[ 11005 11000 10999 10996 ] final   -6.40 input  -57.11 | X-H torsion

> <Gold.Protein.ActiveResidues>
 VAL166  LYS551  ARG553  GLY616  TRP617  ASP618  TYR619  PRO620  LYS621  CYS622 
 ASP623  PHE694  ASN695  SER759  ASP760  ASP761  ALA762  ILE779  LEU786  VAL792 
 PHE793  MET794  SER795  GLU796  ALA797  LYS798  CYS799  TRP800  GLU811  SER814 

> <Gold.Protein.RotatedAtoms>
  151.8904  133.3515  159.3796 H   0  0  0  0  0  0  0  0  0  0  0  0  # atno 6907 bound_to 6896
  150.7105  134.4930  159.5534 H   0  0  0  0  0  0  0  0  0  0  0  0  # atno 6908 bound_to 6896
  152.2499  134.8144  160.0498 H   0  0  0  0  0  0  0  0  0  0  0  0  # atno 6909 bound_to 6896
  145.7153  140.9061  143.0659 H   0  0  0  0  0  0  0  0  0  0  0  0  # atno 7974 bound_to 7965
  155.8769  140.1002  157.1512 H   0  0  0  0  0  0  0  0  0  0  0  0  # atno 8008 bound_to 7997
  154.4001  140.1336  156.4211 H   0  0  0  0  0  0  0  0  0  0  0  0  # atno 8009 bound_to 7997
  155.7687  140.3461  155.5238 H   0  0  0  0  0  0  0  0  0  0  0  0  # atno 8010 bound_to 7997
  140.0936  144.4966  150.7083 H   0  0  0  0  0  0  0  0  0  0  0  0  # atno 10167 bound_to 10162
  157.6939  131.0545  150.4335 H   0  0  0  0  0  0  0  0  0  0  0  0  # atno 10718 bound_to 10713
  154.2508  135.6326  153.5239 H   0  0  0  0  0  0  0  0  0  0  0  0  # atno 10763 bound_to 10752
  152.9913  135.5564  154.5809 H   0  0  0  0  0  0  0  0  0  0  0  0  # atno 10764 bound_to 10752
  154.5336  135.2890  155.1133 H   0  0  0  0  0  0  0  0  0  0  0  0  # atno 10765 bound_to 10752
  140.7016  133.8985  155.8687 H   0  0  0  0  0  0  0  0  0  0  0  0  # atno 11005 bound_to 11000
  144.6931  139.9129  143.7464 LP  0  0  0  0  0  0  0  0  0  0  0  0  # atno 17320 bound_to 7965
  146.0676  139.3666  143.0543 LP  0  0  0  0  0  0  0  0  0  0  0  0  # atno 17321 bound_to 7965
  140.7015  143.2438  151.4849 LP  0  0  0  0  0  0  0  0  0  0  0  0  # atno 17342 bound_to 10162
  139.5711  144.1927  152.1837 LP  0  0  0  0  0  0  0  0  0  0  0  0  # atno 17343 bound_to 10162
  156.4700  130.4050  149.6524 LP  0  0  0  0  0  0  0  0  0  0  0  0  # atno 17370 bound_to 10713
  156.3608  130.7480  151.2452 LP  0  0  0  0  0  0  0  0  0  0  0  0  # atno 17371 bound_to 10713
  141.0159  134.0956  157.4172 LP  0  0  0  0  0  0  0  0  0  0  0  0  # atno 17394 bound_to 11000
  139.8895  135.0106  156.6684 LP  0  0  0  0  0  0  0  0  0  0  0  0  # atno 17395 bound_to 11000

$$$$
